data_PCOD9218112
_publ_section_title
;
Structure prediction by ZEFSAII (Michael W. Deem and Ramdas Pophale) SiO2 
 PCOD9218112
Probable space group: C 2/M
;
_chemical_formula_sum "Si O2"
_cell_formula_units_Z 52
_cell_length_a 12.512498
_cell_length_b 23.143064
_cell_length_c 12.754362
_cell_angle_alpha 90.000000
_cell_angle_beta 136.758915
_cell_angle_gamma 90.000000
_cell_volume 2530.220352
_symmetry_space_group_name_H-M "C 2/M"
_symmetry_group_IT_number 12
_symmetry_cell_setting 'monoclinic'
loop_
_space_group_symop_operation_xyz
x,y,z
-x,y,-z
-x,-y,-z
x,-y,z
1/2+x,1/2+y,z
1/2-x,1/2+y,-z
1/2-x,1/2-y,-z
1/2+x,1/2-y,z
loop_
_atom_site_type_symbol
_atom_site_label
_atom_site_fract_x
_atom_site_fract_y
_atom_site_fract_z
Si Si1 0.050088 0.326266 0.140912
Si Si2 0.206079 0.811048 0.412302
Si Si3 0.302282 0.000000 0.769281
Si Si4 0.103737 0.209998 0.931832
Si Si5 0.340272 0.884022 0.169051
Si Si6 0.174276 0.880990 0.590467
Si Si7 0.666112 0.000000 0.966728
Si Si8 0.500000 0.857457 0.500000
O O1 0.232435 0.332962 0.277950
O O2 0.004892 0.260351 0.101137
O O3 0.965672 0.353445 0.180795
O O4 0.000000 0.358971 0.000000
O O5 0.250000 0.750000 0.500000
O O6 0.208017 0.863573 0.496142
O O7 0.349352 0.821922 0.434679
O O8 0.025982 0.813155 0.242925
O O9 0.236411 0.942938 0.668119
O O10 0.484693 0.000000 0.870959
O O11 0.259263 0.000000 0.862877
O O12 0.250000 0.250000 0.000000
O O13 0.187952 0.158565 0.056603
O O14 0.301185 0.943844 0.081789
O O15 0.423064 0.889247 0.342321
O O16 0.000000 0.877147 0.500000
#
# Coordination Sequence:
#
# PCOD9218112 Si02
#       8
#     8   8   4   8   8   8   4   4
#     4  11  22  42  68 104 138 189 234 298 369 431
#     4  12  25  45  70 106 145 200 239 301 363 440
#     4  11  23  44  70 107 143 190 233 314 365 438
#     4  10  24  42  65  99 143 181 238 296 368 432
#     4  11  24  45  68 105 138 189 243 302 361 443
#     4  12  26  42  68 111 149 185 243 301 374 423
#     4  11  22  43  78 100 138 184 254 295 373 439
#     4  12  26  47  70  96 150 185 256 294 360 454
#
# _framework density 20.551570000000002
#
# number of rings (size 3 to 8) (size 9 to 14) (size 15 to 20)
#    0.000    0.769    4.615    2.077    9.692    0.308 
#    0.000    0.769    0.000    0.923    0.000    0.000 
#    0.000    0.000    0.000    0.000    0.000    0.000 
#
# Total GULP energy -144788.130553 kJ/mol
# GULP energy per Si atom -5568.774252 kJ/mol
# Density = 2.050479 g / cm^3
# Si number density = 20.551570 Si / 1000 Ang^3
#
#
#
# Elastic Constant Matrix: (Units=GPa)
#
#
# Indices 1 2 3 4 5 6 
#
# 1 62.0057 42.6471 43.5252 0.0000 -2.9562 0.0000
# 2 42.6471 140.3301 57.9774 0.0000 -6.5185 0.0000
# 3 43.5252 57.9774 155.3076 0.0000 0.2933 0.0000
# 4 0.0000 0.0000 0.0000 38.3798 0.0000 1.8321
# 5 -2.9562 -6.5185 0.2933 0.0000 49.0282 0.0000
# 6 0.0000 0.0000 0.0000 1.8321 0.0000 41.0119
#
#
#
# Elastic Compliance Matrix: (Units=1/GPa)
#
#
# Indices 1 2 3 4 5 6 
#
# 1 0.022786 -0.005027 -0.004511 0.000000 0.000733 0.000000
# 2 -0.005027 0.009599 -0.002176 0.000000 0.000986 0.000000
# 3 -0.004511 -0.002176 0.008516 0.000000 -0.000612 0.000000
# 4 0.000000 0.000000 0.000000 0.026111 0.000000 -0.001166
# 5 0.000733 0.000986 -0.000612 0.000000 0.020575 0.000000
# 6 0.000000 0.000000 0.000000 -0.001166 0.000000 0.024435
#
#
# Mechanical properties :
#
#
# Convention : Reuss Voigt Hill
#
# Bulk Modulus (GPa) = 57.22976 71.77139 64.50058
# Shear Modulus (GPa) = 35.39164 39.91690 37.65427
#
# Velocity S-wave (km/s) = 4.15431 4.41191 4.28505
# Velocity P-wave (km/s) = 7.13571 7.80716 7.47897
#
# Compressibility (1/GPa) = 0.01747343
#
# Stress axis : x y z
#
# Youngs Moduli (GPa) = 43.88571 104.17953 117.41921
#
# Poissons Ratio (x) = 0.52375 0.52963
# Poissons Ratio (y) = 0.22063 0.25553
# Poissons Ratio (z) = 0.19795 0.22672
#
# Static dielectric constant tensor:
#      x y z
#    x 1.770040 0.000000 0.018650 
#    y 0.000000 1.741070 0.000000 
#    z 0.018650 0.000000 1.934200 
# 
# From -- ./inp_files/136048.got.cif
#   From: 2010.05.17/outbox.cif.g08.bks.cpg/sg12_69_cif.got.tgz:136048.got - 2010.06.03 13:09:07.
