data_PCOD9218188
_publ_section_title
;
Structure prediction by ZEFSAII (Michael W. Deem and Ramdas Pophale) SiO2 
 PCOD9218188
Probable space group: C 2/M
;
_chemical_formula_sum "Si O2"
_cell_formula_units_Z 40
_cell_length_a 8.443759
_cell_length_b 22.746247
_cell_length_c 18.921351
_cell_angle_alpha 90.000000
_cell_angle_beta 147.679335
_cell_angle_gamma 90.000000
_cell_volume 1943.001444
_symmetry_space_group_name_H-M "C 2/M"
_symmetry_group_IT_number 12
_symmetry_cell_setting 'monoclinic'
loop_
_space_group_symop_operation_xyz
x,y,z
-x,y,-z
-x,-y,-z
x,-y,z
1/2+x,1/2+y,z
1/2-x,1/2+y,-z
1/2-x,1/2-y,-z
1/2+x,1/2-y,z
loop_
_atom_site_type_symbol
_atom_site_label
_atom_site_fract_x
_atom_site_fract_y
_atom_site_fract_z
Si Si1 0.119113 0.875929 0.964605
Si Si2 0.171793 0.000000 0.908018
Si Si3 0.578305 0.200596 0.717799
Si Si4 0.444580 0.000000 0.395607
Si Si5 0.284518 0.171888 0.757475
Si Si6 0.310777 0.121476 0.500278
O O1 0.128613 0.940828 0.936600
O O2 0.892302 0.833996 0.837084
O O3 0.448463 0.849484 0.092517
O O4 0.000000 0.878458 0.000000
O O5 0.500000 0.000000 0.000000
O O6 0.903262 0.000000 0.750859
O O7 0.420473 0.187460 0.732398
O O8 0.635060 0.269451 0.731196
O O9 0.384829 0.174311 0.581290
O O10 0.500000 0.000000 0.500000
O O11 0.592531 0.060578 0.425912
O O12 0.031350 0.123479 0.650523
O O13 0.500000 0.128251 0.500000
#
# Coordination Sequence:
#
# PCOD9218188 Si02
#       6
#     8   4   8   4   8   8
#     4  10  24  43  65  93 131 166 208 260 316 377
#     4  12  25  41  71  96 126 166 214 260 317 377
#     4  11  22  43  63  94 129 166 212 259 316 372
#     4  10  24  43  64  93 129 161 208 265 313 364
#     4  11  24  39  66  94 126 168 211 258 315 379
#     4  11  23  41  65  90 129 166 209 262 313 374
#
# _framework density 20.586707000000001
#
# number of rings (size 3 to 8) (size 9 to 14) (size 15 to 20)
#    0.000    1.200    2.000    3.300    5.600    1.600 
#    0.000    3.000    0.000    0.000    0.000    0.000 
#    0.000    0.000    0.000    0.000    0.000    0.000 
#
# Total GULP energy -111873.321479 kJ/mol
# GULP energy per Si atom -5593.666074 kJ/mol
# Density = 2.053985 g / cm^3
# Si number density = 20.586707 Si / 1000 Ang^3
#
#
#
# Elastic Constant Matrix: (Units=GPa)
#
#
# Indices 1 2 3 4 5 6 
#
# 1 29.9760 -2.1869 5.0049 -0.0004 7.8045 -0.0001
# 2 -2.1869 76.9114 11.0329 -0.0005 8.1581 0.0005
# 3 5.0049 11.0329 92.4800 -0.0024 24.6786 -0.0003
# 4 -0.0004 -0.0005 -0.0024 33.2750 -0.0009 -1.4399
# 5 7.8045 8.1581 24.6786 -0.0009 33.3382 -0.0005
# 6 -0.0001 0.0005 -0.0003 -1.4399 -0.0005 0.9544
#
#
#
# Elastic Compliance Matrix: (Units=1/GPa)
#
#
# Indices 1 2 3 4 5 6 
#
# 1 0.035815 0.001942 0.000242 0.000000 -0.009039 0.000000
# 2 0.001942 0.013514 -0.000889 0.000000 -0.003103 -0.000009
# 3 0.000242 -0.000889 0.013537 0.000001 -0.009860 0.000001
# 4 0.000000 0.000000 0.000001 0.032152 0.000001 0.048511
# 5 -0.009039 -0.003103 -0.009860 0.000001 0.040170 0.000018
# 6 0.000000 -0.000009 0.000001 0.048511 0.000018 1.121027
#
#
# Mechanical properties :
#
#
# Convention : Reuss Voigt Hill
#
# Bulk Modulus (GPa) = 15.27735 25.22992 20.25363
# Shear Modulus (GPa) = 3.92021 25.88128 14.90074
#
# Velocity S-wave (km/s) = 1.38144 3.54953 2.69328
# Velocity P-wave (km/s) = 3.15937 5.39267 4.41942
#
# Compressibility (1/GPa) = 0.06545638
#
# Stress axis : x y z
#
# Youngs Moduli (GPa) = 27.92156 73.99771 73.86979
#
# Poissons Ratio (x) = -0.14373 -0.01788
# Poissons Ratio (y) = -0.05423 0.06568
# Poissons Ratio (z) = -0.00676 0.06580
#
# Static dielectric constant tensor:
#      x y z
#    x 1.704900 0.000000 0.013400 
#    y 0.000000 1.737060 0.000000 
#    z 0.013400 0.000000 1.723090 
# 
# From -- ./inp_files/79270.got.cif
#   From: 2010.05.17/outbox.cif.g08.bks.cpg/sg12_40_cif.got.tgz:79270.got - 2010.06.03 13:09:07.
