data_PCOD9218455
_publ_section_title
;
Structure prediction by ZEFSAII (Michael W. Deem and Ramdas Pophale) SiO2 
 PCOD9218455
Probable space group: C 2/M
;
_chemical_formula_sum "Si O2"
_cell_formula_units_Z 36
_cell_length_a 14.994983
_cell_length_b 7.604902
_cell_length_c 12.448769
_cell_angle_alpha 90.000000
_cell_angle_beta 94.448914
_cell_angle_gamma 90.000000
_cell_volume 1415.322649
_symmetry_space_group_name_H-M "C 2/M"
_symmetry_group_IT_number 12
_symmetry_cell_setting 'monoclinic'
loop_
_space_group_symop_operation_xyz
x,y,z
-x,y,-z
-x,-y,-z
x,-y,z
1/2+x,1/2+y,z
1/2-x,1/2+y,-z
1/2-x,1/2-y,-z
1/2+x,1/2-y,z
loop_
_atom_site_type_symbol
_atom_site_label
_atom_site_fract_x
_atom_site_fract_y
_atom_site_fract_z
Si Si1 0.065213 0.288094 0.103127
Si Si2 0.305954 0.205260 0.228504
Si Si3 0.750000 0.750000 0.000000
Si Si4 0.994205 0.800504 0.327866
Si Si5 0.320348 0.711494 0.599243
O O1 0.058771 0.500000 0.117027
O O2 0.164232 0.245320 0.072128
O O3 0.036136 0.201947 0.211572
O O4 0.000000 0.239827 0.000000
O O5 0.313682 0.290104 0.112462
O O6 0.398121 0.212715 0.304341
O O7 0.228315 0.278248 0.297556
O O8 0.289453 0.000000 0.199987
O O9 0.077575 0.724448 0.403979
O O10 0.976159 0.000000 0.361727
O O11 0.326950 0.500000 0.609865
O O12 0.250000 0.750000 0.500000
#
# Coordination Sequence:
#
# PCOD9218455 Si02
#       5
#     8   8   4   8   8
#     4  11  23  40  62  92 130 173 214 257 314 384
#     4  11  24  44  66  95 134 172 214 261 319 385
#     4  12  22  38  66  96 130 166 216 258 310 374
#     4  11  24  42  64  95 131 166 212 267 320 377
#     4  10  24  46  68  92 126 167 214 270 323 379
#
# _framework density 25.435896
#
# number of rings (size 3 to 8) (size 9 to 14) (size 15 to 20)
#    0.000    1.111    4.444    1.333    0.000    6.667 
#    0.000    4.444    0.000    0.000    0.000    0.000 
#    0.000    0.000    0.000    0.000    0.000    0.000 
#
# Total GULP energy -100211.949615 kJ/mol
# GULP energy per Si atom -5567.330534 kJ/mol
# Density = 2.537800 g / cm^3
# Si number density = 25.435896 Si / 1000 Ang^3
#
#
#
# Elastic Constant Matrix: (Units=GPa)
#
#
# Indices 1 2 3 4 5 6 
#
# 1 121.1729 -7.0406 2.6612 0.0000 28.9387 0.0000
# 2 -7.0406 68.6901 1.4328 0.0000 5.6652 0.0000
# 3 2.6612 1.4328 120.8808 0.0000 27.3123 0.0000
# 4 0.0000 0.0000 0.0000 -38.0716 0.0000 -10.7997
# 5 28.9387 5.6652 27.3123 0.0000 57.4255 0.0000
# 6 0.0000 0.0000 0.0000 -10.7997 0.0000 9.0940
#
#
#
# Elastic Compliance Matrix: (Units=1/GPa)
#
#
# Indices 1 2 3 4 5 6 
#
# 1 0.009618 0.001416 0.001006 0.000000 -0.005465 0.000000
# 2 0.001416 0.014889 0.000320 0.000000 -0.002334 0.000000
# 3 0.001006 0.000320 0.009376 0.000000 -0.004998 0.000000
# 4 0.000000 0.000000 0.000000 -0.019648 0.000000 -0.023333
# 5 -0.005465 -0.002334 -0.004998 0.000000 0.022775 0.000000
# 6 0.000000 0.000000 0.000000 -0.023333 0.000000 0.082254
#
#
# Mechanical properties :
#
#
# Convention : Reuss Voigt Hill
#
# Bulk Modulus (GPa) = 25.40246 33.87230 29.63738
# Shear Modulus (GPa) = 39.39999 26.60225 33.00112
#
# Velocity S-wave (km/s) = 3.93999 3.23748 3.60588
# Velocity P-wave (km/s) = 5.54135 5.22691 5.38643
#
# Compressibility (1/GPa) = 0.03936627
#
# Stress axis : x y z
#
# Youngs Moduli (GPa) = 103.97164 67.16334 106.65604
#
# Poissons Ratio (x) = -0.09507 -0.10733
# Poissons Ratio (y) = -0.14718 -0.03411
# Poissons Ratio (z) = -0.10463 -0.02148
#
# Static dielectric constant tensor:
#      x y z
#    x 1.992810 0.000000 0.076470 
#    y 0.000000 2.010920 0.000000 
#    z 0.076470 0.000000 2.052590 
# 
# From -- ./inp_files/210972.got.cif
#   From: 2010.05.17/outbox.cif.g08.bks.cpg/sg12_106_cif.got.tgz:210972.got - 2010.06.03 13:09:07.
