data_PCOD9218490
_publ_section_title
;
Structure prediction by ZEFSAII (Michael W. Deem and Ramdas Pophale) SiO2 
 PCOD9218490
Probable space group: C 2/M
;
_chemical_formula_sum "Si O2"
_cell_formula_units_Z 36
_cell_length_a 14.093726
_cell_length_b 25.246855
_cell_length_c 9.430325
_cell_angle_alpha 90.000000
_cell_angle_beta 29.120018
_cell_angle_gamma 90.000000
_cell_volume 1632.932132
_symmetry_space_group_name_H-M "C 2/M"
_symmetry_group_IT_number 12
_symmetry_cell_setting 'monoclinic'
loop_
_space_group_symop_operation_xyz
x,y,z
-x,y,-z
-x,-y,-z
x,-y,z
1/2+x,1/2+y,z
1/2-x,1/2+y,-z
1/2-x,1/2-y,-z
1/2+x,1/2-y,z
loop_
_atom_site_type_symbol
_atom_site_label
_atom_site_fract_x
_atom_site_fract_y
_atom_site_fract_z
Si Si1 0.649130 0.818975 0.617053
Si Si2 0.299571 0.500000 0.537908
Si Si3 0.500000 0.272658 0.000000
Si Si4 0.952898 0.884474 0.393669
Si Si5 0.369564 0.887326 0.806729
Si Si6 0.089459 0.500000 0.117663
O O1 0.487216 0.859869 0.778785
O O2 0.779235 0.846034 0.571019
O O3 0.530751 0.767784 0.827145
O O4 0.802802 0.806077 0.288879
O O5 0.409675 0.443838 0.393541
O O6 0.139218 0.500000 0.622953
O O7 0.195675 0.500000 0.827423
O O8 0.000000 0.886423 0.500000
O O9 0.155248 0.864475 0.064158
O O10 0.500000 0.882081 0.500000
O O11 0.352097 0.948400 0.872911
#
# Coordination Sequence:
#
# PCOD9218490 Si02
#       6
#     8   4   4   8   8   4
#     4  11  24  47  66  98 128 170 220 273 331 383
#     4  11  22  40  68 101 134 173 218 262 310 385
#     4  10  24  46  72  88 132 168 214 290 330 370
#     4  12  23  41  70  99 130 174 219 262 318 391
#     4  12  25  42  66  99 139 174 210 263 325 389
#     4  11  22  41  66 100 138 175 210 263 318 382
#
# _framework density 22.046230999999999
#
# number of rings (size 3 to 8) (size 9 to 14) (size 15 to 20)
#    0.000    0.667    4.444    4.000    0.000    0.000 
#    0.000   23.333    0.000    0.000    0.000    0.000 
#    0.000    0.000    0.000    0.000    0.000    0.000 
#
# Total GULP energy -100552.119007 kJ/mol
# GULP energy per Si atom -5586.228834 kJ/mol
# Density = 2.199605 g / cm^3
# Si number density = 22.046231 Si / 1000 Ang^3
#
#
#
# Elastic Constant Matrix: (Units=GPa)
#
#
# Indices 1 2 3 4 5 6 
#
# 1 84.3518 17.0888 10.4837 0.0004 -18.5474 0.0006
# 2 17.0888 79.3822 2.4695 0.0004 -13.2577 0.0003
# 3 10.4837 2.4695 107.7667 -0.0003 -7.9299 -0.0002
# 4 0.0004 0.0004 -0.0003 -20.2788 0.0003 -16.0224
# 5 -18.5474 -13.2577 -7.9299 0.0003 31.3066 0.0001
# 6 0.0006 0.0003 -0.0002 -16.0224 0.0001 -54.9073
#
#
#
# Elastic Compliance Matrix: (Units=1/GPa)
#
#
# Indices 1 2 3 4 5 6 
#
# 1 0.013912 -0.001751 -0.000776 0.000000 0.007304 0.000000
# 2 -0.001751 0.013778 0.000212 0.000000 0.004851 0.000000
# 3 -0.000776 0.000212 0.009500 0.000000 0.002036 0.000000
# 4 0.000000 0.000000 0.000000 -0.064089 0.000001 0.018702
# 5 0.007304 0.004851 0.002036 0.000001 0.038840 0.000000
# 6 0.000000 0.000000 0.000000 0.018702 0.000000 -0.023670
#
#
# Mechanical properties :
#
#
# Convention : Reuss Voigt Hill
#
# Bulk Modulus (GPa) = 30.71295 36.84272 33.77783
# Shear Modulus (GPa) = 1331.82449 7.32136 669.57292
#
# Velocity S-wave (km/s) = 24.60522 1.82431 17.44627
# Velocity P-wave (km/s) = 28.65630 4.60275 20.52278
#
# Compressibility (1/GPa) = 0.03255956
#
# Stress axis : x y z
#
# Youngs Moduli (GPa) = 71.87876 72.58062 105.26577
#
# Poissons Ratio (x) = 0.12708 0.08167
# Poissons Ratio (y) = 0.12585 -0.02227
# Poissons Ratio (z) = 0.05576 -0.01536
#
# Static dielectric constant tensor:
#      x y z
#    x 1.768130 0.000000 0.000810 
#    y 0.000000 1.744330 0.000000 
#    z 0.000810 0.000000 1.849260 
# 
# From -- ./inp_files/67272.got.cif
#   From: 2010.05.17/outbox.cif.g08.bks.cpg/sg12_34_cif.got.tgz:67272.got - 2010.06.03 13:09:07.
