data_PCOD9218724
_publ_section_title
;
Structure prediction by ZEFSAII (Michael W. Deem and Ramdas Pophale) SiO2 
 PCOD9218724
Probable space group: C 2/M
;
_chemical_formula_sum "Si O2"
_cell_formula_units_Z 40
_cell_length_a 17.434265
_cell_length_b 21.170208
_cell_length_c 5.848060
_cell_angle_alpha 90.000000
_cell_angle_beta 125.100943
_cell_angle_gamma 90.000000
_cell_volume 1765.909117
_symmetry_space_group_name_H-M "C 2/M"
_symmetry_group_IT_number 12
_symmetry_cell_setting 'monoclinic'
loop_
_space_group_symop_operation_xyz
x,y,z
-x,y,-z
-x,-y,-z
x,-y,z
1/2+x,1/2+y,z
1/2-x,1/2+y,-z
1/2-x,1/2-y,-z
1/2+x,1/2-y,z
loop_
_atom_site_type_symbol
_atom_site_label
_atom_site_fract_x
_atom_site_fract_y
_atom_site_fract_z
Si Si1 0.783198 0.611790 0.437195
Si Si2 0.581607 0.500000 0.453398
Si Si3 0.588782 0.639630 0.303384
Si Si4 0.266296 0.000000 0.063101
Si Si5 0.000000 0.779146 0.500000
Si Si6 0.975346 0.340233 0.699002
Si Si7 0.890837 0.500000 0.887023
O O1 0.691934 0.645849 0.377480
O O2 0.754966 0.563809 0.187694
O O3 0.862868 0.661150 0.502171
O O4 0.836432 0.561778 0.696633
O O5 0.500000 0.500000 0.500000
O O6 0.575852 0.564648 0.308061
O O7 0.683572 0.500000 0.740450
O O8 0.577782 0.675233 0.526506
O O9 0.500000 0.660739 0.000000
O O10 0.367541 0.000000 0.115197
O O11 0.976290 0.727573 0.263384
O O12 0.000000 0.376219 0.500000
O O13 0.000000 0.360434 0.000000
O O14 0.000000 0.500000 0.000000
#
# Coordination Sequence:
#
# PCOD9218724 Si02
#       7
#     8   4   8   4   4   8   4
#     4  11  25  41  70 102 142 191 236 295 368 433
#     4  12  21  40  69  97 140 185 226 288 367 434
#     4  12  24  44  68 104 142 187 236 302 358 440
#     4  11  24  43  61 113 139 182 238 291 357 452
#     4  10  26  47  72 103 140 184 254 304 354 428
#     4  10  25  49  73 102 143 191 246 302 361 426
#     4  11  24  40  67 100 147 177 242 290 357 438
#
# _framework density 22.651223000000002
#
# number of rings (size 3 to 8) (size 9 to 14) (size 15 to 20)
#    0.600    0.400    3.000    3.300    5.600    1.600 
#    0.000    2.000    0.000    0.000    0.000    0.000 
#    0.000    0.000    0.000    0.000    0.000    0.000 
#
# Total GULP energy -111468.874133 kJ/mol
# GULP energy per Si atom -5573.443707 kJ/mol
# Density = 2.259967 g / cm^3
# Si number density = 22.651223 Si / 1000 Ang^3
#
#
#
# Elastic Constant Matrix: (Units=GPa)
#
#
# Indices 1 2 3 4 5 6 
#
# 1 233.4143 22.3013 54.6235 0.0000 8.7789 0.0000
# 2 22.3013 71.5727 26.7849 0.0000 -2.3920 0.0000
# 3 54.6235 26.7849 89.0541 0.0000 -0.1674 0.0000
# 4 0.0000 0.0000 0.0000 -22.4670 0.0000 23.7861
# 5 8.7789 -2.3920 -0.1674 0.0000 34.6430 0.0000
# 6 0.0000 0.0000 0.0000 23.7861 0.0000 -42.2316
#
#
#
# Elastic Compliance Matrix: (Units=1/GPa)
#
#
# Indices 1 2 3 4 5 6 
#
# 1 0.005077 -0.000519 -0.002961 0.000000 -0.001337 0.000000
# 2 -0.000519 0.015836 -0.004443 0.000000 0.001203 0.000000
# 3 -0.002961 -0.004443 0.014382 0.000000 0.000513 0.000000
# 4 0.000000 0.000000 0.000000 -0.110254 0.000000 -0.062098
# 5 -0.001337 0.001203 0.000513 0.000000 0.029290 0.000000
# 6 0.000000 0.000000 0.000000 -0.062098 0.000000 -0.058655
#
#
# Mechanical properties :
#
#
# Convention : Reuss Voigt Hill
#
# Bulk Modulus (GPa) = 51.40967 66.82895 59.11931
# Shear Modulus (GPa) = -60.97884 13.34430 -23.81727
#
# Velocity S-wave (km/s) = -5.19415 2.42981 -3.24617
# Velocity P-wave (km/s) = 3.63687 6.11878 3.47942
#
# Compressibility (1/GPa) = 0.01945160
#
# Stress axis : x y z
#
# Youngs Moduli (GPa) = 196.97140 63.14632 69.53010
#
# Poissons Ratio (x) = 0.03275 0.20585
# Poissons Ratio (y) = 0.10216 0.30890
# Poissons Ratio (z) = 0.58314 0.28054
#
# Static dielectric constant tensor:
#      x y z
#    x 1.855310 0.000000 -0.064330 
#    y 0.000000 1.671330 0.000000 
#    z -0.064330 0.000000 1.909960 
# 
# From -- ./inp_files/16764.got.cif
#   From: 2010.05.17/outbox.cif.g08.bks.cpg/sg12_9_cif.got.tgz:16764.got - 2010.06.03 13:09:07.
