data_PCOD9218774
_publ_section_title
;
Structure prediction by ZEFSAII (Michael W. Deem and Ramdas Pophale) SiO2 
 PCOD9218774
Probable space group: C 2/M
;
_chemical_formula_sum "Si O2"
_cell_formula_units_Z 60
_cell_length_a 21.399646
_cell_length_b 17.214430
_cell_length_c 9.350450
_cell_angle_alpha 90.000000
_cell_angle_beta 135.187014
_cell_angle_gamma 90.000000
_cell_volume 2427.697506
_symmetry_space_group_name_H-M "C 2/M"
_symmetry_group_IT_number 12
_symmetry_cell_setting 'monoclinic'
loop_
_space_group_symop_operation_xyz
x,y,z
-x,y,-z
-x,-y,-z
x,-y,z
1/2+x,1/2+y,z
1/2-x,1/2+y,-z
1/2-x,1/2-y,-z
1/2+x,1/2-y,z
loop_
_atom_site_type_symbol
_atom_site_label
_atom_site_fract_x
_atom_site_fract_y
_atom_site_fract_z
Si Si1 0.443069 0.913095 0.723574
Si Si2 0.622622 0.836169 0.926911
Si Si3 0.193297 0.411541 0.752853
Si Si4 0.852187 0.000000 0.608632
Si Si5 0.371784 0.371699 0.891567
Si Si6 0.687584 0.351003 0.656148
Si Si7 0.855603 0.257356 0.655356
Si Si8 0.075314 0.165455 0.739777
O O1 0.390684 0.914305 0.488748
O O2 0.393845 0.843157 0.722651
O O3 0.433210 0.000000 0.768919
O O4 0.456183 0.887968 0.137295
O O5 0.658086 0.875606 0.840127
O O6 0.586916 0.752033 0.820168
O O7 0.708217 0.831537 0.167469
O O8 0.225533 0.500000 0.826054
O O9 0.273233 0.367216 0.802045
O O10 0.868580 0.934167 0.761897
O O11 0.829648 0.930667 0.455330
O O12 0.396747 0.293944 0.848081
O O13 0.432486 0.386406 0.129538
O O14 0.632535 0.284192 0.481047
O O15 0.658616 0.354566 0.774618
O O16 0.750000 0.250000 0.500000
O O17 0.000000 0.157237 0.500000
#
# Coordination Sequence:
#
# PCOD9218774 Si02
#       8
#     8   8   8   4   8   8   8   8
#     4  11  25  43  73 119 167 210 261 340 407 495
#     4  12  24  42  73 116 166 209 264 328 412 486
#     4  11  21  38  72 109 154 203 261 325 403 481
#     4  10  26  48  75 117 156 204 278 335 409 491
#     4  11  23  45  78 107 152 212 267 339 408 478
#     4  11  25  44  78 113 157 217 268 336 406 500
#     4  11  22  44  75 105 155 215 270 318 398 491
#     4  12  26  47  76 113 151 208 284 345 403 483
#
# _framework density 24.714777000000002
#
# number of rings (size 3 to 8) (size 9 to 14) (size 15 to 20)
#    0.000    0.800    3.333    4.400    1.867    1.600 
#    0.000   11.333    0.000    4.000    0.000    0.000 
#    0.000    0.000    0.000    0.000    0.000    0.000 
#
# Total GULP energy -167542.666155 kJ/mol
# GULP energy per Si atom -5584.755538 kJ/mol
# Density = 2.465853 g / cm^3
# Si number density = 24.714777 Si / 1000 Ang^3
#
#
#
# Elastic Constant Matrix: (Units=GPa)
#
#
# Indices 1 2 3 4 5 6 
#
# 1 69.5655 37.4881 15.7342 0.0000 10.2471 0.0000
# 2 37.4881 135.8078 29.2582 0.0000 -3.6469 0.0000
# 3 15.7342 29.2582 145.7311 0.0000 -7.6333 0.0000
# 4 0.0000 0.0000 0.0000 25.2357 0.0000 -13.3292
# 5 10.2471 -3.6469 -7.6333 0.0000 46.4663 0.0000
# 6 0.0000 0.0000 0.0000 -13.3292 0.0000 26.3401
#
#
#
# Elastic Compliance Matrix: (Units=1/GPa)
#
#
# Indices 1 2 3 4 5 6 
#
# 1 0.017902 -0.004804 -0.001205 0.000000 -0.004523 0.000000
# 2 -0.004804 0.008991 -0.001204 0.000000 0.001567 0.000000
# 3 -0.001205 -0.001204 0.007306 0.000000 0.001371 0.000000
# 4 0.000000 0.000000 0.000000 0.054082 0.000000 0.027368
# 5 -0.004523 0.001567 0.001371 0.000000 0.022867 0.000000
# 6 0.000000 0.000000 0.000000 0.027368 0.000000 0.051814
#
#
# Mechanical properties :
#
#
# Convention : Reuss Voigt Hill
#
# Bulk Modulus (GPa) = 50.57552 57.34060 53.95806
# Shear Modulus (GPa) = 27.17707 37.51668 32.34687
#
# Velocity S-wave (km/s) = 3.31966 3.90036 3.62167
# Velocity P-wave (km/s) = 5.93310 6.59811 6.27442
#
# Compressibility (1/GPa) = 0.01977241
#
# Stress axis : x y z
#
# Youngs Moduli (GPa) = 55.85854 111.22417 136.87886
#
# Poissons Ratio (x) = 0.53427 0.16499
# Poissons Ratio (y) = 0.26832 0.16485
# Poissons Ratio (z) = 0.06733 0.13396
#
# Static dielectric constant tensor:
#      x y z
#    x 2.100560 0.000000 0.054080 
#    y 0.000000 1.968570 0.000000 
#    z 0.054080 0.000000 1.969430 
# 
# From -- ./inp_files/105806.got.cif
#   From: 2010.05.17/outbox.cif.g08.bks.cpg/sg12_53_cif.got.tgz:105806.got - 2010.06.03 13:09:07.
