data_PCOD9218694
_publ_section_title
;
Structure prediction by ZEFSAII (Michael W. Deem and Ramdas Pophale) SiO2 
 PCOD9218694
Probable space group: C 2/M
;
_chemical_formula_sum "Si O2"
_cell_formula_units_Z 32
_cell_length_a 15.780357
_cell_length_b 18.052091
_cell_length_c 17.055461
_cell_angle_alpha 90.000000
_cell_angle_beta 162.566373
_cell_angle_gamma 90.000000
_cell_volume 1455.629168
_symmetry_space_group_name_H-M "C 2/M"
_symmetry_group_IT_number 12
_symmetry_cell_setting 'monoclinic'
loop_
_space_group_symop_operation_xyz
x,y,z
-x,y,-z
-x,-y,-z
x,-y,z
1/2+x,1/2+y,z
1/2-x,1/2+y,-z
1/2-x,1/2-y,-z
1/2+x,1/2-y,z
loop_
_atom_site_type_symbol
_atom_site_label
_atom_site_fract_x
_atom_site_fract_y
_atom_site_fract_z
Si Si1 0.753533 0.633829 0.914915
Si Si2 0.837813 0.588882 0.580907
Si Si3 0.000000 0.739323 0.000000
Si Si4 0.324145 0.500000 0.266274
Si Si5 0.189074 0.384667 0.735325
O O1 0.439352 0.642728 0.676077
O O2 0.643041 0.572735 0.755528
O O3 0.979361 0.605914 0.178777
O O4 0.918805 0.691917 0.005332
O O5 0.771022 0.500000 0.519442
O O6 0.048585 0.603743 0.694807
O O7 0.257690 0.797067 0.234009
O O8 0.500000 0.500000 0.500000
O O9 0.000000 0.500000 0.000000
O O10 0.000000 0.415403 0.500000
O O11 0.500000 0.416873 0.000000
#
# Coordination Sequence:
#
# PCOD9218694 Si02
#       5
#     8   8   4   4   8
#     4  12  25  40  68 100 136 170 215 270 331 390
#     4  12  25  44  69 101 131 168 222 279 326 384
#     4  10  28  43  67  94 140 174 222 254 332 398
#     4  12  22  38  64  98 132 176 212 260 332 392
#     4  10  25  47  66  97 128 177 225 265 331 383
#
# _framework density 21.983619999999998
#
# number of rings (size 3 to 8) (size 9 to 14) (size 15 to 20)
#    0.750    0.000    3.750    3.000    3.500    3.000 
#    0.000    0.000    0.000    0.000    0.000    0.000 
#    0.000    0.000    0.000    0.000    0.000    0.000 
#
# Total GULP energy -89119.232112 kJ/mol
# GULP energy per Si atom -5569.952007 kJ/mol
# Density = 2.193358 g / cm^3
# Si number density = 21.983620 Si / 1000 Ang^3
#
#
#
# Elastic Constant Matrix: (Units=GPa)
#
#
# Indices 1 2 3 4 5 6 
#
# 1 137.5904 49.3216 44.3747 0.0030 19.2018 -0.0170
# 2 49.3216 97.8841 19.1513 0.0946 -0.2123 0.0384
# 3 44.3747 19.1513 117.3575 -0.0145 -5.6144 0.0656
# 4 0.0030 0.0946 -0.0145 33.0664 0.0825 15.4962
# 5 19.2018 -0.2123 -5.6144 0.0825 47.4360 0.0034
# 6 -0.0170 0.0384 0.0656 15.4962 0.0034 51.9170
#
#
#
# Elastic Compliance Matrix: (Units=1/GPa)
#
#
# Indices 1 2 3 4 5 6 
#
# 1 0.010780 -0.004752 -0.003531 0.000020 -0.004803 0.000006
# 2 -0.004752 0.012649 -0.000174 -0.000041 0.001960 0.000002
# 3 -0.003531 -0.000174 0.010009 0.000006 0.002613 -0.000016
# 4 0.000020 -0.000041 0.000006 0.035161 -0.000068 -0.010495
# 5 -0.004803 0.001960 0.002613 -0.000068 0.023343 0.000012
# 6 0.000006 0.000002 -0.000016 -0.010495 0.000012 0.022394
#
#
# Mechanical properties :
#
#
# Convention : Reuss Voigt Hill
#
# Bulk Modulus (GPa) = 60.50898 64.28080 62.39489
# Shear Modulus (GPa) = 36.56129 42.48282 39.52206
#
# Velocity S-wave (km/s) = 4.08255 4.40076 4.24464
# Velocity P-wave (km/s) = 7.05743 7.42469 7.24339
#
# Compressibility (1/GPa) = 0.01652647
#
# Stress axis : x y z
#
# Youngs Moduli (GPa) = 92.76313 79.05982 99.90722
#
# Poissons Ratio (x) = 0.37566 0.35272
# Poissons Ratio (y) = 0.44077 0.01736
# Poissons Ratio (z) = 0.32750 0.01373
#
# Static dielectric constant tensor:
#      x y z
#    x 1.934380 -0.000040 0.125700 
#    y -0.000040 1.856740 -0.000070 
#    z 0.125700 -0.000070 1.837790 
# 
# From -- ./inp_files/217951.got.cif
#   From: 2010.05.17/outbox.cif.g08.bks.cpg/sg12_109_cif.got.tgz:217951.got - 2010.06.03 13:09:07.
