data_PCOD9218758
_publ_section_title
;
Structure prediction by ZEFSAII (Michael W. Deem and Ramdas Pophale) SiO2 
 PCOD9218758
Probable space group: C 2/M
;
_chemical_formula_sum "Si O2"
_cell_formula_units_Z 40
_cell_length_a 29.830569
_cell_length_b 10.603277
_cell_length_c 11.173708
_cell_angle_alpha 90.000000
_cell_angle_beta 30.691605
_cell_angle_gamma 90.000000
_cell_volume 1803.948066
_symmetry_space_group_name_H-M "C 2/M"
_symmetry_group_IT_number 12
_symmetry_cell_setting 'monoclinic'
loop_
_space_group_symop_operation_xyz
x,y,z
-x,y,-z
-x,-y,-z
x,-y,z
1/2+x,1/2+y,z
1/2-x,1/2+y,-z
1/2-x,1/2-y,-z
1/2+x,1/2-y,z
loop_
_atom_site_type_symbol
_atom_site_label
_atom_site_fract_x
_atom_site_fract_y
_atom_site_fract_z
Si Si1 0.907745 0.249062 0.778066
Si Si2 0.399848 0.500000 0.680119
Si Si3 0.668367 0.000000 0.947937
Si Si4 0.154602 0.228810 0.607903
Si Si5 0.905419 0.500000 0.155676
Si Si6 0.324259 0.643646 0.175759
Si Si7 0.878721 0.000000 0.449915
O O1 0.000000 0.269823 0.500000
O O2 0.860934 0.132861 0.815750
O O3 0.859374 0.380300 0.908242
O O4 0.909340 0.192911 0.909805
O O5 0.500000 0.500000 0.500000
O O6 0.401593 0.500000 0.534965
O O7 0.772069 0.000000 0.681820
O O8 0.615957 0.000000 0.938855
O O9 0.129753 0.367764 0.711503
O O10 0.243463 0.263377 0.332102
O O11 0.169331 0.152908 0.696702
O O12 0.093859 0.133477 0.672460
O O13 0.000000 0.500000 0.000000
O O14 0.307268 0.500000 0.180691
#
# Coordination Sequence:
#
# PCOD9218758 Si02
#       7
#     8   4   4   8   4   8   4
#     4  11  23  41  68  95 140 186 226 286 342 409
#     4  10  26  46  65  93 135 181 239 286 340 413
#     4  12  23  44  69 103 136 175 238 282 347 414
#     4  11  22  41  67 107 140 173 230 288 352 426
#     4  12  26  42  68 108 147 181 220 283 359 436
#     4  11  19  37  74 103 136 181 230 288 352 411
#     4  12  24  44  75 104 133 180 238 299 339 412
#
# _framework density 22.173587000000001
#
# number of rings (size 3 to 8) (size 9 to 14) (size 15 to 20)
#    0.000    0.800    7.000    1.500    0.000    4.000 
#    0.000    1.500    0.000    0.000    0.000    0.000 
#    0.000    0.000    0.000    0.000    0.000    0.000 
#
# Total GULP energy -111451.938390 kJ/mol
# GULP energy per Si atom -5572.596919 kJ/mol
# Density = 2.212312 g / cm^3
# Si number density = 22.173587 Si / 1000 Ang^3
#
#
#
# Elastic Constant Matrix: (Units=GPa)
#
#
# Indices 1 2 3 4 5 6 
#
# 1 66.7840 14.4670 -10.4463 0.0000 17.4294 0.0000
# 2 14.4670 188.6023 24.3740 0.0000 28.4478 0.0000
# 3 -10.4463 24.3740 80.7867 0.0000 11.3103 0.0000
# 4 0.0000 0.0000 0.0000 43.3838 0.0000 18.4164
# 5 17.4294 28.4478 11.3103 0.0000 24.8351 0.0000
# 6 0.0000 0.0000 0.0000 18.4164 0.0000 4.7025
#
#
#
# Elastic Compliance Matrix: (Units=1/GPa)
#
#
# Indices 1 2 3 4 5 6 
#
# 1 0.019986 0.000353 0.004805 0.000000 -0.016618 0.000000
# 2 0.000353 0.006487 -0.000894 0.000000 -0.007272 0.000000
# 3 0.004805 -0.000894 0.014524 0.000000 -0.008963 0.000000
# 4 0.000000 0.000000 0.000000 -0.034795 0.000000 0.136266
# 5 -0.016618 -0.007272 -0.008963 0.000000 0.064340 0.000000
# 6 0.000000 0.000000 0.000000 0.136266 0.000000 -0.321003
#
#
# Mechanical properties :
#
#
# Convention : Reuss Voigt Hill
#
# Bulk Modulus (GPa) = 20.19214 43.66247 31.92730
# Shear Modulus (GPa) = -20.62028 35.10283 7.24128
#
# Velocity S-wave (km/s) = -3.05281 3.98313 1.80909
# Velocity P-wave (km/s) = 1.81661 6.39435 4.33518
#
# Compressibility (1/GPa) = 0.04952423
#
# Stress axis : x y z
#
# Youngs Moduli (GPa) = 50.03544 154.14452 68.85177
#
# Poissons Ratio (x) = -0.05436 -0.33080
# Poissons Ratio (y) = -0.01765 0.06153
# Poissons Ratio (z) = -0.24040 0.13775
#
# Static dielectric constant tensor:
#      x y z
#    x 2.191850 0.000000 -0.196290 
#    y 0.000000 2.117530 0.000000 
#    z -0.196290 0.000000 1.931260 
# 
# From -- ./inp_files/109735.got.cif
#   From: 2010.05.17/outbox.cif.g08.bks.cpg/sg12_55_cif.got.tgz:109735.got - 2010.06.03 13:09:07.
