data_PCOD9218746
_publ_section_title
;
Structure prediction by ZEFSAII (Michael W. Deem and Ramdas Pophale) SiO2 
 PCOD9218746
Probable space group: C 2/M
;
_chemical_formula_sum "Si O2"
_cell_formula_units_Z 44
_cell_length_a 11.226637
_cell_length_b 24.020381
_cell_length_c 12.886591
_cell_angle_alpha 90.000000
_cell_angle_beta 40.737193
_cell_angle_gamma 90.000000
_cell_volume 2267.818528
_symmetry_space_group_name_H-M "C 2/M"
_symmetry_group_IT_number 12
_symmetry_cell_setting 'monoclinic'
loop_
_space_group_symop_operation_xyz
x,y,z
-x,y,-z
-x,-y,-z
x,-y,z
1/2+x,1/2+y,z
1/2-x,1/2+y,-z
1/2-x,1/2-y,-z
1/2+x,1/2-y,z
loop_
_atom_site_type_symbol
_atom_site_label
_atom_site_fract_x
_atom_site_fract_y
_atom_site_fract_z
Si Si1 0.955168 0.624476 0.220195
Si Si2 0.641047 0.390116 0.121816
Si Si3 0.876111 0.819684 0.677334
Si Si4 0.098726 0.686598 0.325722
Si Si5 0.200344 0.500000 0.651292
Si Si6 0.500000 0.360313 0.000000
Si Si7 0.937538 0.000000 0.703287
O O1 0.816540 0.655068 0.233191
O O2 0.903827 0.559614 0.278148
O O3 0.980283 0.659950 0.309879
O O4 0.150032 0.624105 0.036742
O O5 0.563955 0.344224 0.251804
O O6 0.619478 0.446745 0.195759
O O7 0.549307 0.393434 0.070710
O O8 0.892925 0.753540 0.675813
O O9 0.000000 0.839435 0.500000
O O10 0.310851 0.670459 0.159497
O O11 0.000000 0.669086 0.500000
O O12 0.322929 0.500000 0.673623
O O13 0.347396 0.500000 0.461883
#
# Coordination Sequence:
#
# PCOD9218746 Si02
#       7
#     8   8   8   8   4   4   4
#     4  11  24  42  67 101 132 175 223 275 336 396
#     4  11  24  42  66  97 135 174 219 276 331 401
#     4  11  24  39  67 100 131 174 221 280 330 389
#     4  10  26  43  67  98 138 182 224 274 330 405
#     4  11  23  41  67 103 128 167 224 277 339 395
#     4  10  26  43  66  94 138 181 220 270 332 412
#     4  11  23  40  68  97 130 169 217 283 335 391
#
# _framework density 19.401904999999999
#
# number of rings (size 3 to 8) (size 9 to 14) (size 15 to 20)
#    0.000    1.273    1.818    2.182   10.182    4.000 
#    0.000    1.364    0.000    0.000    0.000    0.000 
#    0.000    0.000    0.000    0.000    0.000    0.000 
#
# Total GULP energy -122676.628482 kJ/mol
# GULP energy per Si atom -5576.210386 kJ/mol
# Density = 1.935775 g / cm^3
# Si number density = 19.401905 Si / 1000 Ang^3
#
#
#
# Elastic Constant Matrix: (Units=GPa)
#
#
# Indices 1 2 3 4 5 6 
#
# 1 85.5587 26.1773 22.4044 0.0000 19.3930 0.0000
# 2 26.1773 79.8687 14.3040 0.0000 17.6151 0.0000
# 3 22.4044 14.3040 96.8499 0.0000 30.5908 0.0000
# 4 0.0000 0.0000 0.0000 64.8722 0.0000 23.4494
# 5 19.3930 17.6151 30.5908 0.0000 28.8569 0.0000
# 6 0.0000 0.0000 0.0000 23.4494 0.0000 23.2308
#
#
#
# Elastic Compliance Matrix: (Units=1/GPa)
#
#
# Indices 1 2 3 4 5 6 
#
# 1 0.014402 -0.003027 -0.000618 0.000000 -0.007176 0.000000
# 2 -0.003027 0.015167 0.001116 0.000000 -0.008407 0.000000
# 3 -0.000618 0.001116 0.015616 0.000000 -0.016820 0.000000
# 4 0.000000 0.000000 0.000000 0.024271 0.000000 -0.024499
# 5 -0.007176 -0.008407 -0.016820 0.000000 0.062439 0.000000
# 6 0.000000 0.000000 0.000000 -0.024499 0.000000 0.067776
#
#
# Mechanical properties :
#
#
# Convention : Reuss Voigt Hill
#
# Bulk Modulus (GPa) = 24.92127 43.11652 34.01889
# Shear Modulus (GPa) = 22.92466 36.68474 29.80470
#
# Velocity S-wave (km/s) = 3.44112 4.35303 3.92366
# Velocity P-wave (km/s) = 5.35360 6.89465 6.17241
#
# Compressibility (1/GPa) = 0.04012637
#
# Stress axis : x y z
#
# Youngs Moduli (GPa) = 69.43282 65.93267 64.03579
#
# Poissons Ratio (x) = 0.19958 0.03958
# Poissons Ratio (y) = 0.21018 -0.07143
# Poissons Ratio (z) = 0.04291 -0.07355
#
# Static dielectric constant tensor:
#      x y z
#    x 1.686970 0.000000 -0.019990 
#    y 0.000000 1.655250 0.000000 
#    z -0.019990 0.000000 1.702660 
# 
# From -- ./inp_files/135793.got.cif
#   From: 2010.05.17/outbox.cif.g08.bks.cpg/sg12_68_cif.got.tgz:135793.got - 2010.06.03 13:09:07.
