data_PCOD9218240
_publ_section_title
;
Structure prediction by ZEFSAII (Michael W. Deem and Ramdas Pophale) SiO2 
 PCOD9218240
Probable space group: C 2/M
;
_chemical_formula_sum "Si O2"
_cell_formula_units_Z 34
_cell_length_a 16.259985
_cell_length_b 22.109538
_cell_length_c 6.856462
_cell_angle_alpha 90.000000
_cell_angle_beta 39.160309
_cell_angle_gamma 90.000000
_cell_volume 1556.567480
_symmetry_space_group_name_H-M "C 2/M"
_symmetry_group_IT_number 12
_symmetry_cell_setting 'monoclinic'
loop_
_space_group_symop_operation_xyz
x,y,z
-x,y,-z
-x,-y,-z
x,-y,z
1/2+x,1/2+y,z
1/2-x,1/2+y,-z
1/2-x,1/2-y,-z
1/2+x,1/2-y,z
loop_
_atom_site_type_symbol
_atom_site_label
_atom_site_fract_x
_atom_site_fract_y
_atom_site_fract_z
Si Si1 0.000000 0.000000 0.500000
Si Si2 0.829498 0.668228 0.527999
Si Si3 0.960481 0.568834 0.799979
Si Si4 0.892805 0.801474 0.364067
Si Si5 0.187370 0.112722 0.163386
O O1 0.108503 0.053119 0.251797
O O2 0.897662 0.733004 0.435245
O O3 0.740507 0.682523 0.505051
O O4 0.934306 0.615116 0.304849
O O5 0.741757 0.648636 0.875001
O O6 0.966716 0.500000 0.860526
O O7 0.000000 0.567050 0.500000
O O8 0.813088 0.592201 0.060136
O O9 0.897824 0.846197 0.535927
O O10 0.000000 0.809445 0.000000
#
# Coordination Sequence:
#
# PCOD9218240 Si02
#       5
#     2   8   8   8   8
#     4  12  24  44  72  98 142 174 222 272 340 404
#     4  10  24  43  72  97 136 176 226 281 330 393
#     4   9  19  40  69  99 128 174 229 274 329 397
#     4  11  25  44  66 102 138 175 228 276 332 398
#     4  11  23  45  70  98 135 181 218 278 335 400
#
# _framework density 21.842934
#
# number of rings (size 3 to 8) (size 9 to 14) (size 15 to 20)
#    0.000    1.647    1.176    2.118    8.235    0.000 
#   12.706    2.941    0.000    0.000    0.000    0.000 
#    0.000    0.000    0.000    0.000    0.000    0.000 
#
# Total GULP energy -94730.539429 kJ/mol
# GULP energy per Si atom -5572.384672 kJ/mol
# Density = 2.179322 g / cm^3
# Si number density = 21.842934 Si / 1000 Ang^3
#
#
#
# Elastic Constant Matrix: (Units=GPa)
#
#
# Indices 1 2 3 4 5 6 
#
# 1 70.4886 49.7665 18.4786 0.0000 -0.1091 0.0000
# 2 49.7665 199.0849 70.4207 0.0000 13.0749 0.0000
# 3 18.4786 70.4207 134.4999 0.0000 21.4553 0.0000
# 4 0.0000 0.0000 0.0000 305.1748 0.0000 36.9581
# 5 -0.1091 13.0749 21.4553 0.0000 42.0194 0.0000
# 6 0.0000 0.0000 0.0000 36.9581 0.0000 28.0897
#
#
#
# Elastic Compliance Matrix: (Units=1/GPa)
#
#
# Indices 1 2 3 4 5 6 
#
# 1 0.017325 -0.004300 -0.000381 0.000000 0.001577 0.000000
# 2 -0.004300 0.007235 -0.003088 0.000000 -0.000686 0.000000
# 3 -0.000381 -0.003088 0.009745 0.000000 -0.004016 0.000000
# 4 0.000000 0.000000 0.000000 0.003898 0.000000 -0.005129
# 5 0.001577 -0.000686 -0.004016 0.000000 0.026066 0.000000
# 6 0.000000 0.000000 0.000000 -0.005129 0.000000 0.042348
#
#
# Mechanical properties :
#
#
# Convention : Reuss Voigt Hill
#
# Bulk Modulus (GPa) = 53.28280 75.71166 64.49723
# Shear Modulus (GPa) = 38.93801 92.75062 65.84432
#
# Velocity S-wave (km/s) = 4.22671 6.52340 5.49635
# Velocity P-wave (km/s) = 6.94742 9.56435 8.35893
#
# Compressibility (1/GPa) = 0.01876778
#
# Stress axis : x y z
#
# Youngs Moduli (GPa) = 57.72149 138.21427 102.62052
#
# Poissons Ratio (x) = 0.59428 0.03905
# Poissons Ratio (y) = 0.24819 0.31689
# Poissons Ratio (z) = 0.02197 0.42681
#
# Static dielectric constant tensor:
#      x y z
#    x 1.862160 0.000000 -0.033000 
#    y 0.000000 1.773290 0.000000 
#    z -0.033000 0.000000 1.810420 
# 
# From -- ./inp_files/88337.got.cif
#   From: 2010.05.17/outbox.cif.g08.bks.cpg/sg12_45_cif.got.tgz:88337.got - 2010.06.03 13:09:07.
