data_PCOD9218538
_publ_section_title
;
Structure prediction by ZEFSAII (Michael W. Deem and Ramdas Pophale) SiO2 
 PCOD9218538
Probable space group: C 2/M
;
_chemical_formula_sum "Si O2"
_cell_formula_units_Z 44
_cell_length_a 17.302312
_cell_length_b 21.530972
_cell_length_c 13.982250
_cell_angle_alpha 90.000000
_cell_angle_beta 157.028008
_cell_angle_gamma 90.000000
_cell_volume 2032.929741
_symmetry_space_group_name_H-M "C 2/M"
_symmetry_group_IT_number 12
_symmetry_cell_setting 'monoclinic'
loop_
_space_group_symop_operation_xyz
x,y,z
-x,y,-z
-x,-y,-z
x,-y,z
1/2+x,1/2+y,z
1/2-x,1/2+y,-z
1/2-x,1/2-y,-z
1/2+x,1/2-y,z
loop_
_atom_site_type_symbol
_atom_site_label
_atom_site_fract_x
_atom_site_fract_y
_atom_site_fract_z
Si Si1 0.000000 0.398508 0.500000
Si Si2 0.500000 0.224141 0.000000
Si Si3 0.792543 0.196502 0.623505
Si Si4 0.678141 0.370060 0.986910
Si Si5 0.556001 0.864982 0.879117
Si Si6 0.558949 0.000000 0.176800
Si Si7 0.771001 0.000000 0.708049
Si Si8 0.544125 0.500000 0.280261
O O1 0.847281 0.441771 0.385096
O O2 0.862524 0.363828 0.268404
O O3 0.325271 0.270275 0.763012
O O4 0.546892 0.179377 0.962530
O O5 0.750000 0.250000 0.500000
O O6 0.622717 0.148736 0.399302
O O7 0.000897 0.167702 0.830929
O O8 0.596824 0.440529 0.888118
O O9 0.748011 0.352397 0.960201
O O10 0.529113 0.936720 0.878203
O O11 0.800334 0.000000 0.455988
O O12 0.500000 0.000000 0.000000
O O13 0.795737 0.000000 0.623354
O O14 0.000000 0.000000 0.000000
#
# Coordination Sequence:
#
# PCOD9218538 Si02
#       8
#     4   4   8   8   8   4   4   4
#     4  11  24  36  64 110 142 194 238 283 358 442
#     4  10  24  47  74  97 138 192 250 300 354 420
#     4  10  25  47  70  99 136 192 246 300 365 418
#     4  12  25  41  71 109 148 187 243 298 370 438
#     4  11  24  48  73 106 147 187 242 306 359 438
#     4  12  23  44  77 104 145 193 235 290 371 432
#     4  11  20  40  61  95 157 193 224 280 356 438
#     4  12  23  43  70 104 154 193 229 300 365 450
#
# _framework density 21.643640000000001
#
# number of rings (size 3 to 8) (size 9 to 14) (size 15 to 20)
#    0.000    0.909    4.545    2.182    2.545    2.909 
#    0.000   12.727    0.000    0.000    0.000    0.000 
#    0.000    0.000    0.000    0.000    0.000    0.000 
#
# Total GULP energy -122869.838350 kJ/mol
# GULP energy per Si atom -5584.992652 kJ/mol
# Density = 2.159438 g / cm^3
# Si number density = 21.643640 Si / 1000 Ang^3
#
#
#
# Elastic Constant Matrix: (Units=GPa)
#
#
# Indices 1 2 3 4 5 6 
#
# 1 136.2112 47.5303 43.4866 0.0000 -1.0473 0.0000
# 2 47.5303 94.0827 30.3453 0.0000 -11.4589 0.0000
# 3 43.4866 30.3453 114.0894 0.0004 -14.1840 0.0003
# 4 0.0000 0.0000 0.0004 9.7665 0.0000 -38.3435
# 5 -1.0473 -11.4589 -14.1840 0.0000 45.1250 0.0000
# 6 0.0000 0.0000 0.0003 -38.3435 0.0000 1.9744
#
#
#
# Elastic Compliance Matrix: (Units=1/GPa)
#
#
# Indices 1 2 3 4 5 6 
#
# 1 0.009685 -0.004203 -0.002787 0.000000 -0.001719 0.000000
# 2 -0.004203 0.013638 -0.001672 0.000000 0.002840 0.000000
# 3 -0.002787 -0.001672 0.010627 0.000000 0.002851 0.000000
# 4 0.000000 0.000000 0.000000 -0.001361 0.000000 -0.026427
# 5 -0.001719 0.002840 0.002851 0.000000 0.023738 0.000000
# 6 0.000000 0.000000 0.000000 -0.026427 0.000000 -0.006731
#
#
# Mechanical properties :
#
#
# Convention : Reuss Voigt Hill
#
# Bulk Modulus (GPa) = 60.15376 65.23420 62.69398
# Shear Modulus (GPa) = 69.00216 26.24124 47.62170
#
# Velocity S-wave (km/s) = 5.65245 3.48576 4.69578
# Velocity P-wave (km/s) = 8.39366 6.81222 7.64394
#
# Compressibility (1/GPa) = 0.01662406
#
# Stress axis : x y z
#
# Youngs Moduli (GPa) = 103.25442 73.32692 94.10307
#
# Poissons Ratio (x) = 0.30820 0.26229
# Poissons Ratio (y) = 0.43399 0.15736
# Poissons Ratio (z) = 0.28779 0.12262
#
# Static dielectric constant tensor:
#      x y z
#    x 1.809380 0.000000 -0.028710 
#    y 0.000000 1.812900 0.000000 
#    z -0.028710 0.000000 1.804130 
# 
# From -- ./inp_files/228244.got.cif
#   From: 2010.05.17/outbox.cif.g08.bks.cpg/sg12_115_cif.got.tgz:228244.got - 2010.06.03 13:09:07.
