data_PCOD9218024
_publ_section_title
;
Structure prediction by ZEFSAII (Michael W. Deem and Ramdas Pophale) SiO2 
 PCOD9218024
Probable space group: C 2/M
;
_chemical_formula_sum "Si O2"
_cell_formula_units_Z 36
_cell_length_a 19.675715
_cell_length_b 9.508729
_cell_length_c 9.107841
_cell_angle_alpha 90.000000
_cell_angle_beta 81.700308
_cell_angle_gamma 90.000000
_cell_volume 1686.148776
_symmetry_space_group_name_H-M "C 2/M"
_symmetry_group_IT_number 12
_symmetry_cell_setting 'monoclinic'
loop_
_space_group_symop_operation_xyz
x,y,z
-x,y,-z
-x,-y,-z
x,-y,z
1/2+x,1/2+y,z
1/2-x,1/2+y,-z
1/2-x,1/2-y,-z
1/2+x,1/2-y,z
loop_
_atom_site_type_symbol
_atom_site_label
_atom_site_fract_x
_atom_site_fract_y
_atom_site_fract_z
Si Si1 0.443168 0.157749 0.393609
Si Si2 0.320484 0.164812 0.961614
Si Si3 0.780367 0.000000 0.494306
Si Si4 0.429604 0.338693 0.113441
Si Si5 0.687073 0.787672 0.369807
O O1 0.500000 0.184715 0.500000
O O2 0.443943 0.273950 0.268250
O O3 0.369472 0.161067 0.495425
O O4 0.454834 0.000000 0.329491
O O5 0.339820 0.179949 0.784188
O O6 0.313322 0.000000 0.000188
O O7 0.250000 0.250000 0.000000
O O8 0.375703 0.239692 0.047806
O O9 0.754970 0.122932 0.384429
O O10 0.800016 0.124554 0.606056
O O11 0.404857 0.500000 0.133489
O O12 0.500000 0.338705 0.000000
#
# Coordination Sequence:
#
# PCOD9218024 Si02
#       5
#     8   8   4   8   8
#     4  11  24  44  72  98 128 173 227 276 330 395
#     4  12  27  44  69 101 140 179 223 276 338 401
#     4  10  24  40  70  92 136 170 220 264 336 386
#     4  11  27  47  68  98 138 180 225 276 337 401
#     4  11  24  43  66  98 131 173 219 275 324 397
#
# _framework density 21.350428000000001
#
# number of rings (size 3 to 8) (size 9 to 14) (size 15 to 20)
#    0.000    0.889    2.222    2.667   10.889    4.000 
#    0.000    0.000    0.000    0.000    0.000    0.000 
#    0.000    0.000    0.000    0.000    0.000    0.000 
#
# Total GULP energy -100244.533906 kJ/mol
# GULP energy per Si atom -5569.140773 kJ/mol
# Density = 2.130183 g / cm^3
# Si number density = 21.350428 Si / 1000 Ang^3
#
#
#
# Elastic Constant Matrix: (Units=GPa)
#
#
# Indices 1 2 3 4 5 6 
#
# 1 63.4010 51.4242 14.0035 0.0000 17.5322 0.0000
# 2 51.4242 254.2191 53.8417 0.0000 29.5174 0.0000
# 3 14.0035 53.8417 83.9005 0.0000 3.5433 0.0000
# 4 0.0000 0.0000 0.0000 36.1127 0.0000 17.5482
# 5 17.5322 29.5174 3.5433 0.0000 33.5470 0.0000
# 6 0.0000 0.0000 0.0000 17.5482 0.0000 37.0280
#
#
#
# Elastic Compliance Matrix: (Units=1/GPa)
#
#
# Indices 1 2 3 4 5 6 
#
# 1 0.020694 -0.003000 -0.001189 0.000000 -0.008050 0.000000
# 2 -0.003000 0.005500 -0.002903 0.000000 -0.002965 0.000000
# 3 -0.001189 -0.002903 0.013908 0.000000 0.001707 0.000000
# 4 0.000000 0.000000 0.000000 0.035976 0.000000 -0.017050
# 5 -0.008050 -0.002965 0.001707 0.000000 0.036444 0.000000
# 6 0.000000 0.000000 0.000000 -0.017050 0.000000 0.035087
#
#
# Mechanical properties :
#
#
# Convention : Reuss Voigt Hill
#
# Bulk Modulus (GPa) = 38.58288 71.11772 54.85030
# Shear Modulus (GPa) = 29.33709 40.15430 34.74569
#
# Velocity S-wave (km/s) = 3.71087 4.34144 4.03848
# Velocity P-wave (km/s) = 6.03914 7.64937 6.89145
#
# Compressibility (1/GPa) = 0.02591823
#
# Stress axis : x y z
#
# Youngs Moduli (GPa) = 48.32244 181.83446 71.89877
#
# Poissons Ratio (x) = 0.54542 0.08550
# Poissons Ratio (y) = 0.14494 0.20875
# Poissons Ratio (z) = 0.05746 0.52793
#
# Static dielectric constant tensor:
#      x y z
#    x 1.799560 0.000000 -0.030220 
#    y 0.000000 1.754220 0.000000 
#    z -0.030220 0.000000 1.773850 
# 
# From -- ./inp_files/82027.got.cif
#   From: 2010.05.17/outbox.cif.g08.bks.cpg/sg12_42_cif.got.tgz:82027.got - 2010.06.03 13:09:07.
