data_PCOD9218498
_publ_section_title
;
Structure prediction by ZEFSAII (Michael W. Deem and Ramdas Pophale) SiO2 
 PCOD9218498
Probable space group: C 2/M
;
_chemical_formula_sum "Si O2"
_cell_formula_units_Z 46
_cell_length_a 28.862881
_cell_length_b 10.387929
_cell_length_c 22.222608
_cell_angle_alpha 90.000000
_cell_angle_beta 18.605806
_cell_angle_gamma 90.000000
_cell_volume 2125.835751
_symmetry_space_group_name_H-M "C 2/M"
_symmetry_group_IT_number 12
_symmetry_cell_setting 'monoclinic'
loop_
_space_group_symop_operation_xyz
x,y,z
-x,y,-z
-x,-y,-z
x,-y,z
1/2+x,1/2+y,z
1/2-x,1/2+y,-z
1/2-x,1/2-y,-z
1/2+x,1/2-y,z
loop_
_atom_site_type_symbol
_atom_site_label
_atom_site_fract_x
_atom_site_fract_y
_atom_site_fract_z
Si Si1 0.037039 0.000000 0.805134
Si Si2 0.454260 0.775941 0.872317
Si Si3 0.120474 0.500000 0.600054
Si Si4 0.354004 0.000000 0.571159
Si Si5 0.071455 0.775928 0.476570
Si Si6 0.592695 0.151957 0.938323
Si Si7 0.500000 0.500000 0.000000
Si Si8 0.190690 0.850635 0.122600
O O1 0.210833 0.000000 0.591727
O O2 0.981042 0.875487 0.837252
O O3 0.995765 0.000000 0.927276
O O4 0.551787 0.870406 0.712464
O O5 0.476350 0.806003 0.914670
O O6 0.291610 0.817245 0.055563
O O7 0.091876 0.500000 0.564275
O O8 0.413948 0.123957 0.531549
O O9 0.179027 0.000000 0.780376
O O10 0.237252 0.822400 0.275470
O O11 0.000000 0.808243 0.500000
O O12 0.972396 0.829506 0.652894
O O13 0.574869 0.000000 0.957318
O O14 0.500000 0.220823 0.000000
O O15 0.211503 0.000000 0.079397
O O16 0.250000 0.750000 0.000000
#
# Coordination Sequence:
#
# PCOD9218498 Si02
#       8
#     4   8   4   4   8   8   2   8
#     4  11  27  41  73 109 145 190 256 304 378 447
#     4  12  24  47  72 105 149 193 248 310 375 448
#     4  11  24  48  71 102 150 200 242 310 383 444
#     4  11  26  45  72 110 149 191 244 311 373 446
#     4  12  26  45  78 110 149 190 252 305 376 443
#     4  11  25  46  74 109 147 190 247 311 372 443
#     4  10  24  46  74 108 154 192 238 318 384 422
#     4  12  28  50  77 106 153 199 249 309 377 449
#
# _framework density 21.638548
#
# number of rings (size 3 to 8) (size 9 to 14) (size 15 to 20)
#    0.000    0.522    3.478    3.391    9.739    0.696 
#    3.130    0.000    0.000    0.000    0.000    0.000 
#    0.000    0.000    0.000    0.000    0.000    0.000 
#
# Total GULP energy -128391.973973 kJ/mol
# GULP energy per Si atom -5582.259738 kJ/mol
# Density = 2.158930 g / cm^3
# Si number density = 21.638548 Si / 1000 Ang^3
#
#
#
# Elastic Constant Matrix: (Units=GPa)
#
#
# Indices 1 2 3 4 5 6 
#
# 1 75.4574 3.2554 11.6922 0.0000 7.8372 0.0000
# 2 3.2554 143.6206 19.4200 0.0001 11.0280 0.0000
# 3 11.6922 19.4200 89.3833 0.0000 14.4530 0.0000
# 4 0.0000 0.0001 0.0000 19.1090 0.0000 6.1713
# 5 7.8372 11.0280 14.4530 0.0000 36.0631 0.0000
# 6 0.0000 0.0000 0.0000 6.1713 0.0000 -70.2080
#
#
#
# Elastic Compliance Matrix: (Units=1/GPa)
#
#
# Indices 1 2 3 4 5 6 
#
# 1 0.013722 0.000067 -0.001416 0.000000 -0.002435 0.000000
# 2 0.000067 0.007270 -0.001312 0.000000 -0.001712 0.000000
# 3 -0.001416 -0.001312 0.012343 0.000000 -0.004238 0.000000
# 4 0.000000 0.000000 0.000000 0.050887 0.000000 0.004473
# 5 -0.002435 -0.001712 -0.004238 0.000000 0.030480 0.000000
# 6 0.000000 0.000000 0.000000 0.004473 0.000000 -0.013850
#
#
# Mechanical properties :
#
#
# Convention : Reuss Voigt Hill
#
# Bulk Modulus (GPa) = 35.69475 41.91074 38.80274
# Shear Modulus (GPa) = 43.28605 15.26573 29.27589
#
# Velocity S-wave (km/s) = 4.47745 2.65898 3.68224
# Velocity P-wave (km/s) = 6.57737 5.37006 6.00414
#
# Compressibility (1/GPa) = 0.02801532
#
# Stress axis : x y z
#
# Youngs Moduli (GPa) = 72.87608 137.55022 81.01632
#
# Poissons Ratio (x) = -0.00927 0.11471
# Poissons Ratio (y) = -0.00491 0.10625
# Poissons Ratio (z) = 0.10318 0.18040
#
# Static dielectric constant tensor:
#      x y z
#    x 1.859520 0.000000 0.024340 
#    y 0.000000 1.148600 0.000000 
#    z 0.024340 0.000000 1.810900 
# 
# From -- ./inp_files/327997.got.cif
#   From: 2010.05.17/outbox.cif.g08.bks.cpg/sg12_164_cif.got.tgz:327997.got - 2010.06.03 13:09:07.
