data_PCOD9218322
_publ_section_title
;
Structure prediction by ZEFSAII (Michael W. Deem and Ramdas Pophale) SiO2 
 PCOD9218322
Probable space group: C 2/M
;
_chemical_formula_sum "Si O2"
_cell_formula_units_Z 34
_cell_length_a 10.137247
_cell_length_b 14.759739
_cell_length_c 18.056735
_cell_angle_alpha 90.000000
_cell_angle_beta 33.909442
_cell_angle_gamma 90.000000
_cell_volume 1507.232286
_symmetry_space_group_name_H-M "C 2/M"
_symmetry_group_IT_number 12
_symmetry_cell_setting 'monoclinic'
loop_
_space_group_symop_operation_xyz
x,y,z
-x,y,-z
-x,-y,-z
x,-y,z
1/2+x,1/2+y,z
1/2-x,1/2+y,-z
1/2-x,1/2-y,-z
1/2+x,1/2-y,z
loop_
_atom_site_type_symbol
_atom_site_label
_atom_site_fract_x
_atom_site_fract_y
_atom_site_fract_z
Si Si1 0.041955 0.500000 0.366369
Si Si2 0.749594 0.392786 0.954518
Si Si3 0.500000 0.500000 0.500000
Si Si4 0.251426 0.828262 0.792070
Si Si5 0.787414 0.130188 0.729419
Si Si6 0.914938 0.000000 0.322759
O O1 0.069794 0.409253 0.308134
O O2 0.257308 0.500000 0.323705
O O3 0.786998 0.500000 0.520485
O O4 0.713098 0.500000 0.952675
O O5 0.756098 0.328766 0.878889
O O6 0.006745 0.385777 0.870099
O O7 0.515048 0.359178 0.105486
O O8 0.382669 0.579076 0.611374
O O9 0.322413 0.737566 0.717521
O O10 0.923380 0.085889 0.735564
#
# Coordination Sequence:
#
# PCOD9218322 Si02
#       6
#     4   8   2   8   8   4
#     4  11  24  44  65  97 142 174 226 286 345 395
#     4  11  21  46  71 100 136 184 229 284 340 406
#     4  10  24  44  68  96 128 178 230 278 336 394
#     4  11  24  41  71 101 136 179 228 285 341 400
#     4  11  25  44  71  99 132 181 234 279 339 412
#     4  10  26  44  60  95 137 179 225 284 343 397
#
# _framework density 22.557904000000001
#
# number of rings (size 3 to 8) (size 9 to 14) (size 15 to 20)
#    0.000    1.176    4.706    1.412    9.882    2.824 
#    0.000    1.176    0.000    0.000    0.000    0.000 
#    0.000    0.000    0.000    0.000    0.000    0.000 
#
# Total GULP energy -94689.762170 kJ/mol
# GULP energy per Si atom -5569.986010 kJ/mol
# Density = 2.250656 g / cm^3
# Si number density = 22.557904 Si / 1000 Ang^3
#
#
#
# Elastic Constant Matrix: (Units=GPa)
#
#
# Indices 1 2 3 4 5 6 
#
# 1 62.1165 13.7278 48.7501 0.0044 -58.2229 -0.0040
# 2 13.7278 174.7636 21.1188 0.0006 23.3632 -0.0047
# 3 48.7501 21.1188 12.4485 0.0047 33.4930 -0.0132
# 4 0.0044 0.0006 0.0047 38.0500 -0.0077 10.5811
# 5 -58.2229 23.3632 33.4930 -0.0077 6.2983 0.0090
# 6 -0.0040 -0.0047 -0.0132 10.5811 0.0090 5.3774
#
#
#
# Elastic Compliance Matrix: (Units=1/GPa)
#
#
# Indices 1 2 3 4 5 6 
#
# 1 0.003346 -0.000146 0.007329 -0.000026 -0.007503 0.000085
# 2 -0.000146 0.006573 -0.004406 0.000001 -0.002295 -0.000003
# 3 0.007329 -0.004406 0.012562 0.000001 0.017298 0.000002
# 4 -0.000026 0.000001 0.000001 0.058039 -0.000015 -0.114204
# 5 -0.007503 -0.002295 0.017298 -0.000015 0.005938 0.000055
# 6 0.000085 -0.000003 0.000002 -0.114204 0.000055 0.410684
#
#
# Mechanical properties :
#
#
# Convention : Reuss Voigt Hill
#
# Bulk Modulus (GPa) = 35.66882 46.28021 40.97452
# Shear Modulus (GPa) = 9.98138 20.99393 15.48765
#
# Velocity S-wave (km/s) = 2.10580 3.05400 2.62310
# Velocity P-wave (km/s) = 4.66465 5.74426 5.23238
#
# Compressibility (1/GPa) = 0.02803569
#
# Stress axis : x y z
#
# Youngs Moduli (GPa) = 298.84416 152.14463 79.60752
#
# Poissons Ratio (x) = 0.02214 -0.58347
# Poissons Ratio (y) = 0.04349 0.35077
# Poissons Ratio (z) = -2.19032 0.67038
#
# Static dielectric constant tensor:
#      x y z
#    x 1.907520 0.000000 -0.015180 
#    y 0.000000 1.841890 0.000000 
#    z -0.015180 0.000000 1.814260 
# 
# From -- ./inp_files/167015.got.cif
#   From: 2010.05.17/outbox.cif.g08.bks.cpg/sg12_84_cif.got.tgz:167015.got - 2010.06.03 13:09:07.
