data_PCOD9218753
_publ_section_title
;
Structure prediction by ZEFSAII (Michael W. Deem and Ramdas Pophale) SiO2 
 PCOD9218753
Probable space group: C 2/M
;
_chemical_formula_sum "Si O2"
_cell_formula_units_Z 30
_cell_length_a 4.954797
_cell_length_b 25.843716
_cell_length_c 10.036200
_cell_angle_alpha 90.000000
_cell_angle_beta 108.461184
_cell_angle_gamma 90.000000
_cell_volume 1219.003776
_symmetry_space_group_name_H-M "C 2/M"
_symmetry_group_IT_number 12
_symmetry_cell_setting 'monoclinic'
loop_
_space_group_symop_operation_xyz
x,y,z
-x,y,-z
-x,-y,-z
x,-y,z
1/2+x,1/2+y,z
1/2-x,1/2+y,-z
1/2-x,1/2-y,-z
1/2+x,1/2-y,z
loop_
_atom_site_type_symbol
_atom_site_label
_atom_site_fract_x
_atom_site_fract_y
_atom_site_fract_z
Si Si1 0.000000 0.500000 0.500000
Si Si2 0.824481 0.112635 0.092334
Si Si3 0.500000 0.179275 0.500000
Si Si4 0.853696 0.218158 0.786739
Si Si5 0.272241 0.084420 0.627205
O O1 0.987387 0.545377 0.382168
O O2 0.801291 0.084443 0.230298
O O3 0.000463 0.165276 0.147444
O O4 0.500000 0.122933 0.000000
O O5 0.000000 0.086164 0.000000
O O6 0.737408 0.210231 0.618184
O O7 0.356043 0.141357 0.587442
O O8 0.581375 0.235937 0.826684
O O9 0.000000 0.065418 0.500000
#
# Coordination Sequence:
#
# PCOD9218753 Si02
#       5
#     2   8   4   8   8
#     4  10  26  44  84 116 136 168 248 304 364 434
#     4  12  27  47  71 104 152 202 242 292 367 435
#     4  11  22  41  70 108 144 190 250 311 366 419
#     4  12  25  41  68 104 147 196 254 309 351 410
#     4  11  23  47  78 105 142 186 240 298 367 443
#
# _framework density 24.610258999999999
#
# number of rings (size 3 to 8) (size 9 to 14) (size 15 to 20)
#    0.000    0.533    2.667    6.000    3.733    3.200 
#    0.000    1.333    0.000    0.000    0.000    0.000 
#    0.000    0.000    0.000    0.000    0.000    0.000 
#
# Total GULP energy -83801.693226 kJ/mol
# GULP energy per Si atom -5586.779548 kJ/mol
# Density = 2.455425 g / cm^3
# Si number density = 24.610259 Si / 1000 Ang^3
#
#
#
# Elastic Constant Matrix: (Units=GPa)
#
#
# Indices 1 2 3 4 5 6 
#
# 1 127.7965 14.3444 63.7496 0.0000 -10.3648 0.0000
# 2 14.3444 45.3199 29.0798 0.0000 -9.0397 0.0000
# 3 63.7496 29.0798 189.6123 0.0000 -24.2913 0.0000
# 4 0.0000 0.0000 0.0000 6.5973 0.0000 -8.0284
# 5 -10.3648 -9.0397 -24.2913 0.0000 65.4879 0.0000
# 6 0.0000 0.0000 0.0000 -8.0284 0.0000 116.4455
#
#
#
# Elastic Compliance Matrix: (Units=1/GPa)
#
#
# Indices 1 2 3 4 5 6 
#
# 1 0.009451 -0.001024 -0.002989 0.000000 0.000246 0.000000
# 2 -0.001024 0.024859 -0.003201 0.000000 0.002082 0.000000
# 3 -0.002989 -0.003201 0.006984 0.000000 0.001676 0.000000
# 4 0.000000 0.000000 0.000000 0.165459 0.000000 0.011408
# 5 0.000246 0.002082 0.001676 0.000000 0.016218 0.000000
# 6 0.000000 0.000000 0.000000 0.011408 0.000000 0.009374
#
#
# Mechanical properties :
#
#
# Convention : Reuss Voigt Hill
#
# Bulk Modulus (GPa) = 37.22327 64.11959 50.67143
# Shear Modulus (GPa) = 19.55192 54.74313 37.14752
#
# Velocity S-wave (km/s) = 2.82168 4.72147 3.88936
# Velocity P-wave (km/s) = 5.07679 7.47219 6.38778
#
# Compressibility (1/GPa) = 0.02686492
#
# Stress axis : x y z
#
# Youngs Moduli (GPa) = 105.81095 40.22683 143.17486
#
# Poissons Ratio (x) = 0.04121 0.42793
# Poissons Ratio (y) = 0.10840 0.45835
# Poissons Ratio (z) = 0.31625 0.12878
#
# Static dielectric constant tensor:
#      x y z
#    x 2.058380 0.000000 -0.003670 
#    y 0.000000 1.937590 0.000000 
#    z -0.003670 0.000000 2.002310 
# 
# From -- ./inp_files/34409.got.cif
#   From: 2010.05.17/outbox.cif.g08.bks.cpg/sg12_18_cif.got.tgz:34409.got - 2010.06.03 13:09:07.
