data_PCOD9218666
_publ_section_title
;
Structure prediction by ZEFSAII (Michael W. Deem and Ramdas Pophale) SiO2 
 PCOD9218666
Probable space group: C 2/M
;
_chemical_formula_sum "Si O2"
_cell_formula_units_Z 58
_cell_length_a 20.621863
_cell_length_b 23.913012
_cell_length_c 8.666047
_cell_angle_alpha 90.000000
_cell_angle_beta 42.932898
_cell_angle_gamma 90.000000
_cell_volume 2910.854354
_symmetry_space_group_name_H-M "C 2/M"
_symmetry_group_IT_number 12
_symmetry_cell_setting 'monoclinic'
loop_
_space_group_symop_operation_xyz
x,y,z
-x,y,-z
-x,-y,-z
x,-y,z
1/2+x,1/2+y,z
1/2-x,1/2+y,-z
1/2-x,1/2-y,-z
1/2+x,1/2-y,z
loop_
_atom_site_type_symbol
_atom_site_label
_atom_site_fract_x
_atom_site_fract_y
_atom_site_fract_z
Si Si1 0.213508 0.063945 0.632266
Si Si2 0.500000 0.500000 0.500000
Si Si3 0.102250 0.625672 0.748851
Si Si4 0.365252 0.774056 0.080767
Si Si5 0.931452 0.901426 0.381137
Si Si6 0.868023 0.844235 0.023041
Si Si7 0.049623 0.698016 0.567630
Si Si8 0.674875 0.695487 0.249520
O O1 0.315527 0.079974 0.382475
O O2 0.129820 0.075348 0.654648
O O3 0.195418 0.105287 0.806240
O O4 0.210586 0.000000 0.686415
O O5 0.464220 0.450586 0.439347
O O6 0.134242 0.681217 0.784693
O O7 0.091857 0.647345 0.592150
O O8 0.000000 0.609091 0.000000
O O9 0.352265 0.710297 0.156983
O O10 0.283715 0.793143 0.104145
O O11 0.467271 0.776397 0.819865
O O12 0.866309 0.856374 0.582778
O O13 0.025111 0.867702 0.164345
O O14 0.842014 0.821467 0.898436
O O15 0.118787 0.748316 0.396906
O O16 0.000000 0.676405 0.500000
#
# Coordination Sequence:
#
# PCOD9218666 Si02
#       8
#     8   2   8   8   8   8   8   8
#     4  12  28  45  67  96 127 176 232 282 323 387
#     4  12  24  44  70  92 134 190 230 264 322 390
#     4  10  25  45  68  98 131 174 218 277 338 396
#     4  11  23  39  67 101 136 171 216 268 334 411
#     4  12  24  43  68  93 135 178 224 269 326 397
#     4  12  25  39  62 101 136 175 210 275 332 393
#     4  11  22  39  64  99 136 173 210 264 332 406
#     4  12  22  41  65  98 137 178 215 262 334 397
#
# _framework density 19.925419999999999
#
# number of rings (size 3 to 8) (size 9 to 14) (size 15 to 20)
#    0.000    0.552    6.207    1.655    4.828    3.034 
#    0.000    0.000    0.000    0.414    0.000    0.000 
#    0.000    0.000    0.000    0.000    0.000    0.000 
#
# Total GULP energy -161941.746303 kJ/mol
# GULP energy per Si atom -5584.198148 kJ/mol
# Density = 1.988007 g / cm^3
# Si number density = 19.925420 Si / 1000 Ang^3
#
#
#
# Elastic Constant Matrix: (Units=GPa)
#
#
# Indices 1 2 3 4 5 6 
#
# 1 84.5885 4.0815 9.5895 0.0000 -12.7732 0.0000
# 2 4.0815 64.7811 25.9195 0.0000 -20.2024 0.0000
# 3 9.5895 25.9195 58.2416 0.0000 -14.9966 0.0000
# 4 0.0000 0.0000 0.0000 5.7474 0.0000 2.6906
# 5 -12.7732 -20.2024 -14.9966 0.0000 32.5973 0.0000
# 6 0.0000 0.0000 0.0000 2.6906 0.0000 18.2317
#
#
#
# Elastic Compliance Matrix: (Units=1/GPa)
#
#
# Indices 1 2 3 4 5 6 
#
# 1 0.012695 0.001364 -0.001360 0.000000 0.005194 0.000000
# 2 0.001364 0.021479 -0.007054 0.000000 0.010601 0.000000
# 3 -0.001360 -0.007054 0.021860 0.000000 0.005152 0.000000
# 4 0.000000 0.000000 0.000000 0.186905 0.000000 -0.027583
# 5 0.005194 0.010601 0.005152 0.000000 0.041653 0.000000
# 6 0.000000 0.000000 0.000000 -0.027583 0.000000 0.058920
#
#
# Mechanical properties :
#
#
# Convention : Reuss Voigt Hill
#
# Bulk Modulus (GPa) = 23.84689 31.86581 27.85635
# Shear Modulus (GPa) = 13.45576 22.51664 17.98620
#
# Velocity S-wave (km/s) = 2.60148 3.36526 3.00772
# Velocity P-wave (km/s) = 4.58450 5.57918 5.10612
#
# Compressibility (1/GPa) = 0.04193419
#
# Stress axis : x y z
#
# Youngs Moduli (GPa) = 78.77351 46.55712 45.74661
#
# Poissons Ratio (x) = -0.06351 0.06221
# Poissons Ratio (y) = -0.10745 0.32269
# Poissons Ratio (z) = 0.10712 0.32840
#
# Static dielectric constant tensor:
#      x y z
#    x 1.742700 0.000000 0.001990 
#    y 0.000000 1.671650 0.000000 
#    z 0.001990 0.000000 1.745800 
# 
# From -- ./inp_files/90795.got.cif
#   From: 2010.05.17/outbox.cif.g08.bks.cpg/sg12_46_cif.got.tgz:90795.got - 2010.06.03 13:09:07.
