data_PCOD9218712
_publ_section_title
;
Structure prediction by ZEFSAII (Michael W. Deem and Ramdas Pophale) SiO2 
 PCOD9218712
Probable space group: C 2/M
;
_chemical_formula_sum "Si O2"
_cell_formula_units_Z 44
_cell_length_a 9.024224
_cell_length_b 10.200734
_cell_length_c 22.407493
_cell_angle_alpha 90.000000
_cell_angle_beta 81.037847
_cell_angle_gamma 90.000000
_cell_volume 2037.510360
_symmetry_space_group_name_H-M "C 2/M"
_symmetry_group_IT_number 12
_symmetry_cell_setting 'monoclinic'
loop_
_space_group_symop_operation_xyz
x,y,z
-x,y,-z
-x,-y,-z
x,-y,z
1/2+x,1/2+y,z
1/2-x,1/2+y,-z
1/2-x,1/2-y,-z
1/2+x,1/2-y,z
loop_
_atom_site_type_symbol
_atom_site_label
_atom_site_fract_x
_atom_site_fract_y
_atom_site_fract_z
Si Si1 0.114152 0.000000 0.937319
Si Si2 0.830776 0.500000 0.027162
Si Si3 0.001072 0.272644 0.793032
Si Si4 0.069475 0.000000 0.722159
Si Si5 0.073053 0.500000 0.292256
Si Si6 0.792402 0.267698 0.121479
Si Si7 0.671433 0.637946 0.470263
Si Si8 0.716367 0.500000 0.352764
O O1 0.117109 0.865638 0.900091
O O2 0.000000 0.000000 0.000000
O O3 0.263286 0.000000 0.966038
O O4 0.793601 0.371888 0.068362
O O5 0.000000 0.500000 0.000000
O O6 0.937806 0.369669 0.747142
O O7 0.875502 0.268518 0.851751
O O8 0.143666 0.326291 0.820543
O O9 0.044087 0.132308 0.762306
O O10 0.924151 0.000000 0.685178
O O11 0.251756 0.000000 0.691861
O O12 0.898227 0.500000 0.330171
O O13 0.500000 0.640716 0.500000
O O14 0.739119 0.500000 0.487462
O O15 0.750000 0.750000 0.500000
O O16 0.687119 0.625869 0.398024
#
# Coordination Sequence:
#
# PCOD9218712 Si02
#       8
#     4   4   8   4   4   8   8   4
#     4  12  24  41  61  96 132 168 229 288 366 432
#     4  12  24  40  59  94 128 169 223 292 354 428
#     4  12  24  46  69 100 135 185 242 285 358 439
#     4  12  26  49  71 107 153 184 241 309 355 423
#     4  12  26  49  71 110 148 190 245 297 367 429
#     4  12  23  41  67  92 129 183 225 285 359 431
#     4   9  21  47  70 106 147 193 246 294 347 424
#     4  10  25  47  75 110 150 194 239 302 364 412
#
# _framework density 21.594982000000002
#
# number of rings (size 3 to 8) (size 9 to 14) (size 15 to 20)
#    0.545    0.182    1.818    6.545    0.000    1.818 
#    3.273    0.000    0.000    0.000    0.000    0.000 
#    0.000    0.000    0.000    0.000    0.000    0.000 
#
# Total GULP energy -122501.689059 kJ/mol
# GULP energy per Si atom -5568.258594 kJ/mol
# Density = 2.154583 g / cm^3
# Si number density = 21.594982 Si / 1000 Ang^3
#
#
#
# Elastic Constant Matrix: (Units=GPa)
#
#
# Indices 1 2 3 4 5 6 
#
# 1 108.0749 19.0269 43.0048 0.0000 -8.2113 0.0000
# 2 19.0269 99.6454 31.3389 0.0000 1.7768 0.0000
# 3 43.0048 31.3389 87.7828 0.0000 -9.0879 0.0000
# 4 0.0000 0.0000 0.0000 -99.3508 0.0000 72.0851
# 5 -8.2113 1.7768 -9.0879 0.0000 47.9176 0.0000
# 6 0.0000 0.0000 0.0000 72.0851 0.0000 3.0109
#
#
#
# Elastic Compliance Matrix: (Units=1/GPa)
#
#
# Indices 1 2 3 4 5 6 
#
# 1 0.011558 -0.000536 -0.005369 0.000000 0.000982 0.000000
# 2 -0.000536 0.011399 -0.003937 0.000000 -0.001261 0.000000
# 3 -0.005369 -0.003937 0.015655 0.000000 0.002195 0.000000
# 4 0.000000 0.000000 0.000000 -0.000548 0.000000 0.013117
# 5 0.000982 -0.001261 0.002195 0.000000 0.021501 0.000000
# 6 0.000000 0.000000 0.000000 0.013117 0.000000 0.018079
#
#
# Mechanical properties :
#
#
# Convention : Reuss Voigt Hill
#
# Bulk Modulus (GPa) = 52.83521 53.58269 53.20895
# Shear Modulus (GPa) = 48.24466 3.79105 26.01786
#
# Velocity S-wave (km/s) = 4.73172 1.32640 3.47480
# Velocity P-wave (km/s) = 7.37372 5.21653 6.38686
#
# Compressibility (1/GPa) = 0.01892677
#
# Stress axis : x y z
#
# Youngs Moduli (GPa) = 86.51705 87.72896 63.87648
#
# Poissons Ratio (x) = 0.04701 0.34298
# Poissons Ratio (y) = 0.04636 0.25151
# Poissons Ratio (z) = 0.46455 0.34543
#
# Static dielectric constant tensor:
#      x y z
#    x 1.797420 0.000000 -0.035810 
#    y 0.000000 1.484620 0.000000 
#    z -0.035810 0.000000 1.770370 
# 
# From -- ./inp_files/299338.got.cif
#   From: 2010.05.17/outbox.cif.g08.bks.cpg/sg12_150_cif.got.tgz:299338.got - 2010.06.03 13:09:07.
