data_PCOD9218764
_publ_section_title
;
Structure prediction by ZEFSAII (Michael W. Deem and Ramdas Pophale) SiO2 
 PCOD9218764
Probable space group: C 2/M
;
_chemical_formula_sum "Si O2"
_cell_formula_units_Z 40
_cell_length_a 10.761999
_cell_length_b 27.335306
_cell_length_c 11.139651
_cell_angle_alpha 90.000000
_cell_angle_beta 36.361635
_cell_angle_gamma 90.000000
_cell_volume 1942.920927
_symmetry_space_group_name_H-M "C 2/M"
_symmetry_group_IT_number 12
_symmetry_cell_setting 'monoclinic'
loop_
_space_group_symop_operation_xyz
x,y,z
-x,y,-z
-x,-y,-z
x,-y,z
1/2+x,1/2+y,z
1/2-x,1/2+y,-z
1/2-x,1/2-y,-z
1/2+x,1/2-y,z
loop_
_atom_site_type_symbol
_atom_site_label
_atom_site_fract_x
_atom_site_fract_y
_atom_site_fract_z
Si Si1 0.801116 0.188070 0.088259
Si Si2 0.970943 0.238323 0.387754
Si Si3 0.498660 0.100207 0.368461
Si Si4 0.659241 0.058043 0.986177
Si Si5 0.521445 0.632982 0.698877
O O1 0.640805 0.230891 0.182207
O O2 0.655247 0.146500 0.262832
O O3 0.000000 0.211483 0.000000
O O4 0.921446 0.156962 0.895048
O O5 0.750000 0.250000 0.500000
O O6 0.997229 0.180112 0.371163
O O7 0.000000 0.257004 0.500000
O O8 0.500000 0.074632 0.500000
O O9 0.575857 0.073435 0.185000
O O10 0.261620 0.117475 0.526613
O O11 0.693352 0.000000 0.960857
O O12 0.500000 0.069510 0.000000
O O13 0.871908 0.087226 0.790081
#
# Coordination Sequence:
#
# PCOD9218764 Si02
#       5
#     8   8   8   8   8
#     4  11  21  40  65  96 138 179 220 274 345 405
#     4  12  25  40  64  99 140 184 232 282 340 413
#     4  11  22  42  71 101 132 174 224 286 339 407
#     4  10  26  47  68  98 136 178 227 287 354 409
#     4  11  24  40  70  96 134 179 229 279 340 413
#
# _framework density 20.587561000000001
#
# number of rings (size 3 to 8) (size 9 to 14) (size 15 to 20)
#    0.000    1.000    4.000    2.400    2.800    2.000 
#    0.000    3.000    0.000    0.000    0.000    0.000 
#    0.000    0.000    0.000    0.000    0.000    0.000 
#
# Total GULP energy -111459.082901 kJ/mol
# GULP energy per Si atom -5572.954145 kJ/mol
# Density = 2.054070 g / cm^3
# Si number density = 20.587561 Si / 1000 Ang^3
#
#
#
# Elastic Constant Matrix: (Units=GPa)
#
#
# Indices 1 2 3 4 5 6 
#
# 1 90.5437 45.2684 54.4166 0.0000 -21.7056 0.0000
# 2 45.2684 94.8104 45.0879 0.0000 -16.0566 0.0000
# 3 54.4166 45.0879 112.6519 0.0000 -25.3232 0.0000
# 4 0.0000 0.0000 0.0000 31.1167 0.0000 -1.2177
# 5 -21.7056 -16.0566 -25.3232 0.0000 49.6963 0.0000
# 6 0.0000 0.0000 0.0000 -1.2177 0.0000 25.1101
#
#
#
# Elastic Compliance Matrix: (Units=1/GPa)
#
#
# Indices 1 2 3 4 5 6 
#
# 1 0.017946 -0.005248 -0.005859 0.000000 0.003157 0.000000
# 2 -0.005248 0.014698 -0.003157 0.000000 0.000848 0.000000
# 3 -0.005859 -0.003157 0.013740 0.000000 0.003422 0.000000
# 4 0.000000 0.000000 0.000000 0.032198 0.000000 0.001561
# 5 0.003157 0.000848 0.003422 0.000000 0.023519 0.000000
# 6 0.000000 0.000000 0.000000 0.001561 0.000000 0.039900
#
#
# Mechanical properties :
#
#
# Convention : Reuss Voigt Hill
#
# Bulk Modulus (GPa) = 56.00154 65.28354 60.64254
# Shear Modulus (GPa) = 28.33164 31.40015 29.86590
#
# Velocity S-wave (km/s) = 3.71368 3.90962 3.81291
# Velocity P-wave (km/s) = 6.75642 7.22213 6.99315
#
# Compressibility (1/GPa) = 0.01785665
#
# Stress axis : x y z
#
# Youngs Moduli (GPa) = 55.72262 68.03658 72.78044
#
# Poissons Ratio (x) = 0.35703 0.42641
# Poissons Ratio (y) = 0.29241 0.22978
# Poissons Ratio (z) = 0.32647 0.21481
#
# Static dielectric constant tensor:
#      x y z
#    x 1.733480 0.000000 0.050490 
#    y 0.000000 1.726650 0.000000 
#    z 0.050490 0.000000 1.792490 
# 
# From -- ./inp_files/7567.got.cif
#   From: 2010.05.17/outbox.cif.g08.bks.cpg/sg12_4_cif.got.tgz:7567.got - 2010.06.03 13:09:07.
