data_PCOD9218200
_publ_section_title
;
Structure prediction by ZEFSAII (Michael W. Deem and Ramdas Pophale) SiO2 
 PCOD9218200
Probable space group: C 2/M
;
_chemical_formula_sum "Si O2"
_cell_formula_units_Z 48
_cell_length_a 21.099519
_cell_length_b 23.238312
_cell_length_c 6.870325
_cell_angle_alpha 90.000000
_cell_angle_beta 40.397325
_cell_angle_gamma 90.000000
_cell_volume 2183.161915
_symmetry_space_group_name_H-M "C 2/M"
_symmetry_group_IT_number 12
_symmetry_cell_setting 'monoclinic'
loop_
_space_group_symop_operation_xyz
x,y,z
-x,y,-z
-x,-y,-z
x,-y,z
1/2+x,1/2+y,z
1/2-x,1/2+y,-z
1/2-x,1/2-y,-z
1/2+x,1/2-y,z
loop_
_atom_site_type_symbol
_atom_site_label
_atom_site_fract_x
_atom_site_fract_y
_atom_site_fract_z
Si Si1 0.108101 0.217578 0.842609
Si Si2 0.651450 0.224472 0.129947
Si Si3 0.904767 0.675614 0.353548
Si Si4 0.232272 0.875359 0.335983
Si Si5 0.718011 0.936013 0.414515
Si Si6 0.391047 0.567165 0.715008
O O1 0.151456 0.274891 0.636490
O O2 0.166902 0.162988 0.633451
O O3 0.112888 0.230286 0.060738
O O4 0.000000 0.213139 0.000000
O O5 0.580863 0.205105 0.470696
O O6 0.750000 0.250000 0.000000
O O7 0.684605 0.166025 0.944670
O O8 0.846319 0.616792 0.512901
O O9 0.000000 0.664062 0.000000
O O10 0.273906 0.925731 0.373592
O O11 0.165087 0.898194 0.319822
O O12 0.679591 0.000000 0.460838
O O13 0.823452 0.931733 0.064357
O O14 0.500000 0.589310 0.500000
O O15 0.399720 0.500000 0.633897
#
# Coordination Sequence:
#
# PCOD9218200 Si02
#       6
#     8   8   8   8   8   8
#     4  11  26  41  65 104 142 177 228 277 349 415
#     4  12  23  43  68  96 138 184 223 282 344 417
#     4  11  24  45  69 100 136 181 228 284 341 407
#     4  12  23  40  68  97 137 176 229 275 345 411
#     4  11  24  44  69  97 137 180 229 288 338 401
#     4  10  24  43  65  98 138 183 232 283 340 403
#
# _framework density 21.986459
#
# number of rings (size 3 to 8) (size 9 to 14) (size 15 to 20)
#    0.000    0.833    5.000    2.000    2.333    3.000 
#    0.000    2.500    0.000    1.000    0.000    0.000 
#    0.000    0.000    0.000    0.000    0.000    0.000 
#
# Total GULP energy -134240.762808 kJ/mol
# GULP energy per Si atom -5593.365117 kJ/mol
# Density = 2.193642 g / cm^3
# Si number density = 21.986459 Si / 1000 Ang^3
#
#
#
# Elastic Constant Matrix: (Units=GPa)
#
#
# Indices 1 2 3 4 5 6 
#
# 1 74.9546 -4.3050 26.7819 0.0000 23.3607 0.0000
# 2 -4.3050 81.7870 17.9909 0.0000 2.6904 0.0000
# 3 26.7819 17.9909 114.9628 0.0000 13.0677 0.0000
# 4 0.0000 0.0000 0.0000 32.2283 0.0000 -0.4046
# 5 23.3607 2.6904 13.0677 0.0000 37.5020 0.0000
# 6 0.0000 0.0000 0.0000 -0.4046 0.0000 27.9885
#
#
#
# Elastic Compliance Matrix: (Units=1/GPa)
#
#
# Indices 1 2 3 4 5 6 
#
# 1 0.017774 0.001994 -0.003309 0.000000 -0.010062 0.000000
# 2 0.001994 0.012888 -0.002327 0.000000 -0.001356 0.000000
# 3 -0.003309 -0.002327 0.009975 0.000000 -0.001248 0.000000
# 4 0.000000 0.000000 0.000000 0.031034 0.000000 0.000449
# 5 -0.010062 -0.001356 -0.001248 0.000000 0.033465 0.000000
# 6 0.000000 0.000000 0.000000 0.000449 0.000000 0.035735
#
#
# Mechanical properties :
#
#
# Convention : Reuss Voigt Hill
#
# Bulk Modulus (GPa) = 29.98145 39.18223 34.58184
# Shear Modulus (GPa) = 31.39221 34.95951 33.17586
#
# Velocity S-wave (km/s) = 3.78272 3.99187 3.88870
# Velocity P-wave (km/s) = 5.72229 6.25351 5.99379
#
# Compressibility (1/GPa) = 0.03335395
#
# Stress axis : x y z
#
# Youngs Moduli (GPa) = 56.26103 77.58885 100.24639
#
# Poissons Ratio (x) = -0.15475 0.33173
# Poissons Ratio (y) = -0.11221 0.23332
# Poissons Ratio (z) = 0.18617 0.18058
#
# Static dielectric constant tensor:
#      x y z
#    x 1.855950 0.000000 -0.021900 
#    y 0.000000 1.801050 0.000000 
#    z -0.021900 0.000000 1.828000 
# 
# From -- ./inp_files/21781.got.cif
#   From: 2010.05.17/outbox.cif.g08.bks.cpg/sg12_11_cif.got.tgz:21781.got - 2010.06.03 13:09:07.
