data_PCOD9218218
_publ_section_title
;
Structure prediction by ZEFSAII (Michael W. Deem and Ramdas Pophale) SiO2 
 PCOD9218218
Probable space group: C 2/M
;
_chemical_formula_sum "Si O2"
_cell_formula_units_Z 32
_cell_length_a 26.879308
_cell_length_b 7.772337
_cell_length_c 21.402646
_cell_angle_alpha 90.000000
_cell_angle_beta 21.459345
_cell_angle_gamma 90.000000
_cell_volume 1635.797289
_symmetry_space_group_name_H-M "C 2/M"
_symmetry_group_IT_number 12
_symmetry_cell_setting 'monoclinic'
loop_
_space_group_symop_operation_xyz
x,y,z
-x,y,-z
-x,-y,-z
x,-y,z
1/2+x,1/2+y,z
1/2-x,1/2+y,-z
1/2-x,1/2-y,-z
1/2+x,1/2-y,z
loop_
_atom_site_type_symbol
_atom_site_label
_atom_site_fract_x
_atom_site_fract_y
_atom_site_fract_z
Si Si1 0.094845 0.203514 0.195452
Si Si2 0.991723 0.000000 0.115328
Si Si3 0.594395 0.804758 0.694429
Si Si4 0.223825 0.000000 0.744729
Si Si5 0.059200 0.201955 0.499907
O O1 0.991507 0.295416 0.269105
O O2 0.052394 0.239909 0.316312
O O3 0.077389 0.000000 0.205570
O O4 0.250000 0.250000 0.000000
O O5 0.971663 0.168153 0.181288
O O6 0.874966 0.000000 0.199210
O O7 0.133178 0.000000 0.913178
O O8 0.750000 0.750000 0.500000
O O9 0.591991 0.000000 0.721333
O O10 0.317086 0.168967 0.634334
O O11 0.000000 0.228374 0.500000
O O12 0.097754 0.000000 0.460787
#
# Coordination Sequence:
#
# PCOD9218218 Si02
#       5
#     8   4   8   4   8
#     4  11  24  41  67 104 137 171 227 282 332 400
#     4  11  26  44  66 104 127 174 232 266 335 405
#     4  12  24  43  69  97 137 176 221 281 335 396
#     4  11  25  44  70  92 137 176 220 276 325 409
#     4  10  24  43  67  96 134 178 220 268 337 401
#
# _framework density 19.562325999999999
#
# number of rings (size 3 to 8) (size 9 to 14) (size 15 to 20)
#    0.000    1.000    2.500    2.625    7.000    4.000 
#    0.000    2.500    0.000    0.000    0.000    0.000 
#    0.000    0.000    0.000    0.000    0.000    0.000 
#
# Total GULP energy -89503.478545 kJ/mol
# GULP energy per Si atom -5593.967409 kJ/mol
# Density = 1.951780 g / cm^3
# Si number density = 19.562326 Si / 1000 Ang^3
#
#
#
# Elastic Constant Matrix: (Units=GPa)
#
#
# Indices 1 2 3 4 5 6 
#
# 1 99.4819 42.2381 68.3099 0.0001 15.3752 0.0001
# 2 42.2381 122.3625 59.5694 0.0001 17.3651 -0.0001
# 3 68.3099 59.5694 154.5997 -0.0004 12.4491 0.0001
# 4 0.0001 0.0001 -0.0004 27.3940 0.0000 -5.1199
# 5 15.3752 17.3651 12.4491 0.0000 39.0364 0.0000
# 6 0.0001 -0.0001 0.0001 -5.1199 0.0000 24.4934
#
#
#
# Elastic Compliance Matrix: (Units=1/GPa)
#
#
# Indices 1 2 3 4 5 6 
#
# 1 0.015372 -0.002042 -0.005738 0.000000 -0.003316 0.000000
# 2 -0.002042 0.010769 -0.003003 0.000000 -0.003029 0.000000
# 3 -0.005738 -0.003003 0.010132 0.000000 0.000365 0.000000
# 4 0.000000 0.000000 0.000000 0.037988 0.000000 0.007941
# 5 -0.003316 -0.003029 0.000365 0.000000 0.028154 0.000000
# 6 0.000000 0.000000 0.000000 0.007941 0.000000 0.042487
#
#
# Mechanical properties :
#
#
# Convention : Reuss Voigt Hill
#
# Bulk Modulus (GPa) = 68.00227 79.63099 73.81663
# Shear Modulus (GPa) = 29.17643 31.93988 30.55816
#
# Velocity S-wave (km/s) = 3.86613 4.04508 3.95662
# Velocity P-wave (km/s) = 7.40045 7.91275 7.66088
#
# Compressibility (1/GPa) = 0.01470539
#
# Stress axis : x y z
#
# Youngs Moduli (GPa) = 65.05444 92.85690 98.70140
#
# Poissons Ratio (x) = 0.18962 0.56636
# Poissons Ratio (y) = 0.13284 0.29644
# Poissons Ratio (z) = 0.37329 0.27889
#
# Static dielectric constant tensor:
#      x y z
#    x 1.685300 0.000000 0.010150 
#    y 0.000000 1.683380 0.000000 
#    z 0.010150 0.000000 1.648540 
# 
# From -- ./inp_files/81727.got.cif
#   From: 2010.05.17/outbox.cif.g08.bks.cpg/sg12_41_cif.got.tgz:81727.got - 2010.06.03 13:09:07.
