data_PCOD9218720
_publ_section_title
;
Structure prediction by ZEFSAII (Michael W. Deem and Ramdas Pophale) SiO2 
 PCOD9218720
Probable space group: C 2/M
;
_chemical_formula_sum "Si O2"
_cell_formula_units_Z 44
_cell_length_a 8.335789
_cell_length_b 22.100140
_cell_length_c 11.726775
_cell_angle_alpha 90.000000
_cell_angle_beta 78.213192
_cell_angle_gamma 90.000000
_cell_volume 2114.779385
_symmetry_space_group_name_H-M "C 2/M"
_symmetry_group_IT_number 12
_symmetry_cell_setting 'monoclinic'
loop_
_space_group_symop_operation_xyz
x,y,z
-x,y,-z
-x,-y,-z
x,-y,z
1/2+x,1/2+y,z
1/2-x,1/2+y,-z
1/2-x,1/2-y,-z
1/2+x,1/2-y,z
loop_
_atom_site_type_symbol
_atom_site_label
_atom_site_fract_x
_atom_site_fract_y
_atom_site_fract_z
Si Si1 0.503019 0.682787 0.704660
Si Si2 0.171608 0.186303 0.035126
Si Si3 0.500000 0.887593 0.500000
Si Si4 0.735750 0.434268 0.700587
Si Si5 0.160438 0.683985 0.684195
Si Si6 0.557513 0.898203 0.112029
O O1 0.376392 0.684056 0.827735
O O2 0.616348 0.623843 0.705361
O O3 0.357669 0.679669 0.631985
O O4 0.606722 0.745050 0.696448
O O5 0.250000 0.250000 0.000000
O O6 0.300543 0.141785 0.963330
O O7 0.000000 0.177837 0.000000
O O8 0.359470 0.927622 0.577341
O O9 0.426520 0.845456 0.412412
O O10 0.650714 0.500000 0.711232
O O11 0.848697 0.431725 0.798411
O O12 0.075764 0.644928 0.802051
O O13 0.500000 0.929436 0.000000
#
# Coordination Sequence:
#
# PCOD9218720 Si02
#       6
#     8   8   4   8   8   8
#     4  12  23  39  65 103 134 169 215 267 334 385
#     4  12  20  33  60  98 137 171 202 255 329 400
#     4  10  25  48  72  94 125 170 220 278 338 384
#     4  11  26  47  67  91 129 177 226 269 317 389
#     4  11  23  39  68 102 131 166 212 276 334 388
#     4  11  21  38  65  97 131 169 214 263 326 389
#
# _framework density 20.805952999999999
#
# number of rings (size 3 to 8) (size 9 to 14) (size 15 to 20)
#    0.000    0.727    5.455    4.091    0.000    4.000 
#    0.000    7.273    0.000    0.000    0.000    0.000 
#    0.000    0.000    0.000    0.000    0.000    0.000 
#
# Total GULP energy -122546.185987 kJ/mol
# GULP energy per Si atom -5570.281181 kJ/mol
# Density = 2.075860 g / cm^3
# Si number density = 20.805953 Si / 1000 Ang^3
#
#
#
# Elastic Constant Matrix: (Units=GPa)
#
#
# Indices 1 2 3 4 5 6 
#
# 1 96.8997 42.3947 11.2011 0.0000 4.8347 0.0000
# 2 42.3947 144.2778 26.7427 0.0000 -2.6303 0.0000
# 3 11.2011 26.7427 88.1765 0.0000 -6.1826 0.0000
# 4 0.0000 0.0000 0.0000 1.4546 0.0000 1.1394
# 5 4.8347 -2.6303 -6.1826 0.0000 28.8395 0.0000
# 6 0.0000 0.0000 0.0000 1.1394 0.0000 19.8365
#
#
#
# Elastic Compliance Matrix: (Units=1/GPa)
#
#
# Indices 1 2 3 4 5 6 
#
# 1 0.012032 -0.003460 -0.000653 0.000000 -0.002473 0.000000
# 2 -0.003460 0.008340 -0.002026 0.000000 0.000906 0.000000
# 3 -0.000653 -0.002026 0.012217 0.000000 0.002544 0.000000
# 4 0.000000 0.000000 0.000000 0.719854 0.000000 -0.041348
# 5 -0.002473 0.000906 0.002544 0.000000 0.035717 0.000000
# 6 0.000000 0.000000 0.000000 -0.041348 0.000000 0.052787
#
#
# Mechanical properties :
#
#
# Convention : Reuss Voigt Hill
#
# Bulk Modulus (GPa) = 49.23272 54.44787 51.84030
# Shear Modulus (GPa) = 5.81399 26.62716 16.22057
#
# Velocity S-wave (km/s) = 1.67346 3.58129 2.79518
# Velocity P-wave (km/s) = 5.23909 6.58233 5.94875
#
# Compressibility (1/GPa) = 0.02031169
#
# Stress axis : x y z
#
# Youngs Moduli (GPa) = 83.10879 119.90708 81.85523
#
# Poissons Ratio (x) = 0.41485 0.05342
# Poissons Ratio (y) = 0.28753 0.16586
# Poissons Ratio (z) = 0.05423 0.24297
#
# Static dielectric constant tensor:
#      x y z
#    x 1.985780 0.000000 0.263320 
#    y 0.000000 1.731060 0.000000 
#    z 0.263320 0.000000 1.944400 
# 
# From -- ./inp_files/120739.got.cif
#   From: 2010.05.17/outbox.cif.g08.bks.cpg/sg12_61_cif.got.tgz:120739.got - 2010.06.03 13:09:07.
