data_PCOD9218415
_publ_section_title
;
Structure prediction by ZEFSAII (Michael W. Deem and Ramdas Pophale) SiO2 
 PCOD9218415
Probable space group: C 2/M
;
_chemical_formula_sum "Si O2"
_cell_formula_units_Z 36
_cell_length_a 8.122212
_cell_length_b 17.772394
_cell_length_c 10.917575
_cell_angle_alpha 90.000000
_cell_angle_beta 80.451857
_cell_angle_gamma 90.000000
_cell_volume 1554.132014
_symmetry_space_group_name_H-M "C 2/M"
_symmetry_group_IT_number 12
_symmetry_cell_setting 'monoclinic'
loop_
_space_group_symop_operation_xyz
x,y,z
-x,y,-z
-x,-y,-z
x,-y,z
1/2+x,1/2+y,z
1/2-x,1/2+y,-z
1/2-x,1/2-y,-z
1/2+x,1/2-y,z
loop_
_atom_site_type_symbol
_atom_site_label
_atom_site_fract_x
_atom_site_fract_y
_atom_site_fract_z
Si Si1 0.684746 0.666059 0.033267
Si Si2 0.421031 0.350164 0.677482
Si Si3 0.618275 0.918749 0.189489
Si Si4 0.083941 0.695770 0.620600
Si Si5 0.605189 0.500000 0.685101
O O1 0.666494 0.650085 0.178383
O O2 0.500000 0.657496 0.000000
O O3 0.750000 0.750000 0.000000
O O4 0.808102 0.610049 0.947338
O O5 0.553009 0.281983 0.661919
O O6 0.489981 0.432303 0.645030
O O7 0.277485 0.325707 0.600056
O O8 0.507925 0.856430 0.268423
O O9 0.530183 0.000000 0.187922
O O10 0.776289 0.936167 0.258298
O O11 0.000000 0.680896 0.500000
#
# Coordination Sequence:
#
# PCOD9218415 Si02
#       5
#     8   8   8   8   4
#     4  12  22  40  70 101 143 178 225 289 350 424
#     4  12  25  44  72 106 136 189 238 283 362 421
#     4  10  24  45  70 101 146 183 225 291 356 410
#     4  12  27  50  71  99 144 192 243 294 340 415
#     4  10  24  45  71 104 144 180 233 289 358 426
#
# _framework density 23.164054
#
# number of rings (size 3 to 8) (size 9 to 14) (size 15 to 20)
#    0.667    0.000    4.444    3.333    3.111    1.778 
#    0.000    2.778    0.000    0.000    0.000    0.000 
#    0.000    0.000    0.000    0.000    0.000    0.000 
#
# Total GULP energy -100309.846596 kJ/mol
# GULP energy per Si atom -5572.769255 kJ/mol
# Density = 2.311133 g / cm^3
# Si number density = 23.164054 Si / 1000 Ang^3
#
#
#
# Elastic Constant Matrix: (Units=GPa)
#
#
# Indices 1 2 3 4 5 6 
#
# 1 70.8154 46.5633 9.6860 0.0000 18.2936 0.0000
# 2 46.5633 204.3805 31.3830 0.0000 -8.6769 0.0000
# 3 9.6860 31.3830 106.9026 0.0000 -13.8558 0.0000
# 4 0.0000 0.0000 0.0000 -13.3678 0.0000 34.1915
# 5 18.2936 -8.6769 -13.8558 0.0000 33.3334 0.0000
# 6 0.0000 0.0000 0.0000 34.1915 0.0000 -0.5798
#
#
#
# Elastic Compliance Matrix: (Units=1/GPa)
#
#
# Indices 1 2 3 4 5 6 
#
# 1 0.021429 -0.005132 -0.002254 0.000000 -0.014033 0.000000
# 2 -0.005132 0.006370 -0.000872 0.000000 0.004112 0.000000
# 3 -0.002254 -0.000872 0.010512 0.000000 0.005379 0.000000
# 4 0.000000 0.000000 0.000000 0.000499 0.000000 0.029442
# 5 -0.014033 0.004112 0.005379 0.000000 0.041008 0.000000
# 6 0.000000 0.000000 0.000000 0.029442 0.000000 0.011511
#
#
# Mechanical properties :
#
#
# Convention : Reuss Voigt Hill
#
# Bulk Modulus (GPa) = 45.88118 61.92926 53.90522
# Shear Modulus (GPa) = 43.43657 23.50824 33.47240
#
# Velocity S-wave (km/s) = 4.33502 3.18914 3.80546
# Velocity P-wave (km/s) = 6.70124 6.35247 6.52919
#
# Compressibility (1/GPa) = 0.02179543
#
# Stress axis : x y z
#
# Youngs Moduli (GPa) = 46.66582 156.97368 95.13103
#
# Poissons Ratio (x) = 0.80555 0.21442
# Poissons Ratio (y) = 0.23948 0.08298
# Poissons Ratio (z) = 0.10518 0.13692
#
# Static dielectric constant tensor:
#      x y z
#    x 1.867310 0.000000 0.019580 
#    y 0.000000 1.837810 0.000000 
#    z 0.019580 0.000000 1.863270 
# 
# From -- ./inp_files/118471.got.cif
#   From: 2010.05.17/outbox.cif.g08.bks.cpg/sg12_60_cif.got.tgz:118471.got - 2010.06.03 13:09:07.
