data_PCOD9218262
_publ_section_title
;
Structure prediction by ZEFSAII (Michael W. Deem and Ramdas Pophale) SiO2 
 PCOD9218262
Probable space group: C 2/M
;
_chemical_formula_sum "Si O2"
_cell_formula_units_Z 32
_cell_length_a 22.549490
_cell_length_b 9.155996
_cell_length_c 13.530119
_cell_angle_alpha 90.000000
_cell_angle_beta 27.156862
_cell_angle_gamma 90.000000
_cell_volume 1275.018134
_symmetry_space_group_name_H-M "C 2/M"
_symmetry_group_IT_number 12
_symmetry_cell_setting 'monoclinic'
loop_
_space_group_symop_operation_xyz
x,y,z
-x,y,-z
-x,-y,-z
x,-y,z
1/2+x,1/2+y,z
1/2-x,1/2+y,-z
1/2-x,1/2-y,-z
1/2+x,1/2-y,z
loop_
_atom_site_type_symbol
_atom_site_label
_atom_site_fract_x
_atom_site_fract_y
_atom_site_fract_z
Si Si1 0.273391 0.000000 0.074958
Si Si2 0.405130 0.263215 0.554360
Si Si3 0.086231 0.000000 0.181714
Si Si4 0.361019 0.000000 0.251918
Si Si5 0.250000 0.750000 0.500000
Si Si6 0.534445 0.500000 0.836407
Si Si7 0.916328 0.500000 0.402504
O O1 0.207469 0.139398 0.227791
O O2 0.221763 0.000000 0.038557
O O3 0.428406 0.000000 0.843644
O O4 0.500000 0.202414 0.500000
O O5 0.502309 0.366195 0.348321
O O6 0.367823 0.137076 0.535212
O O7 0.081168 0.000000 0.072004
O O8 0.296247 0.845481 0.331484
O O9 0.358533 0.000000 0.377689
O O10 0.500000 0.000000 0.000000
O O11 0.381652 0.647667 0.303504
O O12 0.500000 0.500000 0.000000
#
# Coordination Sequence:
#
# PCOD9218262 Si02
#       7
#     4   8   4   4   4   4   4
#     4   9  22  43  64  91 132 172 200 256 326 373
#     4   9  20  40  61  90 130 166 208 258 307 374
#     4   9  19  40  64  89 131 171 205 254 316 387
#     4  11  25  43  65  94 127 167 213 261 316 378
#     4  10  24  44  64  88 126 168 214 268 314 360
#     4  11  22  42  66  94 128 166 216 265 314 376
#     4  12  23  38  67 100 124 162 217 258 311 386
#
# _framework density 25.097681999999999
#
# number of rings (size 3 to 8) (size 9 to 14) (size 15 to 20)
#    0.000    2.000    0.000    4.125    0.000   10.000 
#    0.000   15.000    0.000    0.000    0.000    0.000 
#    0.000    0.000    0.000    0.000    0.000    0.000 
#
# Total GULP energy -89070.982060 kJ/mol
# GULP energy per Si atom -5566.936379 kJ/mol
# Density = 2.504056 g / cm^3
# Si number density = 25.097682 Si / 1000 Ang^3
#
#
#
# Elastic Constant Matrix: (Units=GPa)
#
#
# Indices 1 2 3 4 5 6 
#
# 1 188.8544 33.9915 38.4188 0.0000 10.0076 0.0000
# 2 33.9915 100.2852 5.0257 0.0000 -4.9562 0.0000
# 3 38.4188 5.0257 119.0721 0.0000 1.5181 0.0000
# 4 0.0000 0.0000 0.0000 -65.7288 0.0000 -41.7524
# 5 10.0076 -4.9562 1.5181 0.0000 35.7245 0.0000
# 6 0.0000 0.0000 0.0000 -41.7524 0.0000 44.5902
#
#
#
# Elastic Compliance Matrix: (Units=1/GPa)
#
#
# Indices 1 2 3 4 5 6 
#
# 1 0.006154 -0.002088 -0.001873 0.000000 -0.001934 0.000000
# 2 -0.002088 0.010772 0.000193 0.000000 0.002071 0.000000
# 3 -0.001873 0.000193 0.008992 0.000000 0.000169 0.000000
# 4 0.000000 0.000000 0.000000 -0.009540 0.000000 -0.008933
# 5 -0.001934 0.002071 0.000169 0.000000 0.028814 0.000000
# 6 0.000000 0.000000 0.000000 -0.008933 0.000000 0.014062
#
#
# Mechanical properties :
#
#
# Convention : Reuss Voigt Hill
#
# Bulk Modulus (GPa) = 54.40010 62.56486 58.48248
# Shear Modulus (GPa) = 68.56960 24.96889 46.76924
#
# Velocity S-wave (km/s) = 5.23263 3.15758 4.32150
# Velocity P-wave (km/s) = 7.63083 6.18679 6.94644
#
# Compressibility (1/GPa) = 0.01838232
#
# Stress axis : x y z
#
# Youngs Moduli (GPa) = 162.48662 92.83412 111.20631
#
# Poissons Ratio (x) = 0.19381 0.20828
# Poissons Ratio (y) = 0.33923 -0.02141
# Poissons Ratio (z) = 0.30433 -0.01788
#
# Static dielectric constant tensor:
#      x y z
#    x 2.076580 0.000000 -0.044590 
#    y 0.000000 2.052150 0.000000 
#    z -0.044590 0.000000 1.926890 
# 
# From -- ./inp_files/238220.got.cif
#   From: 2010.05.17/outbox.cif.g08.bks.cpg/sg12_120_cif.got.tgz:238220.got - 2010.06.03 13:09:07.
