data_PCOD9218451
_publ_section_title
;
Structure prediction by ZEFSAII (Michael W. Deem and Ramdas Pophale) SiO2 
 PCOD9218451
Probable space group: C 2/M
;
_chemical_formula_sum "Si O2"
_cell_formula_units_Z 40
_cell_length_a 20.859909
_cell_length_b 9.274415
_cell_length_c 13.186617
_cell_angle_alpha 90.000000
_cell_angle_beta 131.243358
_cell_angle_gamma 90.000000
_cell_volume 1918.234910
_symmetry_space_group_name_H-M "C 2/M"
_symmetry_group_IT_number 12
_symmetry_cell_setting 'monoclinic'
loop_
_space_group_symop_operation_xyz
x,y,z
-x,y,-z
-x,-y,-z
x,-y,z
1/2+x,1/2+y,z
1/2-x,1/2+y,-z
1/2-x,1/2-y,-z
1/2+x,1/2-y,z
loop_
_atom_site_type_symbol
_atom_site_label
_atom_site_fract_x
_atom_site_fract_y
_atom_site_fract_z
Si Si1 0.666416 0.329427 0.370280
Si Si2 0.367091 0.166043 0.313216
Si Si3 0.098231 0.831030 0.076588
Si Si4 0.963175 0.334511 0.629042
Si Si5 0.220380 0.669629 0.070214
O O1 0.675257 0.500000 0.396016
O O2 0.750000 0.250000 0.500000
O O3 0.651700 0.305955 0.235346
O O4 0.582919 0.270051 0.341029
O O5 0.440084 0.194720 0.305073
O O6 0.410445 0.172032 0.468444
O O7 0.292904 0.280814 0.225197
O O8 0.336506 0.000000 0.267113
O O9 0.133048 0.732330 0.023386
O O10 0.107115 0.000000 0.058213
O O11 0.000000 0.803890 0.000000
O O12 0.958738 0.500000 0.661379
O O13 0.216671 0.500000 0.052053
O O14 0.250000 0.750000 0.000000
#
# Coordination Sequence:
#
# PCOD9218451 Si02
#       5
#     8   8   8   8   8
#     4  11  23  38  61  91 125 165 209 259 317 377
#     4   9  19  38  61  89 124 163 204 253 313 368
#     4  10  24  46  67  91 128 169 212 265 321 377
#     4   9  19  36  61  90 124 161 201 254 312 372
#     4  12  26  42  64  92 124 165 212 261 312 375
#
# _framework density 20.852502999999999
#
# number of rings (size 3 to 8) (size 9 to 14) (size 15 to 20)
#    0.000    1.800    0.000    4.800    2.800    8.400 
#    0.000    2.000    0.000    0.000    0.000    0.000 
#    0.000    0.000    0.000    0.000    0.000    0.000 
#
# Total GULP energy -111868.873343 kJ/mol
# GULP energy per Si atom -5593.443667 kJ/mol
# Density = 2.080504 g / cm^3
# Si number density = 20.852503 Si / 1000 Ang^3
#
#
#
# Elastic Constant Matrix: (Units=GPa)
#
#
# Indices 1 2 3 4 5 6 
#
# 1 129.5705 97.2621 17.3233 0.0000 -5.8098 0.0000
# 2 97.2621 134.6970 39.9651 0.0000 -6.1342 0.0000
# 3 17.3233 39.9651 46.7276 0.0000 8.7474 0.0000
# 4 0.0000 0.0000 0.0000 23.8490 0.0000 3.9376
# 5 -5.8098 -6.1342 8.7474 0.0000 24.9934 0.0000
# 6 0.0000 0.0000 0.0000 3.9376 0.0000 39.9582
#
#
#
# Elastic Compliance Matrix: (Units=1/GPa)
#
#
# Indices 1 2 3 4 5 6 
#
# 1 0.018078 -0.015069 0.006519 0.000000 -0.001778 0.000000
# 2 -0.015069 0.023362 -0.015851 0.000000 0.007779 0.000000
# 3 0.006519 -0.015851 0.035298 0.000000 -0.014729 0.000000
# 4 0.000000 0.000000 0.000000 0.042624 0.000000 -0.004200
# 5 -0.001778 0.007779 -0.014729 0.000000 0.046662 0.000000
# 6 0.000000 0.000000 0.000000 -0.004200 0.000000 0.025440
#
#
# Mechanical properties :
#
#
# Convention : Reuss Voigt Hill
#
# Bulk Modulus (GPa) = 35.79557 68.89959 52.34758
# Shear Modulus (GPa) = 20.03378 28.18975 24.11176
#
# Velocity S-wave (km/s) = 3.10294 3.68076 3.40413
# Velocity P-wave (km/s) = 5.48097 7.15382 6.37252
#
# Compressibility (1/GPa) = 0.02793642
#
# Stress axis : x y z
#
# Youngs Moduli (GPa) = 55.31574 42.80391 28.33003
#
# Poissons Ratio (x) = 0.64501 -0.18468
# Poissons Ratio (y) = 0.83355 0.44906
# Poissons Ratio (z) = -0.36059 0.67849
#
# Static dielectric constant tensor:
#      x y z
#    x 1.753190 0.000000 0.006980 
#    y 0.000000 1.693110 0.000000 
#    z 0.006980 0.000000 1.810490 
# 
# From -- ./inp_files/229645.got.cif
#   From: 2010.05.17/outbox.cif.g08.bks.cpg/sg12_115_cif.got.tgz:229645.got - 2010.06.03 13:09:07.
