data_PCOD9218845
_publ_section_title
;
Structure prediction by ZEFSAII (Michael W. Deem and Ramdas Pophale) SiO2 
 PCOD9218845
Probable space group: C 2/M
;
_chemical_formula_sum "Si O2"
_cell_formula_units_Z 48
_cell_length_a 14.051198
_cell_length_b 19.252812
_cell_length_c 14.986655
_cell_angle_alpha 90.000000
_cell_angle_beta 141.060351
_cell_angle_gamma 90.000000
_cell_volume 2548.112049
_symmetry_space_group_name_H-M "C 2/M"
_symmetry_group_IT_number 12
_symmetry_cell_setting 'monoclinic'
loop_
_space_group_symop_operation_xyz
x,y,z
-x,y,-z
-x,-y,-z
x,-y,z
1/2+x,1/2+y,z
1/2-x,1/2+y,-z
1/2-x,1/2-y,-z
1/2+x,1/2-y,z
loop_
_atom_site_type_symbol
_atom_site_label
_atom_site_fract_x
_atom_site_fract_y
_atom_site_fract_z
Si Si1 0.310007 0.175958 0.583164
Si Si2 0.508161 0.765555 0.869287
Si Si3 0.415909 0.826671 0.345543
Si Si4 0.953866 0.080126 0.680239
Si Si5 0.397379 0.384144 0.845518
Si Si6 0.186693 0.803272 0.831745
O O1 0.250000 0.250000 0.500000
O O2 0.372053 0.189954 0.727769
O O3 0.457848 0.154014 0.634879
O O4 0.178346 0.121284 0.468383
O O5 0.446705 0.696281 0.869802
O O6 0.602738 0.734939 0.853789
O O7 0.634367 0.804383 0.019547
O O8 0.500000 0.824072 0.500000
O O9 0.276332 0.879694 0.250296
O O10 0.354042 0.749927 0.276610
O O11 0.919996 0.085356 0.762741
O O12 0.106905 0.122474 0.770024
O O13 0.961304 0.000000 0.660994
O O14 0.500000 0.414264 0.000000
#
# Coordination Sequence:
#
# PCOD9218845 Si02
#       6
#     8   8   8   8   8   8
#     4  11  18  34  55  78 105 144 192 231 261 319
#     4   9  17  31  53  80 104 131 186 242 265 304
#     4  11  18  29  54  88 105 131 180 239 274 308
#     4  11  23  38  53  77 118 156 183 217 274 341
#     4  11  20  32  54  85 113 140 178 227 284 323
#     4   9  18  32  53  78 103 139 186 231 266 313
#
# _framework density 18.837475999999999
#
# number of rings (size 3 to 8) (size 9 to 14) (size 15 to 20)
#    0.000    1.667    8.333    0.000    2.333    0.333 
#    0.000    2.500    0.000    0.500    0.000    1.167 
#    0.000    0.000    0.000    0.000    0.000    0.000 
#
# Total GULP energy -133867.519960 kJ/mol
# GULP energy per Si atom -5577.813332 kJ/mol
# Density = 1.879460 g / cm^3
# Si number density = 18.837476 Si / 1000 Ang^3
#
#
#
# Elastic Constant Matrix: (Units=GPa)
#
#
# Indices 1 2 3 4 5 6 
#
# 1 25.0830 -8.7893 -2.2569 0.0000 14.3739 0.0000
# 2 -8.7893 102.2118 44.8286 0.0000 12.8406 0.0000
# 3 -2.2569 44.8286 141.3806 -0.0001 10.8552 -0.0001
# 4 0.0000 0.0000 -0.0001 12.8710 -0.0001 0.8705
# 5 14.3739 12.8406 10.8552 -0.0001 27.6127 0.0000
# 6 0.0000 0.0000 -0.0001 0.8705 0.0000 7.6728
#
#
#
# Elastic Compliance Matrix: (Units=1/GPa)
#
#
# Indices 1 2 3 4 5 6 
#
# 1 0.066252 0.010309 0.000830 0.000000 -0.039608 0.000000
# 2 0.010309 0.013411 -0.003296 0.000000 -0.010307 0.000000
# 3 0.000830 -0.003296 0.008297 0.000000 -0.002161 0.000000
# 4 0.000000 0.000000 0.000000 0.078295 0.000000 -0.008882
# 5 -0.039608 -0.010307 -0.002161 0.000000 0.062476 0.000000
# 6 0.000000 0.000000 0.000000 -0.008882 0.000000 0.131338
#
#
# Mechanical properties :
#
#
# Convention : Reuss Voigt Hill
#
# Bulk Modulus (GPa) = 9.64830 37.36004 23.50417
# Shear Modulus (GPa) = 13.19500 25.29085 19.24293
#
# Velocity S-wave (km/s) = 2.64950 3.66810 3.19960
# Velocity P-wave (km/s) = 3.80694 6.14946 5.11413
#
# Compressibility (1/GPa) = 0.10364523
#
# Stress axis : x y z
#
# Youngs Moduli (GPa) = 15.09387 74.56801 120.51879
#
# Poissons Ratio (x) = -0.76871 -0.10003
# Poissons Ratio (y) = -0.15560 0.39726
# Poissons Ratio (z) = -0.01253 0.24580
#
# Static dielectric constant tensor:
#      x y z
#    x 1.806230 0.000000 -0.047880 
#    y 0.000000 1.623420 0.000000 
#    z -0.047880 0.000000 1.709420 
# 
# From -- ./inp_files/74497.got.cif
#   From: 2010.05.17/outbox.cif.g08.bks.cpg/sg12_38_cif.got.tgz:74497.got - 2010.06.03 13:09:07.
