data_PCOD9218129
_publ_section_title
;
Structure prediction by ZEFSAII (Michael W. Deem and Ramdas Pophale) SiO2 
 PCOD9218129
Probable space group: C 2/M
;
_chemical_formula_sum "Si O2"
_cell_formula_units_Z 44
_cell_length_a 9.110610
_cell_length_b 24.970420
_cell_length_c 9.539512
_cell_angle_alpha 90.000000
_cell_angle_beta 85.902096
_cell_angle_gamma 90.000000
_cell_volume 2164.650181
_symmetry_space_group_name_H-M "C 2/M"
_symmetry_group_IT_number 12
_symmetry_cell_setting 'monoclinic'
loop_
_space_group_symop_operation_xyz
x,y,z
-x,y,-z
-x,-y,-z
x,-y,z
1/2+x,1/2+y,z
1/2-x,1/2+y,-z
1/2-x,1/2-y,-z
1/2+x,1/2-y,z
loop_
_atom_site_type_symbol
_atom_site_label
_atom_site_fract_x
_atom_site_fract_y
_atom_site_fract_z
Si Si1 0.319362 0.382888 0.257224
Si Si2 0.965975 0.682964 0.655612
Si Si3 0.242223 0.864236 0.260280
Si Si4 0.174249 0.436044 0.993198
Si Si5 0.460523 0.713206 0.846679
Si Si6 0.000000 0.895201 0.500000
O O1 0.182804 0.350578 0.330593
O O2 0.430197 0.335743 0.200569
O O3 0.401981 0.417197 0.374283
O O4 0.257260 0.413920 0.125857
O O5 0.965775 0.734130 0.754396
O O6 0.000000 0.704216 0.500000
O O7 0.096708 0.643716 0.690714
O O8 0.245801 0.913521 0.151700
O O9 0.198322 0.813349 0.168086
O O10 0.127775 0.866876 0.397925
O O11 0.178387 0.500000 0.994628
O O12 0.000000 0.419484 0.000000
O O13 0.500000 0.728179 0.000000
#
# Coordination Sequence:
#
# PCOD9218129 Si02
#       6
#     8   8   8   8   8   4
#     4  11  23  44  64  96 138 172 220 277 328 388
#     4  12  25  39  65  95 135 187 222 260 322 390
#     4  11  23  44  64  96 138 172 220 277 328 388
#     4  11  24  45  76 104 123 164 225 287 342 394
#     4  11  25  38  60  97 136 176 220 267 325 396
#     4  10  24  42  67  92 136 180 212 266 333 386
#
# _framework density 20.326609999999999
#
# number of rings (size 3 to 8) (size 9 to 14) (size 15 to 20)
#    0.000    0.909    5.455    1.091    7.636    2.909 
#    0.000    9.091    0.000    3.273    0.000    0.000 
#    0.000    0.000    0.000    0.000    0.000    0.000 
#
# Total GULP energy -122645.781662 kJ/mol
# GULP energy per Si atom -5574.808257 kJ/mol
# Density = 2.028035 g / cm^3
# Si number density = 20.326610 Si / 1000 Ang^3
#
#
#
# Elastic Constant Matrix: (Units=GPa)
#
#
# Indices 1 2 3 4 5 6 
#
# 1 86.9024 24.7478 41.2753 0.0000 24.0063 0.0000
# 2 24.7478 44.7378 33.6445 0.0000 -3.4066 0.0000
# 3 41.2753 33.6445 146.8697 0.0000 25.0630 0.0000
# 4 0.0000 0.0000 0.0000 -14.9112 0.0000 -4.9970
# 5 24.0063 -3.4066 25.0630 0.0000 35.8020 0.0000
# 6 0.0000 0.0000 0.0000 -4.9970 0.0000 1.3530
#
#
#
# Elastic Compliance Matrix: (Units=1/GPa)
#
#
# Indices 1 2 3 4 5 6 
#
# 1 0.018420 -0.010832 -0.000468 0.000000 -0.013055 0.000000
# 2 -0.010832 0.035460 -0.007829 0.000000 0.016118 0.000000
# 3 -0.000468 -0.007829 0.010002 0.000000 -0.007433 0.000000
# 4 0.000000 0.000000 0.000000 -0.029970 0.000000 -0.110688
# 5 -0.013055 0.016118 -0.007433 0.000000 0.043422 0.000000
# 6 0.000000 0.000000 0.000000 -0.110688 0.000000 0.330296
#
#
# Mechanical properties :
#
#
# Convention : Reuss Voigt Hill
#
# Bulk Modulus (GPa) = 39.02556 53.09389 46.05973
# Shear Modulus (GPa) = 11.00280 16.37158 13.68719
#
# Velocity S-wave (km/s) = 2.32911 2.84108 2.59774
# Velocity P-wave (km/s) = 5.14528 6.07778 5.63087
#
# Compressibility (1/GPa) = 0.02562423
#
# Stress axis : x y z
#
# Youngs Moduli (GPa) = 54.28811 28.20101 99.97800
#
# Poissons Ratio (x) = 0.30547 0.04675
# Poissons Ratio (y) = 0.58805 0.78277
# Poissons Ratio (z) = 0.02538 0.22080
#
# Static dielectric constant tensor:
#      x y z
#    x 1.768320 0.000000 0.007430 
#    y 0.000000 1.676960 0.000000 
#    z 0.007430 0.000000 1.739580 
# 
# From -- ./inp_files/41685.got.cif
#   From: 2010.05.17/outbox.cif.g08.bks.cpg/sg12_21_cif.got.tgz:41685.got - 2010.06.03 13:09:07.
