data_PCOD9218697
_publ_section_title
;
Structure prediction by ZEFSAII (Michael W. Deem and Ramdas Pophale) SiO2 
 PCOD9218697
Probable space group: C 2/M
;
_chemical_formula_sum "Si O2"
_cell_formula_units_Z 48
_cell_length_a 14.612410
_cell_length_b 24.502611
_cell_length_c 12.436140
_cell_angle_alpha 90.000000
_cell_angle_beta 150.756040
_cell_angle_gamma 90.000000
_cell_volume 2175.256121
_symmetry_space_group_name_H-M "C 2/M"
_symmetry_group_IT_number 12
_symmetry_cell_setting 'monoclinic'
loop_
_space_group_symop_operation_xyz
x,y,z
-x,y,-z
-x,-y,-z
x,-y,z
1/2+x,1/2+y,z
1/2-x,1/2+y,-z
1/2-x,1/2-y,-z
1/2+x,1/2-y,z
loop_
_atom_site_type_symbol
_atom_site_label
_atom_site_fract_x
_atom_site_fract_y
_atom_site_fract_z
Si Si1 0.004660 0.342340 0.162671
Si Si2 0.809575 0.891121 0.586425
Si Si3 0.206340 0.118979 0.003695
Si Si4 0.262238 0.500000 0.665894
Si Si5 0.717798 0.169203 0.705212
Si Si6 0.720370 0.704142 0.705478
Si Si7 0.316393 0.000000 0.170892
O O1 0.137680 0.394061 0.326777
O O2 0.173961 0.301764 0.301861
O O3 0.867118 0.340777 0.124499
O O4 0.847395 0.335690 0.909275
O O5 0.832942 0.946754 0.676705
O O6 0.760846 0.846346 0.627292
O O7 0.009207 0.875717 0.741577
O O8 0.175173 0.133808 0.096417
O O9 0.269911 0.056257 0.063489
O O10 0.289511 0.500000 0.822073
O O11 0.037096 0.500000 0.420836
O O12 0.500000 0.155458 0.500000
O O13 0.750190 0.232453 0.764568
O O14 0.500000 0.693733 0.500000
#
# Coordination Sequence:
#
# PCOD9218697 Si02
#       7
#     8   8   8   4   8   8   4
#     4  11  24  44  65  95 130 173 225 278 323 379
#     4  12  24  39  66  99 135 177 215 259 326 403
#     4  12  24  39  66  99 135 177 215 259 326 403
#     4  11  21  39  65  96 141 176 204 260 332 399
#     4  11  22  43  61  94 138 174 216 265 321 391
#     4  10  25  47  67  88 127 179 226 278 329 373
#     4  11  21  39  65  96 141 176 204 260 332 399
#
# _framework density 22.066368000000001
#
# number of rings (size 3 to 8) (size 9 to 14) (size 15 to 20)
#    0.000    0.833    5.000    2.000    4.667    2.000 
#    0.000    0.000    0.000    8.000    0.000   14.000 
#    0.000    0.000    0.000    0.000    0.000    0.000 
#
# Total GULP energy -133747.256008 kJ/mol
# GULP energy per Si atom -5572.802334 kJ/mol
# Density = 2.201614 g / cm^3
# Si number density = 22.066368 Si / 1000 Ang^3
#
#
#
# Elastic Constant Matrix: (Units=GPa)
#
#
# Indices 1 2 3 4 5 6 
#
# 1 94.6845 39.4167 36.5431 0.0000 29.8337 0.0000
# 2 39.4167 54.2097 39.5812 0.0000 1.2328 0.0000
# 3 36.5431 39.5812 123.3692 0.0000 28.6492 0.0000
# 4 0.0000 0.0000 0.0000 -6.4518 0.0000 -0.5191
# 5 29.8337 1.2328 28.6492 0.0000 45.2395 0.0000
# 6 0.0000 0.0000 0.0000 -0.5191 0.0000 5.5050
#
#
#
# Elastic Compliance Matrix: (Units=1/GPa)
#
#
# Indices 1 2 3 4 5 6 
#
# 1 0.021639 -0.017420 0.002794 0.000000 -0.015565 0.000000
# 2 -0.017420 0.039106 -0.011498 0.000000 0.017704 0.000000
# 3 0.002794 -0.011498 0.013274 0.000000 -0.009935 0.000000
# 4 0.000000 0.000000 0.000000 -0.153830 0.000000 -0.014505
# 5 -0.015565 0.017704 -0.009935 0.000000 0.038178 0.000000
# 6 0.000000 0.000000 0.000000 -0.014505 0.000000 0.180287
#
#
# Mechanical properties :
#
#
# Convention : Reuss Voigt Hill
#
# Bulk Modulus (GPa) = 45.93218 55.92727 50.92972
# Shear Modulus (GPa) = 25.23208 19.30669 22.26939
#
# Velocity S-wave (km/s) = 3.38518 2.96114 3.18024
# Velocity P-wave (km/s) = 6.01165 6.09026 6.05108
#
# Compressibility (1/GPa) = 0.02177123
#
# Stress axis : x y z
#
# Youngs Moduli (GPa) = 46.21212 25.57168 75.33342
#
# Poissons Ratio (x) = 0.44546 -0.21046
# Poissons Ratio (y) = 0.80502 0.86616
# Poissons Ratio (z) = -0.12911 0.29402
#
# Static dielectric constant tensor:
#      x y z
#    x 1.870470 0.000000 0.002050 
#    y 0.000000 1.770820 0.000000 
#    z 0.002050 0.000000 1.921170 
# 
# From -- ./inp_files/149926.got.cif
#   From: 2010.05.17/outbox.cif.g08.bks.cpg/sg12_75_cif.got.tgz:149926.got - 2010.06.03 13:09:07.
