data_PCOD9218762
_publ_section_title
;
Structure prediction by ZEFSAII (Michael W. Deem and Ramdas Pophale) SiO2 
 PCOD9218762
Probable space group: C 2/M
;
_chemical_formula_sum "Si O2"
_cell_formula_units_Z 44
_cell_length_a 12.618619
_cell_length_b 23.194337
_cell_length_c 10.893440
_cell_angle_alpha 90.000000
_cell_angle_beta 39.954231
_cell_angle_gamma 90.000000
_cell_volume 2047.446445
_symmetry_space_group_name_H-M "C 2/M"
_symmetry_group_IT_number 12
_symmetry_cell_setting 'monoclinic'
loop_
_space_group_symop_operation_xyz
x,y,z
-x,y,-z
-x,-y,-z
x,-y,z
1/2+x,1/2+y,z
1/2-x,1/2+y,-z
1/2-x,1/2-y,-z
1/2+x,1/2-y,z
loop_
_atom_site_type_symbol
_atom_site_label
_atom_site_fract_x
_atom_site_fract_y
_atom_site_fract_z
Si Si1 0.865606 0.000000 0.312050
Si Si2 0.312815 0.688866 0.164013
Si Si3 0.325698 0.300988 0.601521
Si Si4 0.111233 0.616270 0.168432
Si Si5 0.000000 0.361241 0.000000
Si Si6 0.263112 0.623196 0.433600
Si Si7 0.267376 0.500000 0.126505
O O1 0.824639 0.059649 0.418622
O O2 0.759696 0.000000 0.280799
O O3 0.050282 0.000000 0.095073
O O4 0.197836 0.734634 0.337178
O O5 0.233178 0.667972 0.106207
O O6 0.323041 0.633223 0.242472
O O7 0.500000 0.711951 0.000000
O O8 0.500000 0.321062 0.500000
O O9 0.160861 0.328729 0.804943
O O10 0.326749 0.323987 0.461189
O O11 0.181517 0.556976 0.154118
O O12 0.075239 0.610226 0.055632
O O13 0.933659 0.626186 0.387285
#
# Coordination Sequence:
#
# PCOD9218762 Si02
#       7
#     4   8   8   8   4   8   4
#     4  11  23  41  67 107 136 171 230 277 355 407
#     4  12  24  41  70 106 139 180 229 291 347 407
#     4  11  25  45  69  97 143 185 231 285 342 414
#     4  11  24  43  71  97 144 180 231 282 344 408
#     4  10  26  47  64 104 136 189 232 280 342 416
#     4  11  24  43  67 104 137 177 233 282 343 414
#     4  11  23  40  70 103 136 181 215 291 341 415
#
# _framework density 21.490183999999999
#
# number of rings (size 3 to 8) (size 9 to 14) (size 15 to 20)
#    0.000    0.909    2.727    3.818    5.091    3.273 
#    0.000    1.364    0.000    0.000    0.000    0.000 
#    0.000    0.000    0.000    0.000    0.000    0.000 
#
# Total GULP energy -122749.761705 kJ/mol
# GULP energy per Si atom -5579.534623 kJ/mol
# Density = 2.144127 g / cm^3
# Si number density = 21.490184 Si / 1000 Ang^3
#
#
#
# Elastic Constant Matrix: (Units=GPa)
#
#
# Indices 1 2 3 4 5 6 
#
# 1 144.9725 46.0469 27.6059 0.0000 -3.5621 0.0000
# 2 46.0469 79.5318 -16.6997 0.0000 6.3537 0.0000
# 3 27.6059 -16.6997 49.1330 0.0000 -6.5969 0.0000
# 4 0.0000 0.0000 0.0000 9.7973 0.0000 -9.0710
# 5 -3.5621 6.3537 -6.5969 0.0000 36.2757 0.0000
# 6 0.0000 0.0000 0.0000 -9.0710 0.0000 27.6397
#
#
#
# Elastic Compliance Matrix: (Units=1/GPa)
#
#
# Indices 1 2 3 4 5 6 
#
# 1 0.011414 -0.008619 -0.009214 0.000000 0.000955 0.000000
# 2 -0.008619 0.020137 0.011378 0.000000 -0.002304 0.000000
# 3 -0.009214 0.011378 0.029734 0.000000 0.002510 0.000000
# 4 0.000000 0.000000 0.000000 0.146620 0.000000 0.048119
# 5 0.000955 -0.002304 0.002510 0.000000 0.028520 0.000000
# 6 0.000000 0.000000 0.000000 0.048119 0.000000 0.051972
#
#
# Mechanical properties :
#
#
# Convention : Reuss Voigt Hill
#
# Bulk Modulus (GPa) = 20.67254 43.06039 31.86646
# Shear Modulus (GPa) = 15.75136 29.18816 22.46976
#
# Velocity S-wave (km/s) = 2.71025 3.68939 3.23705
# Velocity P-wave (km/s) = 4.40844 6.18300 5.36954
#
# Compressibility (1/GPa) = 0.04837336
#
# Stress axis : x y z
#
# Youngs Moduli (GPa) = 87.61491 49.65979 33.63138
#
# Poissons Ratio (x) = 0.42803 0.30989
# Poissons Ratio (y) = 0.75517 -0.38265
# Poissons Ratio (z) = 0.80730 -0.56502
#
# Static dielectric constant tensor:
#      x y z
#    x 1.830890 0.000000 0.019310 
#    y 0.000000 1.811480 0.000000 
#    z 0.019310 0.000000 1.771090 
# 
# From -- ./inp_files/135800.got.cif
#   From: 2010.05.17/outbox.cif.g08.bks.cpg/sg12_68_cif.got.tgz:135800.got - 2010.06.03 13:09:07.
