data_PCOD9218176
_publ_section_title
;
Structure prediction by ZEFSAII (Michael W. Deem and Ramdas Pophale) SiO2 
 PCOD9218176
Probable space group: C 2/M
;
_chemical_formula_sum "Si O2"
_cell_formula_units_Z 48
_cell_length_a 16.240921
_cell_length_b 12.560202
_cell_length_c 10.344895
_cell_angle_alpha 90.000000
_cell_angle_beta 78.427023
_cell_angle_gamma 90.000000
_cell_volume 2067.345979
_symmetry_space_group_name_H-M "C 2/M"
_symmetry_group_IT_number 12
_symmetry_cell_setting 'monoclinic'
loop_
_space_group_symop_operation_xyz
x,y,z
-x,y,-z
-x,-y,-z
x,-y,z
1/2+x,1/2+y,z
1/2-x,1/2+y,-z
1/2-x,1/2-y,-z
1/2+x,1/2-y,z
loop_
_atom_site_type_symbol
_atom_site_label
_atom_site_fract_x
_atom_site_fract_y
_atom_site_fract_z
Si Si1 0.342156 0.116143 0.949120
Si Si2 0.704707 0.276674 0.815407
Si Si3 0.476314 0.828951 0.722107
Si Si4 0.789978 0.121788 0.576322
Si Si5 0.625188 0.174443 0.504623
Si Si6 0.027869 0.122541 0.839992
O O1 0.276457 0.152034 0.859171
O O2 0.433835 0.115258 0.856210
O O3 0.319230 0.000000 0.005893
O O4 0.335510 0.202707 0.061583
O O5 0.748804 0.194242 0.702920
O O6 0.626492 0.347999 0.794805
O O7 0.421072 0.853025 0.612972
O O8 0.569348 0.857945 0.645396
O O9 0.477995 0.705326 0.765238
O O10 0.716757 0.124673 0.491020
O O11 0.864745 0.197099 0.503158
O O12 0.809851 0.000000 0.602995
O O13 0.012692 0.000000 0.810426
O O14 0.000000 0.135845 0.000000
#
# Coordination Sequence:
#
# PCOD9218176 Si02
#       6
#     8   8   8   8   8   8
#     4  11  24  41  69  97 127 172 209 264 333 377
#     4  11  22  45  66  95 134 159 217 272 312 395
#     4  11  22  44  63  92 135 162 215 268 307 386
#     4  11  23  43  69  93 126 171 216 266 320 375
#     4  10  24  43  63  91 132 169 213 264 312 378
#     4  11  23  41  68  95 127 171 210 265 329 373
#
# _framework density 23.218174999999999
#
# number of rings (size 3 to 8) (size 9 to 14) (size 15 to 20)
#    0.000    1.167    5.000    1.000    0.000    2.667 
#    0.000    4.167    0.000    0.000    0.000    0.000 
#    0.000    0.000    0.000    0.000    0.000    0.000 
#
# Total GULP energy -134167.252378 kJ/mol
# GULP energy per Si atom -5590.302182 kJ/mol
# Density = 2.316533 g / cm^3
# Si number density = 23.218175 Si / 1000 Ang^3
#
#
#
# Elastic Constant Matrix: (Units=GPa)
#
#
# Indices 1 2 3 4 5 6 
#
# 1 23.9577 -7.3108 0.3807 0.0000 -11.3301 0.0000
# 2 -7.3108 90.5564 -15.7797 0.0000 -11.7843 0.0000
# 3 0.3807 -15.7797 70.0710 0.0000 -24.3941 0.0000
# 4 0.0000 0.0000 0.0000 12.4005 0.0000 -1.7698
# 5 -11.3301 -11.7843 -24.3941 0.0000 37.1839 0.0000
# 6 0.0000 0.0000 0.0000 -1.7698 0.0000 5.1991
#
#
#
# Elastic Compliance Matrix: (Units=1/GPa)
#
#
# Indices 1 2 3 4 5 6 
#
# 1 0.058691 0.010703 0.012309 0.000000 0.029351 0.000000
# 2 0.010703 0.015007 0.007922 0.000000 0.013214 0.000000
# 3 0.012309 0.007922 0.023546 0.000000 0.021708 0.000000
# 4 0.000000 0.000000 0.000000 0.084760 0.000000 0.028853
# 5 0.029351 0.013214 0.021708 0.000000 0.054266 0.000000
# 6 0.000000 0.000000 0.000000 0.028853 0.000000 0.202163
#
#
# Mechanical properties :
#
#
# Convention : Reuss Voigt Hill
#
# Bulk Modulus (GPa) = 6.28496 15.46286 10.87391
# Shear Modulus (GPa) = 11.63868 24.77634 18.20751
#
# Velocity S-wave (km/s) = 2.24135 3.27021 2.80338
# Velocity P-wave (km/s) = 3.06773 4.57529 3.89514
#
# Compressibility (1/GPa) = 0.15911012
#
# Stress axis : x y z
#
# Youngs Moduli (GPa) = 17.03836 66.63657 42.47095
#
# Poissons Ratio (x) = -0.71319 -0.52278
# Poissons Ratio (y) = -0.18236 -0.33643
# Poissons Ratio (z) = -0.20973 -0.52786
#
# Static dielectric constant tensor:
#      x y z
#    x 1.878740 0.000000 -0.009560 
#    y 0.000000 1.847020 0.000000 
#    z -0.009560 0.000000 1.911570 
# 
# From -- ./inp_files/154211.got.cif
#   From: 2010.05.17/outbox.cif.g08.bks.cpg/sg12_78_cif.got.tgz:154211.got - 2010.06.03 13:09:07.
