data_PCOD9218507
_publ_section_title
;
Structure prediction by ZEFSAII (Michael W. Deem and Ramdas Pophale) SiO2 
 PCOD9218507
Probable space group: C 2/M
;
_chemical_formula_sum "Si O2"
_cell_formula_units_Z 56
_cell_length_a 13.758310
_cell_length_b 25.207633
_cell_length_c 11.567721
_cell_angle_alpha 90.000000
_cell_angle_beta 33.954477
_cell_angle_gamma 90.000000
_cell_volume 2240.756195
_symmetry_space_group_name_H-M "C 2/M"
_symmetry_group_IT_number 12
_symmetry_cell_setting 'monoclinic'
loop_
_space_group_symop_operation_xyz
x,y,z
-x,y,-z
-x,-y,-z
x,-y,z
1/2+x,1/2+y,z
1/2-x,1/2+y,-z
1/2-x,1/2-y,-z
1/2+x,1/2-y,z
loop_
_atom_site_type_symbol
_atom_site_label
_atom_site_fract_x
_atom_site_fract_y
_atom_site_fract_z
Si Si1 0.232480 0.129260 0.559709
Si Si2 0.690132 0.294513 0.417292
Si Si3 0.604937 0.559357 0.160305
Si Si4 0.566433 0.905038 0.311691
Si Si5 0.236029 0.185686 0.789698
Si Si6 0.160246 0.804750 0.106356
Si Si7 0.687904 0.115348 0.870200
O O1 0.992556 0.207395 0.653064
O O2 0.403773 0.092519 0.384333
O O3 0.210341 0.142079 0.716527
O O4 0.275886 0.185461 0.453239
O O5 0.747755 0.242941 0.288132
O O6 0.720900 0.347753 0.313932
O O7 0.791921 0.345898 0.037149
O O8 0.539404 0.500000 0.210304
O O9 0.756821 0.570288 0.914475
O O10 0.443654 0.600590 0.310625
O O11 0.700601 0.566950 0.189963
O O12 0.500000 0.928245 0.500000
O O13 0.602177 0.841862 0.301549
O O14 0.103002 0.185614 0.029054
O O15 0.250000 0.750000 0.000000
O O16 0.500000 0.103962 0.000000
#
# Coordination Sequence:
#
# PCOD9218507 Si02
#       7
#     8   8   8   8   8   8   8
#     4  11  26  48  79 115 157 200 260 320 381 470
#     4  12  26  46  74 109 161 208 254 307 384 461
#     4  12  28  54  81 110 151 203 264 333 393 446
#     4  10  24  46  77 108 159 196 257 319 382 460
#     4  11  25  46  75 115 163 211 249 307 389 469
#     4  12  26  43  74 109 160 206 257 306 377 467
#     4  12  27  50  74 106 152 199 259 327 380 463
#
# _framework density 24.991565000000001
#
# number of rings (size 3 to 8) (size 9 to 14) (size 15 to 20)
#    0.000    0.571    4.286    1.714    6.000    7.429 
#    5.143    6.429    0.000    0.000    0.000    0.000 
#    0.000    0.000    0.000    0.000    0.000    0.000 
#
# Total GULP energy -156199.020673 kJ/mol
# GULP energy per Si atom -5578.536453 kJ/mol
# Density = 2.493468 g / cm^3
# Si number density = 24.991565 Si / 1000 Ang^3
#
#
#
# Elastic Constant Matrix: (Units=GPa)
#
#
# Indices 1 2 3 4 5 6 
#
# 1 143.2871 19.0070 42.3577 0.0000 -8.5360 0.0001
# 2 19.0070 100.0078 26.7846 0.0000 -1.0167 0.0000
# 3 42.3577 26.7846 127.5493 -0.0001 8.4167 0.0001
# 4 0.0000 0.0000 -0.0001 17.8346 0.0001 -3.5342
# 5 -8.5360 -1.0167 8.4167 0.0001 48.6484 -0.0001
# 6 0.0001 0.0000 0.0001 -3.5342 -0.0001 12.2030
#
#
#
# Elastic Compliance Matrix: (Units=1/GPa)
#
#
# Indices 1 2 3 4 5 6 
#
# 1 0.007962 -0.000799 -0.002597 0.000000 0.001830 0.000000
# 2 -0.000799 0.010693 -0.002009 0.000000 0.000431 0.000000
# 3 -0.002597 -0.002009 0.009263 0.000000 -0.002100 0.000000
# 4 0.000000 0.000000 0.000000 0.059485 0.000000 0.017228
# 5 0.001830 0.000431 -0.002100 0.000000 0.021249 0.000000
# 6 0.000000 0.000000 0.000000 0.017228 0.000000 0.086937
#
#
# Mechanical properties :
#
#
# Convention : Reuss Voigt Hill
#
# Bulk Modulus (GPa) = 58.44937 60.79362 59.62150
# Shear Modulus (GPa) = 23.57375 34.58353 29.07864
#
# Velocity S-wave (km/s) = 3.07460 3.72399 3.41477
# Velocity P-wave (km/s) = 6.00355 6.54746 6.28140
#
# Compressibility (1/GPa) = 0.01710882
#
# Stress axis : x y z
#
# Youngs Moduli (GPa) = 125.60184 93.51547 107.95755
#
# Poissons Ratio (x) = 0.07472 0.28036
# Poissons Ratio (y) = 0.10036 0.21685
# Poissons Ratio (z) = 0.32618 0.18784
#
# Static dielectric constant tensor:
#      x y z
#    x 2.192500 0.000000 -0.005310 
#    y 0.000000 2.004730 0.000000 
#    z -0.005310 0.000000 2.105000 
# 
# From -- ./inp_files/159853.got.cif
#   From: 2010.05.17/outbox.cif.g08.bks.cpg/sg12_80_cif.got.tgz:159853.got - 2010.06.03 13:09:07.
