data_PCOD9218680
_publ_section_title
;
Structure prediction by ZEFSAII (Michael W. Deem and Ramdas Pophale) SiO2 
 PCOD9218680
Probable space group: C 2/M
;
_chemical_formula_sum "Si O2"
_cell_formula_units_Z 56
_cell_length_a 15.546738
_cell_length_b 14.676239
_cell_length_c 12.098726
_cell_angle_alpha 90.000000
_cell_angle_beta 95.880213
_cell_angle_gamma 90.000000
_cell_volume 2746.012549
_symmetry_space_group_name_H-M "C 2/M"
_symmetry_group_IT_number 12
_symmetry_cell_setting 'monoclinic'
loop_
_space_group_symop_operation_xyz
x,y,z
-x,y,-z
-x,-y,-z
x,-y,z
1/2+x,1/2+y,z
1/2-x,1/2+y,-z
1/2-x,1/2-y,-z
1/2+x,1/2-y,z
loop_
_atom_site_type_symbol
_atom_site_label
_atom_site_fract_x
_atom_site_fract_y
_atom_site_fract_z
Si Si1 0.851371 0.744129 0.289389
Si Si2 0.092124 0.857268 0.068578
Si Si3 0.810187 0.902366 0.125262
Si Si4 0.396161 0.394446 0.476533
Si Si5 0.948764 0.599333 0.180132
Si Si6 0.382502 0.141009 0.933179
Si Si7 0.809093 0.895839 0.704419
O O1 0.849995 0.814607 0.187465
O O2 0.863442 0.812511 0.393711
O O3 0.928611 0.675442 0.268035
O O4 0.765527 0.680186 0.284857
O O5 0.104179 0.748989 0.066266
O O6 0.113984 0.886753 0.195231
O O7 0.165007 0.898429 0.999364
O O8 0.000000 0.880682 0.000000
O O9 0.708454 0.890787 0.124199
O O10 0.839736 0.000000 0.173750
O O11 0.500000 0.386964 0.500000
O O12 0.377801 0.500000 0.437569
O O13 0.350560 0.383740 0.589280
O O14 0.934406 0.500000 0.226436
O O15 0.042507 0.604513 0.136019
O O16 0.890073 0.611767 0.062262
O O17 0.774904 0.000000 0.708250
#
# Coordination Sequence:
#
# PCOD9218680 Si02
#       7
#     8   8   8   8   8   8   8
#     4  12  23  42  67  95 129 170 216 268 320 384
#     4  12  23  41  64  95 133 174 216 266 323 391
#     4  12  24  37  59  92 131 167 207 262 321 381
#     4  10  25  46  69  96 126 170 222 270 326 388
#     4  11  22  37  63  93 129 174 215 256 316 385
#     4  11  20  39  57  90 134 172 210 255 314 386
#     4  11  25  44  67  94 130 173 219 272 327 384
#
# _framework density 20.393205999999999
#
# number of rings (size 3 to 8) (size 9 to 14) (size 15 to 20)
#    0.000    0.714    4.286    4.714    4.000    1.143 
#    0.000    0.000    0.000    1.714    0.000    0.000 
#    0.000    0.000    0.000    0.000    0.000    0.000 
#
# Total GULP energy -156388.298073 kJ/mol
# GULP energy per Si atom -5585.296360 kJ/mol
# Density = 2.034679 g / cm^3
# Si number density = 20.393206 Si / 1000 Ang^3
#
#
#
# Elastic Constant Matrix: (Units=GPa)
#
#
# Indices 1 2 3 4 5 6 
#
# 1 49.6155 33.1283 15.5036 0.0000 -4.6716 0.0000
# 2 33.1283 175.3254 50.2863 0.0000 -2.4060 0.0000
# 3 15.5036 50.2863 104.9397 0.0000 -4.6119 0.0000
# 4 0.0000 0.0000 0.0000 76.4849 0.0000 -39.9953
# 5 -4.6716 -2.4060 -4.6119 0.0000 20.4105 0.0000
# 6 0.0000 0.0000 0.0000 -39.9953 0.0000 44.3937
#
#
#
# Elastic Compliance Matrix: (Units=1/GPa)
#
#
# Indices 1 2 3 4 5 6 
#
# 1 0.023706 -0.004023 -0.001371 0.000000 0.004642 0.000000
# 2 -0.004023 0.007295 -0.002933 0.000000 -0.000724 0.000000
# 3 -0.001371 -0.002933 0.011220 0.000000 0.001876 0.000000
# 4 0.000000 0.000000 0.000000 0.024721 0.000000 0.022271
# 5 0.004642 -0.000724 0.001876 0.000000 0.050395 0.000000
# 6 0.000000 0.000000 0.000000 0.022271 0.000000 0.042590
#
#
# Mechanical properties :
#
#
# Convention : Reuss Voigt Hill
#
# Bulk Modulus (GPa) = 39.11124 58.63521 48.87323
# Shear Modulus (GPa) = 27.01193 43.65532 35.33362
#
# Velocity S-wave (km/s) = 3.64339 4.63177 4.16699
# Velocity P-wave (km/s) = 6.07612 7.57754 6.86798
#
# Compressibility (1/GPa) = 0.02556810
#
# Stress axis : x y z
#
# Youngs Moduli (GPa) = 42.18303 137.07773 89.12784
#
# Poissons Ratio (x) = 0.55140 0.12217
# Poissons Ratio (y) = 0.16968 0.26144
# Poissons Ratio (z) = 0.05782 0.40209
#
# Static dielectric constant tensor:
#      x y z
#    x 1.727430 0.000000 0.015330 
#    y 0.000000 1.761470 0.000000 
#    z 0.015330 0.000000 1.706780 
# 
# From -- ./inp_files/143717.got.cif
#   From: 2010.05.17/outbox.cif.g08.bks.cpg/sg12_72_cif.got.tgz:143717.got - 2010.06.03 13:09:07.
