data_PCOD9218379
_publ_section_title
;
Structure prediction by ZEFSAII (Michael W. Deem and Ramdas Pophale) SiO2 
 PCOD9218379
Probable space group: C 2/M
;
_chemical_formula_sum "Si O2"
_cell_formula_units_Z 56
_cell_length_a 14.102039
_cell_length_b 22.384900
_cell_length_c 17.775838
_cell_angle_alpha 90.000000
_cell_angle_beta 31.431796
_cell_angle_gamma 90.000000
_cell_volume 2926.223519
_symmetry_space_group_name_H-M "C 2/M"
_symmetry_group_IT_number 12
_symmetry_cell_setting 'monoclinic'
loop_
_space_group_symop_operation_xyz
x,y,z
-x,y,-z
-x,-y,-z
x,-y,z
1/2+x,1/2+y,z
1/2-x,1/2+y,-z
1/2-x,1/2-y,-z
1/2+x,1/2-y,z
loop_
_atom_site_type_symbol
_atom_site_label
_atom_site_fract_x
_atom_site_fract_y
_atom_site_fract_z
Si Si1 0.881965 0.672994 0.155321
Si Si2 0.550842 0.929912 0.647325
Si Si3 0.784976 0.929629 0.636548
Si Si4 0.483118 0.714796 0.838288
Si Si5 0.325340 0.363977 0.075099
Si Si6 0.132819 0.327316 0.480781
Si Si7 0.118337 0.252198 0.256377
O O1 0.839453 0.612476 0.227588
O O2 0.971434 0.724583 0.146494
O O3 0.687987 0.698961 0.260063
O O4 0.000000 0.665344 0.000000
O O5 0.703977 0.920674 0.607681
O O6 0.353385 0.905039 0.807934
O O7 0.607297 0.891235 0.537047
O O8 0.536759 0.000000 0.641284
O O9 0.000000 0.915373 0.500000
O O10 0.764179 0.000000 0.668927
O O11 0.668808 0.685905 0.683081
O O12 0.383272 0.733745 0.829273
O O13 0.383364 0.665365 0.956792
O O14 0.262371 0.306446 0.166840
O O15 0.500000 0.390789 0.000000
O O16 0.000000 0.321204 0.500000
O O17 0.068325 0.279486 0.587109
#
# Coordination Sequence:
#
# PCOD9218379 Si02
#       7
#     8   8   8   8   8   8   8
#     4  12  23  37  63  95 125 164 204 246 310 381
#     4  10  24  45  66  88 118 168 216 254 312 372
#     4  10  25  47  67  89 123 164 214 264 303 360
#     4  12  22  36  58  93 130 162 199 254 312 367
#     4  11  20  41  61  89 131 162 198 259 309 367
#     4  11  22  39  59  88 128 161 200 266 308 362
#     4  11  22  35  57  90 126 164 200 244 307 374
#
# _framework density 19.137295000000002
#
# number of rings (size 3 to 8) (size 9 to 14) (size 15 to 20)
#    0.000    1.000    4.286    3.429    6.000    0.857 
#    0.000    0.714    0.000    0.000    0.000    0.000 
#    0.000    0.000    0.000    0.000    0.000    0.000 
#
# Total GULP energy -156413.756385 kJ/mol
# GULP energy per Si atom -5586.205585 kJ/mol
# Density = 1.909374 g / cm^3
# Si number density = 19.137295 Si / 1000 Ang^3
#
#
#
# Elastic Constant Matrix: (Units=GPa)
#
#
# Indices 1 2 3 4 5 6 
#
# 1 93.2267 28.4163 16.2268 0.0190 -7.6089 -0.0035
# 2 28.4163 71.8901 44.1003 0.0602 4.6424 -0.0255
# 3 16.2268 44.1003 117.9943 0.0644 -2.7814 -0.0284
# 4 0.0190 0.0602 0.0644 -1.0539 -0.0265 6.3480
# 5 -7.6089 4.6424 -2.7814 -0.0265 36.8414 0.0106
# 6 -0.0035 -0.0255 -0.0284 6.3480 0.0106 25.0921
#
#
#
# Elastic Compliance Matrix: (Units=1/GPa)
#
#
# Indices 1 2 3 4 5 6 
#
# 1 0.012583 -0.005415 0.000372 -0.000068 0.003309 0.000012
# 2 -0.005415 0.020669 -0.007081 0.000333 -0.004257 -0.000070
# 3 0.000372 -0.007081 0.011113 0.000105 0.001808 -0.000022
# 4 -0.000068 0.000333 0.000105 -0.375943 -0.000346 0.095110
# 5 0.003309 -0.004257 0.001808 -0.000346 0.028499 0.000074
# 6 0.000012 -0.000070 -0.000022 0.095110 0.000074 0.015791
#
#
# Mechanical properties :
#
#
# Convention : Reuss Voigt Hill
#
# Bulk Modulus (GPa) = 49.71281 51.17754 50.44517
# Shear Modulus (GPa) = -19.50578 25.13377 2.81399
#
# Velocity S-wave (km/s) = -3.19604 3.62793 1.21393
# Velocity P-wave (km/s) = 3.52332 6.65955 5.32744
#
# Compressibility (1/GPa) = 0.02011554
#
# Stress axis : x y z
#
# Youngs Moduli (GPa) = 79.47529 48.38202 89.98543
#
# Poissons Ratio (x) = 0.26199 -0.03344
# Poissons Ratio (y) = 0.43037 0.63717
# Poissons Ratio (z) = -0.02953 0.34259
#
# Static dielectric constant tensor:
#      x y z
#    x 1.689130 0.000000 -0.031790 
#    y 0.000000 1.632170 0.000010 
#    z -0.031790 0.000010 1.687770 
# 
# From -- ./inp_files/272344.got.cif
#   From: 2010.05.17/outbox.cif.g08.bks.cpg/sg12_137_cif.got.tgz:272344.got - 2010.06.03 13:09:07.
