data_PCOD9218546
_publ_section_title
;
Structure prediction by ZEFSAII (Michael W. Deem and Ramdas Pophale) SiO2 
 PCOD9218546
Probable space group: C 2/M
;
_chemical_formula_sum "Si O2"
_cell_formula_units_Z 56
_cell_length_a 29.076518
_cell_length_b 21.584211
_cell_length_c 8.885514
_cell_angle_alpha 90.000000
_cell_angle_beta 29.974892
_cell_angle_gamma 90.000000
_cell_volume 2786.129715
_symmetry_space_group_name_H-M "C 2/M"
_symmetry_group_IT_number 12
_symmetry_cell_setting 'monoclinic'
loop_
_space_group_symop_operation_xyz
x,y,z
-x,y,-z
-x,-y,-z
x,-y,z
1/2+x,1/2+y,z
1/2-x,1/2+y,-z
1/2-x,1/2-y,-z
1/2+x,1/2-y,z
loop_
_atom_site_type_symbol
_atom_site_label
_atom_site_fract_x
_atom_site_fract_y
_atom_site_fract_z
Si Si1 0.164264 0.286977 0.814014
Si Si2 0.750549 0.183625 0.079937
Si Si3 0.890466 0.367234 0.308038
Si Si4 0.102103 0.500000 0.639106
Si Si5 0.263931 0.887468 0.170738
Si Si6 0.084988 0.169163 0.147711
Si Si7 0.913381 0.926587 0.134008
Si Si8 0.897981 0.500000 0.722526
O O1 0.250000 0.250000 0.500000
O O2 0.137198 0.337822 0.769814
O O3 0.194718 0.325103 0.873415
O O4 0.085033 0.236772 0.068636
O O5 0.651747 0.172324 0.436696
O O6 0.750000 0.250000 0.000000
O O7 0.768995 0.131889 0.901627
O O8 0.823950 0.174402 0.005904
O O9 0.852343 0.436715 0.435258
O O10 0.000000 0.368952 0.000000
O O11 0.096658 0.500000 0.474198
O O12 0.000000 0.500000 0.000000
O O13 0.179602 0.911062 0.510685
O O14 0.341430 0.939879 0.936192
O O15 0.000000 0.160295 0.500000
O O16 0.086171 0.116722 0.015588
O O17 0.916147 0.000000 0.089193
O O18 0.000000 0.913380 0.000000
O O19 0.000000 0.500000 0.500000
#
# Coordination Sequence:
#
# PCOD9218546 Si02
#       8
#     8   8   8   4   8   8   8   4
#     4  12  24  45  67 100 142 179 233 277 345 419
#     4  12  24  45  67 101 143 179 229 287 340 416
#     4  11  25  42  70  98 134 183 224 281 342 408
#     4  10  24  48  64  99 136 174 231 273 342 405
#     4  12  24  45  73 102 141 186 227 287 353 409
#     4  12  27  47  72 106 139 184 233 293 352 413
#     4  11  25  49  76 105 138 183 237 293 355 417
#     4  12  28  44  71 107 139 182 237 287 343 424
#
# _framework density 20.099568000000001
#
# number of rings (size 3 to 8) (size 9 to 14) (size 15 to 20)
#    0.000    0.429    6.429    0.857    6.000    1.429 
#    5.143    0.000    0.000    0.000    0.000    0.000 
#    0.000    0.000    0.000    0.000    0.000    0.000 
#
# Total GULP energy -156533.668198 kJ/mol
# GULP energy per Si atom -5590.488150 kJ/mol
# Density = 2.005382 g / cm^3
# Si number density = 20.099568 Si / 1000 Ang^3
#
#
#
# Elastic Constant Matrix: (Units=GPa)
#
#
# Indices 1 2 3 4 5 6 
#
# 1 121.4898 82.9886 44.1669 0.0000 15.6638 0.0000
# 2 82.9886 142.0195 57.6863 0.0000 5.8864 0.0000
# 3 44.1669 57.6863 146.0391 0.0000 16.5662 0.0000
# 4 0.0000 0.0000 0.0000 21.0600 0.0000 -0.3290
# 5 15.6638 5.8864 16.5662 0.0000 32.7654 0.0000
# 6 0.0000 0.0000 0.0000 -0.3290 0.0000 35.8788
#
#
#
# Elastic Compliance Matrix: (Units=1/GPa)
#
#
# Indices 1 2 3 4 5 6 
#
# 1 0.014668 -0.008092 -0.000646 0.000000 -0.005232 0.000000
# 2 -0.008092 0.012852 -0.002977 0.000000 0.003065 0.000000
# 3 -0.000646 -0.002977 0.008617 0.000000 -0.003513 0.000000
# 4 0.000000 0.000000 0.000000 0.047490 0.000000 0.000436
# 5 -0.005232 0.003065 -0.003513 0.000000 0.034247 0.000000
# 6 0.000000 0.000000 0.000000 0.000436 0.000000 0.027876
#
#
# Mechanical properties :
#
#
# Convention : Reuss Voigt Hill
#
# Bulk Modulus (GPa) = 78.69620 86.58134 82.63877
# Shear Modulus (GPa) = 28.83238 32.92129 30.87684
#
# Velocity S-wave (km/s) = 3.79156 4.05150 3.92368
# Velocity P-wave (km/s) = 7.64239 8.06573 7.85691
#
# Compressibility (1/GPa) = 0.01270709
#
# Stress axis : x y z
#
# Youngs Moduli (GPa) = 68.17501 77.80923 116.04441
#
# Poissons Ratio (x) = 0.62963 0.07500
# Poissons Ratio (y) = 0.55167 0.34546
# Poissons Ratio (z) = 0.04406 0.23164
#
# Static dielectric constant tensor:
#      x y z
#    x 1.708880 0.000000 -0.001750 
#    y 0.000000 1.717950 0.000000 
#    z -0.001750 0.000000 1.696450 
# 
# From -- ./inp_files/113378.got.cif
#   From: 2010.05.17/outbox.cif.g08.bks.cpg/sg12_57_cif.got.tgz:113378.got - 2010.06.03 13:09:07.
