data_PCOD9218503
_publ_section_title
;
Structure prediction by ZEFSAII (Michael W. Deem and Ramdas Pophale) SiO2 
 PCOD9218503
Probable space group: C 2/M
;
_chemical_formula_sum "Si O2"
_cell_formula_units_Z 32
_cell_length_a 11.043171
_cell_length_b 14.218836
_cell_length_c 11.517067
_cell_angle_alpha 90.000000
_cell_angle_beta 134.625386
_cell_angle_gamma 90.000000
_cell_volume 1287.080698
_symmetry_space_group_name_H-M "C 2/M"
_symmetry_group_IT_number 12
_symmetry_cell_setting 'monoclinic'
loop_
_space_group_symop_operation_xyz
x,y,z
-x,y,-z
-x,-y,-z
x,-y,z
1/2+x,1/2+y,z
1/2-x,1/2+y,-z
1/2-x,1/2-y,-z
1/2+x,1/2-y,z
loop_
_atom_site_type_symbol
_atom_site_label
_atom_site_fract_x
_atom_site_fract_y
_atom_site_fract_z
Si Si1 0.408536 0.683477 0.333326
Si Si2 0.770227 0.000000 0.651297
Si Si3 0.900796 0.792479 0.748180
Si Si4 0.123814 0.361018 0.983409
Si Si5 0.961914 0.500000 0.277029
O O1 0.500000 0.630292 0.500000
O O2 0.264541 0.747441 0.299454
O O3 0.555451 0.734078 0.356558
O O4 0.305131 0.628569 0.165453
O O5 0.873925 0.903673 0.730148
O O6 0.654561 0.000000 0.456046
O O7 0.649257 0.000000 0.682335
O O8 0.063886 0.746947 0.923332
O O9 0.086790 0.413431 0.839203
O O10 0.000000 0.398121 0.000000
#
# Coordination Sequence:
#
# PCOD9218503 Si02
#       5
#     8   4   8   8   4
#     4  11  25  44  76 108 145 197 245 300 371 438
#     4  11  28  43  75 112 145 199 243 313 360 445
#     4  11  25  48  73 110 147 193 247 302 370 433
#     4  10  24  46  75 109 147 197 241 309 369 441
#     4  11  25  47  73 109 151 191 253 298 379 435
#
# _framework density 24.862465
#
# number of rings (size 3 to 8) (size 9 to 14) (size 15 to 20)
#    0.000    1.250    0.000    3.375   14.000    5.000 
#    0.000    9.375    0.000    0.000    0.000    0.000 
#    0.000    0.000    0.000    0.000    0.000    0.000 
#
# Total GULP energy -89320.818635 kJ/mol
# GULP energy per Si atom -5582.551165 kJ/mol
# Density = 2.480588 g / cm^3
# Si number density = 24.862465 Si / 1000 Ang^3
#
#
#
# Elastic Constant Matrix: (Units=GPa)
#
#
# Indices 1 2 3 4 5 6 
#
# 1 170.3700 6.3177 35.5365 0.0000 -3.3016 0.0000
# 2 6.3177 123.5253 88.0438 0.0000 17.5620 0.0000
# 3 35.5365 88.0438 189.9642 0.0000 -22.8850 0.0000
# 4 0.0000 0.0000 0.0000 -91.3126 0.0000 -205.1211
# 5 -3.3016 17.5620 -22.8850 0.0000 44.9084 0.0000
# 6 0.0000 0.0000 0.0000 -205.1211 0.0000 -367.8634
#
#
#
# Elastic Compliance Matrix: (Units=1/GPa)
#
#
# Indices 1 2 3 4 5 6 
#
# 1 0.006178 0.001045 -0.001741 0.000000 -0.000842 0.000000
# 2 0.001045 0.015827 -0.008808 0.000000 -0.010601 0.000000
# 3 -0.001741 -0.008808 0.010731 0.000000 0.008785 0.000000
# 4 0.000000 0.000000 0.000000 0.043359 0.000000 -0.024177
# 5 -0.000842 -0.010601 0.008785 0.000000 0.030828 0.000000
# 6 0.000000 0.000000 0.000000 -0.024177 0.000000 0.010763
#
#
# Mechanical properties :
#
#
# Convention : Reuss Voigt Hill
#
# Bulk Modulus (GPa) = 72.85241 82.62837 77.74039
# Shear Modulus (GPa) = 35.39302 -59.25608 -11.93153
#
# Velocity S-wave (km/s) = 3.77709 -4.88726 -2.19304
# Velocity P-wave (km/s) = 6.95613 1.20800 4.99234
#
# Compressibility (1/GPa) = 0.01372638
#
# Stress axis : x y z
#
# Youngs Moduli (GPa) = 161.87155 63.18127 93.19113
#
# Poissons Ratio (x) = -0.06602 0.16228
# Poissons Ratio (y) = -0.16914 0.82085
# Poissons Ratio (z) = 0.28188 0.55652
#
# Static dielectric constant tensor:
#      x y z
#    x 2.069920 0.000000 0.046010 
#    y 0.000000 2.017790 0.000000 
#    z 0.046010 0.000000 1.975500 
# 
# From -- ./inp_files/129496.got.cif
#   From: 2010.05.17/outbox.cif.g08.bks.cpg/sg12_65_cif.got.tgz:129496.got - 2010.06.03 13:09:07.
