data_PCOD9218565
_publ_section_title
;
Structure prediction by ZEFSAII (Michael W. Deem and Ramdas Pophale) SiO2 
 PCOD9218565
Probable space group: C 2/M
;
_chemical_formula_sum "Si O2"
_cell_formula_units_Z 40
_cell_length_a 8.873947
_cell_length_b 23.826916
_cell_length_c 8.795715
_cell_angle_alpha 90.000000
_cell_angle_beta 92.668004
_cell_angle_gamma 90.000000
_cell_volume 1857.739407
_symmetry_space_group_name_H-M "C 2/M"
_symmetry_group_IT_number 12
_symmetry_cell_setting 'monoclinic'
loop_
_space_group_symop_operation_xyz
x,y,z
-x,y,-z
-x,-y,-z
x,-y,z
1/2+x,1/2+y,z
1/2-x,1/2+y,-z
1/2-x,1/2-y,-z
1/2+x,1/2-y,z
loop_
_atom_site_type_symbol
_atom_site_label
_atom_site_fract_x
_atom_site_fract_y
_atom_site_fract_z
Si Si1 0.394887 0.433383 0.349761
Si Si2 0.095981 0.154038 0.869034
Si Si3 0.571861 0.870544 0.338054
Si Si4 0.133197 0.667826 0.902174
Si Si5 0.747358 0.262055 0.678328
O O1 0.500000 0.420121 0.500000
O O2 0.384320 0.500000 0.336177
O O3 0.465005 0.403046 0.205581
O O4 0.226541 0.406139 0.348227
O O5 0.113437 0.197110 0.730984
O O6 0.253686 0.145094 0.963987
O O7 0.000000 0.178045 0.000000
O O8 0.500000 0.874989 0.500000
O O9 0.445311 0.880313 0.203941
O O10 0.612105 0.805051 0.305968
O O11 0.224359 0.709407 0.790881
O O12 0.000000 0.694447 0.000000
O O13 0.750000 0.250000 0.500000
#
# Coordination Sequence:
#
# PCOD9218565 Si02
#       5
#     8   8   8   8   8
#     4  10  24  48  72  96 131 173 221 283 348 408
#     4  11  26  41  66  98 133 177 226 278 338 400
#     4  11  24  43  67  98 132 176 228 272 323 401
#     4  12  23  42  63  96 137 178 220 275 324 384
#     4  11  23  38  61  94 138 182 219 262 324 394
#
# _framework density 21.531545000000001
#
# number of rings (size 3 to 8) (size 9 to 14) (size 15 to 20)
#    0.000    1.000    6.000    1.200    5.600    0.800 
#    7.200    2.000    0.000    0.000    0.000    0.000 
#    0.000    0.000    0.000    0.000    0.000    0.000 
#
# Total GULP energy -111418.773200 kJ/mol
# GULP energy per Si atom -5570.938660 kJ/mol
# Density = 2.148254 g / cm^3
# Si number density = 21.531545 Si / 1000 Ang^3
#
#
#
# Elastic Constant Matrix: (Units=GPa)
#
#
# Indices 1 2 3 4 5 6 
#
# 1 50.7858 18.4938 39.1234 0.0000 2.0237 0.0000
# 2 18.4938 76.7031 64.7579 0.0000 19.1589 0.0000
# 3 39.1234 64.7579 193.5250 0.0000 -2.8857 0.0000
# 4 0.0000 0.0000 0.0000 24.5063 0.0000 4.5071
# 5 2.0237 19.1589 -2.8857 0.0000 53.3082 0.0000
# 6 0.0000 0.0000 0.0000 4.5071 0.0000 21.4350
#
#
#
# Elastic Compliance Matrix: (Units=1/GPa)
#
#
# Indices 1 2 3 4 5 6 
#
# 1 0.023620 -0.002200 -0.004044 0.000000 -0.000325 0.000000
# 2 -0.002200 0.021288 -0.006797 0.000000 -0.007935 0.000000
# 3 -0.004044 -0.006797 0.008305 0.000000 0.003046 0.000000
# 4 0.000000 0.000000 0.000000 0.042447 0.000000 -0.008925
# 5 -0.000325 -0.007935 0.003046 0.000000 0.021788 0.000000
# 6 0.000000 0.000000 0.000000 -0.008925 0.000000 0.048529
#
#
# Mechanical properties :
#
#
# Convention : Reuss Voigt Hill
#
# Bulk Modulus (GPa) = 36.85760 62.86268 49.86014
# Shear Modulus (GPa) = 24.86289 33.09250 28.97770
#
# Velocity S-wave (km/s) = 3.40180 3.92462 3.67253
# Velocity P-wave (km/s) = 5.70831 7.05662 6.41797
#
# Compressibility (1/GPa) = 0.02713144
#
# Stress axis : x y z
#
# Youngs Moduli (GPa) = 42.33752 46.97380 120.41340
#
# Poissons Ratio (x) = 0.10333 0.48693
# Poissons Ratio (y) = 0.09313 0.81848
# Poissons Ratio (z) = 0.17120 0.31929
#
# Static dielectric constant tensor:
#      x y z
#    x 1.960720 0.000000 0.006960 
#    y 0.000000 1.780070 0.000000 
#    z 0.006960 0.000000 1.832640 
# 
# From -- ./inp_files/39442.got.cif
#   From: 2010.05.17/outbox.cif.g08.bks.cpg/sg12_20_cif.got.tgz:39442.got - 2010.06.03 13:09:07.
