data_PCOD9218521
_publ_section_title
;
Structure prediction by ZEFSAII (Michael W. Deem and Ramdas Pophale) SiO2 
 PCOD9218521
Probable space group: C 2/M
;
_chemical_formula_sum "Si O2"
_cell_formula_units_Z 36
_cell_length_a 9.134752
_cell_length_b 25.793126
_cell_length_c 9.069669
_cell_angle_alpha 90.000000
_cell_angle_beta 47.290930
_cell_angle_gamma 90.000000
_cell_volume 1570.238425
_symmetry_space_group_name_H-M "C 2/M"
_symmetry_group_IT_number 12
_symmetry_cell_setting 'monoclinic'
loop_
_space_group_symop_operation_xyz
x,y,z
-x,y,-z
-x,-y,-z
x,-y,z
1/2+x,1/2+y,z
1/2-x,1/2+y,-z
1/2-x,1/2-y,-z
1/2+x,1/2-y,z
loop_
_atom_site_type_symbol
_atom_site_label
_atom_site_fract_x
_atom_site_fract_y
_atom_site_fract_z
Si Si1 0.500000 0.774678 0.000000
Si Si2 0.321136 0.707364 0.337830
Si Si3 0.212677 0.398985 0.340248
Si Si4 0.256542 0.350299 0.986385
Si Si5 0.424794 0.558715 0.718774
O O1 0.324625 0.737881 0.180137
O O2 0.423348 0.811708 0.923198
O O3 0.250000 0.750000 0.500000
O O4 0.193501 0.655602 0.440330
O O5 0.544694 0.683393 0.186161
O O6 0.391719 0.430175 0.293562
O O7 0.000000 0.426357 0.500000
O O8 0.259948 0.378432 0.142997
O O9 0.263689 0.397676 0.866016
O O10 0.500000 0.564577 0.500000
O O11 0.353735 0.500000 0.787934
#
# Coordination Sequence:
#
# PCOD9218521 Si02
#       5
#     4   8   8   8   8
#     4  12  24  38  61  96 143 176 216 272 316 390
#     4  11  23  38  62  92 134 182 217 264 322 387
#     4  11  24  43  66  99 133 169 226 272 324 401
#     4  11  25  42  64  99 130 176 229 268 327 399
#     4  10  24  47  71  95 128 168 215 279 345 399
#
# _framework density 22.926454
#
# number of rings (size 3 to 8) (size 9 to 14) (size 15 to 20)
#    0.000    1.111    2.222    4.000   12.444    2.222 
#    0.000    0.556    0.000    0.000    0.000    0.000 
#    0.000    0.000    0.000    0.000    0.000    0.000 
#
# Total GULP energy -100509.848950 kJ/mol
# GULP energy per Si atom -5583.880497 kJ/mol
# Density = 2.287427 g / cm^3
# Si number density = 22.926454 Si / 1000 Ang^3
#
#
#
# Elastic Constant Matrix: (Units=GPa)
#
#
# Indices 1 2 3 4 5 6 
#
# 1 57.2892 -2.9350 0.9713 0.0000 -1.8997 0.0000
# 2 -2.9350 112.4103 24.8070 0.0000 14.4514 0.0000
# 3 0.9713 24.8070 80.7826 0.0000 11.5827 0.0000
# 4 0.0000 0.0000 0.0000 20.5907 0.0000 5.2711
# 5 -1.8997 14.4514 11.5827 0.0000 33.8623 0.0000
# 6 0.0000 0.0000 0.0000 5.2711 0.0000 16.8983
#
#
#
# Elastic Compliance Matrix: (Units=1/GPa)
#
#
# Indices 1 2 3 4 5 6 
#
# 1 0.017518 0.000441 -0.000484 0.000000 0.000960 0.000000
# 2 0.000441 0.009902 -0.002570 0.000000 -0.003322 0.000000
# 3 -0.000484 -0.002570 0.013692 0.000000 -0.003614 0.000000
# 4 0.000000 0.000000 0.000000 0.052780 0.000000 -0.016464
# 5 0.000960 -0.003322 -0.003614 0.000000 0.032239 0.000000
# 6 0.000000 0.000000 0.000000 -0.016464 0.000000 0.064313
#
#
# Mechanical properties :
#
#
# Convention : Reuss Voigt Hill
#
# Bulk Modulus (GPa) = 27.86570 32.90764 30.38667
# Shear Modulus (GPa) = 24.08113 29.44616 26.76364
#
# Velocity S-wave (km/s) = 3.24445 3.58771 3.42039
# Velocity P-wave (km/s) = 5.12016 5.61666 5.37415
#
# Compressibility (1/GPa) = 0.03588641
#
# Stress axis : x y z
#
# Youngs Moduli (GPa) = 57.08447 100.99346 73.03552
#
# Poissons Ratio (x) = -0.04451 0.03532
# Poissons Ratio (y) = -0.02516 0.18767
# Poissons Ratio (z) = 0.02761 0.25951
#
# Static dielectric constant tensor:
#      x y z
#    x 1.916380 0.000000 0.012790 
#    y 0.000000 1.835530 0.000000 
#    z 0.012790 0.000000 1.890160 
# 
# From -- ./inp_files/40179.got.cif
#   From: 2010.05.17/outbox.cif.g08.bks.cpg/sg12_21_cif.got.tgz:40179.got - 2010.06.03 13:09:07.
