data_PCOD9218604
_publ_section_title
;
Structure prediction by ZEFSAII (Michael W. Deem and Ramdas Pophale) SiO2 
 PCOD9218604
Probable space group: C 2/M
;
_chemical_formula_sum "Si O2"
_cell_formula_units_Z 34
_cell_length_a 8.087437
_cell_length_b 16.591021
_cell_length_c 19.668587
_cell_angle_alpha 90.000000
_cell_angle_beta 146.207161
_cell_angle_gamma 90.000000
_cell_volume 1467.850176
_symmetry_space_group_name_H-M "C 2/M"
_symmetry_group_IT_number 12
_symmetry_cell_setting 'monoclinic'
loop_
_space_group_symop_operation_xyz
x,y,z
-x,y,-z
-x,-y,-z
x,-y,z
1/2+x,1/2+y,z
1/2-x,1/2+y,-z
1/2-x,1/2-y,-z
1/2+x,1/2-y,z
loop_
_atom_site_type_symbol
_atom_site_label
_atom_site_fract_x
_atom_site_fract_y
_atom_site_fract_z
Si Si1 0.902903 0.500000 0.387654
Si Si2 0.000000 0.000000 0.500000
Si Si3 0.000000 0.214363 0.500000
Si Si4 0.134080 0.500000 0.973236
Si Si5 0.565361 0.000000 0.234530
Si Si6 0.098125 0.141551 0.104599
Si Si7 0.868152 0.330014 0.331414
O O1 0.159732 0.500000 0.417702
O O2 0.000000 0.500000 0.500000
O O3 0.748287 0.414978 0.318192
O O4 0.137514 0.000000 0.622920
O O5 0.871529 0.267271 0.394364
O O6 0.721122 0.164671 0.432641
O O7 0.892033 0.500000 0.831272
O O8 0.336400 0.578976 0.032411
O O9 0.000000 0.500000 0.000000
O O10 0.373767 0.919839 0.185782
O O11 0.189762 0.192481 0.202081
O O12 0.000000 0.182557 0.000000
#
# Coordination Sequence:
#
# PCOD9218604 Si02
#       7
#     4   2   4   4   4   8   8
#     4  12  23  36  64 100 125 157 221 265 307 367
#     4  12  20  32  54  98 130 160 194 266 324 384
#     4  10  25  40  62  86 135 172 196 250 345 378
#     4   9  18  35  51  87 125 155 197 263 329 364
#     4   9  18  31  52  85 124 156 190 251 329 369
#     4   9  18  35  59  79 115 164 204 251 309 373
#     4  11  21  43  61  92 125 167 207 262 314 389
#
# _framework density 23.163128
#
# number of rings (size 3 to 8) (size 9 to 14) (size 15 to 20)
#    0.000    1.882    3.529    2.824    0.000    1.882 
#    0.000    3.529    0.000    0.000    0.000    0.000 
#    0.000    0.000    0.000    0.000    0.000    0.000 
#
# Total GULP energy -94732.450847 kJ/mol
# GULP energy per Si atom -5572.497109 kJ/mol
# Density = 2.311041 g / cm^3
# Si number density = 23.163128 Si / 1000 Ang^3
#
#
#
# Elastic Constant Matrix: (Units=GPa)
#
#
# Indices 1 2 3 4 5 6 
#
# 1 81.5198 21.2642 20.3676 0.0006 -38.4993 -0.0008
# 2 21.2642 75.0553 29.6795 0.0011 -19.4194 0.0000
# 3 20.3676 29.6795 157.3424 0.0011 -66.2396 -0.0059
# 4 0.0006 0.0011 0.0011 11.8088 0.0013 42.6926
# 5 -38.4993 -19.4194 -66.2396 0.0013 59.0361 0.0004
# 6 -0.0008 0.0000 -0.0059 42.6926 0.0004 198.4826
#
#
#
# Elastic Compliance Matrix: (Units=1/GPa)
#
#
# Indices 1 2 3 4 5 6 
#
# 1 0.020649 -0.003274 0.005989 -0.000019 0.019109 0.000004
# 2 -0.003274 0.015243 -0.002349 -0.000003 0.000243 0.000001
# 3 0.005989 -0.002349 0.013916 -0.000022 0.018747 0.000005
# 4 -0.000019 -0.000003 -0.000022 0.380825 -0.000046 -0.081913
# 5 0.019109 0.000243 0.018747 -0.000046 0.050515 0.000010
# 6 0.000004 0.000001 0.000005 -0.081913 0.000010 0.022657
#
#
# Mechanical properties :
#
#
# Convention : Reuss Voigt Hill
#
# Bulk Modulus (GPa) = 19.78649 50.72668 35.25659
# Shear Modulus (GPa) = 9.61687 70.03925 39.82806
#
# Velocity S-wave (km/s) = 2.03981 5.50482 4.15114
# Velocity P-wave (km/s) = 3.75613 7.89629 6.18304
#
# Compressibility (1/GPa) = 0.05053953
#
# Stress axis : x y z
#
# Youngs Moduli (GPa) = 48.42766 65.60387 71.86217
#
# Poissons Ratio (x) = 0.21482 -0.43042
# Poissons Ratio (y) = 0.15857 0.16882
# Poissons Ratio (z) = -0.29006 0.15412
#
# Static dielectric constant tensor:
#      x y z
#    x 1.884060 0.000000 0.004320 
#    y 0.000000 1.880680 0.000000 
#    z 0.004320 0.000000 1.881580 
# 
# From -- ./inp_files/118572.got.cif
#   From: 2010.05.17/outbox.cif.g08.bks.cpg/sg12_60_cif.got.tgz:118572.got - 2010.06.03 13:09:07.
