data_PCOD9218993
_publ_section_title
;
Structure prediction by ZEFSAII (Michael W. Deem and Ramdas Pophale) SiO2 
 PCOD9218993
Probable space group: C 2/M
;
_chemical_formula_sum "Si O2"
_cell_formula_units_Z 56
_cell_length_a 14.308560
_cell_length_b 14.996505
_cell_length_c 19.684509
_cell_angle_alpha 90.000000
_cell_angle_beta 44.037179
_cell_angle_gamma 90.000000
_cell_volume 2936.117832
_symmetry_space_group_name_H-M "C 2/M"
_symmetry_group_IT_number 12
_symmetry_cell_setting 'monoclinic'
loop_
_space_group_symop_operation_xyz
x,y,z
-x,y,-z
-x,-y,-z
x,-y,z
1/2+x,1/2+y,z
1/2-x,1/2+y,-z
1/2-x,1/2-y,-z
1/2+x,1/2-y,z
loop_
_atom_site_type_symbol
_atom_site_label
_atom_site_fract_x
_atom_site_fract_y
_atom_site_fract_z
Si Si1 0.968902 0.896051 0.732328
Si Si2 0.810164 0.669554 0.078164
Si Si3 0.615006 0.630112 0.994520
Si Si4 0.400507 0.095411 0.892320
Si Si5 0.609975 0.400400 0.789262
Si Si6 0.085843 0.893599 0.390087
Si Si7 0.645377 0.200910 0.793739
O O1 0.095166 0.888531 0.716239
O O2 0.847845 0.835248 0.822720
O O3 0.990489 0.877972 0.641681
O O4 0.923231 0.000000 0.760952
O O5 0.870033 0.658593 0.122545
O O6 0.862051 0.764573 0.024202
O O7 0.844988 0.604494 0.998428
O O8 0.541840 0.601432 0.101684
O O9 0.500000 0.603678 0.000000
O O10 0.767890 0.597115 0.914442
O O11 0.509049 0.173666 0.826161
O O12 0.469868 0.000000 0.847868
O O13 0.665578 0.500000 0.775523
O O14 0.667325 0.307769 0.789031
O O15 0.226587 0.842866 0.308589
O O16 0.000000 0.865444 0.500000
O O17 0.110337 0.000000 0.382861
#
# Coordination Sequence:
#
# PCOD9218993 Si02
#       7
#     8   8   8   8   8   8   8
#     4   9  18  32  55  82 108 146 188 226 278 336
#     4  11  19  34  51  76 113 151 187 231 271 324
#     4  12  22  37  50  72 110 160 203 234 259 307
#     4  12  23  33  51  78 114 152 188 231 277 327
#     4  11  21  36  54  76 110 154 199 232 265 321
#     4   9  19  38  64  89 113 140 177 229 290 352
#     4  11  22  37  55  84 115 145 183 233 285 332
#
# _framework density 19.072804000000001
#
# number of rings (size 3 to 8) (size 9 to 14) (size 15 to 20)
#    0.000    1.286    4.286    3.000    0.000    3.429 
#    0.000    0.714    0.000    0.429    0.000    0.000 
#    0.000    0.000    0.000    0.000    0.000    0.000 
#
# Total GULP energy -155997.187742 kJ/mol
# GULP energy per Si atom -5571.328134 kJ/mol
# Density = 1.902939 g / cm^3
# Si number density = 19.072804 Si / 1000 Ang^3
#
#
#
# Elastic Constant Matrix: (Units=GPa)
#
#
# Indices 1 2 3 4 5 6 
#
# 1 84.7615 18.0347 17.7188 0.0000 5.4906 0.0000
# 2 18.0347 76.8177 21.5427 0.0000 -2.0754 0.0000
# 3 17.7188 21.5427 75.9530 0.0000 11.9643 0.0000
# 4 0.0000 0.0000 0.0000 20.6448 0.0000 -1.7366
# 5 5.4906 -2.0754 11.9643 0.0000 19.3113 0.0000
# 6 0.0000 0.0000 0.0000 -1.7366 0.0000 13.5262
#
#
#
# Elastic Compliance Matrix: (Units=1/GPa)
#
#
# Indices 1 2 3 4 5 6 
#
# 1 0.012915 -0.002594 -0.001834 0.000000 -0.002815 0.000000
# 2 -0.002594 0.015016 -0.004459 0.000000 0.005114 0.000000
# 3 -0.001834 -0.004459 0.016458 0.000000 -0.010155 0.000000
# 4 0.000000 0.000000 0.000000 0.048967 0.000000 0.006287
# 5 -0.002815 0.005114 -0.010155 0.000000 0.059424 0.000000
# 6 0.000000 0.000000 0.000000 0.006287 0.000000 0.074738
#
#
# Mechanical properties :
#
#
# Convention : Reuss Voigt Hill
#
# Bulk Modulus (GPa) = 37.57297 39.12496 38.34896
# Shear Modulus (GPa) = 19.67230 22.71220 21.19225
#
# Velocity S-wave (km/s) = 3.21508 3.45456 3.33697
# Velocity P-wave (km/s) = 5.79006 6.03904 5.91586
#
# Compressibility (1/GPa) = 0.02661488
#
# Stress axis : x y z
#
# Youngs Moduli (GPa) = 77.42693 66.59759 60.75984
#
# Poissons Ratio (x) = 0.17275 0.11143
# Poissons Ratio (y) = 0.20084 0.27095
# Poissons Ratio (z) = 0.14199 0.29698
#
# Static dielectric constant tensor:
#      x y z
#    x 1.768150 0.000000 0.022220 
#    y 0.000000 1.717770 0.000000 
#    z 0.022220 0.000000 1.623060 
# 
# From -- ./inp_files/310766.got.cif
#   From: 2010.05.17/outbox.cif.g08.bks.cpg/sg12_156_cif.got.tgz:310766.got - 2010.06.03 13:09:07.
