data_PCOD9218186
_publ_section_title
;
Structure prediction by ZEFSAII (Michael W. Deem and Ramdas Pophale) SiO2 
 PCOD9218186
Probable space group: C 2/M
;
_chemical_formula_sum "Si O2"
_cell_formula_units_Z 48
_cell_length_a 16.027548
_cell_length_b 14.510261
_cell_length_c 16.064761
_cell_angle_alpha 90.000000
_cell_angle_beta 40.108766
_cell_angle_gamma 90.000000
_cell_volume 2406.936899
_symmetry_space_group_name_H-M "C 2/M"
_symmetry_group_IT_number 12
_symmetry_cell_setting 'monoclinic'
loop_
_space_group_symop_operation_xyz
x,y,z
-x,y,-z
-x,-y,-z
x,-y,z
1/2+x,1/2+y,z
1/2-x,1/2+y,-z
1/2-x,1/2-y,-z
1/2+x,1/2-y,z
loop_
_atom_site_type_symbol
_atom_site_label
_atom_site_fract_x
_atom_site_fract_y
_atom_site_fract_z
Si Si1 0.269008 0.640503 0.487455
Si Si2 0.499240 0.104241 0.767168
Si Si3 0.319339 0.210188 0.780240
Si Si4 0.046839 0.753813 0.057561
Si Si5 0.179337 0.105464 0.739739
Si Si6 0.038286 0.896042 0.373948
O O1 0.250000 0.750000 0.500000
O O2 0.264425 0.607118 0.396015
O O3 0.407090 0.615103 0.420861
O O4 0.152065 0.602938 0.631908
O O5 0.431000 0.153251 0.740762
O O6 0.471128 0.168774 0.867234
O O7 0.451864 0.000000 0.813875
O O8 0.272678 0.158480 0.732561
O O9 0.367012 0.313162 0.723224
O O10 0.195066 0.215682 0.935490
O O11 0.954767 0.837255 0.157797
O O12 0.000000 0.729810 0.000000
O O13 0.159447 0.000000 0.781781
O O14 0.000000 0.886229 0.500000
O O15 0.090216 0.000000 0.321675
#
# Coordination Sequence:
#
# PCOD9218186 Si02
#       6
#     8   8   8   8   8   8
#     4  12  22  43  68  93 130 167 208 266 321 375
#     4  12  25  41  65  95 129 168 210 263 318 374
#     4  11  24  42  65  96 132 165 213 261 314 379
#     4  10  24  43  64  92 126 171 215 259 315 375
#     4  11  23  42  69  97 128 168 211 262 319 379
#     4  11  24  41  65  93 126 170 214 260 316 378
#
# _framework density 19.942357999999999
#
# number of rings (size 3 to 8) (size 9 to 14) (size 15 to 20)
#    0.000    0.833    3.333    3.500    2.333    4.667 
#    0.000    1.667    0.000    0.000    0.000    0.000 
#    0.000    0.000    0.000    0.000    0.000    0.000 
#
# Total GULP energy -134244.090056 kJ/mol
# GULP energy per Si atom -5593.503752 kJ/mol
# Density = 1.989697 g / cm^3
# Si number density = 19.942358 Si / 1000 Ang^3
#
#
#
# Elastic Constant Matrix: (Units=GPa)
#
#
# Indices 1 2 3 4 5 6 
#
# 1 53.1719 35.0133 17.6783 0.0000 9.9147 0.0000
# 2 35.0133 172.5235 10.1664 0.0000 -2.2900 0.0000
# 3 17.6783 10.1664 43.4095 0.0000 4.8392 0.0000
# 4 0.0000 0.0000 0.0000 -19.7710 0.0000 -6.9713
# 5 9.9147 -2.2900 4.8392 0.0000 28.7798 0.0000
# 6 0.0000 0.0000 0.0000 -6.9713 0.0000 6.2271
#
#
#
# Elastic Compliance Matrix: (Units=1/GPa)
#
#
# Indices 1 2 3 4 5 6 
#
# 1 0.026479 -0.004967 -0.008723 0.000000 -0.008050 0.000000
# 2 -0.004967 0.006823 0.000177 0.000000 0.002224 0.000000
# 3 -0.008723 0.000177 0.026711 0.000000 -0.001472 0.000000
# 4 0.000000 0.000000 0.000000 -0.036264 0.000000 -0.040598
# 5 -0.008050 0.002224 -0.001472 0.000000 0.037945 0.000000
# 6 0.000000 0.000000 0.000000 -0.040598 0.000000 0.115138
#
#
# Mechanical properties :
#
#
# Convention : Reuss Voigt Hill
#
# Bulk Modulus (GPa) = 30.31391 43.86901 37.09146
# Shear Modulus (GPa) = 23.27168 16.79695 20.03432
#
# Velocity S-wave (km/s) = 3.41977 2.90535 3.17300
# Velocity P-wave (km/s) = 5.55219 5.77065 5.66247
#
# Compressibility (1/GPa) = 0.03298816
#
# Stress axis : x y z
#
# Youngs Moduli (GPa) = 37.76629 146.55458 37.43710
#
# Poissons Ratio (x) = 0.72788 0.32655
# Poissons Ratio (y) = 0.18757 -0.00661
# Poissons Ratio (z) = 0.32942 -0.02589
#
# Static dielectric constant tensor:
#      x y z
#    x 1.691650 0.000000 -0.010600 
#    y 0.000000 1.704260 0.000000 
#    z -0.010600 0.000000 1.688020 
# 
# From -- ./inp_files/143188.got.cif
#   From: 2010.05.17/outbox.cif.g08.bks.cpg/sg12_72_cif.got.tgz:143188.got - 2010.06.03 13:09:07.
