data_PCOD9218540
_publ_section_title
;
Structure prediction by ZEFSAII (Michael W. Deem and Ramdas Pophale) SiO2 
 PCOD9218540
Probable space group: C 2/M
;
_chemical_formula_sum "Si O2"
_cell_formula_units_Z 24
_cell_length_a 9.458485
_cell_length_b 11.878640
_cell_length_c 9.757413
_cell_angle_alpha 90.000000
_cell_angle_beta 115.526316
_cell_angle_gamma 90.000000
_cell_volume 989.272728
_symmetry_space_group_name_H-M "C 2/M"
_symmetry_group_IT_number 12
_symmetry_cell_setting 'monoclinic'
loop_
_space_group_symop_operation_xyz
x,y,z
-x,y,-z
-x,-y,-z
x,-y,z
1/2+x,1/2+y,z
1/2-x,1/2+y,-z
1/2-x,1/2-y,-z
1/2+x,1/2-y,z
loop_
_atom_site_type_symbol
_atom_site_label
_atom_site_fract_x
_atom_site_fract_y
_atom_site_fract_z
Si Si1 0.813671 0.500000 0.458293
Si Si2 0.049316 0.627252 0.270652
Si Si3 0.526441 0.500000 0.677415
Si Si4 0.221038 0.776171 0.829472
O O1 0.816711 0.609184 0.560046
O O2 0.644453 0.500000 0.320589
O O3 0.000000 0.500000 0.500000
O O4 0.021165 0.500000 0.203982
O O5 0.118301 0.708367 0.185126
O O6 0.890515 0.675357 0.267059
O O7 0.500000 0.500000 0.500000
O O8 0.625400 0.391032 0.762977
O O9 0.250000 0.750000 0.000000
#
# Coordination Sequence:
#
# PCOD9218540 Si02
#       4
#     4   8   4   8
#     4  10  24  47  75 108 149 203 259 321 382 467
#     4  10  25  49  72 109 159 201 262 323 386 463
#     4  12  24  51  78 111 160 205 256 331 394 453
#     4  12  26  45  79 110 153 212 255 317 396 467
#
# _framework density 24.260245999999999
#
# number of rings (size 3 to 8) (size 9 to 14) (size 15 to 20)
#    1.000    0.000    5.000    1.000    7.000    4.000 
#    0.000    1.667    0.000    0.000    0.000    0.000 
#    0.000    0.000    0.000    0.000    0.000    0.000 
#
# Total GULP energy -66976.087017 kJ/mol
# GULP energy per Si atom -5581.340585 kJ/mol
# Density = 2.420503 g / cm^3
# Si number density = 24.260246 Si / 1000 Ang^3
#
#
#
# Elastic Constant Matrix: (Units=GPa)
#
#
# Indices 1 2 3 4 5 6 
#
# 1 151.5440 35.1785 5.8871 0.0000 9.0478 0.0000
# 2 35.1785 98.9147 25.4482 0.0000 10.8314 0.0000
# 3 5.8871 25.4482 90.0522 0.0000 3.4299 0.0000
# 4 0.0000 0.0000 0.0000 130.9625 0.0000 172.2665
# 5 9.0478 10.8314 3.4299 0.0000 37.6770 0.0000
# 6 0.0000 0.0000 0.0000 172.2665 0.0000 314.7028
#
#
#
# Elastic Compliance Matrix: (Units=1/GPa)
#
#
# Indices 1 2 3 4 5 6 
#
# 1 0.007238 -0.002533 0.000282 0.000000 -0.001035 0.000000
# 2 -0.002533 0.012106 -0.003157 0.000000 -0.002584 0.000000
# 3 0.000282 -0.003157 0.011988 0.000000 -0.000252 0.000000
# 4 0.000000 0.000000 0.000000 0.027274 0.000000 -0.014930
# 5 -0.001035 -0.002584 -0.000252 0.000000 0.027556 0.000000
# 6 0.000000 0.000000 0.000000 -0.014930 0.000000 0.011350
#
#
# Mechanical properties :
#
#
# Convention : Reuss Voigt Hill
#
# Bulk Modulus (GPa) = 48.74403 52.61537 50.67970
# Shear Modulus (GPa) = 43.41557 114.93494 79.17525
#
# Velocity S-wave (km/s) = 4.23493 6.89048 5.71897
# Velocity P-wave (km/s) = 6.63691 9.22171 8.03394
#
# Compressibility (1/GPa) = 0.02051533
#
# Stress axis : x y z
#
# Youngs Moduli (GPa) = 138.16632 82.60455 83.41704
#
# Poissons Ratio (x) = 0.20926 -0.02354
# Poissons Ratio (y) = 0.35001 0.26335
# Poissons Ratio (z) = -0.03899 0.26078
#
# Static dielectric constant tensor:
#      x y z
#    x 2.075580 0.000000 -0.105000 
#    y 0.000000 1.948200 0.000000 
#    z -0.105000 0.000000 2.042900 
# 
# From -- ./inp_files/127580.got.cif
#   From: 2010.05.17/outbox.cif.g08.bks.cpg/sg12_64_cif.got.tgz:127580.got - 2010.06.03 13:09:07.
