data_PCOD9218155
_publ_section_title
;
Structure prediction by ZEFSAII (Michael W. Deem and Ramdas Pophale) SiO2 
 PCOD9218155
Probable space group: C 2/M
;
_chemical_formula_sum "Si O2"
_cell_formula_units_Z 48
_cell_length_a 10.135488
_cell_length_b 23.367069
_cell_length_c 11.862889
_cell_angle_alpha 90.000000
_cell_angle_beta 134.425585
_cell_angle_gamma 90.000000
_cell_volume 2006.480771
_symmetry_space_group_name_H-M "C 2/M"
_symmetry_group_IT_number 12
_symmetry_cell_setting 'monoclinic'
loop_
_space_group_symop_operation_xyz
x,y,z
-x,y,-z
-x,-y,-z
x,-y,z
1/2+x,1/2+y,z
1/2-x,1/2+y,-z
1/2-x,1/2-y,-z
1/2+x,1/2-y,z
loop_
_atom_site_type_symbol
_atom_site_label
_atom_site_fract_x
_atom_site_fract_y
_atom_site_fract_z
Si Si1 0.470886 0.099851 0.304696
Si Si2 0.746846 0.733608 0.826816
Si Si3 0.254557 0.884657 0.938553
Si Si4 0.613768 0.639416 0.170813
Si Si5 0.135949 0.284055 0.341976
Si Si6 0.320594 0.500000 0.238283
Si Si7 0.253561 0.500000 0.466681
O O1 0.307374 0.107756 0.296986
O O2 0.588082 0.156742 0.368678
O O3 0.618582 0.051889 0.412287
O O4 0.364024 0.098680 0.118618
O O5 0.825998 0.678843 0.943297
O O6 0.837992 0.795851 0.846011
O O7 0.744554 0.708621 0.699151
O O8 0.563048 0.752268 0.783412
O O9 0.261273 0.940922 0.863562
O O10 0.035534 0.869607 0.821639
O O11 0.500000 0.611839 0.000000
O O12 0.250000 0.250000 0.500000
O O13 0.285840 0.500000 0.350783
O O14 0.544244 0.500000 0.355957
#
# Coordination Sequence:
#
# PCOD9218155 Si02
#       7
#     8   8   8   8   8   4   4
#     4  10  24  42  71  96 136 178 230 287 341 426
#     4  11  22  38  66  93 137 179 223 283 335 420
#     4  11  23  44  70 104 136 178 236 291 350 406
#     4   9  21  39  64 102 137 172 217 284 353 411
#     4  11  24  39  60  97 134 181 220 276 349 410
#     4  11  27  44  71  94 138 179 232 297 344 416
#     4  11  25  48  65  98 132 187 232 279 360 415
#
# _framework density 23.922481999999999
#
# number of rings (size 3 to 8) (size 9 to 14) (size 15 to 20)
#    0.000    1.500    1.667    2.000    4.667    5.333 
#    0.000    4.167    0.000    0.000    0.000    0.000 
#    0.000    0.000    0.000    0.000    0.000    0.000 
#
# Total GULP energy -133829.001041 kJ/mol
# GULP energy per Si atom -5576.208377 kJ/mol
# Density = 2.386803 g / cm^3
# Si number density = 23.922482 Si / 1000 Ang^3
#
#
#
# Elastic Constant Matrix: (Units=GPa)
#
#
# Indices 1 2 3 4 5 6 
#
# 1 100.9605 28.9878 23.4033 0.0000 10.2786 0.0000
# 2 28.9878 123.5916 37.9840 0.0000 24.6980 0.0000
# 3 23.4033 37.9840 68.5200 0.0000 12.7248 0.0000
# 4 0.0000 0.0000 0.0000 -51.7410 0.0000 -88.7167
# 5 10.2786 24.6980 12.7248 0.0000 35.9378 0.0000
# 6 0.0000 0.0000 0.0000 -88.7167 0.0000 -69.8190
#
#
#
# Elastic Compliance Matrix: (Units=1/GPa)
#
#
# Indices 1 2 3 4 5 6 
#
# 1 0.011094 -0.001534 -0.002725 0.000000 -0.001154 0.000000
# 2 -0.001534 0.010935 -0.004521 0.000000 -0.005475 0.000000
# 3 -0.002725 -0.004521 0.018528 0.000000 -0.002674 0.000000
# 4 0.000000 0.000000 0.000000 0.016397 0.000000 -0.020835
# 5 -0.001154 -0.005475 -0.002674 0.000000 0.032866 0.000000
# 6 0.000000 0.000000 0.000000 -0.020835 0.000000 0.012151
#
#
# Mechanical properties :
#
#
# Convention : Reuss Voigt Hill
#
# Bulk Modulus (GPa) = 43.48293 52.64694 48.06493
# Shear Modulus (GPa) = 39.30987 -3.61131 17.84928
#
# Velocity S-wave (km/s) = 4.05806 -1.22999 2.73450
# Velocity P-wave (km/s) = 6.33823 4.47637 5.48685
#
# Compressibility (1/GPa) = 0.02299753
#
# Stress axis : x y z
#
# Youngs Moduli (GPa) = 90.13541 91.45347 53.97367
#
# Poissons Ratio (x) = 0.14030 0.14705
# Poissons Ratio (y) = 0.13828 0.24400
# Poissons Ratio (z) = 0.24558 0.41344
#
# Static dielectric constant tensor:
#      x y z
#    x 1.951740 0.000000 0.009330 
#    y 0.000000 1.893970 0.000000 
#    z 0.009330 0.000000 1.950740 
# 
# From -- ./inp_files/208053.got.cif
#   From: 2010.05.17/outbox.cif.g08.bks.cpg/sg12_105_cif.got.tgz:208053.got - 2010.06.03 13:09:07.
