data_PCOD9218991
_publ_section_title
;
Structure prediction by ZEFSAII (Michael W. Deem and Ramdas Pophale) SiO2 
 PCOD9218991
Probable space group: C 2/M
;
_chemical_formula_sum "Si O2"
_cell_formula_units_Z 40
_cell_length_a 22.147658
_cell_length_b 7.799024
_cell_length_c 12.960226
_cell_angle_alpha 90.000000
_cell_angle_beta 92.485920
_cell_angle_gamma 90.000000
_cell_volume 2236.514601
_symmetry_space_group_name_H-M "C 2/M"
_symmetry_group_IT_number 12
_symmetry_cell_setting 'monoclinic'
loop_
_space_group_symop_operation_xyz
x,y,z
-x,y,-z
-x,-y,-z
x,-y,z
1/2+x,1/2+y,z
1/2-x,1/2+y,-z
1/2-x,1/2-y,-z
1/2+x,1/2-y,z
loop_
_atom_site_type_symbol
_atom_site_label
_atom_site_fract_x
_atom_site_fract_y
_atom_site_fract_z
Si Si1 0.123006 0.500000 0.342999
Si Si2 0.164538 0.806965 0.861685
Si Si3 0.474533 0.696850 0.184035
Si Si4 0.947703 0.500000 0.881655
Si Si5 0.043040 0.198730 0.407312
Si Si6 0.326842 0.000000 0.988870
Si Si7 0.243041 0.500000 0.234735
O O1 0.089545 0.500000 0.228941
O O2 0.097860 0.331501 0.398480
O O3 0.193903 0.500000 0.320726
O O4 0.096839 0.764815 0.820580
O O5 0.186113 0.666959 0.943977
O O6 0.211660 0.837537 0.771591
O O7 0.161287 0.000000 0.908919
O O8 0.482933 0.500000 0.150064
O O9 0.510912 0.832130 0.118639
O O10 0.502501 0.710021 0.300731
O O11 0.897907 0.500000 0.966368
O O12 0.000000 0.242613 0.500000
O O13 0.062659 0.000000 0.419766
O O14 0.292087 0.000000 0.877976
#
# Coordination Sequence:
#
# PCOD9218991 Si02
#       7
#     4   8   8   4   8   4   4
#     4   9  17  33  48  71 101 121 153 193 237 278
#     4   9  20  32  48  68  89 131 162 193 234 272
#     4   9  17  32  47  70 100 121 154 189 239 293
#     4   9  19  29  49  71  94 123 153 200 247 278
#     4   9  17  30  53  80  95 120 150 191 239 284
#     4  11  19  34  49  68  95 121 166 210 228 268
#     4   9  20  36  48  67  93 131 167 193 225 277
#
# _framework density 17.884969999999999
#
# number of rings (size 3 to 8) (size 9 to 14) (size 15 to 20)
#    0.600    2.200    0.000    1.500    0.000    2.400 
#    1.800    4.000    0.000    1.200    0.000    0.000 
#    0.000    0.000    0.000    0.000    0.000    0.000 
#
# Total GULP energy -111376.933164 kJ/mol
# GULP energy per Si atom -5568.846658 kJ/mol
# Density = 1.784426 g / cm^3
# Si number density = 17.884970 Si / 1000 Ang^3
#
#
#
# Elastic Constant Matrix: (Units=GPa)
#
#
# Indices 1 2 3 4 5 6 
#
# 1 106.3405 36.4294 16.6383 0.0000 -36.1291 0.0000
# 2 36.4294 76.3134 29.1377 0.0000 -23.7521 0.0000
# 3 16.6383 29.1377 46.2151 0.0000 -29.1759 0.0000
# 4 0.0000 0.0000 0.0000 89.3290 0.0000 15.5089
# 5 -36.1291 -23.7521 -29.1759 0.0000 33.4783 0.0000
# 6 0.0000 0.0000 0.0000 15.5089 0.0000 27.3954
#
#
#
# Elastic Compliance Matrix: (Units=1/GPa)
#
#
# Indices 1 2 3 4 5 6 
#
# 1 0.019344 -0.005807 0.016173 0.000000 0.030850 0.000000
# 2 -0.005807 0.019589 -0.012099 0.000000 -0.002914 0.000000
# 3 0.016173 -0.012099 0.064566 0.000000 0.065138 0.000000
# 4 0.000000 0.000000 0.000000 0.012415 0.000000 -0.007028
# 5 0.030850 -0.002914 0.065138 0.000000 0.117863 0.000000
# 6 0.000000 0.000000 0.000000 -0.007028 0.000000 0.040481
#
#
# Mechanical properties :
#
#
# Convention : Reuss Voigt Hill
#
# Bulk Modulus (GPa) = 9.99676 43.69778 26.84727
# Shear Modulus (GPa) = 16.07362 39.81809 27.94586
#
# Velocity S-wave (km/s) = 3.00112 4.72353 3.95718
# Velocity P-wave (km/s) = 4.19650 7.36442 5.99355
#
# Compressibility (1/GPa) = 0.10003245
#
# Stress axis : x y z
#
# Youngs Moduli (GPa) = 51.69523 51.04925 15.48810
#
# Poissons Ratio (x) = 0.29647 -0.25049
# Poissons Ratio (y) = 0.30022 0.18739
# Poissons Ratio (z) = -0.83609 0.61765
#
# Static dielectric constant tensor:
#      x y z
#    x 1.640750 0.000000 0.004080 
#    y 0.000000 1.620720 0.000000 
#    z 0.004080 0.000000 1.597930 
# 
# From -- ./inp_files/228905.got.cif
#   From: 2010.05.17/outbox.cif.g08.bks.cpg/sg12_115_cif.got.tgz:228905.got - 2010.06.03 13:09:07.
