data_PCOD9218258
_publ_section_title
;
Structure prediction by ZEFSAII (Michael W. Deem and Ramdas Pophale) SiO2 
 PCOD9218258
Probable space group: C 2/M
;
_chemical_formula_sum "Si O2"
_cell_formula_units_Z 52
_cell_length_a 19.263396
_cell_length_b 9.428544
_cell_length_c 18.159592
_cell_angle_alpha 90.000000
_cell_angle_beta 130.161942
_cell_angle_gamma 90.000000
_cell_volume 2520.603780
_symmetry_space_group_name_H-M "C 2/M"
_symmetry_group_IT_number 12
_symmetry_cell_setting 'monoclinic'
loop_
_space_group_symop_operation_xyz
x,y,z
-x,y,-z
-x,-y,-z
x,-y,z
1/2+x,1/2+y,z
1/2-x,1/2+y,-z
1/2-x,1/2-y,-z
1/2+x,1/2-y,z
loop_
_atom_site_type_symbol
_atom_site_label
_atom_site_fract_x
_atom_site_fract_y
_atom_site_fract_z
Si Si1 0.258777 0.714825 0.607544
Si Si2 0.045321 0.657001 0.450771
Si Si3 0.094556 0.664826 0.021561
Si Si4 0.278147 0.500000 0.497381
Si Si5 0.653983 0.332283 0.928267
Si Si6 0.234377 0.167307 0.220353
Si Si7 0.904705 0.835137 0.281000
O O1 0.153082 0.664996 0.532838
O O2 0.306245 0.622789 0.577427
O O3 0.257308 0.876598 0.583471
O O4 0.292601 0.687392 0.713007
O O5 0.022501 0.500000 0.405628
O O6 0.000000 0.671119 0.500000
O O7 0.003166 0.777959 0.371144
O O8 0.121664 0.500000 0.027567
O O9 0.168290 0.746037 0.121627
O O10 0.090211 0.751803 0.942753
O O11 0.000000 0.666051 0.000000
O O12 0.664251 0.500000 0.952567
O O13 0.616667 0.321217 0.819899
O O14 0.750000 0.250000 0.000000
O O15 0.333052 0.237142 0.275273
O O16 0.235837 0.000000 0.204022
O O17 0.894462 0.000000 0.294889
#
# Coordination Sequence:
#
# PCOD9218258 Si02
#       7
#     8   8   8   4   8   8   8
#     4  11  23  44  65  95 129 176 221 271 321 390
#     4  11  22  39  63  92 133 165 213 272 325 381
#     4  11  26  47  68  99 135 175 222 277 334 398
#     4  10  24  44  64  86 132 176 224 260 322 390
#     4  11  23  43  69  96 133 170 218 278 334 398
#     4  12  23  41  70  96 129 171 222 269 331 399
#     4  11  25  40  63 101 131 171 218 272 336 391
#
# _framework density 20.629978000000001
#
# number of rings (size 3 to 8) (size 9 to 14) (size 15 to 20)
#    0.000    0.923    4.615    1.846    3.231    3.385 
#    5.538    0.000    0.000    0.000    0.000    0.000 
#    0.000    0.000    0.000    0.000    0.000    0.000 
#
# Total GULP energy -144864.619635 kJ/mol
# GULP energy per Si atom -5571.716140 kJ/mol
# Density = 2.058302 g / cm^3
# Si number density = 20.629978 Si / 1000 Ang^3
#
#
#
# Elastic Constant Matrix: (Units=GPa)
#
#
# Indices 1 2 3 4 5 6 
#
# 1 46.5067 30.8867 -2.2436 0.0000 -7.9474 0.0000
# 2 30.8867 208.6279 37.4501 0.0000 -19.9946 0.0000
# 3 -2.2436 37.4501 58.2032 0.0000 -8.5620 0.0000
# 4 0.0000 0.0000 0.0000 68.4460 0.0000 112.9822
# 5 -7.9474 -19.9946 -8.5620 0.0000 22.5347 0.0000
# 6 0.0000 0.0000 0.0000 112.9822 0.0000 383.5227
#
#
#
# Elastic Compliance Matrix: (Units=1/GPa)
#
#
# Indices 1 2 3 4 5 6 
#
# 1 0.025562 -0.003907 0.004571 0.000000 0.007286 0.000000
# 2 -0.003907 0.006322 -0.003809 0.000000 0.002785 0.000000
# 3 0.004571 -0.003809 0.020705 0.000000 0.006099 0.000000
# 4 0.000000 0.000000 0.000000 0.028439 0.000000 -0.008378
# 5 0.007286 0.002785 0.006099 0.000000 0.051734 0.000000
# 6 0.000000 0.000000 0.000000 -0.008378 0.000000 0.005075
#
#
# Mechanical properties :
#
#
# Convention : Reuss Voigt Hill
#
# Bulk Modulus (GPa) = 21.59805 49.50269 35.55037
# Shear Modulus (GPa) = 31.33588 111.38366 71.35977
#
# Velocity S-wave (km/s) = 3.90160 7.35584 5.88773
# Velocity P-wave (km/s) = 5.54875 9.80776 7.96808
#
# Compressibility (1/GPa) = 0.04630048
#
# Stress axis : x y z
#
# Youngs Moduli (GPa) = 39.12005 158.17314 48.29650
#
# Poissons Ratio (x) = 0.61793 -0.22076
# Poissons Ratio (y) = 0.15283 0.18396
# Poissons Ratio (z) = -0.17881 0.60247
#
# Static dielectric constant tensor:
#      x y z
#    x 1.798420 0.000000 0.005590 
#    y 0.000000 1.717680 0.000000 
#    z 0.005590 0.000000 1.710470 
# 
# From -- ./inp_files/282273.got.cif
#   From: 2010.05.17/outbox.cif.g08.bks.cpg/sg12_142_cif.got.tgz:282273.got - 2010.06.03 13:09:07.
