data_PCOD9218722
_publ_section_title
;
Structure prediction by ZEFSAII (Michael W. Deem and Ramdas Pophale) SiO2 
 PCOD9218722
Probable space group: C 2/M
;
_chemical_formula_sum "Si O2"
_cell_formula_units_Z 20
_cell_length_a 5.606240
_cell_length_b 26.504133
_cell_length_c 5.169990
_cell_angle_alpha 90.000000
_cell_angle_beta 90.824294
_cell_angle_gamma 90.000000
_cell_volume 768.121719
_symmetry_space_group_name_H-M "C 2/M"
_symmetry_group_IT_number 12
_symmetry_cell_setting 'monoclinic'
loop_
_space_group_symop_operation_xyz
x,y,z
-x,y,-z
-x,-y,-z
x,-y,z
1/2+x,1/2+y,z
1/2-x,1/2+y,-z
1/2-x,1/2-y,-z
1/2+x,1/2-y,z
loop_
_atom_site_type_symbol
_atom_site_label
_atom_site_fract_x
_atom_site_fract_y
_atom_site_fract_z
Si Si1 0.500000 0.862534 0.500000
Si Si2 0.246688 0.192421 0.894824
Si Si3 0.830759 0.943245 0.748731
O O1 0.709160 0.824406 0.400274
O O2 0.628336 0.902081 0.695274
O O3 0.500000 0.173676 0.000000
O O4 0.250000 0.250000 0.000000
O O5 0.000000 0.171812 0.000000
O O6 0.000000 0.940893 0.500000
O O7 0.727840 0.000000 0.764285
O O8 0.000000 0.936307 0.000000
#
# Coordination Sequence:
#
# PCOD9218722 Si02
#       3
#     4   8   8
#     4  12  27  42  84 114 162 216 279 324 418 496
#     4  10  26  48  74 113 160 212 274 342 406 481
#     4  10  25  48  77 117 164 209 270 343 413 492
#
# _framework density 26.037538999999999
#
# number of rings (size 3 to 8) (size 9 to 14) (size 15 to 20)
#    0.000    1.600    0.000    0.600   11.200    6.400 
#    0.000    6.000    0.000    6.000    0.000    0.000 
#    0.000    0.000    0.000    0.000    0.000    0.000 
#
# Total GULP energy -55811.925078 kJ/mol
# GULP energy per Si atom -5581.192508 kJ/mol
# Density = 2.597828 g / cm^3
# Si number density = 26.037539 Si / 1000 Ang^3
#
#
#
# Elastic Constant Matrix: (Units=GPa)
#
#
# Indices 1 2 3 4 5 6 
#
# 1 202.6924 67.6148 63.3115 0.0000 -21.1278 0.0000
# 2 67.6148 257.9656 72.4535 0.0000 -19.3396 0.0000
# 3 63.3115 72.4535 149.3465 0.0000 -1.3101 0.0000
# 4 0.0000 0.0000 0.0000 -79.7145 0.0000 -36.3701
# 5 -21.1278 -19.3396 -1.3101 0.0000 55.5270 0.0000
# 6 0.0000 0.0000 0.0000 -36.3701 0.0000 46.4099
#
#
#
# Elastic Compliance Matrix: (Units=1/GPa)
#
#
# Indices 1 2 3 4 5 6 
#
# 1 0.006095 -0.000844 -0.002157 0.000000 0.001974 0.000000
# 2 -0.000844 0.004735 -0.001928 0.000000 0.001283 0.000000
# 3 -0.002157 -0.001928 0.008535 0.000000 -0.001291 0.000000
# 4 0.000000 0.000000 0.000000 -0.009241 0.000000 -0.007242
# 5 0.001974 0.001283 -0.001291 0.000000 0.019177 0.000000
# 6 0.000000 0.000000 0.000000 -0.007242 0.000000 0.015872
#
#
# Mechanical properties :
#
#
# Convention : Reuss Voigt Hill
#
# Bulk Modulus (GPa) = 105.19363 112.97379 109.08371
# Shear Modulus (GPa) = 85.91146 31.55279 58.73213
#
# Velocity S-wave (km/s) = 5.75038 3.48490 4.75454
# Velocity P-wave (km/s) = 9.19661 7.72500 8.49274
#
# Compressibility (1/GPa) = 0.00950628
#
# Stress axis : x y z
#
# Youngs Moduli (GPa) = 164.08148 211.17532 117.17141
#
# Poissons Ratio (x) = 0.17814 0.25274
# Poissons Ratio (y) = 0.13842 0.22596
# Poissons Ratio (z) = 0.35393 0.40724
#
# Static dielectric constant tensor:
#      x y z
#    x 2.050830 0.000000 -0.129950 
#    y 0.000000 2.150030 0.000000 
#    z -0.129950 0.000000 4.187340 
# 
# From -- ./inp_files/892.got.cif
#   From: 2010.05.17/outbox.cif.g08.bks.cpg/sg12_1_cif.got.tgz:892.got - 2010.06.03 13:09:07.
