data_PCOD9218448
_publ_section_title
;
Structure prediction by ZEFSAII (Michael W. Deem and Ramdas Pophale) SiO2 
 PCOD9218448
Probable space group: C 2/M
;
_chemical_formula_sum "Si O2"
_cell_formula_units_Z 48
_cell_length_a 18.763945
_cell_length_b 29.745499
_cell_length_c 8.735264
_cell_angle_alpha 90.000000
_cell_angle_beta 153.348896
_cell_angle_gamma 90.000000
_cell_volume 2186.948404
_symmetry_space_group_name_H-M "C 2/M"
_symmetry_group_IT_number 12
_symmetry_cell_setting 'monoclinic'
loop_
_space_group_symop_operation_xyz
x,y,z
-x,y,-z
-x,-y,-z
x,-y,z
1/2+x,1/2+y,z
1/2-x,1/2+y,-z
1/2-x,1/2-y,-z
1/2+x,1/2-y,z
loop_
_atom_site_type_symbol
_atom_site_label
_atom_site_fract_x
_atom_site_fract_y
_atom_site_fract_z
Si Si1 0.305666 0.361178 0.845536
Si Si2 0.638419 0.775457 0.662002
Si Si3 0.302962 0.548879 0.966329
Si Si4 0.177865 0.629517 0.277361
Si Si5 0.827486 0.950509 0.379930
Si Si6 0.582777 0.303992 0.326561
O O1 0.216783 0.315407 0.717437
O O2 0.291083 0.374925 0.641957
O O3 0.229424 0.403425 0.784021
O O4 0.486656 0.345447 0.220135
O O5 0.500000 0.795420 0.500000
O O6 0.574809 0.738955 0.418986
O O7 0.750000 0.750000 0.000000
O O8 0.236591 0.500000 0.790427
O O9 0.480619 0.552943 0.234500
O O10 0.310557 0.548584 0.163964
O O11 0.223758 0.589049 0.253354
O O12 0.235685 0.678449 0.330231
O O13 0.000000 0.628827 0.000000
O O14 0.779814 0.000000 0.348473
O O15 0.500000 0.295966 0.000000
#
# Coordination Sequence:
#
# PCOD9218448 Si02
#       6
#     8   8   8   8   8   8
#     4  11  24  42  65  97 133 174 222 271 335 394
#     4  12  27  44  68 100 132 179 225 278 335 393
#     4   9  19  38  68  99 126 169 222 276 326 395
#     4  11  25  39  64  94 134 179 219 271 336 398
#     4   9  19  37  65  97 129 169 220 271 336 396
#     4  10  24  46  66  92 133 179 226 274 332 398
#
# _framework density 21.948391999999998
#
# number of rings (size 3 to 8) (size 9 to 14) (size 15 to 20)
#    0.000    1.667    3.333    1.000    4.667    4.333 
#    0.000    1.667    0.000    2.500    0.000    0.000 
#    0.000    0.000    0.000    0.000    0.000    0.000 
#
# Total GULP energy -133817.514427 kJ/mol
# GULP energy per Si atom -5575.729768 kJ/mol
# Density = 2.189844 g / cm^3
# Si number density = 21.948392 Si / 1000 Ang^3
#
#
#
# Elastic Constant Matrix: (Units=GPa)
#
#
# Indices 1 2 3 4 5 6 
#
# 1 84.9635 43.2884 16.7162 0.0000 17.8982 0.0000
# 2 43.2884 140.3612 18.1838 0.0000 -8.0740 0.0000
# 3 16.7162 18.1838 30.4516 0.0000 10.1997 0.0000
# 4 0.0000 0.0000 0.0000 42.2499 0.0000 -2.6327
# 5 17.8982 -8.0740 10.1997 0.0000 35.6780 0.0000
# 6 0.0000 0.0000 0.0000 -2.6327 0.0000 37.2472
#
#
#
# Elastic Compliance Matrix: (Units=1/GPa)
#
#
# Indices 1 2 3 4 5 6 
#
# 1 0.016965 -0.005326 -0.003183 0.000000 -0.008806 0.000000
# 2 -0.005326 0.009784 -0.005037 0.000000 0.006326 0.000000
# 3 -0.003183 -0.005037 0.041406 0.000000 -0.011381 0.000000
# 4 0.000000 0.000000 0.000000 0.023773 0.000000 0.001680
# 5 -0.008806 0.006326 -0.011381 0.000000 0.037131 0.000000
# 6 0.000000 0.000000 0.000000 0.001680 0.000000 0.026966
#
#
# Mechanical properties :
#
#
# Convention : Reuss Voigt Hill
#
# Bulk Modulus (GPa) = 24.35342 45.79478 35.07410
# Shear Modulus (GPa) = 25.40587 34.87420 30.14004
#
# Velocity S-wave (km/s) = 3.40594 3.99045 3.70972
# Velocity P-wave (km/s) = 5.15626 6.49166 5.86211
#
# Compressibility (1/GPa) = 0.04106200
#
# Stress axis : x y z
#
# Youngs Moduli (GPa) = 58.94602 102.21176 24.15112
#
# Poissons Ratio (x) = 0.54441 0.07686
# Poissons Ratio (y) = 0.31396 0.12166
# Poissons Ratio (z) = 0.18760 0.51487
#
# Static dielectric constant tensor:
#      x y z
#    x 1.825800 0.000000 0.034360 
#    y 0.000000 1.843360 0.000000 
#    z 0.034360 0.000000 1.900930 
# 
# From -- ./inp_files/80834.got.cif
#   From: 2010.05.17/outbox.cif.g08.bks.cpg/sg12_41_cif.got.tgz:80834.got - 2010.06.03 13:09:07.
