data_PCOD9218382
_publ_section_title
;
Structure prediction by ZEFSAII (Michael W. Deem and Ramdas Pophale) SiO2 
 PCOD9218382
Probable space group: C 2/M
;
_chemical_formula_sum "Si O2"
_cell_formula_units_Z 36
_cell_length_a 10.943152
_cell_length_b 15.174261
_cell_length_c 27.053199
_cell_angle_alpha 90.000000
_cell_angle_beta 157.308152
_cell_angle_gamma 90.000000
_cell_volume 1733.015477
_symmetry_space_group_name_H-M "C 2/M"
_symmetry_group_IT_number 12
_symmetry_cell_setting 'monoclinic'
loop_
_space_group_symop_operation_xyz
x,y,z
-x,y,-z
-x,-y,-z
x,-y,z
1/2+x,1/2+y,z
1/2-x,1/2+y,-z
1/2-x,1/2-y,-z
1/2+x,1/2-y,z
loop_
_atom_site_type_symbol
_atom_site_label
_atom_site_fract_x
_atom_site_fract_y
_atom_site_fract_z
Si Si1 0.233325 0.690298 0.543618
Si Si2 0.750636 0.855675 0.054742
Si Si3 0.712246 0.000000 0.493957
Si Si4 0.528936 0.168860 0.158249
Si Si5 0.472378 0.000000 0.777911
Si Si6 0.777291 0.500000 0.238945
O O1 0.250000 0.750000 0.500000
O O2 0.120530 0.591390 0.486627
O O3 0.592219 0.682230 0.697644
O O4 0.000000 0.724459 0.500000
O O5 0.860031 0.758476 0.111665
O O6 0.500000 0.891742 0.000000
O O7 0.584786 0.850283 0.939617
O O8 0.058330 0.915616 0.166358
O O9 0.091483 0.000000 0.632497
O O10 0.561817 0.000000 0.383749
O O11 0.436273 0.087240 0.158059
O O12 0.610662 0.000000 0.775244
#
# Coordination Sequence:
#
# PCOD9218382 Si02
#       6
#     8   8   4   8   4   4
#     4  11  25  44  71 103 134 179 224 279 339 400
#     4  11  26  43  65  98 135 177 223 274 328 396
#     4  10  24  45  67 101 135 176 216 281 333 399
#     4  10  25  43  68  96 136 176 217 280 332 397
#     4  10  24  45  69  99 133 171 225 273 341 399
#     4  12  25  42  71 100 132 177 224 277 330 399
#
# _framework density 20.773040999999999
#
# number of rings (size 3 to 8) (size 9 to 14) (size 15 to 20)
#    0.000    1.333    0.000    3.000   12.444    6.222 
#    0.000    0.000    0.000    0.000    0.000    0.000 
#    0.000    0.000    0.000    0.000    0.000    0.000 
#
# Total GULP energy -100728.102948 kJ/mol
# GULP energy per Si atom -5596.005719 kJ/mol
# Density = 2.072576 g / cm^3
# Si number density = 20.773041 Si / 1000 Ang^3
#
#
#
# Elastic Constant Matrix: (Units=GPa)
#
#
# Indices 1 2 3 4 5 6 
#
# 1 129.2356 62.2318 22.5547 0.0104 10.6742 -0.0152
# 2 62.2318 125.6577 45.9268 0.0014 -21.6119 -0.0026
# 3 22.5547 45.9268 71.7391 0.0159 -23.0735 -0.0233
# 4 0.0104 0.0014 0.0159 104.9232 -0.0045 -87.3092
# 5 10.6742 -21.6119 -23.0735 -0.0045 22.7898 0.0053
# 6 -0.0152 -0.0026 -0.0233 -87.3092 0.0053 139.6028
#
#
#
# Elastic Compliance Matrix: (Units=1/GPa)
#
#
# Indices 1 2 3 4 5 6 
#
# 1 0.014736 -0.008817 -0.005780 -0.000001 -0.021116 0.000001
# 2 -0.008817 0.016004 -0.001874 0.000001 0.017409 -0.000001
# 3 -0.005780 -0.001874 0.025588 0.000000 0.026836 0.000003
# 4 -0.000001 0.000001 0.000000 0.019873 0.000002 0.012429
# 5 -0.021116 0.017409 0.026836 0.000002 0.097449 0.000000
# 6 0.000001 -0.000001 0.000003 0.012429 0.000000 0.014936
#
#
# Mechanical properties :
#
#
# Convention : Reuss Voigt Hill
#
# Bulk Modulus (GPa) = 42.76118 65.33990 54.05054
# Shear Modulus (GPa) = 21.80312 66.52443 44.16378
#
# Velocity S-wave (km/s) = 3.24325 5.66515 4.61587
# Velocity P-wave (km/s) = 5.88681 8.62058 7.38136
#
# Compressibility (1/GPa) = 0.02338570
#
# Stress axis : x y z
#
# Youngs Moduli (GPa) = 67.85873 62.48361 39.08140
#
# Poissons Ratio (x) = 0.55095 0.22588
# Poissons Ratio (y) = 0.59834 0.07324
# Poissons Ratio (z) = 0.39220 0.11710
#
# Static dielectric constant tensor:
#      x y z
#    x 1.693380 0.000000 0.002520 
#    y 0.000000 1.756870 0.000000 
#    z 0.002520 0.000000 1.705290 
# 
# From -- ./inp_files/374175.got.cif
#   From: 2010.05.17/outbox.cif.g08.bks.cpg/sg12_188_cif.got.tgz:374175.got - 2010.06.03 13:09:07.
