data_PCOD9218367
_publ_section_title
;
Structure prediction by ZEFSAII (Michael W. Deem and Ramdas Pophale) SiO2 
 PCOD9218367
Probable space group: C 2/M
;
_chemical_formula_sum "Si O2"
_cell_formula_units_Z 32
_cell_length_a 15.692830
_cell_length_b 17.084528
_cell_length_c 11.678975
_cell_angle_alpha 90.000000
_cell_angle_beta 156.559407
_cell_angle_gamma 90.000000
_cell_volume 1245.579874
_symmetry_space_group_name_H-M "C 2/M"
_symmetry_group_IT_number 12
_symmetry_cell_setting 'monoclinic'
loop_
_space_group_symop_operation_xyz
x,y,z
-x,y,-z
-x,-y,-z
x,-y,z
1/2+x,1/2+y,z
1/2-x,1/2+y,-z
1/2-x,1/2-y,-z
1/2+x,1/2-y,z
loop_
_atom_site_type_symbol
_atom_site_label
_atom_site_fract_x
_atom_site_fract_y
_atom_site_fract_z
Si Si1 0.619412 0.378529 0.753843
Si Si2 0.961441 0.386577 0.585781
Si Si3 0.199187 0.241454 0.177301
Si Si4 0.544568 0.588868 0.219833
O O1 0.500000 0.417786 0.500000
O O2 0.435649 0.383414 0.624706
O O3 0.827198 0.406118 0.081278
O O4 0.718073 0.301040 0.815025
O O5 0.000000 0.410792 0.500000
O O6 0.759495 0.415659 0.409929
O O7 0.893924 0.294068 0.492672
O O8 0.098405 0.160412 0.004313
O O9 0.000000 0.277615 0.000000
O O10 0.456956 0.500000 0.107244
#
# Coordination Sequence:
#
# PCOD9218367 Si02
#       4
#     8   8   8   8
#     4  12  28  46  78 110 152 198 245 305 365 445
#     4  11  25  47  73 115 141 192 246 308 370 424
#     4  10  24  44  76 113 147 188 250 312 368 426
#     4  11  27  49  75 111 153 194 246 306 372 444
#
# _framework density 25.690847000000002
#
# number of rings (size 3 to 8) (size 9 to 14) (size 15 to 20)
#    0.000    1.000    2.500    1.500    7.000    8.500 
#    0.000    1.250    0.000    0.000    0.000    0.000 
#    0.000    0.000    0.000    0.000    0.000    0.000 
#
# Total GULP energy -89184.400637 kJ/mol
# GULP energy per Si atom -5574.025040 kJ/mol
# Density = 2.563237 g / cm^3
# Si number density = 25.690847 Si / 1000 Ang^3
#
#
#
# Elastic Constant Matrix: (Units=GPa)
#
#
# Indices 1 2 3 4 5 6 
#
# 1 240.8487 84.8116 78.9613 0.0000 8.7158 0.0000
# 2 84.8116 155.8777 50.7385 0.0000 25.5492 0.0000
# 3 78.9613 50.7385 167.0482 0.0000 -16.2077 0.0000
# 4 0.0000 0.0000 0.0000 12.9085 0.0000 -23.3689
# 5 8.7158 25.5492 -16.2077 0.0000 54.5713 0.0000
# 6 0.0000 0.0000 0.0000 -23.3689 0.0000 82.5810
#
#
#
# Elastic Compliance Matrix: (Units=1/GPa)
#
#
# Indices 1 2 3 4 5 6 
#
# 1 0.005651 -0.002363 -0.001991 0.000000 -0.000388 0.000000
# 2 -0.002363 0.009122 -0.002092 0.000000 -0.004514 0.000000
# 3 -0.001991 -0.002092 0.007917 0.000000 0.003649 0.000000
# 4 0.000000 0.000000 0.000000 0.158844 0.000000 0.044950
# 5 -0.000388 -0.004514 0.003649 0.000000 0.021584 0.000000
# 6 0.000000 0.000000 0.000000 0.044950 0.000000 0.024829
#
#
# Mechanical properties :
#
#
# Convention : Reuss Voigt Hill
#
# Bulk Modulus (GPa) = 102.06073 110.31083 106.18578
# Shear Modulus (GPa) = 20.48311 53.29637 36.88974
#
# Velocity S-wave (km/s) = 2.82670 4.55964 3.79345
# Velocity P-wave (km/s) = 7.10397 8.41139 7.78517
#
# Compressibility (1/GPa) = 0.00979809
#
# Stress axis : x y z
#
# Youngs Moduli (GPa) = 176.96531 109.62819 126.31544
#
# Poissons Ratio (x) = 0.25905 0.25149
# Poissons Ratio (y) = 0.41817 0.26421
# Poissons Ratio (z) = 0.35233 0.22930
#
# Static dielectric constant tensor:
#      x y z
#    x 2.044180 0.000000 0.013320 
#    y 0.000000 2.035230 0.000000 
#    z 0.013320 0.000000 2.139700 
# 
# From -- ./inp_files/147341.got.cif
#   From: 2010.05.17/outbox.cif.g08.bks.cpg/sg12_74_cif.got.tgz:147341.got - 2010.06.03 13:09:07.
