data_PCOD9218089
_publ_section_title
;
Structure prediction by ZEFSAII (Michael W. Deem and Ramdas Pophale) SiO2 
 PCOD9218089
Probable space group: C 2/M
;
_chemical_formula_sum "Si O2"
_cell_formula_units_Z 36
_cell_length_a 9.558525
_cell_length_b 9.907382
_cell_length_c 17.703537
_cell_angle_alpha 90.000000
_cell_angle_beta 90.554806
_cell_angle_gamma 90.000000
_cell_volume 1676.445621
_symmetry_space_group_name_H-M "C 2/M"
_symmetry_group_IT_number 12
_symmetry_cell_setting 'monoclinic'
loop_
_space_group_symop_operation_xyz
x,y,z
-x,y,-z
-x,-y,-z
x,-y,z
1/2+x,1/2+y,z
1/2-x,1/2+y,-z
1/2-x,1/2-y,-z
1/2+x,1/2-y,z
loop_
_atom_site_type_symbol
_atom_site_label
_atom_site_fract_x
_atom_site_fract_y
_atom_site_fract_z
Si Si1 0.348064 0.000000 0.906121
Si Si2 0.939078 0.157989 0.279554
Si Si3 0.818455 0.500000 0.077013
Si Si4 0.298204 0.271803 0.815821
Si Si5 0.704628 0.000000 0.505212
Si Si6 0.101974 0.224568 0.432061
O O1 0.514408 0.000000 0.918280
O O2 0.310688 0.870167 0.857512
O O3 0.278451 0.000000 0.988607
O O4 0.054375 0.175741 0.214463
O O5 0.013818 0.207149 0.355914
O O6 0.806816 0.247305 0.254712
O O7 0.901601 0.000000 0.287880
O O8 0.762644 0.373093 0.123006
O O9 0.769859 0.120321 0.560792
O O10 0.644550 0.121111 0.448599
O O11 0.000000 0.179686 0.500000
#
# Coordination Sequence:
#
# PCOD9218089 Si02
#       6
#     4   8   4   8   4   8
#     4  11  24  45  72 105 134 181 223 272 336 407
#     4  12  27  43  70  98 144 175 227 284 342 392
#     4  11  24  45  71 102 144 173 221 281 329 407
#     4  12  25  46  68 104 137 182 221 278 339 406
#     4  10  24  42  63  93 128 164 234 272 336 394
#     4  11  25  43  67  95 130 179 227 280 331 398
#
# _framework density 21.474004000000001
#
# number of rings (size 3 to 8) (size 9 to 14) (size 15 to 20)
#    0.000    0.667    5.556    1.333    6.222    1.778 
#    0.000    1.111    0.000    0.000    0.000    0.000 
#    0.000    0.000    0.000    0.000    0.000    0.000 
#
# Total GULP energy -100238.925943 kJ/mol
# GULP energy per Si atom -5568.829219 kJ/mol
# Density = 2.142513 g / cm^3
# Si number density = 21.474004 Si / 1000 Ang^3
#
#
#
# Elastic Constant Matrix: (Units=GPa)
#
#
# Indices 1 2 3 4 5 6 
#
# 1 33.0794 -7.0696 -9.1915 0.0000 -3.4891 0.0000
# 2 -7.0696 113.4597 15.4987 0.0000 -6.6124 0.0000
# 3 -9.1915 15.4987 94.4761 0.0000 6.0347 0.0000
# 4 0.0000 0.0000 0.0000 39.3634 0.0000 3.0030
# 5 -3.4891 -6.6124 6.0347 0.0000 29.1701 0.0000
# 6 0.0000 0.0000 0.0000 3.0030 0.0000 8.5976
#
#
#
# Elastic Compliance Matrix: (Units=1/GPa)
#
#
# Indices 1 2 3 4 5 6 
#
# 1 0.031721 0.001843 0.002548 0.000000 0.003685 0.000000
# 2 0.001843 0.009289 -0.001513 0.000000 0.002639 0.000000
# 3 0.002548 -0.001513 0.011232 0.000000 -0.002362 0.000000
# 4 0.000000 0.000000 0.000000 0.026100 0.000000 -0.009116
# 5 0.003685 0.002639 -0.002362 0.000000 0.035809 0.000000
# 6 0.000000 0.000000 0.000000 -0.009116 0.000000 0.119496
#
#
# Mechanical properties :
#
#
# Convention : Reuss Voigt Hill
#
# Bulk Modulus (GPa) = 17.24182 26.61004 21.92593
# Shear Modulus (GPa) = 20.22470 31.54473 25.88471
#
# Velocity S-wave (km/s) = 3.07224 3.83688 3.47565
# Velocity P-wave (km/s) = 4.54219 5.66105 5.13220
#
# Compressibility (1/GPa) = 0.05799853
#
# Stress axis : x y z
#
# Youngs Moduli (GPa) = 31.52487 107.65364 89.03373
#
# Poissons Ratio (x) = -0.19842 -0.22689
# Poissons Ratio (y) = -0.05811 0.13472
# Poissons Ratio (z) = -0.08034 0.16289
#
# Static dielectric constant tensor:
#      x y z
#    x 1.844920 0.000000 -0.006610 
#    y 0.000000 1.695360 0.000000 
#    z -0.006610 0.000000 1.771790 
# 
# From -- ./inp_files/260836.got.cif
#   From: 2010.05.17/outbox.cif.g08.bks.cpg/sg12_131_cif.got.tgz:260836.got - 2010.06.03 13:09:07.
