data_PCOD9218184
_publ_section_title
;
Structure prediction by ZEFSAII (Michael W. Deem and Ramdas Pophale) SiO2 
 PCOD9218184
Probable space group: C 2/M
;
_chemical_formula_sum "Si O2"
_cell_formula_units_Z 60
_cell_length_a 22.174823
_cell_length_b 21.696956
_cell_length_c 12.663700
_cell_angle_alpha 90.000000
_cell_angle_beta 28.001088
_cell_angle_gamma 90.000000
_cell_volume 2860.516022
_symmetry_space_group_name_H-M "C 2/M"
_symmetry_group_IT_number 12
_symmetry_cell_setting 'monoclinic'
loop_
_space_group_symop_operation_xyz
x,y,z
-x,y,-z
-x,-y,-z
x,-y,z
1/2+x,1/2+y,z
1/2-x,1/2+y,-z
1/2-x,1/2-y,-z
1/2+x,1/2-y,z
loop_
_atom_site_type_symbol
_atom_site_label
_atom_site_fract_x
_atom_site_fract_y
_atom_site_fract_z
Si Si1 0.789907 0.068936 0.137109
Si Si2 0.591872 0.162640 0.501960
Si Si3 0.892437 0.738788 0.314331
Si Si4 0.264792 0.135489 0.217066
Si Si5 0.990956 0.147397 0.244012
Si Si6 0.347378 0.928194 0.880501
Si Si7 0.269130 0.734661 0.090341
Si Si8 0.500000 0.135434 0.000000
O O1 0.713162 0.116642 0.329220
O O2 0.728412 0.073830 0.113610
O O3 0.767719 0.000000 0.208406
O O4 0.940073 0.084997 0.897306
O O5 0.585933 0.214099 0.601154
O O6 0.468569 0.118527 0.687002
O O7 0.639318 0.201487 0.328840
O O8 0.750000 0.750000 0.500000
O O9 0.952281 0.806301 0.210106
O O10 0.936290 0.681352 0.180210
O O11 0.130322 0.138401 0.490084
O O12 0.292406 0.205815 0.130717
O O13 0.265862 0.094786 0.108201
O O14 0.379487 0.109464 0.116740
O O15 0.113433 0.186634 0.095444
O O16 0.387081 0.000000 0.833474
O O17 0.250000 0.750000 0.000000
#
# Coordination Sequence:
#
# PCOD9218184 Si02
#       8
#     8   8   8   8   8   8   8   4
#     4  10  24  43  64  91 128 175 216 259 316 386
#     4  11  21  41  66  97 128 162 217 270 317 382
#     4  12  23  39  64  97 127 166 205 261 338 389
#     4  12  23  41  62  96 128 170 213 263 329 388
#     4  11  23  39  59  92 128 169 210 258 316 390
#     4  11  24  43  66  93 127 174 224 266 317 381
#     4  11  23  38  58  95 139 167 202 262 332 394
#     4  12  22  40  65  90 133 164 212 268 326 400
#
# _framework density 20.975235999999999
#
# number of rings (size 3 to 8) (size 9 to 14) (size 15 to 20)
#    0.000    0.800    5.333    2.400    1.867    4.800 
#    0.000    1.667    0.000    2.400    0.000    0.000 
#    0.000    0.000    0.000    0.000    0.000    0.000 
#
# Total GULP energy -167192.363398 kJ/mol
# GULP energy per Si atom -5573.078780 kJ/mol
# Density = 2.092750 g / cm^3
# Si number density = 20.975236 Si / 1000 Ang^3
#
#
#
# Elastic Constant Matrix: (Units=GPa)
#
#
# Indices 1 2 3 4 5 6 
#
# 1 23.6890 3.0615 -6.2296 0.0000 -11.1546 -0.0001
# 2 3.0615 80.0581 10.6267 0.0003 -5.1143 -0.0003
# 3 -6.2296 10.6267 78.6131 0.0006 -9.0225 -0.0008
# 4 0.0000 0.0003 0.0006 29.2226 -0.0006 -2.9950
# 5 -11.1546 -5.1143 -9.0225 -0.0006 35.5850 0.0004
# 6 -0.0001 -0.0003 -0.0008 -2.9950 0.0004 28.8424
#
#
#
# Elastic Compliance Matrix: (Units=1/GPa)
#
#
# Indices 1 2 3 4 5 6 
#
# 1 0.052539 -0.001724 0.006446 0.000000 0.017856 0.000000
# 2 -0.001724 0.012847 -0.001775 0.000000 0.000856 0.000000
# 3 0.006446 -0.001775 0.014084 0.000000 0.005336 0.000000
# 4 0.000000 0.000000 0.000000 0.034588 0.000001 0.003592
# 5 0.017856 0.000856 0.005336 0.000001 0.035175 0.000000
# 6 0.000000 0.000000 0.000000 0.003592 0.000000 0.035044
#
#
# Mechanical properties :
#
#
# Convention : Reuss Voigt Hill
#
# Bulk Modulus (GPa) = 11.71459 21.91970 16.81714
# Shear Modulus (GPa) = 24.17342 30.39010 27.28176
#
# Velocity S-wave (km/s) = 3.39849 3.81051 3.61039
# Velocity P-wave (km/s) = 4.58222 5.46196 5.04132
#
# Compressibility (1/GPa) = 0.08536364
#
# Stress axis : x y z
#
# Youngs Moduli (GPa) = 19.03331 77.83824 71.00406
#
# Poissons Ratio (x) = 0.13420 -0.45768
# Poissons Ratio (y) = 0.03282 0.12603
# Poissons Ratio (z) = -0.12268 0.13817
#
# Static dielectric constant tensor:
#      x y z
#    x 1.721760 0.000000 -0.051770 
#    y 0.000000 1.785970 0.000000 
#    z -0.051770 0.000000 1.491080 
# 
# From -- ./inp_files/170387.got.cif
#   From: 2010.05.17/outbox.cif.g08.bks.cpg/sg12_86_cif.got.tgz:170387.got - 2010.06.03 13:09:07.
