data_PCOD9218450
_publ_section_title
;
Structure prediction by ZEFSAII (Michael W. Deem and Ramdas Pophale) SiO2 
 PCOD9218450
Probable space group: C 2/M
;
_chemical_formula_sum "Si O2"
_cell_formula_units_Z 48
_cell_length_a 32.928505
_cell_length_b 14.156028
_cell_length_c 12.632098
_cell_angle_alpha 90.000000
_cell_angle_beta 155.627269
_cell_angle_gamma 90.000000
_cell_volume 2429.924718
_symmetry_space_group_name_H-M "C 2/M"
_symmetry_group_IT_number 12
_symmetry_cell_setting 'monoclinic'
loop_
_space_group_symop_operation_xyz
x,y,z
-x,y,-z
-x,-y,-z
x,-y,z
1/2+x,1/2+y,z
1/2-x,1/2+y,-z
1/2-x,1/2-y,-z
1/2+x,1/2-y,z
loop_
_atom_site_type_symbol
_atom_site_label
_atom_site_fract_x
_atom_site_fract_y
_atom_site_fract_z
Si Si1 0.130026 0.248517 0.539693
Si Si2 0.232919 0.360294 0.474585
Si Si3 0.010091 0.889422 0.397860
Si Si4 0.783262 0.891229 0.833569
Si Si5 0.898750 0.895143 0.712103
Si Si6 0.984877 0.392978 0.088452
O O1 0.226672 0.315404 0.772977
O O2 0.143550 0.174567 0.475724
O O3 0.089036 0.183697 0.537502
O O4 0.042964 0.319579 0.297790
O O5 0.250000 0.250000 0.500000
O O6 0.232269 0.385502 0.596895
O O7 0.324756 0.403790 0.633111
O O8 0.132293 0.387919 0.178466
O O9 0.000000 0.879949 0.500000
O O10 0.034233 0.000000 0.432289
O O11 0.899132 0.870142 0.092015
O O12 0.776903 0.000000 0.857505
O O13 0.919036 0.000000 0.716158
O O14 0.000000 0.856208 0.000000
O O15 0.019419 0.500000 0.190644
O O16 0.000000 0.372043 0.000000
#
# Coordination Sequence:
#
# PCOD9218450 Si02
#       6
#     8   8   8   8   8   8
#     4  12  22  36  62  88 117 152 203 246 295 354
#     4  12  20  34  54  82 122 162 195 226 278 348
#     4  10  24  46  67  86 112 150 201 263 323 369
#     4  11  22  38  62  89 119 159 201 242 294 361
#     4  11  22  34  50  80 120 157 193 238 284 338
#     4  11  21  34  53  85 126 163 194 226 271 345
#
# _framework density 19.753699000000001
#
# number of rings (size 3 to 8) (size 9 to 14) (size 15 to 20)
#    0.000    0.833    3.333    6.000    0.000    3.333 
#    0.000    0.000    0.000    2.000    0.000    0.000 
#    0.000    0.000    0.000    0.000    0.000    0.000 
#
# Total GULP energy -134072.743944 kJ/mol
# GULP energy per Si atom -5586.364331 kJ/mol
# Density = 1.970874 g / cm^3
# Si number density = 19.753699 Si / 1000 Ang^3
#
#
#
# Elastic Constant Matrix: (Units=GPa)
#
#
# Indices 1 2 3 4 5 6 
#
# 1 89.6779 38.0861 4.0854 0.0000 16.6563 0.0000
# 2 38.0861 140.7212 -4.7341 0.0000 5.1322 0.0000
# 3 4.0854 -4.7341 19.2168 0.0000 12.7255 0.0000
# 4 0.0000 0.0000 0.0000 23.6580 0.0000 6.8279
# 5 16.6563 5.1322 12.7255 0.0000 28.5798 0.0000
# 6 0.0000 0.0000 0.0000 6.8279 0.0000 35.7189
#
#
#
# Elastic Compliance Matrix: (Units=1/GPa)
#
#
# Indices 1 2 3 4 5 6 
#
# 1 0.014090 -0.003453 0.001675 0.000000 -0.008337 0.000000
# 2 -0.003453 0.008190 0.003394 0.000000 -0.000970 0.000000
# 3 0.001675 0.003394 0.075967 0.000000 -0.035411 0.000000
# 4 0.000000 0.000000 0.000000 0.044737 0.000000 -0.008552
# 5 -0.008337 -0.000970 -0.035411 0.000000 0.055790 0.000000
# 6 0.000000 0.000000 0.000000 -0.008552 0.000000 0.029631
#
#
# Mechanical properties :
#
#
# Convention : Reuss Voigt Hill
#
# Bulk Modulus (GPa) = 9.85429 36.05453 22.95441
# Shear Modulus (GPa) = 19.30502 31.73656 25.52079
#
# Velocity S-wave (km/s) = 3.12955 4.01261 3.59827
# Velocity P-wave (km/s) = 4.24949 6.30553 5.37670
#
# Compressibility (1/GPa) = 0.10147861
#
# Stress axis : x y z
#
# Youngs Moduli (GPa) = 70.97379 122.09521 13.16360
#
# Poissons Ratio (x) = 0.42159 -0.02205
# Poissons Ratio (y) = 0.24507 -0.04467
# Poissons Ratio (z) = -0.11887 -0.41437
#
# Static dielectric constant tensor:
#      x y z
#    x 1.691820 0.000000 0.025100 
#    y 0.000000 1.792610 0.000000 
#    z 0.025100 0.000000 1.719190 
# 
# From -- ./inp_files/143194.got.cif
#   From: 2010.05.17/outbox.cif.g08.bks.cpg/sg12_72_cif.got.tgz:143194.got - 2010.06.03 13:09:07.
