data_PCOD9218355
_publ_section_title
;
Structure prediction by ZEFSAII (Michael W. Deem and Ramdas Pophale) SiO2 
 PCOD9218355
Probable space group: C 2/M
;
_chemical_formula_sum "Si O2"
_cell_formula_units_Z 36
_cell_length_a 9.251965
_cell_length_b 9.849058
_cell_length_c 18.799558
_cell_angle_alpha 90.000000
_cell_angle_beta 109.873178
_cell_angle_gamma 90.000000
_cell_volume 1611.056641
_symmetry_space_group_name_H-M "C 2/M"
_symmetry_group_IT_number 12
_symmetry_cell_setting 'monoclinic'
loop_
_space_group_symop_operation_xyz
x,y,z
-x,y,-z
-x,-y,-z
x,-y,z
1/2+x,1/2+y,z
1/2-x,1/2+y,-z
1/2-x,1/2-y,-z
1/2+x,1/2-y,z
loop_
_atom_site_type_symbol
_atom_site_label
_atom_site_fract_x
_atom_site_fract_y
_atom_site_fract_z
Si Si1 0.405100 0.500000 0.674137
Si Si2 0.920843 0.221369 0.554802
Si Si3 0.986006 0.500000 0.780484
Si Si4 0.682911 0.794967 0.895951
Si Si5 0.000000 0.234688 0.000000
Si Si6 0.549571 0.000000 0.633195
Si Si7 0.185212 0.000000 0.829867
O O1 0.423977 0.629427 0.625401
O O2 0.531692 0.500000 0.756666
O O3 0.232589 0.500000 0.675899
O O4 0.750000 0.250000 0.500000
O O5 0.004009 0.363862 0.584536
O O6 0.000000 0.153970 0.500000
O O7 0.091061 0.372032 0.819691
O O8 0.958829 0.500000 0.692427
O O9 0.831172 0.500000 0.800910
O O10 0.857995 0.841009 0.938434
O O11 0.689746 0.635777 0.877909
O O12 0.586112 0.816058 0.951995
#
# Coordination Sequence:
#
# PCOD9218355 Si02
#       7
#     4   8   4   8   4   4   4
#     4  12  28  46  71 104 138 187 230 278 342 413
#     4  12  25  47  75 102 141 178 228 286 343 400
#     4  12  28  47  69 101 144 181 230 286 339 408
#     4  11  25  46  73 100 139 181 231 287 345 408
#     4  10  24  44  72 106 132 182 230 286 350 408
#     4  12  28  47  69 105 142 181 232 282 335 415
#     4  12  28  47  69 102 142 182 234 278 344 410
#
# _framework density 22.345585
#
# number of rings (size 3 to 8) (size 9 to 14) (size 15 to 20)
#    0.000    0.444    4.444    2.667    6.222    8.889 
#    0.000    0.000    0.000    0.000    0.000    0.000 
#    0.000    0.000    0.000    0.000    0.000    0.000 
#
# Total GULP energy -100742.599990 kJ/mol
# GULP energy per Si atom -5596.811111 kJ/mol
# Density = 2.229473 g / cm^3
# Si number density = 22.345585 Si / 1000 Ang^3
#
#
#
# Elastic Constant Matrix: (Units=GPa)
#
#
# Indices 1 2 3 4 5 6 
#
# 1 148.0868 18.2782 34.3141 0.0000 18.3942 0.0000
# 2 18.2782 136.5643 29.3133 0.0000 5.2178 0.0000
# 3 34.3141 29.3133 107.7295 0.0000 9.5056 0.0000
# 4 0.0000 0.0000 0.0000 47.4862 0.0000 -4.9406
# 5 18.3942 5.2178 9.5056 0.0000 56.9610 0.0000
# 6 0.0000 0.0000 0.0000 -4.9406 0.0000 11.1113
#
#
#
# Elastic Compliance Matrix: (Units=1/GPa)
#
#
# Indices 1 2 3 4 5 6 
#
# 1 0.007552 -0.000483 -0.002093 0.000000 -0.002045 0.000000
# 2 -0.000483 0.007815 -0.001952 0.000000 -0.000234 0.000000
# 3 -0.002093 -0.001952 0.010560 0.000000 -0.000908 0.000000
# 4 0.000000 0.000000 0.000000 0.022080 0.000000 0.009818
# 5 -0.002045 -0.000234 -0.000908 0.000000 0.018389 0.000000
# 6 0.000000 0.000000 0.000000 0.009818 0.000000 0.094364
#
#
# Mechanical properties :
#
#
# Convention : Reuss Voigt Hill
#
# Bulk Modulus (GPa) = 59.27665 61.79909 60.53787
# Shear Modulus (GPa) = 28.49962 43.81005 36.15483
#
# Velocity S-wave (km/s) = 3.57515 4.43263 4.02678
# Velocity P-wave (km/s) = 6.60508 7.34260 6.98358
#
# Compressibility (1/GPa) = 0.01687005
#
# Stress axis : x y z
#
# Youngs Moduli (GPa) = 132.42361 127.95646 94.69255
#
# Poissons Ratio (x) = 0.06183 0.19823
# Poissons Ratio (y) = 0.06399 0.18483
# Poissons Ratio (z) = 0.27721 0.24976
#
# Static dielectric constant tensor:
#      x y z
#    x 1.776600 0.000000 0.007400 
#    y 0.000000 1.117420 0.000000 
#    z 0.007400 0.000000 1.765120 
# 
# From -- ./inp_files/254839.got.cif
#   From: 2010.05.17/outbox.cif.g08.bks.cpg/sg12_128_cif.got.tgz:254839.got - 2010.06.03 13:09:07.
