data_PCOD9218007
_publ_section_title
;
Structure prediction by ZEFSAII (Michael W. Deem and Ramdas Pophale) SiO2 
 PCOD9218007
Probable space group: C 2/M
;
_chemical_formula_sum "Si O2"
_cell_formula_units_Z 36
_cell_length_a 12.777341
_cell_length_b 9.179741
_cell_length_c 23.405015
_cell_angle_alpha 90.000000
_cell_angle_beta 147.804577
_cell_angle_gamma 90.000000
_cell_volume 1462.686073
_symmetry_space_group_name_H-M "C 2/M"
_symmetry_group_IT_number 12
_symmetry_cell_setting 'monoclinic'
loop_
_space_group_symop_operation_xyz
x,y,z
-x,y,-z
-x,-y,-z
x,-y,z
1/2+x,1/2+y,z
1/2-x,1/2+y,-z
1/2-x,1/2-y,-z
1/2+x,1/2-y,z
loop_
_atom_site_type_symbol
_atom_site_label
_atom_site_fract_x
_atom_site_fract_y
_atom_site_fract_z
Si Si1 0.000000 0.245796 0.500000
Si Si2 0.519991 0.000000 0.145240
Si Si3 0.468036 0.000000 0.651440
Si Si4 0.752339 0.000000 0.571419
Si Si5 0.280626 0.500000 0.357911
Si Si6 0.442011 0.500000 0.077773
Si Si7 0.715986 0.744492 0.167673
Si Si8 0.111706 0.000000 0.815791
O O1 0.173605 0.351973 0.563036
O O2 0.088930 0.142584 0.590308
O O3 0.637931 0.863151 0.176196
O O4 0.565661 0.000000 0.232568
O O5 0.292321 0.000000 0.027967
O O6 0.366509 0.000000 0.542799
O O7 0.278132 0.000000 0.603463
O O8 0.603613 0.142007 0.727713
O O9 0.976959 0.000000 0.695923
O O10 0.532027 0.634602 0.084544
O O11 0.494722 0.500000 0.171043
O O12 0.768690 0.847545 0.137393
#
# Coordination Sequence:
#
# PCOD9218007 Si02
#       8
#     4   4   4   4   4   4   8   4
#     4  10  24  40  66  98 132 184 228 272 354 426
#     4  11  24  46  72 101 137 186 234 290 356 419
#     4  11  24  43  65 103 143 176 232 294 351 423
#     4  11  24  42  68  97 135 187 227 285 349 426
#     4  11  24  41  66 101 141 178 223 294 349 415
#     4  11  26  50  73 102 145 188 236 302 353 413
#     4  10  25  45  70 103 139 182 239 292 346 430
#     4  11  26  47  73 104 144 190 239 289 359 419
#
# _framework density 24.612252000000002
#
# number of rings (size 3 to 8) (size 9 to 14) (size 15 to 20)
#    0.000    1.333    0.000    3.333   12.444    8.889 
#    4.000    1.111    0.000    0.000    0.000    0.000 
#    0.000    0.000    0.000    0.000    0.000    0.000 
#
# Total GULP energy -100420.304007 kJ/mol
# GULP energy per Si atom -5578.905778 kJ/mol
# Density = 2.455623 g / cm^3
# Si number density = 24.612252 Si / 1000 Ang^3
#
#
#
# Elastic Constant Matrix: (Units=GPa)
#
#
# Indices 1 2 3 4 5 6 
#
# 1 65.7892 39.0246 21.3598 0.0000 13.5822 0.0000
# 2 39.0246 183.4064 33.4188 -0.0001 4.0250 0.0000
# 3 21.3598 33.4188 102.6544 -0.0001 16.8713 -0.0001
# 4 0.0000 -0.0001 -0.0001 12.1722 0.0000 3.7611
# 5 13.5822 4.0250 16.8713 0.0000 35.2021 0.0000
# 6 0.0000 0.0000 -0.0001 3.7611 0.0000 15.5811
#
#
#
# Elastic Compliance Matrix: (Units=1/GPa)
#
#
# Indices 1 2 3 4 5 6 
#
# 1 0.019200 -0.003621 -0.001809 0.000000 -0.006127 0.000000
# 2 -0.003621 0.006481 -0.001590 0.000000 0.001418 0.000000
# 3 -0.001809 -0.001590 0.011388 0.000000 -0.004578 0.000000
# 4 0.000000 0.000000 0.000000 0.088776 0.000000 -0.021429
# 5 -0.006127 0.001418 -0.004578 0.000000 0.032803 0.000000
# 6 0.000000 0.000000 0.000000 -0.021429 0.000000 0.069353
#
#
# Mechanical properties :
#
#
# Convention : Reuss Voigt Hill
#
# Bulk Modulus (GPa) = 43.42265 59.93958 51.68112
# Shear Modulus (GPa) = 20.02253 29.79420 24.90836
#
# Velocity S-wave (km/s) = 2.85532 3.48306 3.18469
# Velocity P-wave (km/s) = 5.34336 6.37040 5.87935
#
# Compressibility (1/GPa) = 0.02302946
#
# Stress axis : x y z
#
# Youngs Moduli (GPa) = 52.08210 154.28735 87.81366
#
# Poissons Ratio (x) = 0.55872 0.15888
# Poissons Ratio (y) = 0.18860 0.13958
# Poissons Ratio (z) = 0.09423 0.24525
#
# Static dielectric constant tensor:
#      x y z
#    x 1.943710 0.000000 -0.037070 
#    y 0.000000 2.020290 0.000000 
#    z -0.037070 0.000000 1.939450 
# 
# From -- ./inp_files/360205.got.cif
#   From: 2010.05.17/outbox.cif.g08.bks.cpg/sg12_181_cif.got.tgz:360205.got - 2010.06.03 13:09:07.
