data_PCOD9218294
_publ_section_title
;
Structure prediction by ZEFSAII (Michael W. Deem and Ramdas Pophale) SiO2 
 PCOD9218294
Probable space group: C 2/M
;
_chemical_formula_sum "Si O2"
_cell_formula_units_Z 48
_cell_length_a 24.530218
_cell_length_b 10.840763
_cell_length_c 8.778510
_cell_angle_alpha 90.000000
_cell_angle_beta 68.393526
_cell_angle_gamma 90.000000
_cell_volume 2170.407055
_symmetry_space_group_name_H-M "C 2/M"
_symmetry_group_IT_number 12
_symmetry_cell_setting 'monoclinic'
loop_
_space_group_symop_operation_xyz
x,y,z
-x,y,-z
-x,-y,-z
x,-y,z
1/2+x,1/2+y,z
1/2-x,1/2+y,-z
1/2-x,1/2-y,-z
1/2+x,1/2-y,z
loop_
_atom_site_type_symbol
_atom_site_label
_atom_site_fract_x
_atom_site_fract_y
_atom_site_fract_z
Si Si1 0.127604 0.285824 0.120491
Si Si2 0.673300 0.856007 0.754127
Si Si3 0.000697 0.226342 0.826521
Si Si4 0.295245 0.639878 0.767091
Si Si5 0.095124 0.500000 0.356816
Si Si6 0.879539 0.138830 0.399044
Si Si7 0.476372 0.000000 0.279000
O O1 0.182598 0.200815 0.101364
O O2 0.127532 0.381336 0.260102
O O3 0.064316 0.220693 0.176212
O O4 0.136529 0.351149 0.949346
O O5 0.738972 0.813869 0.732439
O O6 0.647082 0.752242 0.670251
O O7 0.674220 0.000000 0.700123
O O8 0.050636 0.160123 0.677076
O O9 0.019720 0.371392 0.812516
O O10 0.000000 0.178313 0.000000
O O11 0.278951 0.500000 0.820266
O O12 0.350207 0.642355 0.594862
O O13 0.078450 0.500000 0.549623
O O14 0.034051 0.500000 0.325958
O O15 0.867055 0.000000 0.350008
#
# Coordination Sequence:
#
# PCOD9218294 Si02
#       7
#     8   8   8   8   4   8   4
#     4  11  21  40  63  95 130 167 208 268 325 379
#     4  11  23  44  69  96 127 169 220 268 316 380
#     4  11  22  37  62  93 130 169 215 262 324 386
#     4  10  24  44  66  92 128 171 219 265 317 383
#     4   9  18  34  54  92 130 157 208 259 308 378
#     4  11  25  44  64  96 133 169 216 266 319 388
#     4   9  19  32  58  88 127 170 205 254 312 373
#
# _framework density 22.115665
#
# number of rings (size 3 to 8) (size 9 to 14) (size 15 to 20)
#    0.000    1.500    2.500    2.250    1.167    3.667 
#    3.000    1.667    0.000    0.000    0.000    0.000 
#    0.000    0.000    0.000    0.000    0.000    0.000 
#
# Total GULP energy -134044.448446 kJ/mol
# GULP energy per Si atom -5585.185352 kJ/mol
# Density = 2.206533 g / cm^3
# Si number density = 22.115665 Si / 1000 Ang^3
#
#
#
# Elastic Constant Matrix: (Units=GPa)
#
#
# Indices 1 2 3 4 5 6 
#
# 1 102.7177 25.7030 -4.8446 0.0000 -0.7934 0.0000
# 2 25.7030 83.7016 -2.3293 0.0000 16.2859 0.0000
# 3 -4.8446 -2.3293 44.2018 0.0000 -8.2518 0.0000
# 4 0.0000 0.0000 0.0000 20.7818 0.0000 1.8180
# 5 -0.7934 16.2859 -8.2518 0.0000 29.8645 0.0000
# 6 0.0000 0.0000 0.0000 1.8180 0.0000 20.9404
#
#
#
# Elastic Compliance Matrix: (Units=1/GPa)
#
#
# Indices 1 2 3 4 5 6 
#
# 1 0.010781 -0.003809 0.001499 0.000000 0.002778 0.000000
# 2 -0.003809 0.014731 -0.001223 0.000000 -0.008473 0.000000
# 3 0.001499 -0.001223 0.024098 0.000000 0.007365 0.000000
# 4 0.000000 0.000000 0.000000 0.048487 0.000000 -0.004210
# 5 0.002778 -0.008473 0.007365 0.000000 0.040214 0.000000
# 6 0.000000 0.000000 0.000000 -0.004210 0.000000 0.048120
#
#
# Mechanical properties :
#
#
# Convention : Reuss Voigt Hill
#
# Bulk Modulus (GPa) = 23.50447 29.74215 26.62331
# Shear Modulus (GPa) = 24.07561 28.45681 26.26621
#
# Velocity S-wave (km/s) = 3.30301 3.59099 3.45000
# Velocity P-wave (km/s) = 5.01971 5.53816 5.28530
#
# Compressibility (1/GPa) = 0.04254510
#
# Stress axis : x y z
#
# Youngs Moduli (GPa) = 92.75734 67.88187 41.49651
#
# Poissons Ratio (x) = 0.25859 -0.06222
# Poissons Ratio (y) = 0.35335 0.05075
# Poissons Ratio (z) = -0.13909 0.08301
#
# Static dielectric constant tensor:
#      x y z
#    x 1.809900 0.000000 -0.028760 
#    y 0.000000 1.871770 0.000000 
#    z -0.028760 0.000000 1.795400 
# 
# From -- ./inp_files/94940.got.cif
#   From: 2010.05.17/outbox.cif.g08.bks.cpg/sg12_48_cif.got.tgz:94940.got - 2010.06.03 13:09:07.
