data_PCOD9218104
_publ_section_title
;
Structure prediction by ZEFSAII (Michael W. Deem and Ramdas Pophale) SiO2 
 PCOD9218104
Probable space group: C 2/M
;
_chemical_formula_sum "Si O2"
_cell_formula_units_Z 40
_cell_length_a 7.895227
_cell_length_b 22.065933
_cell_length_c 17.916712
_cell_angle_alpha 90.000000
_cell_angle_beta 144.118268
_cell_angle_gamma 90.000000
_cell_volume 1829.478734
_symmetry_space_group_name_H-M "C 2/M"
_symmetry_group_IT_number 12
_symmetry_cell_setting 'monoclinic'
loop_
_space_group_symop_operation_xyz
x,y,z
-x,y,-z
-x,-y,-z
x,-y,z
1/2+x,1/2+y,z
1/2-x,1/2+y,-z
1/2-x,1/2-y,-z
1/2+x,1/2-y,z
loop_
_atom_site_type_symbol
_atom_site_label
_atom_site_fract_x
_atom_site_fract_y
_atom_site_fract_z
Si Si1 0.189132 0.619986 0.733455
Si Si2 0.636185 0.000000 0.171503
Si Si3 0.699025 0.686518 0.372123
Si Si4 0.227182 0.374997 0.290919
Si Si5 0.728115 0.219084 0.857369
Si Si6 0.048538 0.000000 0.876663
O O1 0.209857 0.634439 0.654074
O O2 0.339673 0.676388 0.829743
O O3 0.352583 0.559168 0.812694
O O4 0.873288 0.618509 0.659106
O O5 0.707467 0.060630 0.243017
O O6 0.808186 0.000000 0.154580
O O7 0.300266 0.000000 0.027839
O O8 0.527202 0.656947 0.379064
O O9 0.481438 0.732051 0.254042
O O10 0.000000 0.718187 0.500000
O O11 0.976372 0.328721 0.171044
O O12 0.000000 0.242409 0.000000
#
# Coordination Sequence:
#
# PCOD9218104 Si02
#       6
#     8   4   8   8   8   4
#     4  10  24  42  65 103 136 176 222 278 338 404
#     4  11  21  39  71 101 139 180 221 277 344 411
#     4  12  26  47  70  97 138 184 233 284 333 400
#     4  10  24  42  65 103 136 176 222 278 338 404
#     4  10  24  43  69 103 142 180 222 280 341 408
#     4  11  21  39  71 101 139 180 221 277 344 411
#
# _framework density 21.864149999999999
#
# number of rings (size 3 to 8) (size 9 to 14) (size 15 to 20)
#    1.200    0.200    2.000    3.000    0.000    9.600 
#    0.000    2.000    0.000    2.400    0.000    0.000 
#    0.000    0.000    0.000    0.000    0.000    0.000 
#
# Total GULP energy -111651.386091 kJ/mol
# GULP energy per Si atom -5582.569305 kJ/mol
# Density = 2.181439 g / cm^3
# Si number density = 21.864150 Si / 1000 Ang^3
#
#
#
# Elastic Constant Matrix: (Units=GPa)
#
#
# Indices 1 2 3 4 5 6 
#
# 1 117.0676 34.5564 32.8401 -0.0003 21.8494 -0.0006
# 2 34.5564 116.0143 44.6798 -0.0002 14.4176 -0.0008
# 3 32.8401 44.6798 109.0557 0.0027 23.5091 0.0056
# 4 -0.0003 -0.0002 0.0027 -20.0316 -0.0003 -23.2196
# 5 21.8494 14.4176 23.5091 -0.0003 26.1116 0.0005
# 6 -0.0006 -0.0008 0.0056 -23.2196 0.0005 43.9224
#
#
#
# Elastic Compliance Matrix: (Units=1/GPa)
#
#
# Indices 1 2 3 4 5 6 
#
# 1 0.010689 -0.001963 -0.000894 0.000000 -0.007056 0.000000
# 2 -0.001963 0.010710 -0.003569 -0.000001 -0.001058 0.000000
# 3 -0.000894 -0.003569 0.012799 0.000002 -0.008805 0.000000
# 4 0.000000 -0.000001 0.000002 -0.030953 -0.000001 -0.016363
# 5 -0.007056 -0.001058 -0.008805 -0.000001 0.052713 0.000000
# 6 0.000000 0.000000 0.000000 -0.016363 0.000000 0.014117
#
#
# Mechanical properties :
#
#
# Convention : Reuss Voigt Hill
#
# Bulk Modulus (GPa) = 46.84326 62.92113 54.88219
# Shear Modulus (GPa) = 55.53017 25.33790 40.43403
#
# Velocity S-wave (km/s) = 5.04509 3.40792 4.30505
# Velocity P-wave (km/s) = 7.44369 6.65777 7.06167
#
# Compressibility (1/GPa) = 0.02134779
#
# Stress axis : x y z
#
# Youngs Moduli (GPa) = 93.55356 93.36891 78.13159
#
# Poissons Ratio (x) = 0.18327 0.06982
# Poissons Ratio (y) = 0.18363 0.27883
# Poissons Ratio (z) = 0.08360 0.33321
#
# Static dielectric constant tensor:
#      x y z
#    x 1.859440 0.000000 -0.012070 
#    y 0.000000 1.764120 0.000000 
#    z -0.012070 0.000000 1.796330 
# 
# From -- ./inp_files/302415.got.cif
#   From: 2010.05.17/outbox.cif.g08.bks.cpg/sg12_152_cif.got.tgz:302415.got - 2010.06.03 13:09:07.
