data_PCOD9218101
_publ_section_title
;
Structure prediction by ZEFSAII (Michael W. Deem and Ramdas Pophale) SiO2 
 PCOD9218101
Probable space group: C 2/M
;
_chemical_formula_sum "Si O2"
_cell_formula_units_Z 50
_cell_length_a 15.739390
_cell_length_b 14.537625
_cell_length_c 12.107716
_cell_angle_alpha 90.000000
_cell_angle_beta 68.810518
_cell_angle_gamma 90.000000
_cell_volume 2583.100304
_symmetry_space_group_name_H-M "C 2/M"
_symmetry_group_IT_number 12
_symmetry_cell_setting 'monoclinic'
loop_
_space_group_symop_operation_xyz
x,y,z
-x,y,-z
-x,-y,-z
x,-y,z
1/2+x,1/2+y,z
1/2-x,1/2+y,-z
1/2-x,1/2-y,-z
1/2+x,1/2-y,z
loop_
_atom_site_type_symbol
_atom_site_label
_atom_site_fract_x
_atom_site_fract_y
_atom_site_fract_z
Si Si1 0.914963 0.685215 0.985989
Si Si2 0.254584 0.141262 0.482031
Si Si3 0.400096 0.101276 0.600550
Si Si4 0.770082 0.392459 0.220441
Si Si5 0.601007 0.273355 0.237315
Si Si6 0.457941 0.396786 0.397227
Si Si7 0.000000 0.500000 0.000000
O O1 0.882555 0.737456 0.893403
O O2 0.957166 0.583476 0.942106
O O3 0.839097 0.666006 0.113645
O O4 0.000000 0.738479 0.000000
O O5 0.250000 0.250000 0.500000
O O6 0.324690 0.104954 0.539743
O O7 0.286345 0.117915 0.343234
O O8 0.151026 0.107170 0.544896
O O9 0.500000 0.111145 0.500000
O O10 0.386103 0.186477 0.688447
O O11 0.395405 0.000000 0.656237
O O12 0.781963 0.500000 0.186126
O O13 0.670603 0.353231 0.240580
O O14 0.501197 0.317579 0.301438
O O15 0.500000 0.382228 0.500000
O O16 0.484641 0.500000 0.349035
#
# Coordination Sequence:
#
# PCOD9218101 Si02
#       7
#     8   8   8   8   8   8   2
#     4  10  24  42  64  92 120 165 223 268 324 378
#     4  12  23  40  66  98 136 172 216 264 326 398
#     4  11  25  40  59  93 133 171 210 268 335 387
#     4  12  23  42  67  94 129 173 221 265 321 391
#     4  12  24  40  67  95 130 169 216 276 319 390
#     4  11  22  41  65  99 135 173 217 263 319 389
#     4   8  20  44  64  88 116 166 222 272 318 384
#
# _framework density 19.356584999999999
#
# number of rings (size 3 to 8) (size 9 to 14) (size 15 to 20)
#    0.480    0.320    4.000    3.840    5.600    0.000 
#    2.880    0.000    0.000    1.920    0.000    0.000 
#    0.000    0.000    0.000    0.000    0.000    0.000 
#
# Total GULP energy -139353.681285 kJ/mol
# GULP energy per Si atom -5574.147251 kJ/mol
# Density = 1.931253 g / cm^3
# Si number density = 19.356585 Si / 1000 Ang^3
#
#
#
# Elastic Constant Matrix: (Units=GPa)
#
#
# Indices 1 2 3 4 5 6 
#
# 1 105.1756 9.7206 41.9278 0.0000 -4.6172 0.0000
# 2 9.7206 78.6550 32.0766 0.0000 1.2911 0.0000
# 3 41.9278 32.0766 111.5936 0.0000 -3.0085 0.0000
# 4 0.0000 0.0000 0.0000 16.6396 0.0000 -2.5111
# 5 -4.6172 1.2911 -3.0085 0.0000 22.0462 0.0000
# 6 0.0000 0.0000 0.0000 -2.5111 0.0000 37.0397
#
#
#
# Elastic Compliance Matrix: (Units=1/GPa)
#
#
# Indices 1 2 3 4 5 6 
#
# 1 0.011260 0.000324 -0.004276 0.000000 0.001756 0.000000
# 2 0.000324 0.014455 -0.004313 0.000000 -0.001367 0.000000
# 3 -0.004276 -0.004313 0.011834 0.000000 0.000972 0.000000
# 4 0.000000 0.000000 0.000000 0.060719 0.000000 0.004117
# 5 0.001756 -0.001367 0.000972 0.000000 0.045940 0.000000
# 6 0.000000 0.000000 0.000000 0.004117 0.000000 0.027277
#
#
# Mechanical properties :
#
#
# Convention : Reuss Voigt Hill
#
# Bulk Modulus (GPa) = 47.58135 51.43045 49.50590
# Shear Modulus (GPa) = 25.63808 29.25837 27.44822
#
# Velocity S-wave (km/s) = 3.64334 3.89208 3.76976
# Velocity P-wave (km/s) = 6.50641 6.84291 6.67678
#
# Compressibility (1/GPa) = 0.02101664
#
# Stress axis : x y z
#
# Youngs Moduli (GPa) = 88.81186 69.17881 84.50382
#
# Poissons Ratio (x) = -0.02238 0.36135
# Poissons Ratio (y) = -0.02873 0.36450
# Poissons Ratio (z) = 0.37977 0.29840
#
# Static dielectric constant tensor:
#      x y z
#    x 1.726870 0.000000 -0.022910 
#    y 0.000000 1.686250 0.000000 
#    z -0.022910 0.000000 1.686890 
# 
# From -- ./inp_files/143630.got.cif
#   From: 2010.05.17/outbox.cif.g08.bks.cpg/sg12_72_cif.got.tgz:143630.got - 2010.06.03 13:09:07.
