data_PCOD9218360
_publ_section_title
;
Structure prediction by ZEFSAII (Michael W. Deem and Ramdas Pophale) SiO2 
 PCOD9218360
Probable space group: C 2/M
;
_chemical_formula_sum "Si O2"
_cell_formula_units_Z 48
_cell_length_a 11.497341
_cell_length_b 20.947453
_cell_length_c 14.830171
_cell_angle_alpha 90.000000
_cell_angle_beta 38.324254
_cell_angle_gamma 90.000000
_cell_volume 2214.850199
_symmetry_space_group_name_H-M "C 2/M"
_symmetry_group_IT_number 12
_symmetry_cell_setting 'monoclinic'
loop_
_space_group_symop_operation_xyz
x,y,z
-x,y,-z
-x,-y,-z
x,-y,z
1/2+x,1/2+y,z
1/2-x,1/2+y,-z
1/2-x,1/2-y,-z
1/2+x,1/2-y,z
loop_
_atom_site_type_symbol
_atom_site_label
_atom_site_fract_x
_atom_site_fract_y
_atom_site_fract_z
Si Si1 0.802770 0.866206 0.436439
Si Si2 0.702570 0.776600 0.333901
Si Si3 0.410667 0.864568 0.765016
Si Si4 0.714538 0.500000 0.839454
Si Si5 0.380750 0.570938 0.664033
Si Si6 0.288286 0.000000 0.595143
Si Si7 0.955656 0.656093 0.133093
O O1 0.791786 0.818420 0.359981
O O2 0.634515 0.853707 0.609172
O O3 0.011243 0.874245 0.346593
O O4 0.750373 0.936752 0.435370
O O5 0.500000 0.758224 0.500000
O O6 0.677882 0.820006 0.259273
O O7 0.828881 0.717047 0.232970
O O8 0.384737 0.846772 0.886145
O O9 0.331782 0.936271 0.795883
O O10 0.681159 0.500000 0.752986
O O11 0.500000 0.500000 0.000000
O O12 0.500000 0.567530 0.500000
O O13 0.386044 0.500000 0.702542
O O14 0.169932 0.592632 0.776472
O O15 0.500000 0.000000 0.500000
O O16 0.000000 0.658335 0.000000
#
# Coordination Sequence:
#
# PCOD9218360 Si02
#       7
#     8   8   8   4   8   4   8
#     4  11  20  40  74 105 135 166 230 295 333 390
#     4  10  24  44  73 102 127 175 235 289 337 389
#     4  11  24  45  71 101 137 179 222 285 342 389
#     4  12  26  42  70 106 146 175 220 276 346 415
#     4  11  24  42  71 103 134 178 228 274 330 406
#     4  12  18  38  68 105 132 173 223 278 345 388
#     4  12  29  47  65  94 144 190 222 270 339 418
#
# _framework density 21.671893000000001
#
# number of rings (size 3 to 8) (size 9 to 14) (size 15 to 20)
#    0.000    0.833    5.833    1.000    3.500    4.333 
#    0.000    0.000    0.000    0.000    0.000    0.000 
#    0.000    0.000    0.000    0.000    0.000    0.000 
#
# Total GULP energy -134040.769726 kJ/mol
# GULP energy per Si atom -5585.032072 kJ/mol
# Density = 2.162257 g / cm^3
# Si number density = 21.671893 Si / 1000 Ang^3
#
#
#
# Elastic Constant Matrix: (Units=GPa)
#
#
# Indices 1 2 3 4 5 6 
#
# 1 94.1280 26.1008 21.6745 0.0012 25.0294 -0.0004
# 2 26.1008 103.2337 28.4801 -0.0011 11.1717 0.0001
# 3 21.6745 28.4801 77.7727 -0.0112 28.2075 0.0018
# 4 0.0012 -0.0011 -0.0112 -2.3782 0.0042 5.2749
# 5 25.0294 11.1717 28.2075 0.0042 38.6944 -0.0008
# 6 -0.0004 0.0001 0.0018 5.2749 -0.0008 27.4590
#
#
#
# Elastic Compliance Matrix: (Units=1/GPa)
#
#
# Indices 1 2 3 4 5 6 
#
# 1 0.013446 -0.002559 0.000104 -0.000005 -0.008034 0.000001
# 2 -0.002559 0.011265 -0.003851 0.000010 0.001210 -0.000002
# 3 0.000104 -0.003851 0.018842 -0.000079 -0.012691 0.000014
# 4 -0.000005 0.000010 -0.000079 -0.294851 0.000091 0.056641
# 5 -0.008034 0.001210 -0.012691 0.000091 0.039942 -0.000016
# 6 0.000001 -0.000002 0.000014 0.056641 -0.000016 0.025537
#
#
# Mechanical properties :
#
#
# Convention : Reuss Voigt Hill
#
# Bulk Modulus (GPa) = 32.31947 47.51613 39.91780
# Shear Modulus (GPa) = -30.69503 26.01366 -2.34069
#
# Velocity S-wave (km/s) = -3.76753 3.46835 -1.04039
# Velocity P-wave (km/s) = 1.99505 6.16540 4.12504
#
# Compressibility (1/GPa) = 0.03094110
#
# Stress axis : x y z
#
# Youngs Moduli (GPa) = 74.37252 88.76928 53.07258
#
# Poissons Ratio (x) = 0.22713 -0.00551
# Poissons Ratio (y) = 0.19030 0.20438
# Poissons Ratio (z) = -0.00771 0.34185
#
# Static dielectric constant tensor:
#      x y z
#    x 1.794920 0.000000 -0.057410 
#    y 0.000000 1.751750 0.000000 
#    z -0.057410 0.000000 1.721990 
# 
# From -- ./inp_files/207973.got.cif
#   From: 2010.05.17/outbox.cif.g08.bks.cpg/sg12_104_cif.got.tgz:207973.got - 2010.06.03 13:09:07.
