data_PCOD9218862
_publ_section_title
;
Structure prediction by ZEFSAII (Michael W. Deem and Ramdas Pophale) SiO2 
 PCOD9218862
Probable space group: C 2/M
;
_chemical_formula_sum "Si O2"
_cell_formula_units_Z 64
_cell_length_a 12.284178
_cell_length_b 20.249563
_cell_length_c 17.035434
_cell_angle_alpha 90.000000
_cell_angle_beta 111.240466
_cell_angle_gamma 90.000000
_cell_volume 3949.686573
_symmetry_space_group_name_H-M "C 2/M"
_symmetry_group_IT_number 12
_symmetry_cell_setting 'monoclinic'
loop_
_space_group_symop_operation_xyz
x,y,z
-x,y,-z
-x,-y,-z
x,-y,z
1/2+x,1/2+y,z
1/2-x,1/2+y,-z
1/2-x,1/2-y,-z
1/2+x,1/2-y,z
loop_
_atom_site_type_symbol
_atom_site_label
_atom_site_fract_x
_atom_site_fract_y
_atom_site_fract_z
Si Si1 0.604415 0.423218 0.358064
Si Si2 0.756453 0.790251 0.187514
Si Si3 0.414761 0.666080 0.371288
Si Si4 0.007023 0.321689 0.912573
Si Si5 0.392303 0.673491 0.069332
Si Si6 0.225079 0.354712 0.878995
Si Si7 0.595960 0.424502 0.169436
Si Si8 0.661366 0.689797 0.475614
O O1 0.628168 0.500000 0.379508
O O2 0.476765 0.401435 0.358092
O O3 0.605190 0.411682 0.264969
O O4 0.688720 0.371356 0.424661
O O5 0.826274 0.806813 0.284263
O O6 0.622380 0.812616 0.154858
O O7 0.819976 0.825989 0.131166
O O8 0.764039 0.712790 0.168350
O O9 0.531478 0.711264 0.412055
O O10 0.357091 0.662127 0.441456
O O11 0.063415 0.248162 0.933040
O O12 0.094664 0.361037 0.878781
O O13 0.000000 0.347759 0.000000
O O14 0.501865 0.625263 0.107670
O O15 0.307859 0.654199 0.976566
O O16 0.280882 0.411362 0.840609
O O17 0.558472 0.500000 0.148508
O O18 0.750000 0.750000 0.500000
#
# Coordination Sequence:
#
# PCOD9218862 Si02
#       8
#     8   8   8   8   8   8   8   8
#     4   9  19  37  58  83 113 146 183 229 286 338
#     4  11  19  31  54  80 116 142 186 232 287 338
#     4   9  20  33  54  85 112 146 178 229 278 336
#     4  11  18  32  51  78 109 148 186 234 290 336
#     4  11  18  33  50  78 110 142 190 238 283 336
#     4  11  22  30  51  77 109 152 183 234 284 333
#     4  11  22  36  54  79 111 148 193 240 278 332
#     4   9  19  34  56  86 118 138 174 227 286 343
#
# _framework density 16.203817999999998
#
# number of rings (size 3 to 8) (size 9 to 14) (size 15 to 20)
#    0.750    1.000    5.000    1.125    1.750    4.000 
#    0.000    0.000    0.000    1.875    0.000    4.375 
#    0.000    0.000    0.000    0.000    0.000    0.000 
#
# Total GULP energy -178237.690754 kJ/mol
# GULP energy per Si atom -5569.927836 kJ/mol
# Density = 1.616694 g / cm^3
# Si number density = 16.203818 Si / 1000 Ang^3
#
#
#
# Elastic Constant Matrix: (Units=GPa)
#
#
# Indices 1 2 3 4 5 6 
#
# 1 85.3929 4.9445 18.7023 0.0000 0.1674 0.0000
# 2 4.9445 36.7508 13.2884 0.0000 -0.9211 0.0000
# 3 18.7023 13.2884 87.4181 0.0000 3.4428 0.0000
# 4 0.0000 0.0000 0.0000 17.4925 0.0000 0.2015
# 5 0.1674 -0.9211 3.4428 0.0000 20.0524 0.0000
# 6 0.0000 0.0000 0.0000 0.2015 0.0000 17.5350
#
#
#
# Elastic Compliance Matrix: (Units=1/GPa)
#
#
# Indices 1 2 3 4 5 6 
#
# 1 0.012307 -0.000732 -0.002533 0.000000 0.000299 0.000000
# 2 -0.000732 0.028924 -0.004322 0.000000 0.002077 0.000000
# 3 -0.002533 -0.004322 0.012731 0.000000 -0.002363 0.000000
# 4 0.000000 0.000000 0.000000 0.057175 0.000000 -0.000657
# 5 0.000299 0.002077 -0.002363 0.000000 0.050368 0.000000
# 6 0.000000 0.000000 0.000000 -0.000657 0.000000 0.057036
#
#
# Mechanical properties :
#
#
# Convention : Reuss Voigt Hill
#
# Bulk Modulus (GPa) = 25.78181 31.49247 28.63714
# Shear Modulus (GPa) = 20.27200 22.52441 21.39820
#
# Velocity S-wave (km/s) = 3.54087 3.73241 3.63790
# Velocity P-wave (km/s) = 5.71512 6.16862 5.94619
#
# Compressibility (1/GPa) = 0.03878704
#
# Stress axis : x y z
#
# Youngs Moduli (GPa) = 81.25285 34.57387 78.54639
#
# Poissons Ratio (x) = 0.02532 0.19900
# Poissons Ratio (y) = 0.05950 0.33946
# Poissons Ratio (z) = 0.20585 0.14942
#
# Static dielectric constant tensor:
#      x y z
#    x 1.575260 0.000000 -0.012070 
#    y 0.000000 1.528860 0.000000 
#    z -0.012070 0.000000 1.537430 
# 
# From -- ./inp_files/264830.got.cif
#   From: 2010.05.17/outbox.cif.g08.bks.cpg/sg12_133_cif.got.tgz:264830.got - 2010.06.03 13:09:07.
