data_PCOD9218535
_publ_section_title
;
Structure prediction by ZEFSAII (Michael W. Deem and Ramdas Pophale) SiO2 
 PCOD9218535
Probable space group: C 2/M
;
_chemical_formula_sum "Si O2"
_cell_formula_units_Z 28
_cell_length_a 20.069527
_cell_length_b 13.840773
_cell_length_c 5.315884
_cell_angle_alpha 90.000000
_cell_angle_beta 50.995249
_cell_angle_gamma 90.000000
_cell_volume 1147.483392
_symmetry_space_group_name_H-M "C 2/M"
_symmetry_group_IT_number 12
_symmetry_cell_setting 'monoclinic'
loop_
_space_group_symop_operation_xyz
x,y,z
-x,y,-z
-x,-y,-z
x,-y,z
1/2+x,1/2+y,z
1/2-x,1/2+y,-z
1/2-x,1/2-y,-z
1/2+x,1/2-y,z
loop_
_atom_site_type_symbol
_atom_site_label
_atom_site_fract_x
_atom_site_fract_y
_atom_site_fract_z
Si Si1 0.403715 0.500000 0.869095
Si Si2 0.752449 0.500000 0.124823
Si Si3 0.427163 0.000000 0.455166
Si Si4 0.311290 0.663801 0.442023
Si Si5 0.948983 0.722021 0.360612
O O1 0.500000 0.500000 0.500000
O O2 0.338925 0.500000 0.790208
O O3 0.372621 0.594924 0.113785
O O4 0.758441 0.591169 0.285059
O O5 0.828256 0.500000 0.755816
O O6 0.500000 0.000000 0.500000
O O7 0.435111 0.108691 0.332437
O O8 0.250000 0.750000 0.500000
O O9 0.365062 0.712325 0.542369
O O10 0.000000 0.730758 0.500000
O O11 0.000000 0.760189 0.000000
#
# Coordination Sequence:
#
# PCOD9218535 Si02
#       5
#     4   4   4   8   8
#     4  11  28  51  78 116 165 215 272 342 414 488
#     4  11  27  49  73 109 162 200 268 339 407 480
#     4  10  24  47  74 109 156 206 258 334 406 478
#     4  11  28  48  79 112 160 211 272 334 409 488
#     4  11  27  47  79 115 155 206 268 327 403 489
#
# _framework density 24.401222000000001
#
# number of rings (size 3 to 8) (size 9 to 14) (size 15 to 20)
#    0.000    1.143    0.000    2.143   16.000    4.571 
#    0.000    2.143    0.000    0.000    0.000    0.000 
#    0.000    0.000    0.000    0.000    0.000    0.000 
#
# Total GULP energy -77964.897065 kJ/mol
# GULP energy per Si atom -5568.921219 kJ/mol
# Density = 2.434568 g / cm^3
# Si number density = 24.401222 Si / 1000 Ang^3
#
#
#
# Elastic Constant Matrix: (Units=GPa)
#
#
# Indices 1 2 3 4 5 6 
#
# 1 110.6486 71.7698 52.2395 0.0000 -6.5574 0.0000
# 2 71.7698 192.0095 17.0424 0.0000 10.8124 0.0000
# 3 52.2395 17.0424 87.5406 0.0000 -4.0410 0.0000
# 4 0.0000 0.0000 0.0000 -290.4733 0.0000 75.5835
# 5 -6.5574 10.8124 -4.0410 0.0000 34.0740 0.0000
# 6 0.0000 0.0000 0.0000 75.5835 0.0000 35.3216
#
#
#
# Elastic Compliance Matrix: (Units=1/GPa)
#
#
# Indices 1 2 3 4 5 6 
#
# 1 0.017401 -0.005936 -0.009036 0.000000 0.004161 0.000000
# 2 -0.005936 0.007439 0.001943 0.000000 -0.003272 0.000000
# 3 -0.009036 0.001943 0.016418 0.000000 -0.000408 0.000000
# 4 0.000000 0.000000 0.000000 -0.002211 0.000000 0.004732
# 5 0.004161 -0.003272 -0.000408 0.000000 0.031139 0.000000
# 6 0.000000 0.000000 0.000000 0.004732 0.000000 0.018185
#
#
# Mechanical properties :
#
#
# Convention : Reuss Voigt Hill
#
# Bulk Modulus (GPa) = 65.79153 74.70022 70.24587
# Shear Modulus (GPa) = 41.84248 -27.60574 7.11837
#
# Velocity S-wave (km/s) = 4.14547 -3.36717 1.70984
# Velocity P-wave (km/s) = 7.06641 3.94496 5.72262
#
# Compressibility (1/GPa) = 0.01519953
#
# Stress axis : x y z
#
# Youngs Moduli (GPa) = 57.46834 134.43023 60.90737
#
# Poissons Ratio (x) = 0.79803 0.55037
# Poissons Ratio (y) = 0.34116 -0.11836
# Poissons Ratio (z) = 0.51929 -0.26124
#
# Static dielectric constant tensor:
#      x y z
#    x 2.032480 0.000000 -0.190780 
#    y 0.000000 1.820010 0.000000 
#    z -0.190780 0.000000 2.443200 
# 
# From -- ./inp_files/19565.got.cif
#   From: 2010.05.17/outbox.cif.g08.bks.cpg/sg12_10_cif.got.tgz:19565.got - 2010.06.03 13:09:07.
