data_PCOD9218116
_publ_section_title
;
Structure prediction by ZEFSAII (Michael W. Deem and Ramdas Pophale) SiO2 
 PCOD9218116
Probable space group: C 2/M
;
_chemical_formula_sum "Si O2"
_cell_formula_units_Z 52
_cell_length_a 17.738590
_cell_length_b 19.727359
_cell_length_c 8.449607
_cell_angle_alpha 90.000000
_cell_angle_beta 123.532797
_cell_angle_gamma 90.000000
_cell_volume 2464.713810
_symmetry_space_group_name_H-M "C 2/M"
_symmetry_group_IT_number 12
_symmetry_cell_setting 'monoclinic'
loop_
_space_group_symop_operation_xyz
x,y,z
-x,y,-z
-x,-y,-z
x,-y,z
1/2+x,1/2+y,z
1/2-x,1/2+y,-z
1/2-x,1/2-y,-z
1/2+x,1/2-y,z
loop_
_atom_site_type_symbol
_atom_site_label
_atom_site_fract_x
_atom_site_fract_y
_atom_site_fract_z
Si Si1 0.746868 0.000000 0.059573
Si Si2 0.411683 0.500000 0.506811
Si Si3 0.696563 0.639240 0.983687
Si Si4 0.083208 0.355138 0.218645
Si Si5 0.395182 0.000000 0.834795
Si Si6 0.991209 0.116967 0.804562
Si Si7 0.062745 0.248040 0.421200
Si Si8 0.235575 0.732363 0.226310
O O1 0.825961 0.000000 0.289099
O O2 0.753731 0.067234 0.961508
O O3 0.657952 0.000000 0.062373
O O4 0.500000 0.500000 0.500000
O O5 0.424602 0.565948 0.634185
O O6 0.591699 0.617613 0.845097
O O7 0.740865 0.682775 0.893523
O O8 0.702665 0.693069 0.133637
O O9 0.123099 0.430355 0.277468
O O10 0.046344 0.322922 0.336611
O O11 0.160931 0.305850 0.242223
O O12 0.000000 0.355566 0.000000
O O13 0.500000 0.000000 0.000000
O O14 0.959559 0.193518 0.739503
O O15 0.000000 0.099559 0.000000
O O16 0.167573 0.241144 0.581874
O O17 0.000000 0.233760 0.500000
#
# Coordination Sequence:
#
# PCOD9218116 Si02
#       8
#     4   4   8   8   4   8   8   8
#     4  12  22  42  69  95 136 178 218 269 339 399
#     4  12  23  40  69  98 137 175 218 264 330 413
#     4  11  22  39  64  97 131 175 221 267 329 406
#     4  11  24  44  67  93 126 171 221 279 334 390
#     4  10  24  42  66  89 119 172 229 270 323 393
#     4  12  24  42  65 100 142 180 215 270 333 407
#     4  12  24  40  67  98 133 172 216 278 339 396
#     4  11  23  39  65  96 132 168 225 275 326 395
#
# _framework density 21.097784000000001
#
# number of rings (size 3 to 8) (size 9 to 14) (size 15 to 20)
#    0.000    0.615    4.615    4.385    2.154    0.000 
#    0.000    1.154    0.000    0.000    0.000    0.000 
#    0.000    0.000    0.000    0.000    0.000    0.000 
#
# Total GULP energy -145267.356678 kJ/mol
# GULP energy per Si atom -5587.206026 kJ/mol
# Density = 2.104976 g / cm^3
# Si number density = 21.097784 Si / 1000 Ang^3
#
#
#
# Elastic Constant Matrix: (Units=GPa)
#
#
# Indices 1 2 3 4 5 6 
#
# 1 79.0683 27.5596 18.9358 0.0000 11.2848 0.0000
# 2 27.5596 160.6067 19.7549 0.0000 -11.7424 0.0000
# 3 18.9358 19.7549 44.1893 0.0000 -0.0186 0.0000
# 4 0.0000 0.0000 0.0000 -15.2645 0.0000 5.1970
# 5 11.2848 -11.7424 -0.0186 0.0000 33.2669 0.0000
# 6 0.0000 0.0000 0.0000 5.1970 0.0000 29.9687
#
#
#
# Elastic Compliance Matrix: (Units=1/GPa)
#
#
# Indices 1 2 3 4 5 6 
#
# 1 0.015745 -0.002461 -0.005649 0.000000 -0.006213 0.000000
# 2 -0.002461 0.007158 -0.002144 0.000000 0.003360 0.000000
# 3 -0.005649 -0.002144 0.026010 0.000000 0.001174 0.000000
# 4 0.000000 0.000000 0.000000 -0.061859 0.000000 0.010727
# 5 -0.006213 0.003360 0.001174 0.000000 0.033354 0.000000
# 6 0.000000 0.000000 0.000000 0.010727 0.000000 0.031508
#
#
# Mechanical properties :
#
#
# Convention : Reuss Voigt Hill
#
# Bulk Modulus (GPa) = 35.20655 46.26279 40.73467
# Shear Modulus (GPa) = 61.05600 24.10182 42.57891
#
# Velocity S-wave (km/s) = 5.38538 3.38359 4.49728
# Velocity P-wave (km/s) = 7.44267 6.10248 6.80565
#
# Compressibility (1/GPa) = 0.02840381
#
# Stress axis : x y z
#
# Youngs Moduli (GPa) = 63.51323 139.70173 38.44720
#
# Poissons Ratio (x) = 0.34382 0.21720
# Poissons Ratio (y) = 0.15631 0.08243
# Poissons Ratio (z) = 0.35880 0.29952
#
# Static dielectric constant tensor:
#      x y z
#    x 1.711040 0.000000 0.003480 
#    y 0.000000 1.802400 0.000000 
#    z 0.003480 0.000000 1.752430 
# 
# From -- ./inp_files/88514.got.cif
#   From: 2010.05.17/outbox.cif.g08.bks.cpg/sg12_45_cif.got.tgz:88514.got - 2010.06.03 13:09:07.
