data_PCOD9218534
_publ_section_title
;
Structure prediction by ZEFSAII (Michael W. Deem and Ramdas Pophale) SiO2 
 PCOD9218534
Probable space group: C 2/M
;
_chemical_formula_sum "Si O2"
_cell_formula_units_Z 48
_cell_length_a 9.018008
_cell_length_b 25.115879
_cell_length_c 19.763941
_cell_angle_alpha 90.000000
_cell_angle_beta 32.080313
_cell_angle_gamma 90.000000
_cell_volume 2377.469535
_symmetry_space_group_name_H-M "C 2/M"
_symmetry_group_IT_number 12
_symmetry_cell_setting 'monoclinic'
loop_
_space_group_symop_operation_xyz
x,y,z
-x,y,-z
-x,-y,-z
x,-y,z
1/2+x,1/2+y,z
1/2-x,1/2+y,-z
1/2-x,1/2-y,-z
1/2+x,1/2-y,z
loop_
_atom_site_type_symbol
_atom_site_label
_atom_site_fract_x
_atom_site_fract_y
_atom_site_fract_z
Si Si1 0.834520 0.438600 0.874096
Si Si2 0.151022 0.183074 0.806997
Si Si3 0.148756 0.374182 0.013420
Si Si4 0.151578 0.691453 0.513470
Si Si5 0.343236 0.363832 0.630038
Si Si6 0.919551 0.711811 0.838727
O O1 0.851841 0.500000 0.847714
O O2 0.915202 0.427560 0.921107
O O3 0.078410 0.403778 0.742865
O O4 0.500000 0.422943 0.000000
O O5 0.428721 0.175837 0.657088
O O6 0.193259 0.202506 0.867839
O O7 0.961749 0.228208 0.844766
O O8 0.977314 0.129465 0.873395
O O9 0.091203 0.326933 0.091376
O O10 0.000000 0.367465 0.000000
O O11 0.250000 0.750000 0.500000
O O12 0.404351 0.648005 0.414574
O O13 0.000000 0.694159 0.500000
O O14 0.500000 0.375248 0.500000
O O15 0.194293 0.306462 0.691500
#
# Coordination Sequence:
#
# PCOD9218534 Si02
#       6
#     8   8   8   8   8   8
#     4  10  24  47  73  97 124 160 213 278 338 394
#     4  12  22  36  58  86 132 176 216 264 307 378
#     4  11  24  39  62  90 122 168 214 268 327 383
#     4  12  24  37  60  92 135 180 219 259 309 376
#     4  11  22  41  65  96 129 171 213 263 320 388
#     4  11  22  36  56  87 131 171 220 259 309 372
#
# _framework density 20.189533000000001
#
# number of rings (size 3 to 8) (size 9 to 14) (size 15 to 20)
#    0.000    0.833    3.333    5.500    4.667    0.667 
#    0.000    0.000    0.000    0.500    0.000    0.000 
#    0.000    0.000    0.000    0.000    0.000    0.000 
#
# Total GULP energy -133696.051427 kJ/mol
# GULP energy per Si atom -5570.668809 kJ/mol
# Density = 2.014358 g / cm^3
# Si number density = 20.189533 Si / 1000 Ang^3
#
#
#
# Elastic Constant Matrix: (Units=GPa)
#
#
# Indices 1 2 3 4 5 6 
#
# 1 165.2260 18.7617 43.9121 0.0002 -3.1879 0.0001
# 2 18.7617 58.9395 34.8142 -0.0004 -3.7070 0.0002
# 3 43.9121 34.8142 139.1772 0.0005 3.2723 -0.0010
# 4 0.0002 -0.0004 0.0005 29.7241 -0.0004 -3.2883
# 5 -3.1879 -3.7070 3.2723 -0.0004 31.0546 -0.0004
# 6 0.0001 0.0002 -0.0010 -3.2883 -0.0004 13.9572
#
#
#
# Elastic Compliance Matrix: (Units=1/GPa)
#
#
# Indices 1 2 3 4 5 6 
#
# 1 0.006677 -0.000965 -0.001884 0.000000 0.000769 0.000000
# 2 -0.000965 0.020313 -0.004843 0.000000 0.002836 0.000000
# 3 -0.001884 -0.004843 0.009031 0.000000 -0.001723 0.000001
# 4 0.000000 0.000000 0.000000 0.034543 0.000001 0.008138
# 5 0.000769 0.002836 -0.001723 0.000001 0.032800 0.000001
# 6 0.000000 0.000000 0.000001 0.008138 0.000001 0.073565
#
#
# Mechanical properties :
#
#
# Convention : Reuss Voigt Hill
#
# Bulk Modulus (GPa) = 48.45339 62.03541 55.24440
# Shear Modulus (GPa) = 25.10131 32.67082 28.88606
#
# Velocity S-wave (km/s) = 3.52985 4.02706 3.78662
# Velocity P-wave (km/s) = 6.37687 7.23990 6.82205
#
# Compressibility (1/GPa) = 0.02063839
#
# Stress axis : x y z
#
# Youngs Moduli (GPa) = 149.76175 49.22979 110.72419
#
# Poissons Ratio (x) = 0.04749 0.20855
# Poissons Ratio (y) = 0.14446 0.53629
# Poissons Ratio (z) = 0.28208 0.23844
#
# Static dielectric constant tensor:
#      x y z
#    x 1.782090 0.000000 -0.035790 
#    y 0.000000 1.711520 0.000000 
#    z -0.035790 0.000000 1.815300 
# 
# From -- ./inp_files/302714.got.cif
#   From: 2010.05.17/outbox.cif.g08.bks.cpg/sg12_152_cif.got.tgz:302714.got - 2010.06.03 13:09:07.
