data_PCOD9218553
_publ_section_title
;
Structure prediction by ZEFSAII (Michael W. Deem and Ramdas Pophale) SiO2 
 PCOD9218553
Probable space group: C 2/M
;
_chemical_formula_sum "Si O2"
_cell_formula_units_Z 60
_cell_length_a 9.236327
_cell_length_b 22.407430
_cell_length_c 15.038467
_cell_angle_alpha 90.000000
_cell_angle_beta 105.210288
_cell_angle_gamma 90.000000
_cell_volume 3003.367366
_symmetry_space_group_name_H-M "C 2/M"
_symmetry_group_IT_number 12
_symmetry_cell_setting 'monoclinic'
loop_
_space_group_symop_operation_xyz
x,y,z
-x,y,-z
-x,-y,-z
x,-y,z
1/2+x,1/2+y,z
1/2-x,1/2+y,-z
1/2-x,1/2-y,-z
1/2+x,1/2-y,z
loop_
_atom_site_type_symbol
_atom_site_label
_atom_site_fract_x
_atom_site_fract_y
_atom_site_fract_z
Si Si1 0.123047 0.563212 0.792296
Si Si2 0.128876 0.114184 0.790115
Si Si3 0.561500 0.727319 0.213606
Si Si4 0.068376 0.000000 0.195926
Si Si5 0.358830 0.352790 0.414853
Si Si6 0.029755 0.395910 0.411898
Si Si7 0.377244 0.775981 0.345621
Si Si8 0.537263 0.848581 0.108854
O O1 0.070276 0.500000 0.825582
O O2 0.297195 0.551233 0.798633
O O3 0.033691 0.572504 0.686012
O O4 0.085398 0.617564 0.850649
O O5 0.115223 0.123275 0.681055
O O6 0.303151 0.121518 0.842169
O O7 0.040962 0.170145 0.819454
O O8 0.055693 0.052696 0.807070
O O9 0.504216 0.756224 0.296761
O O10 0.732095 0.710855 0.262197
O O11 0.549260 0.779436 0.139622
O O12 0.500000 0.367067 0.500000
O O13 0.203640 0.379705 0.425641
O O14 0.347104 0.280804 0.403421
O O15 0.000000 0.428487 0.500000
O O16 0.931633 0.335179 0.401803
O O17 0.500000 0.854225 0.000000
#
# Coordination Sequence:
#
# PCOD9218553 Si02
#       8
#     8   8   8   4   8   8   8   8
#     4  10  24  48  68  98 136 182 228 288 337 413
#     4  11  24  46  68 100 142 183 226 288 343 415
#     4  11  21  41  70  99 137 176 220 288 346 411
#     4  10  26  44  77  96 132 190 224 278 357 398
#     4  11  24  37  59 100 135 178 232 278 343 413
#     4  12  24  38  65  95 139 185 233 283 337 407
#     4  11  19  38  63  90 140 179 223 276 352 401
#     4  12  25  47  77 104 133 183 230 284 361 419
#
# _framework density 19.977577
#
# number of rings (size 3 to 8) (size 9 to 14) (size 15 to 20)
#    0.400    0.533    6.667    1.200    6.533    2.133 
#    0.000    1.667    0.000    0.000    0.000    0.000 
#    0.000    0.000    0.000    0.000    0.000    0.000 
#
# Total GULP energy -167050.688252 kJ/mol
# GULP energy per Si atom -5568.356275 kJ/mol
# Density = 1.993211 g / cm^3
# Si number density = 19.977577 Si / 1000 Ang^3
#
#
#
# Elastic Constant Matrix: (Units=GPa)
#
#
# Indices 1 2 3 4 5 6 
#
# 1 114.5714 49.2161 30.8612 0.0000 5.6084 0.0000
# 2 49.2161 99.0561 23.1812 0.0000 2.5256 0.0000
# 3 30.8612 23.1812 95.3592 0.0000 -1.2534 0.0000
# 4 0.0000 0.0000 0.0000 -9.6377 0.0000 14.4455
# 5 5.6084 2.5256 -1.2534 0.0000 16.4936 0.0000
# 6 0.0000 0.0000 0.0000 14.4455 0.0000 10.6290
#
#
#
# Elastic Compliance Matrix: (Units=1/GPa)
#
#
# Indices 1 2 3 4 5 6 
#
# 1 0.011823 -0.005175 -0.002613 0.000000 -0.003426 0.000000
# 2 -0.005175 0.013026 -0.001496 0.000000 -0.000348 0.000000
# 3 -0.002613 -0.001496 0.011722 0.000000 0.002008 0.000000
# 4 0.000000 0.000000 0.000000 -0.034165 0.000000 0.046432
# 5 -0.003426 -0.000348 0.002008 0.000000 0.062000 0.000000
# 6 0.000000 0.000000 0.000000 0.046432 0.000000 0.030978
#
#
# Mechanical properties :
#
#
# Convention : Reuss Voigt Hill
#
# Bulk Modulus (GPa) = 55.55021 57.27817 56.41419
# Shear Modulus (GPa) = 41.68221 17.21220 29.44720
#
# Velocity S-wave (km/s) = 4.57272 2.93845 3.84345
# Velocity P-wave (km/s) = 7.46635 6.34398 6.92793
#
# Compressibility (1/GPa) = 0.01800173
#
# Stress axis : x y z
#
# Youngs Moduli (GPa) = 84.58115 76.77145 85.30616
#
# Poissons Ratio (x) = 0.39732 0.22292
# Poissons Ratio (y) = 0.43774 0.12763
# Poissons Ratio (z) = 0.22103 0.11486
#
# Static dielectric constant tensor:
#      x y z
#    x 1.706080 0.000000 -0.015330 
#    y 0.000000 1.723670 0.000000 
#    z -0.015330 0.000000 1.697530 
# 
# From -- ./inp_files/198920.got.cif
#   From: 2010.05.17/outbox.cif.g08.bks.cpg/sg12_100_cif.got.tgz:198920.got - 2010.06.03 13:09:07.
