data_PCOD9218959
_publ_section_title
;
Structure prediction by ZEFSAII (Michael W. Deem and Ramdas Pophale) SiO2 
 PCOD9218959
Probable space group: C 2/M
;
_chemical_formula_sum "Si O2"
_cell_formula_units_Z 48
_cell_length_a 13.643187
_cell_length_b 12.225432
_cell_length_c 21.365822
_cell_angle_alpha 90.000000
_cell_angle_beta 41.563705
_cell_angle_gamma 90.000000
_cell_volume 2364.337141
_symmetry_space_group_name_H-M "C 2/M"
_symmetry_group_IT_number 12
_symmetry_cell_setting 'monoclinic'
loop_
_space_group_symop_operation_xyz
x,y,z
-x,y,-z
-x,-y,-z
x,-y,z
1/2+x,1/2+y,z
1/2-x,1/2+y,-z
1/2-x,1/2-y,-z
1/2+x,1/2-y,z
loop_
_atom_site_type_symbol
_atom_site_label
_atom_site_fract_x
_atom_site_fract_y
_atom_site_fract_z
Si Si1 0.483534 0.788326 0.859758
Si Si2 0.776389 0.629827 0.580667
Si Si3 0.038498 0.784101 0.265613
Si Si4 0.170625 0.874966 0.983131
Si Si5 0.849342 0.672621 0.102504
Si Si6 0.068261 0.367852 0.366749
O O1 0.510031 0.777773 0.774300
O O2 0.332903 0.859047 0.935985
O O3 0.610978 0.830754 0.843384
O O4 0.441533 0.671709 0.911455
O O5 0.788588 0.500000 0.576882
O O6 0.611354 0.659702 0.640606
O O7 0.819893 0.663975 0.630753
O O8 0.906238 0.663534 0.471280
O O9 0.177762 0.861129 0.180325
O O10 0.093108 0.698316 0.291492
O O11 0.160033 0.790714 0.929682
O O12 0.145767 0.000000 0.978061
O O13 0.000000 0.623802 0.000000
O O14 0.074998 0.500000 0.353846
#
# Coordination Sequence:
#
# PCOD9218959 Si02
#       6
#     8   8   8   8   8   8
#     4   9  19  32  47  76 109 131 170 226 265 302
#     4   9  19  36  56  82 110 135 170 218 267 319
#     4  11  19  31  55  80 107 142 177 213 263 318
#     4   9  18  34  55  73  96 138 184 222 262 306
#     4   9  19  34  50  72 107 141 175 219 256 296
#     4   9  19  36  58  82 108 135 170 218 270 321
#
# _framework density 20.301673000000001
#
# number of rings (size 3 to 8) (size 9 to 14) (size 15 to 20)
#    0.000    2.667    0.000    3.500    0.000    6.333 
#    0.000    2.500    0.000   21.000    0.000   11.667 
#    0.000    0.000    0.000    0.000    0.000    0.000 
#
# Total GULP energy -133608.161105 kJ/mol
# GULP energy per Si atom -5567.006713 kJ/mol
# Density = 2.025547 g / cm^3
# Si number density = 20.301673 Si / 1000 Ang^3
#
#
#
# Elastic Constant Matrix: (Units=GPa)
#
#
# Indices 1 2 3 4 5 6 
#
# 1 104.0726 4.8886 32.2836 0.0000 -0.8832 0.0000
# 2 4.8886 46.6545 13.3657 0.0000 4.1279 0.0000
# 3 32.2836 13.3657 77.5192 0.0000 -9.1378 0.0000
# 4 0.0000 0.0000 0.0000 -5.4982 0.0000 10.1247
# 5 -0.8832 4.1279 -9.1378 0.0000 54.3916 0.0000
# 6 0.0000 0.0000 0.0000 10.1247 0.0000 14.1089
#
#
#
# Elastic Compliance Matrix: (Units=1/GPa)
#
#
# Indices 1 2 3 4 5 6 
#
# 1 0.011056 0.000250 -0.004722 0.000000 -0.000633 0.000000
# 2 0.000250 0.022868 -0.004337 0.000000 -0.002460 0.000000
# 3 -0.004722 -0.004337 0.015960 0.000000 0.002934 0.000000
# 4 0.000000 0.000000 0.000000 -0.078347 0.000000 0.056223
# 5 -0.000633 -0.002460 0.002934 0.000000 0.019055 0.000000
# 6 0.000000 0.000000 0.000000 0.056223 0.000000 0.030531
#
#
# Mechanical properties :
#
#
# Convention : Reuss Voigt Hill
#
# Bulk Modulus (GPa) = 30.99177 36.59136 33.79157
# Shear Modulus (GPa) = 101.01516 24.44768 62.73142
#
# Velocity S-wave (km/s) = 7.06152 3.47395 5.56477
# Velocity P-wave (km/s) = 9.04354 5.84415 7.61379
#
# Compressibility (1/GPa) = 0.03226663
#
# Stress axis : x y z
#
# Youngs Moduli (GPa) = 90.44515 43.72905 62.65546
#
# Poissons Ratio (x) = -0.01095 0.29588
# Poissons Ratio (y) = -0.02264 0.27174
# Poissons Ratio (z) = 0.42711 0.18966
#
# Static dielectric constant tensor:
#      x y z
#    x 1.760810 0.000000 -0.027040 
#    y 0.000000 1.733450 0.000000 
#    z -0.027040 0.000000 1.782660 
# 
# From -- ./inp_files/339771.got.cif
#   From: 2010.05.17/outbox.cif.g08.bks.cpg/sg12_170_cif.got.tgz:339771.got - 2010.06.03 13:09:07.
