data_PCOD9218389
_publ_section_title
;
Structure prediction by ZEFSAII (Michael W. Deem and Ramdas Pophale) SiO2 
 PCOD9218389
Probable space group: C 2/M
;
_chemical_formula_sum "Si O2"
_cell_formula_units_Z 64
_cell_length_a 23.123990
_cell_length_b 28.830786
_cell_length_c 8.871752
_cell_angle_alpha 90.000000
_cell_angle_beta 147.580165
_cell_angle_gamma 90.000000
_cell_volume 3170.953649
_symmetry_space_group_name_H-M "C 2/M"
_symmetry_group_IT_number 12
_symmetry_cell_setting 'monoclinic'
loop_
_space_group_symop_operation_xyz
x,y,z
-x,y,-z
-x,-y,-z
x,-y,z
1/2+x,1/2+y,z
1/2-x,1/2+y,-z
1/2-x,1/2-y,-z
1/2+x,1/2-y,z
loop_
_atom_site_type_symbol
_atom_site_label
_atom_site_fract_x
_atom_site_fract_y
_atom_site_fract_z
Si Si1 0.767457 0.237644 0.291159
Si Si2 0.725555 0.104996 0.836649
Si Si3 0.600219 0.712769 0.147291
Si Si4 0.392678 0.945954 0.691712
Si Si5 0.878765 0.302083 0.294595
Si Si6 0.570086 0.621049 0.910260
Si Si7 0.383421 0.446043 0.406478
Si Si8 0.828128 0.948712 0.633424
O O1 0.678736 0.263875 0.198639
O O2 0.826191 0.204407 0.542112
O O3 0.848910 0.272112 0.379367
O O4 0.703376 0.212571 0.017854
O O5 0.654101 0.077428 0.559493
O O6 0.650304 0.144567 0.738832
O O7 0.825848 0.128103 0.966965
O O8 0.786412 0.071153 0.086938
O O9 0.500000 0.740799 0.000000
O O10 0.547296 0.669497 0.942406
O O11 0.296888 0.943285 0.601965
O O12 0.413541 0.000000 0.703460
O O13 0.500000 0.925022 0.000000
O O14 0.000000 0.294899 0.500000
O O15 0.479198 0.592333 0.620189
O O16 0.606281 0.587601 0.125339
O O17 0.413705 0.500000 0.437879
O O18 0.345667 0.445388 0.496098
O O19 0.862533 0.000000 0.761862
#
# Coordination Sequence:
#
# PCOD9218389 Si02
#       8
#     8   8   8   8   8   8   8   8
#     4  10  24  45  67  94 130 168 219 270 331 401
#     4  11  24  40  59  95 128 169 216 267 312 392
#     4  11  22  40  68 100 126 167 216 267 324 392
#     4   9  19  39  63  86 118 166 214 265 323 375
#     4  11  24  46  66  93 130 174 214 271 337 387
#     4  11  22  38  60  93 129 169 212 259 320 390
#     4  11  23  39  62  96 136 175 213 265 330 393
#     4   9  19  35  57  86 123 163 210 259 314 385
#
# _framework density 20.183201
#
# number of rings (size 3 to 8) (size 9 to 14) (size 15 to 20)
#    0.000    1.625    1.250    3.000    3.500    4.000 
#    2.250    0.625    0.000    3.750    0.000    0.000 
#    0.000    0.000    0.000    0.000    0.000    0.000 
#
# Total GULP energy -178522.470760 kJ/mol
# GULP energy per Si atom -5578.827211 kJ/mol
# Density = 2.013726 g / cm^3
# Si number density = 20.183201 Si / 1000 Ang^3
#
#
#
# Elastic Constant Matrix: (Units=GPa)
#
#
# Indices 1 2 3 4 5 6 
#
# 1 116.1629 32.9432 26.2596 0.0000 3.7361 0.0000
# 2 32.9432 55.4226 27.9085 0.0000 10.2880 0.0000
# 3 26.2596 27.9085 100.6984 0.0000 -0.7133 0.0000
# 4 0.0000 0.0000 0.0000 18.8006 0.0000 18.3659
# 5 3.7361 10.2880 -0.7133 0.0000 30.6725 0.0000
# 6 0.0000 0.0000 0.0000 18.3659 0.0000 21.4768
#
#
#
# Elastic Compliance Matrix: (Units=1/GPa)
#
#
# Indices 1 2 3 4 5 6 
#
# 1 0.010482 -0.005781 -0.001127 0.000000 0.000636 0.000000
# 2 -0.005781 0.025863 -0.005718 0.000000 -0.008104 0.000000
# 3 -0.001127 -0.005718 0.011826 0.000000 0.002330 0.000000
# 4 0.000000 0.000000 0.000000 0.323103 0.000000 -0.276303
# 5 0.000636 -0.008104 0.002330 0.000000 0.035297 0.000000
# 6 0.000000 0.000000 0.000000 -0.276303 0.000000 0.282843
#
#
# Mechanical properties :
#
#
# Convention : Reuss Voigt Hill
#
# Bulk Modulus (GPa) = 43.63110 49.61183 46.62146
# Shear Modulus (GPa) = 6.92227 26.53482 16.72855
#
# Velocity S-wave (km/s) = 1.85396 3.62981 2.88207
# Velocity P-wave (km/s) = 5.12322 6.49627 5.85016
#
# Compressibility (1/GPa) = 0.02291943
#
# Stress axis : x y z
#
# Youngs Moduli (GPa) = 95.39763 38.66501 84.56210
#
# Poissons Ratio (x) = 0.22354 0.09528
# Poissons Ratio (y) = 0.55154 0.48350
# Poissons Ratio (z) = 0.10749 0.22108
#
# Static dielectric constant tensor:
#      x y z
#    x 1.736410 0.000000 0.029070 
#    y 0.000000 1.751630 0.000000 
#    z 0.029070 0.000000 1.721020 
# 
# From -- ./inp_files/100230.got.cif
#   From: 2010.05.17/outbox.cif.g08.bks.cpg/sg12_51_cif.got.tgz:100230.got - 2010.06.03 13:09:07.
