data_PCOD9218914
_publ_section_title
;
Structure prediction by ZEFSAII (Michael W. Deem and Ramdas Pophale) SiO2 
 PCOD9218914
Probable space group: C 2/M
;
_chemical_formula_sum "Si O2"
_cell_formula_units_Z 42
_cell_length_a 13.529985
_cell_length_b 22.801150
_cell_length_c 12.372756
_cell_angle_alpha 90.000000
_cell_angle_beta 144.326128
_cell_angle_gamma 90.000000
_cell_volume 2225.954607
_symmetry_space_group_name_H-M "C 2/M"
_symmetry_group_IT_number 12
_symmetry_cell_setting 'monoclinic'
loop_
_space_group_symop_operation_xyz
x,y,z
-x,y,-z
-x,-y,-z
x,-y,z
1/2+x,1/2+y,z
1/2-x,1/2+y,-z
1/2-x,1/2-y,-z
1/2+x,1/2-y,z
loop_
_atom_site_type_symbol
_atom_site_label
_atom_site_fract_x
_atom_site_fract_y
_atom_site_fract_z
Si Si1 0.313737 0.202418 0.775954
Si Si2 0.978605 0.397125 0.799552
Si Si3 0.802004 0.812701 0.097478
Si Si4 0.102624 0.827952 0.203999
Si Si5 0.000000 0.500000 0.000000
Si Si6 0.850356 0.564800 0.453883
O O1 0.333507 0.148482 0.711964
O O2 0.185870 0.193744 0.761950
O O3 0.298467 0.265686 0.707167
O O4 0.500000 0.203102 0.000000
O O5 0.999858 0.448113 0.906033
O O6 0.927361 0.423597 0.639990
O O7 0.151688 0.359340 0.943046
O O8 0.971846 0.830075 0.186917
O O9 0.750000 0.750000 0.000000
O O10 0.223231 0.883194 0.315132
O O11 0.000000 0.829116 0.000000
O O12 0.770135 0.500000 0.379678
O O13 0.000000 0.566103 0.500000
#
# Coordination Sequence:
#
# PCOD9218914 Si02
#       6
#     8   8   8   8   2   8
#     4   9  18  34  59  92 120 157 202 252 315 378
#     4  11  21  41  66  90 126 169 216 256 319 379
#     4  11  18  36  65  94 122 157 208 266 312 383
#     4  11  21  38  63  88 123 166 205 258 323 376
#     4  12  20  40  70  90 116 184 220 244 312 398
#     4  11  26  43  59  89 128 168 213 266 313 379
#
# _framework density 18.868309
#
# number of rings (size 3 to 8) (size 9 to 14) (size 15 to 20)
#    0.000    1.333    9.524    1.143    0.000    1.143 
#    1.714    0.952    0.000    2.286    0.000    0.000 
#    0.000    0.000    0.000    0.000    0.000    0.000 
#
# Total GULP energy -116987.054218 kJ/mol
# GULP energy per Si atom -5570.812106 kJ/mol
# Density = 1.882536 g / cm^3
# Si number density = 18.868309 Si / 1000 Ang^3
#
#
#
# Elastic Constant Matrix: (Units=GPa)
#
#
# Indices 1 2 3 4 5 6 
#
# 1 150.1936 59.4934 22.9036 0.0000 -19.0141 0.0000
# 2 59.4934 176.3381 29.6426 0.0000 -1.5474 0.0000
# 3 22.9036 29.6426 27.1061 0.0000 -15.7560 0.0000
# 4 0.0000 0.0000 0.0000 51.9375 0.0000 -28.9334
# 5 -19.0141 -1.5474 -15.7560 0.0000 26.6975 0.0000
# 6 0.0000 0.0000 0.0000 -28.9334 0.0000 59.7552
#
#
#
# Elastic Compliance Matrix: (Units=1/GPa)
#
#
# Indices 1 2 3 4 5 6 
#
# 1 0.008551 -0.002603 -0.001410 0.000000 0.005107 0.000000
# 2 -0.002603 0.008491 -0.011991 0.000000 -0.008438 0.000000
# 3 -0.001410 -0.011991 0.076426 0.000000 0.043405 0.000000
# 4 0.000000 0.000000 0.000000 0.026366 0.000000 0.012766
# 5 0.005107 -0.008438 0.043405 0.000000 0.066221 0.000000
# 6 0.000000 0.000000 0.000000 0.012766 0.000000 0.022916
#
#
# Mechanical properties :
#
#
# Convention : Reuss Voigt Hill
#
# Bulk Modulus (GPa) = 16.27064 64.19078 40.23071
# Shear Modulus (GPa) = 19.12301 43.78459 31.45380
#
# Velocity S-wave (km/s) = 3.18700 4.82242 4.08734
# Velocity P-wave (km/s) = 4.71006 8.06858 6.60631
#
# Compressibility (1/GPa) = 0.06146038
#
# Stress axis : x y z
#
# Youngs Moduli (GPa) = 116.94975 117.77505 13.08450
#
# Poissons Ratio (x) = 0.30657 0.01845
# Poissons Ratio (y) = 0.30442 0.15689
# Poissons Ratio (z) = 0.16488 1.41222
#
# Static dielectric constant tensor:
#      x y z
#    x 1.684010 0.000000 -0.002520 
#    y 0.000000 1.651560 0.000000 
#    z -0.002520 0.000000 1.668610 
# 
# From -- ./inp_files/133509.got.cif
#   From: 2010.05.17/outbox.cif.g08.bks.cpg/sg12_67_cif.got.tgz:133509.got - 2010.06.03 13:09:07.
