data_PCOD9218022
_publ_section_title
;
Structure prediction by ZEFSAII (Michael W. Deem and Ramdas Pophale) SiO2 
 PCOD9218022
Probable space group: C 2/M
;
_chemical_formula_sum "Si O2"
_cell_formula_units_Z 44
_cell_length_a 15.184336
_cell_length_b 11.703687
_cell_length_c 24.770513
_cell_angle_alpha 90.000000
_cell_angle_beta 32.398093
_cell_angle_gamma 90.000000
_cell_volume 2358.604672
_symmetry_space_group_name_H-M "C 2/M"
_symmetry_group_IT_number 12
_symmetry_cell_setting 'monoclinic'
loop_
_space_group_symop_operation_xyz
x,y,z
-x,y,-z
-x,-y,-z
x,-y,z
1/2+x,1/2+y,z
1/2-x,1/2+y,-z
1/2-x,1/2-y,-z
1/2+x,1/2-y,z
loop_
_atom_site_type_symbol
_atom_site_label
_atom_site_fract_x
_atom_site_fract_y
_atom_site_fract_z
Si Si1 0.618613 0.500000 0.802979
Si Si2 0.695464 0.000000 0.407019
Si Si3 0.498709 0.748444 0.118435
Si Si4 0.303530 0.771752 0.883510
Si Si5 0.810204 0.130992 0.774981
Si Si6 0.306966 0.500000 0.116432
Si Si7 0.185618 0.128064 0.555020
O O1 0.717597 0.500000 0.696041
O O2 0.512353 0.613727 0.863804
O O3 0.723799 0.500000 0.803616
O O4 0.500000 0.000000 0.500000
O O5 0.753701 0.893507 0.414464
O O6 0.555695 0.798283 0.145945
O O7 0.328155 0.794665 0.183381
O O8 0.642083 0.765732 0.000571
O O9 0.338031 0.676253 0.821185
O O10 0.265214 0.886359 0.871298
O O11 0.988462 0.135775 0.655223
O O12 0.754101 0.000000 0.805052
O O13 0.500000 0.500000 0.000000
O O14 0.250000 0.250000 0.500000
O O15 0.231367 0.000000 0.506786
#
# Coordination Sequence:
#
# PCOD9218022 Si02
#       7
#     4   4   8   8   8   4   8
#     4  12  22  42  64  89 131 176 216 285 324 386
#     4  10  24  40  69 106 121 169 230 272 339 416
#     4  11  24  36  65  87 133 174 221 272 329 380
#     4  11  23  39  57  97 123 177 229 266 318 398
#     4  11  23  42  61  92 134 170 211 272 343 398
#     4  12  20  40  61  87 128 173 223 275 317 370
#     4   9  22  44  70  99 132 169 217 279 340 408
#
# _framework density 18.655099
#
# number of rings (size 3 to 8) (size 9 to 14) (size 15 to 20)
#    0.545    0.727    3.636    1.636    5.091    1.455 
#    1.636    0.000    0.000    0.545    0.000    0.000 
#    0.000    0.000    0.000    0.000    0.000    0.000 
#
# Total GULP energy -122638.922661 kJ/mol
# GULP energy per Si atom -5574.496485 kJ/mol
# Density = 1.861264 g / cm^3
# Si number density = 18.655099 Si / 1000 Ang^3
#
#
#
# Elastic Constant Matrix: (Units=GPa)
#
#
# Indices 1 2 3 4 5 6 
#
# 1 109.7624 19.2553 29.0224 0.0001 9.6183 0.0000
# 2 19.2553 107.6878 35.0749 0.0000 16.0527 0.0000
# 3 29.0224 35.0749 53.7659 -0.0002 5.9720 0.0000
# 4 0.0001 0.0000 -0.0002 23.1518 0.0000 -1.8465
# 5 9.6183 16.0527 5.9720 0.0000 31.4563 0.0000
# 6 0.0000 0.0000 0.0000 -1.8465 0.0000 26.7542
#
#
#
# Elastic Compliance Matrix: (Units=1/GPa)
#
#
# Indices 1 2 3 4 5 6 
#
# 1 0.010787 0.000297 -0.005754 0.000000 -0.002357 0.000000
# 2 0.000297 0.012507 -0.007764 0.000000 -0.004999 0.000000
# 3 -0.005754 -0.007764 0.026698 0.000000 0.000653 0.000000
# 4 0.000000 0.000000 0.000000 0.043432 0.000000 0.002998
# 5 -0.002357 -0.004999 0.000653 0.000000 0.034938 0.000000
# 6 0.000000 0.000000 0.000000 0.002998 0.000000 0.037584
#
#
# Mechanical properties :
#
#
# Convention : Reuss Voigt Hill
#
# Bulk Modulus (GPa) = 42.46592 48.65791 45.56192
# Shear Modulus (GPa) = 24.97019 28.79670 26.88344
#
# Velocity S-wave (km/s) = 3.66255 3.93318 3.80027
# Velocity P-wave (km/s) = 6.37956 6.83857 6.61305
#
# Compressibility (1/GPa) = 0.02354829
#
# Stress axis : x y z
#
# Youngs Moduli (GPa) = 92.70769 79.95454 37.45623
#
# Poissons Ratio (x) = -0.02374 0.21554
# Poissons Ratio (y) = -0.02753 0.29082
# Poissons Ratio (z) = 0.53348 0.62078
#
# Static dielectric constant tensor:
#      x y z
#    x 1.670350 0.000000 0.003280 
#    y 0.000000 1.653220 0.000000 
#    z 0.003280 0.000000 1.636300 
# 
# From -- ./inp_files/339294.got.cif
#   From: 2010.05.17/outbox.cif.g08.bks.cpg/sg12_170_cif.got.tgz:339294.got - 2010.06.03 13:09:07.
