data_PCOD9218123
_publ_section_title
;
Structure prediction by ZEFSAII (Michael W. Deem and Ramdas Pophale) SiO2 
 PCOD9218123
Probable space group: C 2/M
;
_chemical_formula_sum "Si O2"
_cell_formula_units_Z 32
_cell_length_a 17.574472
_cell_length_b 15.395105
_cell_length_c 5.174022
_cell_angle_alpha 90.000000
_cell_angle_beta 74.614143
_cell_angle_gamma 90.000000
_cell_volume 1349.717066
_symmetry_space_group_name_H-M "C 2/M"
_symmetry_group_IT_number 12
_symmetry_cell_setting 'monoclinic'
loop_
_space_group_symop_operation_xyz
x,y,z
-x,y,-z
-x,-y,-z
x,-y,z
1/2+x,1/2+y,z
1/2-x,1/2+y,-z
1/2-x,1/2-y,-z
1/2+x,1/2-y,z
loop_
_atom_site_type_symbol
_atom_site_label
_atom_site_fract_x
_atom_site_fract_y
_atom_site_fract_z
Si Si1 0.780772 0.394648 0.489000
Si Si2 0.945985 0.000000 0.799435
Si Si3 0.820915 0.846966 0.920564
Si Si4 0.054671 0.500000 0.203605
Si Si5 0.406956 0.823955 0.034646
O O1 0.788074 0.500000 0.468247
O O2 0.724716 0.359281 0.307386
O O3 0.863799 0.349892 0.341127
O O4 0.737947 0.368679 0.791013
O O5 0.890102 0.082934 0.855323
O O6 0.000000 0.000000 0.500000
O O7 0.000000 0.000000 0.000000
O O8 0.862035 0.755401 0.942904
O O9 0.000000 0.500000 0.500000
O O10 0.101343 0.410852 0.132132
O O11 0.000000 0.500000 0.000000
O O12 0.500000 0.806072 0.000000
#
# Coordination Sequence:
#
# PCOD9218123 Si02
#       5
#     8   4   8   4   8
#     4  12  24  48  75 105 146 197 239 294 366 437
#     4  12  24  42  70 104 141 188 233 292 350 419
#     4  12  26  47  73 108 148 191 242 293 367 439
#     4  10  24  42  66  98 140 180 226 288 354 411
#     4  11  26  48  74 110 145 190 245 306 360 425
#
# _framework density 23.708670000000001
#
# number of rings (size 3 to 8) (size 9 to 14) (size 15 to 20)
#    0.000    0.500    3.750    3.750    0.000    9.000 
#    0.000    0.000    0.000    0.000    0.000    0.000 
#    0.000    0.000    0.000    0.000    0.000    0.000 
#
# Total GULP energy -89791.170457 kJ/mol
# GULP energy per Si atom -5611.948154 kJ/mol
# Density = 2.365471 g / cm^3
# Si number density = 23.708670 Si / 1000 Ang^3
#
#
#
# Elastic Constant Matrix: (Units=GPa)
#
#
# Indices 1 2 3 4 5 6 
#
# 1 159.4952 53.3496 77.6889 0.0000 -16.7529 0.0000
# 2 53.3496 209.5095 56.1257 0.0000 -23.9485 0.0000
# 3 77.6889 56.1257 216.1516 0.0000 -16.6947 0.0000
# 4 0.0000 0.0000 0.0000 36.6592 0.0000 -19.3645
# 5 -16.7529 -23.9485 -16.6947 0.0000 47.4079 0.0000
# 6 0.0000 0.0000 0.0000 -19.3645 0.0000 54.3460
#
#
#
# Elastic Compliance Matrix: (Units=1/GPa)
#
#
# Indices 1 2 3 4 5 6 
#
# 1 0.008020 -0.001230 -0.002459 0.000000 0.001347 0.000000
# 2 -0.001230 0.005548 -0.000839 0.000000 0.002073 0.000000
# 3 -0.002459 -0.000839 0.005786 0.000000 0.000745 0.000000
# 4 0.000000 0.000000 0.000000 0.033603 0.000000 0.011973
# 5 0.001347 0.002073 0.000745 0.000000 0.022879 0.000000
# 6 0.000000 0.000000 0.000000 0.011973 0.000000 0.022667
#
#
# Mechanical properties :
#
#
# Convention : Reuss Voigt Hill
#
# Bulk Modulus (GPa) = 97.09778 106.60943 101.85360
# Shear Modulus (GPa) = 45.04895 54.21543 49.63219
#
# Velocity S-wave (km/s) = 4.36375 4.78717 4.58035
# Velocity P-wave (km/s) = 8.15066 8.69598 8.42773
#
# Compressibility (1/GPa) = 0.01029890
#
# Stress axis : x y z
#
# Youngs Moduli (GPa) = 124.68053 180.25522 172.84315
#
# Poissons Ratio (x) = 0.22163 0.42509
# Poissons Ratio (y) = 0.15330 0.14493
# Poissons Ratio (z) = 0.30664 0.15115
#
# Static dielectric constant tensor:
#      x y z
#    x 1.891580 0.000000 0.000100 
#    y 0.000000 1.911690 0.000000 
#    z 0.000100 0.000000 1.849180 
# 
# From -- ./inp_files/14919.got.cif
#   From: 2010.05.17/outbox.cif.g08.bks.cpg/sg12_8_cif.got.tgz:14919.got - 2010.06.03 13:09:07.
