data_PCOD9218562
_publ_section_title
;
Structure prediction by ZEFSAII (Michael W. Deem and Ramdas Pophale) SiO2 
 PCOD9218562
Probable space group: C 2/M
;
_chemical_formula_sum "Si O2"
_cell_formula_units_Z 38
_cell_length_a 9.599759
_cell_length_b 23.109934
_cell_length_c 7.234602
_cell_angle_alpha 90.000000
_cell_angle_beta 106.435917
_cell_angle_gamma 90.000000
_cell_volume 1539.409745
_symmetry_space_group_name_H-M "C 2/M"
_symmetry_group_IT_number 12
_symmetry_cell_setting 'monoclinic'
loop_
_space_group_symop_operation_xyz
x,y,z
-x,y,-z
-x,-y,-z
x,-y,z
1/2+x,1/2+y,z
1/2-x,1/2+y,-z
1/2-x,1/2-y,-z
1/2+x,1/2-y,z
loop_
_atom_site_type_symbol
_atom_site_label
_atom_site_fract_x
_atom_site_fract_y
_atom_site_fract_z
Si Si1 0.500000 0.500000 0.000000
Si Si2 0.500000 0.695629 0.000000
Si Si3 0.179898 0.897744 0.862115
Si Si4 0.290224 0.934073 0.524337
Si Si5 0.408505 0.238590 0.634352
Si Si6 0.072637 0.616117 0.767075
O O1 0.596694 0.450047 0.929160
O O2 0.593777 0.658405 0.893501
O O3 0.402337 0.734392 0.834148
O O4 0.189576 0.908847 0.647255
O O5 0.341184 0.890560 0.010711
O O6 0.305170 0.895197 0.346769
O O7 0.451059 0.932096 0.676695
O O8 0.248271 0.000000 0.459058
O O9 0.500000 0.265174 0.500000
O O10 0.250000 0.250000 0.500000
O O11 0.486652 0.176023 0.699751
#
# Coordination Sequence:
#
# PCOD9218562 Si02
#       6
#     2   4   8   8   8   8
#     4  10  24  48  72 108 152 202 244 320 370 470
#     4  11  30  43  74 108 149 206 249 310 396 462
#     4  11  25  48  71 107 153 195 255 312 387 461
#     4  11  24  43  73 110 140 194 244 315 387 452
#     4  12  28  50  76 110 154 204 261 331 387 465
#     4  11  25  43  75 107 146 191 258 314 378 468
#
# _framework density 24.684787
#
# number of rings (size 3 to 8) (size 9 to 14) (size 15 to 20)
#    0.000    0.842    3.158    3.158    8.842    2.526 
#    0.000    4.211    0.000    0.000    0.000    0.000 
#    0.000    0.000    0.000    0.000    0.000    0.000 
#
# Total GULP energy -106044.979576 kJ/mol
# GULP energy per Si atom -5581.314715 kJ/mol
# Density = 2.462860 g / cm^3
# Si number density = 24.684787 Si / 1000 Ang^3
#
#
#
# Elastic Constant Matrix: (Units=GPa)
#
#
# Indices 1 2 3 4 5 6 
#
# 1 114.6012 29.9027 29.9841 0.0000 -25.8206 0.0000
# 2 29.9027 138.2373 56.0808 0.0000 -20.2367 0.0000
# 3 29.9841 56.0808 107.6027 0.0000 -14.1052 0.0000
# 4 0.0000 0.0000 0.0000 -0.3485 0.0000 34.3663
# 5 -25.8206 -20.2367 -14.1052 0.0000 43.3490 0.0000
# 6 0.0000 0.0000 0.0000 34.3663 0.0000 -140.0078
#
#
#
# Elastic Compliance Matrix: (Units=1/GPa)
#
#
# Indices 1 2 3 4 5 6 
#
# 1 0.010619 -0.000756 -0.001861 0.000000 0.005367 0.000000
# 2 -0.000756 0.009577 -0.004443 0.000000 0.002575 0.000000
# 3 -0.001861 -0.004443 0.012232 0.000000 0.000797 0.000000
# 4 0.000000 0.000000 0.000000 0.123654 0.000000 0.030352
# 5 0.005367 0.002575 0.000797 0.000000 0.027726 0.000000
# 6 0.000000 0.000000 0.000000 0.030352 0.000000 0.000308
#
#
# Mechanical properties :
#
#
# Convention : Reuss Voigt Hill
#
# Bulk Modulus (GPa) = 54.62422 65.81957 60.22190
# Shear Modulus (GPa) = 24.46886 -3.10321 10.68283
#
# Velocity S-wave (km/s) = 3.15183 -1.12244 2.08257
# Velocity P-wave (km/s) = 5.95165 5.00421 5.49837
#
# Compressibility (1/GPa) = 0.01830690
#
# Stress axis : x y z
#
# Youngs Moduli (GPa) = 94.16684 104.41755 81.75045
#
# Poissons Ratio (x) = 0.07897 0.15218
# Poissons Ratio (y) = 0.07122 0.36323
# Poissons Ratio (z) = 0.17529 0.46394
#
# Static dielectric constant tensor:
#      x y z
#    x 1.956200 0.000000 -0.026780 
#    y 0.000000 1.988670 0.000000 
#    z -0.026780 0.000000 1.945260 
# 
# From -- ./inp_files/39471.got.cif
#   From: 2010.05.17/outbox.cif.g08.bks.cpg/sg12_20_cif.got.tgz:39471.got - 2010.06.03 13:09:07.
