data_PCOD9218967
_publ_section_title
;
Structure prediction by ZEFSAII (Michael W. Deem and Ramdas Pophale) SiO2 
 PCOD9218967
Probable space group: C 2/M
;
_chemical_formula_sum "Si O2"
_cell_formula_units_Z 64
_cell_length_a 11.753994
_cell_length_b 30.343293
_cell_length_c 11.219115
_cell_angle_alpha 90.000000
_cell_angle_beta 99.894701
_cell_angle_gamma 90.000000
_cell_volume 3941.832936
_symmetry_space_group_name_H-M "C 2/M"
_symmetry_group_IT_number 12
_symmetry_cell_setting 'monoclinic'
loop_
_space_group_symop_operation_xyz
x,y,z
-x,y,-z
-x,-y,-z
x,-y,z
1/2+x,1/2+y,z
1/2-x,1/2+y,-z
1/2-x,1/2-y,-z
1/2+x,1/2-y,z
loop_
_atom_site_type_symbol
_atom_site_label
_atom_site_fract_x
_atom_site_fract_y
_atom_site_fract_z
Si Si1 0.364625 0.793660 0.628662
Si Si2 0.011968 0.547474 0.302581
Si Si3 0.532535 0.698068 0.372717
Si Si4 0.196076 0.548565 0.541460
Si Si5 0.739340 0.853602 0.602591
Si Si6 0.689148 0.278539 0.802303
Si Si7 0.877760 0.702619 0.030238
Si Si8 0.451538 0.140598 0.223703
O O1 0.431559 0.749389 0.605245
O O2 0.317568 0.823503 0.512041
O O3 0.260961 0.776006 0.692986
O O4 0.448533 0.825347 0.719269
O O5 0.011268 0.500000 0.240435
O O6 0.903415 0.548040 0.374665
O O7 0.000346 0.591613 0.226947
O O8 0.125247 0.550352 0.405398
O O9 0.500000 0.681888 0.500000
O O10 0.641136 0.670289 0.345924
O O11 0.427458 0.697208 0.259850
O O12 0.254922 0.500000 0.558689
O O13 0.259463 0.595401 0.567064
O O14 0.647552 0.855584 0.693387
O O15 0.656222 0.233330 0.863457
O O16 0.777370 0.298960 0.914604
O O17 0.901449 0.655331 0.089422
O O18 0.000000 0.719823 0.000000
#
# Coordination Sequence:
#
# PCOD9218967 Si02
#       8
#     8   8   8   8   8   8   8   8
#     4  12  21  34  51  76 107 137 168 213 255 306
#     4   8  14  25  45  75 106 129 160 209 260 309
#     4  12  23  33  49  74 108 138 166 210 253 301
#     4   8  14  26  45  72 105 136 163 202 255 308
#     4  11  21  32  51  79 108 135 169 212 260 312
#     4  11  23  38  52  72  99 140 178 212 248 293
#     4  11  22  38  54  70  98 138 183 217 245 295
#     4  11  19  32  54  78 101 137 174 207 262 306
#
# _framework density 16.236101999999999
#
# number of rings (size 3 to 8) (size 9 to 14) (size 15 to 20)
#    0.000    1.500    5.000    3.000    0.000    1.000 
#    0.000    0.000    0.000    0.750    0.000    0.875 
#    0.000    4.000    0.000    0.000    0.000    0.500 
#
# Total GULP energy -178308.695156 kJ/mol
# GULP energy per Si atom -5572.146724 kJ/mol
# Density = 1.619915 g / cm^3
# Si number density = 16.236102 Si / 1000 Ang^3
#
#
#
# Elastic Constant Matrix: (Units=GPa)
#
#
# Indices 1 2 3 4 5 6 
#
# 1 63.4600 35.3787 18.9825 0.0000 11.7570 0.0000
# 2 35.3787 111.9681 23.0230 0.0000 8.6455 0.0000
# 3 18.9825 23.0230 53.0571 0.0000 17.7005 0.0000
# 4 0.0000 0.0000 0.0000 21.4729 0.0000 1.2073
# 5 11.7570 8.6455 17.7005 0.0000 31.9126 0.0000
# 6 0.0000 0.0000 0.0000 1.2073 0.0000 16.6594
#
#
#
# Elastic Compliance Matrix: (Units=1/GPa)
#
#
# Indices 1 2 3 4 5 6 
#
# 1 0.020654 -0.005458 -0.003651 0.000000 -0.004105 0.000000
# 2 -0.005458 0.011252 -0.003170 0.000000 0.000721 0.000000
# 3 -0.003651 -0.003170 0.025516 0.000000 -0.011948 0.000000
# 4 0.000000 0.000000 0.000000 0.046761 0.000000 -0.003389
# 5 -0.004105 0.000721 -0.011948 0.000000 0.039280 0.000000
# 6 0.000000 0.000000 0.000000 -0.003389 0.000000 0.060272
#
#
# Mechanical properties :
#
#
# Convention : Reuss Voigt Hill
#
# Bulk Modulus (GPa) = 30.43057 42.58374 36.50715
# Shear Modulus (GPa) = 20.89887 24.08238 22.49063
#
# Velocity S-wave (km/s) = 3.59163 3.85549 3.72590
# Velocity P-wave (km/s) = 5.99858 6.79003 6.40654
#
# Compressibility (1/GPa) = 0.03286170
#
# Stress axis : x y z
#
# Youngs Moduli (GPa) = 48.41762 88.87354 39.19139
#
# Poissons Ratio (x) = 0.48509 0.14310
# Poissons Ratio (y) = 0.26427 0.12425
# Poissons Ratio (z) = 0.17679 0.28175
#
# Static dielectric constant tensor:
#      x y z
#    x 1.572930 0.000000 -0.005590 
#    y 0.000000 1.566070 0.000000 
#    z -0.005590 0.000000 1.553280 
# 
# From -- ./inp_files/137449.got.cif
#   From: 2010.05.17/outbox.cif.g08.bks.cpg/sg12_69_cif.got.tgz:137449.got - 2010.06.03 13:09:07.
