data_PCOD9218406
_publ_section_title
;
Structure prediction by ZEFSAII (Michael W. Deem and Ramdas Pophale) SiO2 
 PCOD9218406
Probable space group: C 2/M
;
_chemical_formula_sum "Si O2"
_cell_formula_units_Z 40
_cell_length_a 18.634807
_cell_length_b 20.569650
_cell_length_c 13.883647
_cell_angle_alpha 90.000000
_cell_angle_beta 20.455682
_cell_angle_gamma 90.000000
_cell_volume 1859.863740
_symmetry_space_group_name_H-M "C 2/M"
_symmetry_group_IT_number 12
_symmetry_cell_setting 'monoclinic'
loop_
_space_group_symop_operation_xyz
x,y,z
-x,y,-z
-x,-y,-z
x,-y,z
1/2+x,1/2+y,z
1/2-x,1/2+y,-z
1/2-x,1/2-y,-z
1/2+x,1/2-y,z
loop_
_atom_site_type_symbol
_atom_site_label
_atom_site_fract_x
_atom_site_fract_y
_atom_site_fract_z
Si Si1 0.044994 0.072618 0.556767
Si Si2 0.000000 0.382625 0.500000
Si Si3 0.233089 0.326023 0.040081
Si Si4 0.352190 0.178545 0.378734
Si Si5 0.500000 0.881179 0.000000
Si Si6 0.778308 0.929283 0.327229
O O1 0.000000 0.080085 0.500000
O O2 0.978153 0.000000 0.671922
O O3 0.290294 0.078784 0.255468
O O4 0.921691 0.129157 0.768081
O O5 0.169024 0.340484 0.230100
O O6 0.119274 0.418894 0.437057
O O7 0.036733 0.337648 0.219955
O O8 0.250000 0.250000 0.000000
O O9 0.250000 0.250000 0.500000
O O10 0.202216 0.124274 0.612270
O O11 0.452051 0.163511 0.151278
O O12 0.727662 0.000000 0.434725
O O13 0.000000 0.931031 0.000000
#
# Coordination Sequence:
#
# PCOD9218406 Si02
#       6
#     8   4   8   8   4   8
#     4  11  25  46  71 103 142 186 239 294 356 425
#     4  10  25  44  70 102 137 182 232 296 355 420
#     4  11  25  45  71 104 142 190 239 294 352 433
#     4  11  26  43  69 104 143 189 236 293 351 429
#     4  12  25  46  70 104 143 188 236 298 361 428
#     4  10  24  45  69 100 137 179 233 290 348 417
#
# _framework density 21.506951999999998
#
# number of rings (size 3 to 8) (size 9 to 14) (size 15 to 20)
#    0.000    1.200    2.000    1.800    8.400    7.200 
#    0.000    0.000    0.000    0.000    0.000    0.000 
#    0.000    0.000    0.000    0.000    0.000    0.000 
#
# Total GULP energy -111470.386970 kJ/mol
# GULP energy per Si atom -5573.519348 kJ/mol
# Density = 2.145800 g / cm^3
# Si number density = 21.506952 Si / 1000 Ang^3
#
#
#
# Elastic Constant Matrix: (Units=GPa)
#
#
# Indices 1 2 3 4 5 6 
#
# 1 85.4654 37.0936 30.8550 -0.0169 10.4860 0.0290
# 2 37.0936 178.7046 72.9080 -0.0311 29.6285 0.0188
# 3 30.8550 72.9080 117.8074 -0.0308 9.8276 0.0223
# 4 -0.0169 -0.0311 -0.0308 34.4124 0.0048 23.4316
# 5 10.4860 29.6285 9.8276 0.0048 50.2117 -0.0037
# 6 0.0290 0.0188 0.0223 23.4316 -0.0037 16.7896
#
#
#
# Elastic Compliance Matrix: (Units=1/GPa)
#
#
# Indices 1 2 3 4 5 6 
#
# 1 0.013430 -0.001561 -0.002434 0.000317 -0.001407 -0.000462
# 2 -0.001561 0.008354 -0.004450 0.000088 -0.003733 -0.000124
# 3 -0.002434 -0.004450 0.011811 0.000192 0.000822 -0.000274
# 4 0.000317 0.000088 0.000192 0.584453 -0.000272 -0.815667
# 5 -0.001407 -0.003733 0.000822 -0.000272 0.022251 0.000389
# 6 -0.000462 -0.000124 -0.000274 -0.815667 0.000389 1.197910
#
#
# Mechanical properties :
#
#
# Convention : Reuss Voigt Hill
#
# Bulk Modulus (GPa) = 59.86002 73.74339 66.80170
# Shear Modulus (GPa) = 2.68721 36.35745 19.52233
#
# Velocity S-wave (km/s) = 1.11900 4.11603 3.01611
# Velocity P-wave (km/s) = 5.43717 7.54662 6.57702
#
# Compressibility (1/GPa) = 0.01670564
#
# Stress axis : x y z
#
# Youngs Moduli (GPa) = 74.46170 119.69940 84.66522
#
# Poissons Ratio (x) = 0.18690 0.20604
# Poissons Ratio (y) = 0.11626 0.37675
# Poissons Ratio (z) = 0.18121 0.53265
#
# Static dielectric constant tensor:
#      x y z
#    x 1.770520 0.000270 -0.065540 
#    y 0.000270 1.585780 -0.000930 
#    z -0.065540 -0.000930 2.075020 
# 
# From -- ./inp_files/234603.got.cif
#   From: 2010.05.17/outbox.cif.g08.bks.cpg/sg12_118_cif.got.tgz:234603.got - 2010.06.03 13:09:07.
