data_PCOD9218760
_publ_section_title
;
Structure prediction by ZEFSAII (Michael W. Deem and Ramdas Pophale) SiO2 
 PCOD9218760
Probable space group: C 2/M
;
_chemical_formula_sum "Si O2"
_cell_formula_units_Z 36
_cell_length_a 9.783578
_cell_length_b 14.786874
_cell_length_c 12.282841
_cell_angle_alpha 90.000000
_cell_angle_beta 111.334838
_cell_angle_gamma 90.000000
_cell_volume 1655.167203
_symmetry_space_group_name_H-M "C 2/M"
_symmetry_group_IT_number 12
_symmetry_cell_setting 'monoclinic'
loop_
_space_group_symop_operation_xyz
x,y,z
-x,y,-z
-x,-y,-z
x,-y,z
1/2+x,1/2+y,z
1/2-x,1/2+y,-z
1/2-x,1/2-y,-z
1/2+x,1/2-y,z
loop_
_atom_site_type_symbol
_atom_site_label
_atom_site_fract_x
_atom_site_fract_y
_atom_site_fract_z
Si Si1 0.854444 0.104350 0.807222
Si Si2 0.908753 0.398718 0.872044
Si Si3 0.316254 0.349916 0.031013
Si Si4 0.686280 0.777719 0.345270
Si Si5 0.500000 0.270881 0.500000
O O1 0.797799 0.176205 0.701302
O O2 0.012751 0.142433 0.890849
O O3 0.860538 0.000000 0.771682
O O4 0.775491 0.106314 0.902545
O O5 0.957016 0.500000 0.861067
O O6 0.751629 0.398569 0.884128
O O7 0.901650 0.335844 0.767290
O O8 0.000000 0.361151 0.000000
O O9 0.250000 0.250000 0.000000
O O10 0.587598 0.777788 0.426062
O O11 0.852794 0.816573 0.406546
#
# Coordination Sequence:
#
# PCOD9218760 Si02
#       5
#     8   8   8   8   4
#     4  11  23  38  64  96 133 173 218 269 333 409
#     4  11  23  38  64 102 137 168 210 271 345 417
#     4  11  20  36  59  97 138 172 204 257 336 422
#     4  11  23  46  67  92 131 176 227 284 338 391
#     4  10  26  46  68  90 126 180 242 282 322 392
#
# _framework density 21.750069
#
# number of rings (size 3 to 8) (size 9 to 14) (size 15 to 20)
#    0.000    1.111    2.222    5.333    3.111    0.000 
#    0.000    6.667    0.000    0.000    0.000    0.000 
#    0.000    0.000    0.000    0.000    0.000    0.000 
#
# Total GULP energy -100285.362406 kJ/mol
# GULP energy per Si atom -5571.409023 kJ/mol
# Density = 2.170057 g / cm^3
# Si number density = 21.750069 Si / 1000 Ang^3
#
#
#
# Elastic Constant Matrix: (Units=GPa)
#
#
# Indices 1 2 3 4 5 6 
#
# 1 69.8190 10.6701 18.6471 0.0000 -4.2119 0.0000
# 2 10.6701 119.6326 33.2626 0.0000 2.1562 0.0000
# 3 18.6471 33.2626 113.1706 0.0000 -6.0041 0.0000
# 4 0.0000 0.0000 0.0000 1.9358 0.0000 3.7200
# 5 -4.2119 2.1562 -6.0041 0.0000 42.1650 0.0000
# 6 0.0000 0.0000 0.0000 3.7200 0.0000 17.5130
#
#
#
# Elastic Compliance Matrix: (Units=1/GPa)
#
#
# Indices 1 2 3 4 5 6 
#
# 1 0.015101 -0.000757 -0.002200 0.000000 0.001234 0.000000
# 2 -0.000757 0.009171 -0.002619 0.000000 -0.000918 0.000000
# 3 -0.002200 -0.002619 0.010040 0.000000 0.001344 0.000000
# 4 0.000000 0.000000 0.000000 0.872890 0.000000 -0.185412
# 5 0.001234 -0.000918 0.001344 0.000000 0.024078 0.000000
# 6 0.000000 0.000000 0.000000 -0.185412 0.000000 0.096484
#
#
# Mechanical properties :
#
#
# Convention : Reuss Voigt Hill
#
# Bulk Modulus (GPa) = 43.18168 47.53130 45.35649
# Shear Modulus (GPa) = 4.77720 28.32557 16.55139
#
# Velocity S-wave (km/s) = 1.48364 3.61268 2.76158
# Velocity P-wave (km/s) = 4.77824 6.26920 5.57380
#
# Compressibility (1/GPa) = 0.02315797
#
# Stress axis : x y z
#
# Youngs Moduli (GPa) = 66.22287 109.03535 99.60236
#
# Poissons Ratio (x) = 0.08258 0.21913
# Poissons Ratio (y) = 0.05015 0.26091
# Poissons Ratio (z) = 0.14569 0.28562
#
# Static dielectric constant tensor:
#      x y z
#    x 2.152970 0.000000 -0.022390 
#    y 0.000000 1.808270 0.000000 
#    z -0.022390 0.000000 1.830510 
# 
# From -- ./inp_files/129392.got.cif
#   From: 2010.05.17/outbox.cif.g08.bks.cpg/sg12_65_cif.got.tgz:129392.got - 2010.06.03 13:09:07.
