data_PCOD9218541
_publ_section_title
;
Structure prediction by ZEFSAII (Michael W. Deem and Ramdas Pophale) SiO2 
 PCOD9218541
Probable space group: C 2/M
;
_chemical_formula_sum "Si O2"
_cell_formula_units_Z 46
_cell_length_a 18.663094
_cell_length_b 23.280851
_cell_length_c 5.903267
_cell_angle_alpha 90.000000
_cell_angle_beta 53.198832
_cell_angle_gamma 90.000000
_cell_volume 2053.785775
_symmetry_space_group_name_H-M "C 2/M"
_symmetry_group_IT_number 12
_symmetry_cell_setting 'monoclinic'
loop_
_space_group_symop_operation_xyz
x,y,z
-x,y,-z
-x,-y,-z
x,-y,z
1/2+x,1/2+y,z
1/2-x,1/2+y,-z
1/2-x,1/2-y,-z
1/2+x,1/2-y,z
loop_
_atom_site_type_symbol
_atom_site_label
_atom_site_fract_x
_atom_site_fract_y
_atom_site_fract_z
Si Si1 0.188952 0.225537 0.817209
Si Si2 0.337991 0.171099 0.850409
Si Si3 0.500000 0.000000 0.500000
Si Si4 0.895293 0.893182 0.152776
Si Si5 0.427366 0.897170 0.323099
Si Si6 0.226028 0.567299 0.724827
Si Si7 0.551760 0.500000 0.159913
O O1 0.250000 0.250000 0.500000
O O2 0.251931 0.197130 0.888143
O O3 0.134015 0.171272 0.837984
O O4 0.136405 0.279811 0.019415
O O5 0.408059 0.155251 0.526107
O O6 0.310479 0.111092 0.018775
O O7 0.467101 0.950105 0.385041
O O8 0.828890 0.918332 0.470505
O O9 0.000000 0.888844 0.000000
O O10 0.890430 0.941754 0.965202
O O11 0.334859 0.917015 0.378476
O O12 0.500000 0.881029 0.000000
O O13 0.213598 0.500000 0.806037
O O14 0.500000 0.500000 0.500000
O O15 0.500000 0.500000 0.000000
#
# Coordination Sequence:
#
# PCOD9218541 Si02
#       7
#     8   8   2   8   8   8   4
#     4  11  23  49  77 106 155 203 266 318 379 476
#     4  11  25  45  80 106 149 213 254 320 393 464
#     4  12  26  42  74 108 154 198 246 306 396 460
#     4  11  24  48  77 115 155 202 256 331 393 476
#     4  12  26  46  71 112 158 196 259 321 384 475
#     4  12  25  47  78 115 155 199 256 326 403 468
#     4  10  24  47  75 113 159 200 260 330 392 471
#
# _framework density 22.397663999999999
#
# number of rings (size 3 to 8) (size 9 to 14) (size 15 to 20)
#    0.000    0.696    5.217    1.304    3.652    2.783 
#    1.565    8.696    3.826    0.000    0.000    0.000 
#    0.000    0.000    0.000    0.000    0.000    0.000 
#
# Total GULP energy -128293.384272 kJ/mol
# GULP energy per Si atom -5577.973229 kJ/mol
# Density = 2.234669 g / cm^3
# Si number density = 22.397664 Si / 1000 Ang^3
#
#
#
# Elastic Constant Matrix: (Units=GPa)
#
#
# Indices 1 2 3 4 5 6 
#
# 1 66.5921 33.9659 27.7706 0.0000 0.5958 0.0000
# 2 33.9659 224.5799 80.6764 0.0000 0.7292 0.0000
# 3 27.7706 80.6764 126.1961 0.0000 0.2188 0.0000
# 4 0.0000 0.0000 0.0000 31.3758 0.0000 4.4975
# 5 0.5958 0.7292 0.2188 0.0000 27.5828 0.0000
# 6 0.0000 0.0000 0.0000 4.4975 0.0000 34.0419
#
#
#
# Elastic Compliance Matrix: (Units=1/GPa)
#
#
# Indices 1 2 3 4 5 6 
#
# 1 0.016963 -0.001589 -0.002717 0.000000 -0.000303 0.000000
# 2 -0.001589 0.005929 -0.003441 0.000000 -0.000095 0.000000
# 3 -0.002717 -0.003441 0.010722 0.000000 0.000065 0.000000
# 4 0.000000 0.000000 0.000000 0.032487 0.000000 -0.004292
# 5 -0.000303 -0.000095 0.000065 0.000000 0.036263 0.000000
# 6 0.000000 0.000000 0.000000 -0.004292 0.000000 0.029943
#
#
# Mechanical properties :
#
#
# Convention : Reuss Voigt Hill
#
# Bulk Modulus (GPa) = 55.18332 78.02155 66.60243
# Shear Modulus (GPa) = 32.50146 36.93043 34.71594
#
# Velocity S-wave (km/s) = 3.81348 4.06501 3.94125
# Velocity P-wave (km/s) = 6.63940 7.54604 7.10719
#
# Compressibility (1/GPa) = 0.01812142
#
# Stress axis : x y z
#
# Youngs Moduli (GPa) = 58.95286 168.65109 93.26931
#
# Poissons Ratio (x) = 0.26791 0.25339
# Poissons Ratio (y) = 0.09365 0.32093
# Poissons Ratio (z) = 0.16016 0.58031
#
# Static dielectric constant tensor:
#      x y z
#    x 1.919110 0.000000 0.023140 
#    y 0.000000 1.834960 0.000000 
#    z 0.023140 0.000000 1.867660 
# 
# From -- ./inp_files/21799.got.cif
#   From: 2010.05.17/outbox.cif.g08.bks.cpg/sg12_11_cif.got.tgz:21799.got - 2010.06.03 13:09:07.
