data_PCOD9218437
_publ_section_title
;
Structure prediction by ZEFSAII (Michael W. Deem and Ramdas Pophale) SiO2 
 PCOD9218437
Probable space group: C 2/M
;
_chemical_formula_sum "Si O2"
_cell_formula_units_Z 36
_cell_length_a 11.579084
_cell_length_b 26.827414
_cell_length_c 7.958637
_cell_angle_alpha 90.000000
_cell_angle_beta 36.807505
_cell_angle_gamma 90.000000
_cell_volume 1481.193086
_symmetry_space_group_name_H-M "C 2/M"
_symmetry_group_IT_number 12
_symmetry_cell_setting 'monoclinic'
loop_
_space_group_symop_operation_xyz
x,y,z
-x,y,-z
-x,-y,-z
x,-y,z
1/2+x,1/2+y,z
1/2-x,1/2+y,-z
1/2-x,1/2-y,-z
1/2+x,1/2-y,z
loop_
_atom_site_type_symbol
_atom_site_label
_atom_site_fract_x
_atom_site_fract_y
_atom_site_fract_z
Si Si1 0.192560 0.682534 0.510511
Si Si2 0.577433 0.500000 0.666629
Si Si3 0.015742 0.894060 0.684913
Si Si4 0.500000 0.745274 0.000000
Si Si5 0.577137 0.090841 0.246651
Si Si6 0.675982 0.000000 0.953051
O O1 0.357433 0.654983 0.431090
O O2 0.058224 0.637866 0.612995
O O3 0.309655 0.710320 0.225819
O O4 0.057292 0.719774 0.775749
O O5 0.599992 0.441863 0.692544
O O6 0.348726 0.500000 0.889537
O O7 0.712866 0.500000 0.347952
O O8 0.000000 0.904195 0.500000
O O9 0.795909 0.890167 0.999603
O O10 0.500000 0.062754 0.500000
O O11 0.565081 0.050908 0.111831
#
# Coordination Sequence:
#
# PCOD9218437 Si02
#       6
#     8   4   8   4   8   4
#     4  11  24  43  64  86 119 158 202 252 304 352
#     4   9  16  35  59  91 127 154 190 243 281 345
#     4  11  20  39  64  91 122 159 197 238 294 359
#     4  10  24  46  60  84 124 150 198 276 300 326
#     4  11  22  38  62  93 124 159 195 238 297 360
#     4   9  17  35  57  91 129 155 188 240 285 351
#
# _framework density 24.304732000000001
#
# number of rings (size 3 to 8) (size 9 to 14) (size 15 to 20)
#    0.000    1.556    4.444    3.000    0.000    0.889 
#    0.000   23.333    0.000    6.667    0.000    0.000 
#    0.000    0.000    0.000    0.000    0.000    0.000 
#
# Total GULP energy -100420.534270 kJ/mol
# GULP energy per Si atom -5578.918571 kJ/mol
# Density = 2.424941 g / cm^3
# Si number density = 24.304732 Si / 1000 Ang^3
#
#
#
# Elastic Constant Matrix: (Units=GPa)
#
#
# Indices 1 2 3 4 5 6 
#
# 1 43.4990 31.1384 35.7208 0.0000 -11.4289 0.0000
# 2 31.1384 155.7385 70.4455 0.0000 -12.2135 0.0000
# 3 35.7208 70.4455 212.9431 0.0000 -11.7475 0.0000
# 4 0.0000 0.0000 0.0000 56.6990 0.0000 -14.8446
# 5 -11.4289 -12.2135 -11.7475 0.0000 28.7230 0.0000
# 6 0.0000 0.0000 0.0000 -14.8446 0.0000 12.6472
#
#
#
# Elastic Compliance Matrix: (Units=1/GPa)
#
#
# Indices 1 2 3 4 5 6 
#
# 1 0.031035 -0.003944 -0.003389 0.000000 0.009286 0.000000
# 2 -0.003944 0.008196 -0.001989 0.000000 0.001102 0.000000
# 3 -0.003389 -0.001989 0.005935 0.000000 0.000233 0.000000
# 4 0.000000 0.000000 0.000000 0.025461 0.000000 0.029885
# 5 0.009286 0.001102 0.000233 0.000000 0.039074 0.000000
# 6 0.000000 0.000000 0.000000 0.029885 0.000000 0.114147
#
#
# Mechanical properties :
#
#
# Convention : Reuss Voigt Hill
#
# Bulk Modulus (GPa) = 37.70405 76.31002 57.00703
# Shear Modulus (GPa) = 19.89392 37.93889 28.91641
#
# Velocity S-wave (km/s) = 2.86408 3.95519 3.45301
# Velocity P-wave (km/s) = 5.14626 7.23349 6.27724
#
# Compressibility (1/GPa) = 0.02652235
#
# Stress axis : x y z
#
# Youngs Moduli (GPa) = 32.22159 122.01602 168.47981
#
# Poissons Ratio (x) = 0.48123 0.57099
# Poissons Ratio (y) = 0.12708 0.33509
# Poissons Ratio (z) = 0.10920 0.24267
#
# Static dielectric constant tensor:
#      x y z
#    x 2.059350 0.000000 0.024200 
#    y 0.000000 2.015120 0.000000 
#    z 0.024200 0.000000 1.906920 
# 
# From -- ./inp_files/68009.got.cif
#   From: 2010.05.17/outbox.cif.g08.bks.cpg/sg12_35_cif.got.tgz:68009.got - 2010.06.03 13:09:07.
