data_PCOD9218901
_publ_section_title
;
Structure prediction by ZEFSAII (Michael W. Deem and Ramdas Pophale) SiO2 
 PCOD9218901
Probable space group: C 2/M
;
_chemical_formula_sum "Si O2"
_cell_formula_units_Z 56
_cell_length_a 16.369162
_cell_length_b 25.905520
_cell_length_c 9.640809
_cell_angle_alpha 90.000000
_cell_angle_beta 125.909215
_cell_angle_gamma 90.000000
_cell_volume 3311.227452
_symmetry_space_group_name_H-M "C 2/M"
_symmetry_group_IT_number 12
_symmetry_cell_setting 'monoclinic'
loop_
_space_group_symop_operation_xyz
x,y,z
-x,y,-z
-x,-y,-z
x,-y,z
1/2+x,1/2+y,z
1/2-x,1/2+y,-z
1/2-x,1/2-y,-z
1/2+x,1/2-y,z
loop_
_atom_site_type_symbol
_atom_site_label
_atom_site_fract_x
_atom_site_fract_y
_atom_site_fract_z
Si Si1 0.864352 0.386311 0.591101
Si Si2 0.694516 0.169723 0.208052
Si Si3 0.134638 0.500000 0.478788
Si Si4 0.601367 0.108412 0.891551
Si Si5 0.685050 0.173946 0.730281
Si Si6 0.389422 0.000000 0.226081
Si Si7 0.098831 0.214157 0.683658
Si Si8 0.601159 0.278894 0.020206
O O1 0.806623 0.345896 0.632274
O O2 0.831018 0.446381 0.556631
O O3 0.852373 0.365104 0.423816
O O4 0.982029 0.385949 0.750103
O O5 0.806228 0.178077 0.259418
O O6 0.633675 0.221660 0.106052
O O7 0.636291 0.122363 0.079012
O O8 0.156366 0.500000 0.665210
O O9 0.011972 0.500000 0.354833
O O10 0.654417 0.150334 0.846531
O O11 0.636379 0.052141 0.879297
O O12 0.630294 0.228931 0.661258
O O13 0.804025 0.185083 0.847208
O O14 0.000000 0.198164 0.500000
O O15 0.086964 0.218976 0.838884
O O16 0.500000 0.293484 0.000000
#
# Coordination Sequence:
#
# PCOD9218901 Si02
#       8
#     8   8   4   8   8   4   8   8
#     4  11  22  32  57  82 113 147 179 220 268 329
#     4  11  23  37  53  80 115 145 182 218 270 325
#     4   9  18  33  47  83 112 137 180 227 264 315
#     4  11  18  36  53  81 109 149 178 219 272 315
#     4  11  21  35  56  79 110 146 183 213 269 325
#     4   9  18  29  55  77 108 143 185 220 264 325
#     4  11  23  38  56  79 111 144 183 226 267 317
#     4  11  23  38  55  80 113 140 182 233 262 313
#
# _framework density 16.912158000000002
#
# number of rings (size 3 to 8) (size 9 to 14) (size 15 to 20)
#    0.000    1.286    4.286    3.429    4.000    1.714 
#    0.000    2.143    0.000    0.000    0.000    6.000 
#    0.000    0.000    0.000    0.000    0.000    0.000 
#
# Total GULP energy -156237.129190 kJ/mol
# GULP energy per Si atom -5579.897471 kJ/mol
# Density = 1.687367 g / cm^3
# Si number density = 16.912158 Si / 1000 Ang^3
#
#
#
# Elastic Constant Matrix: (Units=GPa)
#
#
# Indices 1 2 3 4 5 6 
#
# 1 88.1254 15.2254 14.6939 0.0000 4.0693 0.0000
# 2 15.2254 62.8956 3.0515 0.0000 8.0231 0.0000
# 3 14.6939 3.0515 47.2193 0.0000 10.3023 0.0000
# 4 0.0000 0.0000 0.0000 17.7616 0.0000 -2.6480
# 5 4.0693 8.0231 10.3023 0.0000 24.9717 0.0000
# 6 0.0000 0.0000 0.0000 -2.6480 0.0000 14.1541
#
#
#
# Elastic Compliance Matrix: (Units=1/GPa)
#
#
# Indices 1 2 3 4 5 6 
#
# 1 0.012458 -0.002891 -0.003791 0.000000 0.000463 0.000000
# 2 -0.002891 0.017250 0.000979 0.000000 -0.005475 0.000000
# 3 -0.003791 0.000979 0.024427 0.000000 -0.009774 0.000000
# 4 0.000000 0.000000 0.000000 0.057917 0.000000 0.010835
# 5 0.000463 -0.005475 -0.009774 0.000000 0.045762 0.000000
# 6 0.000000 0.000000 0.000000 0.010835 0.000000 0.072678
#
#
# Mechanical properties :
#
#
# Convention : Reuss Voigt Hill
#
# Bulk Modulus (GPa) = 23.40271 29.35355 26.37813
# Shear Modulus (GPa) = 19.52070 22.39544 20.95807
#
# Velocity S-wave (km/s) = 3.40110 3.64293 3.52409
# Velocity P-wave (km/s) = 5.41213 5.92358 5.67362
#
# Compressibility (1/GPa) = 0.04273009
#
# Stress axis : x y z
#
# Youngs Moduli (GPa) = 80.27229 57.97089 40.93883
#
# Poissons Ratio (x) = 0.16758 0.15519
# Poissons Ratio (y) = 0.23205 -0.04010
# Poissons Ratio (z) = 0.30429 -0.05678
#
# Static dielectric constant tensor:
#      x y z
#    x 1.565210 0.000000 -0.003500 
#    y 0.000000 1.565460 0.000000 
#    z -0.003500 0.000000 1.563110 
# 
# From -- ./inp_files/65817.got.cif
#   From: 2010.05.17/outbox.cif.g08.bks.cpg/sg12_33_cif.got.tgz:65817.got - 2010.06.03 13:09:07.
