data_PCOD9218265
_publ_section_title
;
Structure prediction by ZEFSAII (Michael W. Deem and Ramdas Pophale) SiO2 
 PCOD9218265
Probable space group: C 2/M
;
_chemical_formula_sum "Si O2"
_cell_formula_units_Z 44
_cell_length_a 19.459199
_cell_length_b 9.323205
_cell_length_c 11.796687
_cell_angle_alpha 90.000000
_cell_angle_beta 113.804638
_cell_angle_gamma 90.000000
_cell_volume 1958.108231
_symmetry_space_group_name_H-M "C 2/M"
_symmetry_group_IT_number 12
_symmetry_cell_setting 'monoclinic'
loop_
_space_group_symop_operation_xyz
x,y,z
-x,y,-z
-x,-y,-z
x,-y,z
1/2+x,1/2+y,z
1/2-x,1/2+y,-z
1/2-x,1/2-y,-z
1/2+x,1/2-y,z
loop_
_atom_site_type_symbol
_atom_site_label
_atom_site_fract_x
_atom_site_fract_y
_atom_site_fract_z
Si Si1 0.306118 0.248538 0.901574
Si Si2 0.072652 0.826400 0.619544
Si Si3 0.951185 0.166958 0.137799
Si Si4 0.825084 0.828215 0.511474
Si Si5 0.729172 0.000000 0.939774
Si Si6 0.595701 0.167901 0.241671
O O1 0.245069 0.372723 0.857013
O O2 0.337902 0.190741 0.804513
O O3 0.377847 0.322378 0.011851
O O4 0.280656 0.122290 0.966812
O O5 0.070508 0.783610 0.749097
O O6 0.146021 0.791645 0.595079
O O7 0.000000 0.775221 0.500000
O O8 0.068692 0.000000 0.618800
O O9 0.017344 0.271170 0.142015
O O10 0.975841 0.000000 0.156110
O O11 0.750000 0.750000 0.500000
O O12 0.887400 0.767682 0.639297
O O13 0.818244 0.000000 0.516108
O O14 0.590219 0.000000 0.266432
#
# Coordination Sequence:
#
# PCOD9218265 Si02
#       6
#     8   8   8   8   4   8
#     4  11  24  44  67  97 134 174 225 274 342 407
#     4   9  18  40  67  93 130 170 215 269 326 395
#     4  11  23  41  71  99 128 176 225 277 341 406
#     4  11  24  44  70 101 136 179 224 276 340 401
#     4  10  24  44  64  90 136 176 218 270 334 414
#     4  12  26  43  67  96 138 174 223 289 336 393
#
# _framework density 22.470666999999999
#
# number of rings (size 3 to 8) (size 9 to 14) (size 15 to 20)
#    0.000    1.273    3.636    1.636    3.818    4.364 
#    3.273    2.727    0.000    0.000    0.000    0.000 
#    0.000    0.000    0.000    0.000    0.000    0.000 
#
# Total GULP energy -122503.461386 kJ/mol
# GULP energy per Si atom -5568.339154 kJ/mol
# Density = 2.241952 g / cm^3
# Si number density = 22.470667 Si / 1000 Ang^3
#
#
#
# Elastic Constant Matrix: (Units=GPa)
#
#
# Indices 1 2 3 4 5 6 
#
# 1 77.5672 44.2190 7.1146 0.0000 -21.5333 0.0000
# 2 44.2190 147.7316 9.9045 0.0000 -14.9187 0.0000
# 3 7.1146 9.9045 67.3219 0.0000 -10.1309 0.0000
# 4 0.0000 0.0000 0.0000 25.2908 0.0000 0.3686
# 5 -21.5333 -14.9187 -10.1309 0.0000 33.5697 0.0000
# 6 0.0000 0.0000 0.0000 0.3686 0.0000 32.3522
#
#
#
# Elastic Compliance Matrix: (Units=1/GPa)
#
#
# Indices 1 2 3 4 5 6 
#
# 1 0.018103 -0.004453 0.000201 0.000000 0.009694 0.000000
# 2 -0.004453 0.008205 -0.000647 0.000000 0.000595 0.000000
# 3 0.000201 -0.000647 0.015613 0.000000 0.004553 0.000000
# 4 0.000000 0.000000 0.000000 0.039547 0.000000 -0.000451
# 5 0.009694 0.000595 0.004553 0.000000 0.037645 0.000000
# 6 0.000000 0.000000 0.000000 -0.000451 0.000000 0.030915
#
#
# Mechanical properties :
#
#
# Convention : Reuss Voigt Hill
#
# Bulk Modulus (GPa) = 31.13040 46.12188 38.62614
# Shear Modulus (GPa) = 29.31939 33.66805 31.49372
#
# Velocity S-wave (km/s) = 3.61610 3.87500 3.74779
# Velocity P-wave (km/s) = 5.59632 6.37109 5.99623
#
# Compressibility (1/GPa) = 0.03212294
#
# Stress axis : x y z
#
# Youngs Moduli (GPa) = 55.23815 121.87073 64.04856
#
# Poissons Ratio (x) = 0.54272 -0.01286
# Poissons Ratio (y) = 0.24599 0.04144
# Poissons Ratio (z) = -0.01109 0.07886
#
# Static dielectric constant tensor:
#      x y z
#    x 1.921020 0.000000 0.055700 
#    y 0.000000 1.760240 0.000000 
#    z 0.055700 0.000000 1.880840 
# 
# From -- ./inp_files/163128.got.cif
#   From: 2010.05.17/outbox.cif.g08.bks.cpg/sg12_82_cif.got.tgz:163128.got - 2010.06.03 13:09:07.
