data_PCOD9218853
_publ_section_title
;
Structure prediction by ZEFSAII (Michael W. Deem and Ramdas Pophale) SiO2 
 PCOD9218853
Probable space group: C 2/M
;
_chemical_formula_sum "Si O2"
_cell_formula_units_Z 40
_cell_length_a 26.562271
_cell_length_b 20.312379
_cell_length_c 9.606690
_cell_angle_alpha 90.000000
_cell_angle_beta 151.520032
_cell_angle_gamma 90.000000
_cell_volume 2471.626834
_symmetry_space_group_name_H-M "C 2/M"
_symmetry_group_IT_number 12
_symmetry_cell_setting 'monoclinic'
loop_
_space_group_symop_operation_xyz
x,y,z
-x,y,-z
-x,-y,-z
x,-y,z
1/2+x,1/2+y,z
1/2-x,1/2+y,-z
1/2-x,1/2-y,-z
1/2+x,1/2-y,z
loop_
_atom_site_type_symbol
_atom_site_label
_atom_site_fract_x
_atom_site_fract_y
_atom_site_fract_z
Si Si1 0.729482 0.815128 0.355937
Si Si2 0.772799 0.273440 0.210446
Si Si3 0.996248 0.723251 0.155833
Si Si4 0.601167 0.576111 0.147779
Si Si5 0.567162 0.346736 0.803680
O O1 0.750000 0.750000 0.500000
O O2 0.761229 0.790850 0.280200
O O3 0.803471 0.874362 0.583358
O O4 0.603545 0.824540 0.061554
O O5 0.889415 0.301610 0.519269
O O6 0.750000 0.250000 0.000000
O O7 0.684158 0.324562 0.043462
O O8 0.975282 0.787255 0.200948
O O9 0.000000 0.739273 0.000000
O O10 0.630432 0.500000 0.238086
O O11 0.500000 0.590007 0.000000
O O12 0.569806 0.591238 0.912145
O O13 0.500000 0.353478 0.500000
#
# Coordination Sequence:
#
# PCOD9218853 Si02
#       5
#     8   8   8   8   8
#     4  11  20  32  56  81 105 141 185 234 273 324
#     4  11  20  30  52  85 114 141 175 235 285 329
#     4  11  18  31  52  79 113 140 180 225 284 322
#     4  11  23  39  57  80 112 153 191 229 278 336
#     4  11  20  31  52  81 114 144 179 230 278 329
#
# _framework density 16.183672999999999
#
# number of rings (size 3 to 8) (size 9 to 14) (size 15 to 20)
#    0.000    1.000    8.000    1.800    0.000    0.400 
#    0.000    0.000    0.000    5.400    0.000    1.400 
#    0.000    0.000    0.000    0.000    0.000    0.000 
#
# Total GULP energy -111574.589424 kJ/mol
# GULP energy per Si atom -5578.729471 kJ/mol
# Density = 1.614684 g / cm^3
# Si number density = 16.183673 Si / 1000 Ang^3
#
#
#
# Elastic Constant Matrix: (Units=GPa)
#
#
# Indices 1 2 3 4 5 6 
#
# 1 112.2091 37.3435 63.4489 0.0000 -10.6006 0.0000
# 2 37.3435 80.8535 48.2182 0.0000 4.9519 0.0000
# 3 63.4489 48.2182 155.5073 0.0000 9.3776 0.0000
# 4 0.0000 0.0000 0.0000 17.1497 0.0000 3.0789
# 5 -10.6006 4.9519 9.3776 0.0000 45.3590 0.0000
# 6 0.0000 0.0000 0.0000 3.0789 0.0000 14.6550
#
#
#
# Elastic Compliance Matrix: (Units=1/GPa)
#
#
# Indices 1 2 3 4 5 6 
#
# 1 0.013060 -0.003637 -0.004464 0.000000 0.004372 0.000000
# 2 -0.003637 0.016208 -0.003426 0.000000 -0.001911 0.000000
# 3 -0.004464 -0.003426 0.009473 0.000000 -0.002628 0.000000
# 4 0.000000 0.000000 0.000000 0.060596 0.000000 -0.012731
# 5 0.004372 -0.001911 -0.002628 0.000000 0.023820 0.000000
# 6 0.000000 0.000000 0.000000 -0.012731 0.000000 0.070911
#
#
# Mechanical properties :
#
#
# Convention : Reuss Voigt Hill
#
# Bulk Modulus (GPa) = 63.75510 71.84346 67.79928
# Shear Modulus (GPa) = 22.48683 28.73669 25.61176
#
# Velocity S-wave (km/s) = 3.73161 4.21843 3.98247
# Velocity P-wave (km/s) = 7.61884 8.25928 7.94552
#
# Compressibility (1/GPa) = 0.01568502
#
# Stress axis : x y z
#
# Youngs Moduli (GPa) = 76.57019 61.69624 105.56280
#
# Poissons Ratio (x) = 0.22440 0.47128
# Poissons Ratio (y) = 0.27851 0.36171
# Poissons Ratio (z) = 0.34184 0.21140
#
# Static dielectric constant tensor:
#      x y z
#    x 1.573150 0.000000 0.008360 
#    y 0.000000 1.515920 0.000000 
#    z 0.008360 0.000000 1.588620 
# 
# From -- ./inp_files/48588.got.cif
#   From: 2010.05.17/outbox.cif.g08.bks.cpg/sg12_25_cif.got.tgz:48588.got - 2010.06.03 13:09:07.
