data_PCOD9218560
_publ_section_title
;
Structure prediction by ZEFSAII (Michael W. Deem and Ramdas Pophale) SiO2 
 PCOD9218560
Probable space group: C 2/M
;
_chemical_formula_sum "Si O2"
_cell_formula_units_Z 44
_cell_length_a 9.095061
_cell_length_b 17.593230
_cell_length_c 16.636254
_cell_angle_alpha 90.000000
_cell_angle_beta 52.427931
_cell_angle_gamma 90.000000
_cell_volume 2109.860187
_symmetry_space_group_name_H-M "C 2/M"
_symmetry_group_IT_number 12
_symmetry_cell_setting 'monoclinic'
loop_
_space_group_symop_operation_xyz
x,y,z
-x,y,-z
-x,-y,-z
x,-y,z
1/2+x,1/2+y,z
1/2-x,1/2+y,-z
1/2-x,1/2-y,-z
1/2+x,1/2-y,z
loop_
_atom_site_type_symbol
_atom_site_label
_atom_site_fract_x
_atom_site_fract_y
_atom_site_fract_z
Si Si1 0.610567 0.844295 0.262407
Si Si2 0.735293 0.500000 0.017348
Si Si3 0.526806 0.410510 0.395544
Si Si4 0.163936 0.331476 0.508319
Si Si5 0.000000 0.371118 0.000000
Si Si6 0.811926 0.000000 0.159361
Si Si7 0.159087 0.696364 0.786102
O O1 0.436167 0.859613 0.378134
O O2 0.745403 0.778733 0.251029
O O3 0.521288 0.813042 0.209742
O O4 0.716545 0.922766 0.218668
O O5 0.848633 0.426714 0.009449
O O6 0.524265 0.500000 0.117196
O O7 0.713788 0.500000 0.928568
O O8 0.500000 0.392632 0.500000
O O9 0.562243 0.500000 0.375992
O O10 0.328904 0.385797 0.424884
O O11 0.688127 0.362828 0.299117
O O12 0.250000 0.250000 0.500000
O O13 0.000000 0.323020 0.500000
O O14 0.901645 0.322941 0.102849
#
# Coordination Sequence:
#
# PCOD9218560 Si02
#       7
#     8   4   8   8   4   4   8
#     4  12  27  46  73 106 143 191 234 296 359 423
#     4  10  24  48  72 105 138 192 233 299 355 410
#     4  11  25  44  72 103 141 190 239 291 354 427
#     4  12  24  44  68 100 142 184 235 290 353 421
#     4  11  26  46  76 105 144 186 246 291 352 430
#     4  11  26  48  75 100 148 184 239 293 362 422
#     4  12  27  46  72 106 146 187 241 294 356 427
#
# _framework density 20.854464
#
# number of rings (size 3 to 8) (size 9 to 14) (size 15 to 20)
#    0.000    0.545    5.455    1.636    7.636    2.545 
#    0.000    0.000    0.000    0.000    0.000    0.000 
#    0.000    0.000    0.000    0.000    0.000    0.000 
#
# Total GULP energy -123115.221166 kJ/mol
# GULP energy per Si atom -5596.146417 kJ/mol
# Density = 2.080700 g / cm^3
# Si number density = 20.854464 Si / 1000 Ang^3
#
#
#
# Elastic Constant Matrix: (Units=GPa)
#
#
# Indices 1 2 3 4 5 6 
#
# 1 104.8608 33.0737 23.5655 0.0000 -21.1792 0.0000
# 2 33.0737 136.5977 50.2931 0.0000 -23.9527 0.0000
# 3 23.5655 50.2931 115.5711 0.0000 -13.6185 0.0000
# 4 0.0000 0.0000 0.0000 29.0976 0.0000 13.5070
# 5 -21.1792 -23.9527 -13.6185 0.0000 33.8611 0.0000
# 6 0.0000 0.0000 0.0000 13.5070 0.0000 -2.5619
#
#
#
# Elastic Compliance Matrix: (Units=1/GPa)
#
#
# Indices 1 2 3 4 5 6 
#
# 1 0.011356 -0.001360 -0.001050 0.000000 0.005719 0.000000
# 2 -0.001360 0.009720 -0.003404 0.000000 0.004656 0.000000
# 3 -0.001050 -0.003404 0.010484 0.000000 0.001152 0.000000
# 4 0.000000 0.000000 0.000000 0.009969 0.000000 0.052560
# 5 0.005719 0.004656 0.001152 0.000000 0.036866 0.000000
# 6 0.000000 0.000000 0.000000 0.052560 0.000000 -0.113228
#
#
# Mechanical properties :
#
#
# Convention : Reuss Voigt Hill
#
# Bulk Modulus (GPa) = 50.17035 63.43268 56.80151
# Shear Modulus (GPa) = -301.91322 28.75252 -136.58035
#
# Velocity S-wave (km/s) = -12.04516 3.71714 -8.10150
# Velocity P-wave (km/s) = 13.01300 6.99326 7.75991
#
# Compressibility (1/GPa) = 0.01993209
#
# Stress axis : x y z
#
# Youngs Moduli (GPa) = 88.05558 102.88332 95.38619
#
# Poissons Ratio (x) = 0.13996 0.10013
# Poissons Ratio (y) = 0.11979 0.32467
# Poissons Ratio (z) = 0.09244 0.35019
#
# Static dielectric constant tensor:
#      x y z
#    x 1.947830 0.000000 -0.060030 
#    y 0.000000 1.649980 0.000000 
#    z -0.060030 0.000000 1.808140 
# 
# From -- ./inp_files/256897.got.cif
#   From: 2010.05.17/outbox.cif.g08.bks.cpg/sg12_129_cif.got.tgz:256897.got - 2010.06.03 13:09:07.
