data_PCOD9218848
_publ_section_title
;
Structure prediction by ZEFSAII (Michael W. Deem and Ramdas Pophale) SiO2 
 PCOD9218848
Probable space group: C 2/M
;
_chemical_formula_sum "Si O2"
_cell_formula_units_Z 64
_cell_length_a 31.549057
_cell_length_b 14.129422
_cell_length_c 17.358240
_cell_angle_alpha 90.000000
_cell_angle_beta 149.927334
_cell_angle_gamma 90.000000
_cell_volume 3877.386451
_symmetry_space_group_name_H-M "C 2/M"
_symmetry_group_IT_number 12
_symmetry_cell_setting 'monoclinic'
loop_
_space_group_symop_operation_xyz
x,y,z
-x,y,-z
-x,-y,-z
x,-y,z
1/2+x,1/2+y,z
1/2-x,1/2+y,-z
1/2-x,1/2-y,-z
1/2+x,1/2-y,z
loop_
_atom_site_type_symbol
_atom_site_label
_atom_site_fract_x
_atom_site_fract_y
_atom_site_fract_z
Si Si1 0.090400 0.745484 0.612367
Si Si2 0.259091 0.387982 0.147857
Si Si3 0.682129 0.607767 0.084375
Si Si4 0.866497 0.609594 0.450921
Si Si5 0.887036 0.700815 0.976709
Si Si6 0.790308 0.388857 0.106721
Si Si7 0.072126 0.613568 0.284093
Si Si8 0.102665 0.391245 0.165516
O O1 0.156314 0.829625 0.700933
O O2 0.083083 0.680714 0.524704
O O3 0.134768 0.677413 0.745518
O O4 0.000000 0.778238 0.500000
O O5 0.269912 0.500000 0.175376
O O6 0.182667 0.350261 0.079955
O O7 0.235951 0.370358 0.021858
O O8 0.651205 0.500000 0.041491
O O9 0.769246 0.615739 0.270360
O O10 0.620335 0.688332 0.016846
O O11 0.713054 0.626156 0.045269
O O12 0.893226 0.500000 0.480940
O O13 0.879158 0.632629 0.560244
O O14 0.867794 0.674431 0.857619
O O15 0.980379 0.661919 0.141482
O O16 0.813914 0.500000 0.151325
O O17 0.058433 0.500000 0.257047
O O18 0.120379 0.639894 0.280970
O O19 0.131170 0.500000 0.197942
O O20 0.000000 0.392401 0.000000
#
# Coordination Sequence:
#
# PCOD9218848 Si02
#       8
#     8   8   8   8   8   8   8   8
#     4  11  22  33  49  69 101 135 161 196 249 289
#     4  11  22  34  50  72  97 128 171 206 235 285
#     4   9  18  33  51  70  99 134 162 197 240 288
#     4   9  18  34  51  72 100 128 163 201 244 291
#     4  11  18  30  54  77  97 124 162 204 248 285
#     4   9  19  35  51  71  98 125 162 210 247 279
#     4   9  18  31  52  79 102 123 156 203 250 295
#     4   8  15  29  47  74 105 125 150 195 253 296
#
# _framework density 16.505963999999999
#
# number of rings (size 3 to 8) (size 9 to 14) (size 15 to 20)
#    0.000    2.375    2.500    3.375    1.750    1.250 
#    0.000    0.625    0.000    4.125    0.000    0.000 
#    0.000    0.000    0.000    0.000    0.000    0.000 
#
# Total GULP energy -178391.857505 kJ/mol
# GULP energy per Si atom -5574.745547 kJ/mol
# Density = 1.646840 g / cm^3
# Si number density = 16.505964 Si / 1000 Ang^3
#
#
#
# Elastic Constant Matrix: (Units=GPa)
#
#
# Indices 1 2 3 4 5 6 
#
# 1 116.5794 53.9392 34.6767 0.0000 -20.2708 0.0000
# 2 53.9392 76.3378 16.9560 0.0000 -2.8592 0.0000
# 3 34.6767 16.9560 18.3470 0.0000 -9.4906 0.0000
# 4 0.0000 0.0000 0.0000 12.4705 0.0000 5.5114
# 5 -20.2708 -2.8592 -9.4906 0.0000 22.3860 0.0000
# 6 0.0000 0.0000 0.0000 5.5114 0.0000 23.5371
#
#
#
# Elastic Compliance Matrix: (Units=1/GPa)
#
#
# Indices 1 2 3 4 5 6 
#
# 1 0.023833 -0.009214 -0.033272 0.000000 0.006298 0.000000
# 2 -0.009214 0.020607 -0.005873 0.000000 -0.008201 0.000000
# 3 -0.033272 -0.005873 0.136858 0.000000 0.027143 0.000000
# 4 0.000000 0.000000 0.000000 0.089446 0.000000 -0.020944
# 5 0.006298 -0.008201 0.027143 0.000000 0.060834 0.000000
# 6 0.000000 0.000000 0.000000 -0.020944 0.000000 0.047390
#
#
# Mechanical properties :
#
#
# Convention : Reuss Voigt Hill
#
# Bulk Modulus (GPa) = 11.82290 46.93422 29.37856
# Shear Modulus (GPa) = 9.92304 18.72489 14.32396
#
# Velocity S-wave (km/s) = 2.45456 3.37179 2.94905
# Velocity P-wave (km/s) = 3.90019 6.60719 5.42524
#
# Compressibility (1/GPa) = 0.08458159
#
# Stress axis : x y z
#
# Youngs Moduli (GPa) = 41.95899 48.52668 7.30685
#
# Poissons Ratio (x) = 0.44711 0.24311
# Poissons Ratio (y) = 0.38660 0.04291
# Poissons Ratio (z) = 1.39605 0.28498
#
# Static dielectric constant tensor:
#      x y z
#    x 1.568480 0.000000 -0.026470 
#    y 0.000000 1.567870 0.000000 
#    z -0.026470 0.000000 1.540690 
# 
# From -- ./inp_files/296697.got.cif
#   From: 2010.05.17/outbox.cif.g08.bks.cpg/sg12_149_cif.got.tgz:296697.got - 2010.06.03 13:09:07.
