data_PCOD9218350
_publ_section_title
;
Structure prediction by ZEFSAII (Michael W. Deem and Ramdas Pophale) SiO2 
 PCOD9218350
Probable space group: C 2/M
;
_chemical_formula_sum "Si O2"
_cell_formula_units_Z 38
_cell_length_a 12.036064
_cell_length_b 19.675189
_cell_length_c 11.136652
_cell_angle_alpha 90.000000
_cell_angle_beta 143.740264
_cell_angle_gamma 90.000000
_cell_volume 1559.816984
_symmetry_space_group_name_H-M "C 2/M"
_symmetry_group_IT_number 12
_symmetry_cell_setting 'monoclinic'
loop_
_space_group_symop_operation_xyz
x,y,z
-x,y,-z
-x,-y,-z
x,-y,z
1/2+x,1/2+y,z
1/2-x,1/2+y,-z
1/2-x,1/2-y,-z
1/2+x,1/2-y,z
loop_
_atom_site_type_symbol
_atom_site_label
_atom_site_fract_x
_atom_site_fract_y
_atom_site_fract_z
Si Si1 0.500000 0.000000 0.000000
Si Si2 0.771671 0.920192 0.813067
Si Si3 0.537989 0.676745 0.400413
Si Si4 0.500000 0.238965 0.000000
Si Si5 0.325108 0.877148 0.012004
Si Si6 0.310931 0.815853 0.440725
O O1 0.412476 0.060124 0.014327
O O2 0.680179 0.887005 0.616663
O O3 0.742525 0.000000 0.795873
O O4 0.671631 0.887053 0.842537
O O5 0.000000 0.910233 0.000000
O O6 0.500000 0.650669 0.500000
O O7 0.397726 0.633618 0.199363
O O8 0.527979 0.759030 0.401251
O O9 0.737367 0.669263 0.510661
O O10 0.398428 0.190753 0.008920
O O11 0.347222 0.279302 0.785217
#
# Coordination Sequence:
#
# PCOD9218350 Si02
#       6
#     2   8   8   4   8   8
#     4  10  24  44  72 100 140 174 242 280 338 430
#     4  11  22  40  71 101 136 182 235 285 341 418
#     4  11  23  40  62  97 143 180 221 289 353 413
#     4  11  22  37  67 100 133 176 244 288 333 404
#     4  11  22  42  69 100 134 183 230 289 345 405
#     4  11  23  39  64 105 136 178 233 289 347 412
#
# _framework density 24.361833000000001
#
# number of rings (size 3 to 8) (size 9 to 14) (size 15 to 20)
#    0.000    1.053    6.316    0.000    2.947    1.684 
#    0.000    0.526    0.000    0.632    0.000    0.000 
#    0.000    0.000    0.000    0.000    0.000    0.000 
#
# Total GULP energy -105819.312800 kJ/mol
# GULP energy per Si atom -5569.437516 kJ/mol
# Density = 2.430638 g / cm^3
# Si number density = 24.361833 Si / 1000 Ang^3
#
#
#
# Elastic Constant Matrix: (Units=GPa)
#
#
# Indices 1 2 3 4 5 6 
#
# 1 192.9060 16.2116 11.0887 0.0000 -21.1088 0.0000
# 2 16.2116 60.3258 7.7189 0.0000 -11.4384 0.0000
# 3 11.0887 7.7189 64.5183 0.0000 -18.0173 0.0000
# 4 0.0000 0.0000 0.0000 -41.6023 0.0000 -44.0344
# 5 -21.1088 -11.4384 -18.0173 0.0000 38.5700 0.0000
# 6 0.0000 0.0000 0.0000 -44.0344 0.0000 2.5440
#
#
#
# Elastic Compliance Matrix: (Units=1/GPa)
#
#
# Indices 1 2 3 4 5 6 
#
# 1 0.005568 -0.000970 -0.000081 0.000000 0.002722 0.000000
# 2 -0.000970 0.017764 -0.000731 0.000000 0.004396 0.000000
# 3 -0.000081 -0.000731 0.017857 0.000000 0.008081 0.000000
# 4 0.000000 0.000000 0.000000 -0.001244 0.000000 -0.021534
# 5 0.002722 0.004396 0.008081 0.000000 0.032495 0.000000
# 6 0.000000 0.000000 0.000000 -0.021534 0.000000 0.020345
#
#
# Mechanical properties :
#
#
# Convention : Reuss Voigt Hill
#
# Bulk Modulus (GPa) = 26.57712 43.08760 34.83236
# Shear Modulus (GPa) = 45.91761 18.75108 32.33434
#
# Velocity S-wave (km/s) = 4.34616 2.77734 3.64710
# Velocity P-wave (km/s) = 6.00986 5.29242 5.66252
#
# Compressibility (1/GPa) = 0.03762635
#
# Stress axis : x y z
#
# Youngs Moduli (GPa) = 179.60216 56.29254 55.99904
#
# Poissons Ratio (x) = 0.05460 0.00453
# Poissons Ratio (y) = 0.17419 0.04094
# Poissons Ratio (z) = 0.01451 0.04115
#
# Static dielectric constant tensor:
#      x y z
#    x 2.035380 0.000000 0.036990 
#    y 0.000000 1.897410 0.000000 
#    z 0.036990 0.000000 2.275710 
# 
# From -- ./inp_files/134192.got.cif
#   From: 2010.05.17/outbox.cif.g08.bks.cpg/sg12_68_cif.got.tgz:134192.got - 2010.06.03 13:09:07.
