data_PCOD9218721
_publ_section_title
;
Structure prediction by ZEFSAII (Michael W. Deem and Ramdas Pophale) SiO2 
 PCOD9218721
Probable space group: C 2/M
;
_chemical_formula_sum "Si O2"
_cell_formula_units_Z 64
_cell_length_a 27.398804
_cell_length_b 16.008547
_cell_length_c 11.198140
_cell_angle_alpha 90.000000
_cell_angle_beta 38.617348
_cell_angle_gamma 90.000000
_cell_volume 3065.454448
_symmetry_space_group_name_H-M "C 2/M"
_symmetry_group_IT_number 12
_symmetry_cell_setting 'monoclinic'
loop_
_space_group_symop_operation_xyz
x,y,z
-x,y,-z
-x,-y,-z
x,-y,z
1/2+x,1/2+y,z
1/2-x,1/2+y,-z
1/2-x,1/2-y,-z
1/2+x,1/2-y,z
loop_
_atom_site_type_symbol
_atom_site_label
_atom_site_fract_x
_atom_site_fract_y
_atom_site_fract_z
Si Si1 0.281705 0.344308 0.939012
Si Si2 0.605184 0.319235 0.060329
Si Si3 0.022041 0.097090 0.831855
Si Si4 0.803636 0.701696 0.302547
Si Si5 0.924197 0.405250 0.227477
Si Si6 0.609927 0.907663 0.276718
Si Si7 0.176076 0.898918 0.398937
Si Si8 0.005936 0.669389 0.666387
O O1 0.336460 0.350703 0.949572
O O2 0.326142 0.367119 0.732658
O O3 0.250000 0.250000 0.000000
O O4 0.202246 0.397942 0.092648
O O5 0.555294 0.393048 0.098330
O O6 0.538925 0.256592 0.238294
O O7 0.651395 0.266300 0.870878
O O8 0.098809 0.129904 0.618698
O O9 0.039902 0.000000 0.819437
O O10 0.000000 0.139088 0.000000
O O11 0.750000 0.750000 0.500000
O O12 0.861573 0.645711 0.270712
O O13 0.750242 0.642616 0.321532
O O14 0.897348 0.500000 0.307690
O O15 0.952001 0.357569 0.292971
O O16 0.000000 0.411190 0.000000
O O17 0.564618 0.892946 0.238903
O O18 0.571447 0.840106 0.438791
O O19 0.590945 0.000000 0.359008
O O20 0.180939 0.000000 0.390198
#
# Coordination Sequence:
#
# PCOD9218721 Si02
#       8
#     8   8   8   8   8   8   8   8
#     4  12  25  44  64 102 139 178 227 281 346 401
#     4  12  26  42  69 100 135 173 227 293 341 408
#     4  10  25  48  73  99 133 180 231 282 338 405
#     4  12  26  42  68 104 137 184 226 284 352 416
#     4  11  24  41  64  97 137 174 224 280 338 415
#     4  11  24  43  68  95 135 181 223 276 342 408
#     4  11  25  47  74  99 138 187 231 282 348 418
#     4  11  23  41  66  98 131 173 225 274 343 404
#
# _framework density 20.877818999999999
#
# number of rings (size 3 to 8) (size 9 to 14) (size 15 to 20)
#    0.000    0.750    3.750    3.000    7.000    1.500 
#    0.000    1.875    0.000    0.000    0.000    0.000 
#    0.000    0.000    0.000    0.000    0.000    0.000 
#
# Total GULP energy -178892.039957 kJ/mol
# GULP energy per Si atom -5590.376249 kJ/mol
# Density = 2.083030 g / cm^3
# Si number density = 20.877819 Si / 1000 Ang^3
#
#
#
# Elastic Constant Matrix: (Units=GPa)
#
#
# Indices 1 2 3 4 5 6 
#
# 1 163.1856 3.7347 39.4770 0.0000 -7.1118 0.0000
# 2 3.7347 44.6878 21.0601 0.0000 -0.5645 0.0000
# 3 39.4770 21.0601 123.4938 0.0000 0.7037 0.0000
# 4 0.0000 0.0000 0.0000 -4.7901 0.0000 10.3366
# 5 -7.1118 -0.5645 0.7037 0.0000 32.1440 0.0000
# 6 0.0000 0.0000 0.0000 10.3366 0.0000 22.1364
#
#
#
# Elastic Compliance Matrix: (Units=1/GPa)
#
#
# Indices 1 2 3 4 5 6 
#
# 1 0.006727 0.000516 -0.002247 0.000000 0.001547 0.000000
# 2 0.000516 0.024381 -0.004327 0.000000 0.000637 0.000000
# 3 -0.002247 -0.004327 0.009558 0.000000 -0.000782 0.000000
# 4 0.000000 0.000000 0.000000 -0.103985 0.000000 0.048556
# 5 0.001547 0.000637 -0.000782 0.000000 0.031481 0.000000
# 6 0.000000 0.000000 0.000000 0.048556 0.000000 0.022501
#
#
# Mechanical properties :
#
#
# Convention : Reuss Voigt Hill
#
# Bulk Modulus (GPa) = 35.02405 51.10120 43.06262
# Shear Modulus (GPa) = 406.64140 27.70441 217.17291
#
# Velocity S-wave (km/s) = 13.97121 3.64672 10.21013
# Velocity P-wave (km/s) = 16.64548 6.50084 12.63592
#
# Compressibility (1/GPa) = 0.02855181
#
# Stress axis : x y z
#
# Youngs Moduli (GPa) = 148.64924 41.01495 104.62128
#
# Poissons Ratio (x) = -0.02118 0.23512
# Poissons Ratio (y) = -0.07677 0.45265
# Poissons Ratio (z) = 0.33407 0.17746
#
# Static dielectric constant tensor:
#      x y z
#    x 1.702800 0.000000 0.000790 
#    y 0.000000 1.798650 0.000000 
#    z 0.000790 0.000000 1.768870 
# 
# From -- ./inp_files/183796.got.cif
#   From: 2010.05.17/outbox.cif.g08.bks.cpg/sg12_92_cif.got.tgz:183796.got - 2010.06.03 13:09:07.
