data_PCOD9218750
_publ_section_title
;
Structure prediction by ZEFSAII (Michael W. Deem and Ramdas Pophale) SiO2 
 PCOD9218750
Probable space group: C 2/M
;
_chemical_formula_sum "Si O2"
_cell_formula_units_Z 20
_cell_length_a 8.760215
_cell_length_b 20.571597
_cell_length_c 8.953198
_cell_angle_alpha 90.000000
_cell_angle_beta 31.688170
_cell_angle_gamma 90.000000
_cell_volume 847.549421
_symmetry_space_group_name_H-M "C 2/M"
_symmetry_group_IT_number 12
_symmetry_cell_setting 'monoclinic'
loop_
_space_group_symop_operation_xyz
x,y,z
-x,y,-z
-x,-y,-z
x,-y,z
1/2+x,1/2+y,z
1/2-x,1/2+y,-z
1/2-x,1/2-y,-z
1/2+x,1/2-y,z
loop_
_atom_site_type_symbol
_atom_site_label
_atom_site_fract_x
_atom_site_fract_y
_atom_site_fract_z
Si Si1 0.510962 0.840555 0.247026
Si Si2 0.517496 0.573787 0.804592
Si Si3 0.500000 0.745082 0.000000
O O1 0.267559 0.877743 0.542339
O O2 0.737867 0.798209 0.155336
O O3 0.390309 0.791305 0.224508
O O4 0.714138 0.895876 0.003991
O O5 0.569985 0.500000 0.710338
O O6 0.500000 0.571867 0.000000
#
# Coordination Sequence:
#
# PCOD9218750 Si02
#       3
#     8   8   4
#     4  11  24  45  68  99 133 176 215 276 328 392
#     4  11  24  44  69  98 131 174 225 273 323 391
#     4  10  26  44  70  96 142 168 222 266 336 394
#
# _framework density 23.597442999999998
#
# number of rings (size 3 to 8) (size 9 to 14) (size 15 to 20)
#    0.000    1.200    2.000    2.400    0.000   14.400 
#    0.000    6.000    0.000    0.000    0.000    0.000 
#    0.000    0.000    0.000    0.000    0.000    0.000 
#
# Total GULP energy -56045.397179 kJ/mol
# GULP energy per Si atom -5604.539718 kJ/mol
# Density = 2.354373 g / cm^3
# Si number density = 23.597443 Si / 1000 Ang^3
#
#
#
# Elastic Constant Matrix: (Units=GPa)
#
#
# Indices 1 2 3 4 5 6 
#
# 1 60.7029 44.3006 20.6025 0.0000 7.2568 0.0000
# 2 44.3006 172.9097 73.7185 0.0000 23.8201 0.0000
# 3 20.6025 73.7185 166.9274 0.0000 1.2094 0.0000
# 4 0.0000 0.0000 0.0000 50.1026 0.0000 22.5109
# 5 7.2568 23.8201 1.2094 0.0000 16.6478 0.0000
# 6 0.0000 0.0000 0.0000 22.5109 0.0000 -6.3293
#
#
#
# Elastic Compliance Matrix: (Units=1/GPa)
#
#
# Indices 1 2 3 4 5 6 
#
# 1 0.020323 -0.004763 -0.000390 0.000000 -0.002016 0.000000
# 2 -0.004763 0.010396 -0.003912 0.000000 -0.012514 0.000000
# 3 -0.000390 -0.003912 0.007729 0.000000 0.005207 0.000000
# 4 0.000000 0.000000 0.000000 0.007683 0.000000 0.027324
# 5 -0.002016 -0.012514 0.005207 0.000000 0.078473 0.000000
# 6 0.000000 0.000000 0.000000 0.027324 0.000000 -0.060815
#
#
# Mechanical properties :
#
#
# Convention : Reuss Voigt Hill
#
# Bulk Modulus (GPa) = 49.22134 75.30923 62.26528
# Shear Modulus (GPa) = 56.37507 29.54547 42.96027
#
# Velocity S-wave (km/s) = 4.89308 3.54229 4.27142
# Velocity P-wave (km/s) = 7.26822 6.97953 7.12534
#
# Compressibility (1/GPa) = 0.02031639
#
# Stress axis : x y z
#
# Youngs Moduli (GPa) = 49.20536 96.19514 129.38500
#
# Poissons Ratio (x) = 0.45815 0.05051
# Poissons Ratio (y) = 0.23435 0.50620
# Poissons Ratio (z) = 0.01921 0.37635
#
# Static dielectric constant tensor:
#      x y z
#    x 1.913460 0.000000 0.033110 
#    y 0.000000 1.904530 0.000000 
#    z 0.033110 0.000000 1.904320 
# 
# From -- ./inp_files/86.got.cif
#   From: 2010.05.17/outbox.cif.g08.bks.cpg/sg12_1_cif.got.tgz:86.got - 2010.06.03 13:09:07.
