data_PCOD9218424
_publ_section_title
;
Structure prediction by ZEFSAII (Michael W. Deem and Ramdas Pophale) SiO2 
 PCOD9218424
Probable space group: C 2/M
;
_chemical_formula_sum "Si O2"
_cell_formula_units_Z 36
_cell_length_a 11.590965
_cell_length_b 17.013309
_cell_length_c 8.403596
_cell_angle_alpha 90.000000
_cell_angle_beta 71.460203
_cell_angle_gamma 90.000000
_cell_volume 1571.191368
_symmetry_space_group_name_H-M "C 2/M"
_symmetry_group_IT_number 12
_symmetry_cell_setting 'monoclinic'
loop_
_space_group_symop_operation_xyz
x,y,z
-x,y,-z
-x,-y,-z
x,-y,z
1/2+x,1/2+y,z
1/2-x,1/2+y,-z
1/2-x,1/2-y,-z
1/2+x,1/2-y,z
loop_
_atom_site_type_symbol
_atom_site_label
_atom_site_fract_x
_atom_site_fract_y
_atom_site_fract_z
Si Si1 0.184148 0.169562 0.985440
Si Si2 0.000000 0.319407 0.500000
Si Si3 0.868573 0.592104 0.085542
Si Si4 0.954282 0.820182 0.282392
Si Si5 0.268485 0.094583 0.470828
O O1 0.287473 0.105075 0.965738
O O2 0.078872 0.145827 0.156470
O O3 0.250000 0.250000 0.000000
O O4 0.127325 0.184891 0.839900
O O5 0.007860 0.259953 0.646340
O O6 0.123137 0.370863 0.464337
O O7 0.885130 0.500000 0.105775
O O8 0.805920 0.620208 0.275408
O O9 0.000000 0.629960 0.000000
O O10 0.864904 0.870154 0.434550
O O11 0.265335 0.000000 0.485317
#
# Coordination Sequence:
#
# PCOD9218424 Si02
#       5
#     8   4   8   8   8
#     4  11  24  42  68 102 136 182 230 286 343 415
#     4  12  23  44  67 104 140 184 230 284 341 420
#     4  10  24  45  70  99 135 181 232 286 345 414
#     4  11  25  42  69 103 140 181 231 287 350 411
#     4  11  25  44  69 102 139 186 234 285 350 414
#
# _framework density 22.912551000000001
#
# number of rings (size 3 to 8) (size 9 to 14) (size 15 to 20)
#    0.000    1.111    0.000    5.000    9.333    1.778 
#    0.000    5.000    0.000    0.000    0.000    0.000 
#    0.000    0.000    0.000    0.000    0.000    0.000 
#
# Total GULP energy -100571.127080 kJ/mol
# GULP energy per Si atom -5587.284838 kJ/mol
# Density = 2.286040 g / cm^3
# Si number density = 22.912551 Si / 1000 Ang^3
#
#
#
# Elastic Constant Matrix: (Units=GPa)
#
#
# Indices 1 2 3 4 5 6 
#
# 1 135.9625 20.7976 50.4840 0.0000 8.5375 0.0000
# 2 20.7976 49.0131 30.2374 0.0000 -7.2764 0.0000
# 3 50.4840 30.2374 127.1597 0.0000 -0.6123 0.0000
# 4 0.0000 0.0000 0.0000 17.2451 0.0000 10.7086
# 5 8.5375 -7.2764 -0.6123 0.0000 34.3320 0.0000
# 6 0.0000 0.0000 0.0000 10.7086 0.0000 38.7113
#
#
#
# Elastic Compliance Matrix: (Units=1/GPa)
#
#
# Indices 1 2 3 4 5 6 
#
# 1 0.009019 -0.002373 -0.003030 0.000000 -0.002800 0.000000
# 2 -0.002373 0.025413 -0.005072 0.000000 0.005886 0.000000
# 3 -0.003030 -0.005072 0.010272 0.000000 -0.000138 0.000000
# 4 0.000000 0.000000 0.000000 0.070014 0.000000 -0.019368
# 5 -0.002800 0.005886 -0.000138 0.000000 0.031069 0.000000
# 6 0.000000 0.000000 0.000000 -0.019368 0.000000 0.031190
#
#
# Mechanical properties :
#
#
# Convention : Reuss Voigt Hill
#
# Bulk Modulus (GPa) = 42.09963 57.24148 49.67055
# Shear Modulus (GPa) = 24.29008 32.09877 28.19443
#
# Velocity S-wave (km/s) = 3.25948 3.74695 3.51169
# Velocity P-wave (km/s) = 5.70785 6.61486 6.17802
#
# Compressibility (1/GPa) = 0.02375318
#
# Stress axis : x y z
#
# Youngs Moduli (GPa) = 110.87985 39.35010 97.34811
#
# Poissons Ratio (x) = 0.09340 0.29493
# Poissons Ratio (y) = 0.26317 0.49378
# Poissons Ratio (z) = 0.33593 0.19960
#
# Static dielectric constant tensor:
#      x y z
#    x 1.870630 0.000000 0.006840 
#    y 0.000000 1.852170 0.000000 
#    z 0.006840 0.000000 1.930410 
# 
# From -- ./inp_files/46801.got.cif
#   From: 2010.05.17/outbox.cif.g08.bks.cpg/sg12_24_cif.got.tgz:46801.got - 2010.06.03 13:09:07.
