data_PCOD9218626
_publ_section_title
;
Structure prediction by ZEFSAII (Michael W. Deem and Ramdas Pophale) SiO2 
 PCOD9218626
Probable space group: C 2/M
;
_chemical_formula_sum "Si O2"
_cell_formula_units_Z 36
_cell_length_a 9.948671
_cell_length_b 16.017339
_cell_length_c 10.814766
_cell_angle_alpha 90.000000
_cell_angle_beta 79.826625
_cell_angle_gamma 90.000000
_cell_volume 1696.251520
_symmetry_space_group_name_H-M "C 2/M"
_symmetry_group_IT_number 12
_symmetry_cell_setting 'monoclinic'
loop_
_space_group_symop_operation_xyz
x,y,z
-x,y,-z
-x,-y,-z
x,-y,z
1/2+x,1/2+y,z
1/2-x,1/2+y,-z
1/2-x,1/2-y,-z
1/2+x,1/2-y,z
loop_
_atom_site_type_symbol
_atom_site_label
_atom_site_fract_x
_atom_site_fract_y
_atom_site_fract_z
Si Si1 0.635752 0.402219 0.063430
Si Si2 0.000000 0.306378 0.500000
Si Si3 0.913048 0.640673 0.905053
Si Si4 0.210414 0.405453 0.324752
Si Si5 0.521894 0.296884 0.747618
O O1 0.672314 0.500000 0.061007
O O2 0.593468 0.365426 0.202711
O O3 0.500000 0.395543 0.000000
O O4 0.761374 0.351997 0.985708
O O5 0.128963 0.365978 0.452459
O O6 0.011876 0.248105 0.617780
O O7 0.889370 0.595067 0.778331
O O8 0.991654 0.725473 0.854292
O O9 0.000000 0.599491 0.000000
O O10 0.257330 0.500000 0.338641
O O11 0.334544 0.344221 0.271195
#
# Coordination Sequence:
#
# PCOD9218626 Si02
#       5
#     8   4   8   8   8
#     4  11  22  40  66  98 134 173 214 264 331 395
#     4  10  25  42  67  94 126 168 234 276 319 374
#     4  11  25  39  67 101 137 168 215 265 327 394
#     4  11  23  44  68  94 131 175 218 271 332 388
#     4  11  23  41  68  94 128 178 219 269 316 396
#
# _framework density 21.223265999999999
#
# number of rings (size 3 to 8) (size 9 to 14) (size 15 to 20)
#    0.000    1.111    2.222    3.667    6.222    1.778 
#    0.000    2.222    0.000    0.000    0.000    0.000 
#    0.000    0.000    0.000    0.000    0.000    0.000 
#
# Total GULP energy -100525.597189 kJ/mol
# GULP energy per Si atom -5584.755399 kJ/mol
# Density = 2.117496 g / cm^3
# Si number density = 21.223266 Si / 1000 Ang^3
#
#
#
# Elastic Constant Matrix: (Units=GPa)
#
#
# Indices 1 2 3 4 5 6 
#
# 1 77.4700 46.9303 43.5619 0.0000 -21.9856 0.0000
# 2 46.9303 149.4595 54.8300 0.0000 -15.7349 0.0000
# 3 43.5619 54.8300 140.8867 0.0000 -21.5815 0.0000
# 4 0.0000 0.0000 0.0000 1.7250 0.0000 0.7791
# 5 -21.9856 -15.7349 -21.5815 0.0000 44.8149 0.0000
# 6 0.0000 0.0000 0.0000 0.7791 0.0000 18.0302
#
#
#
# Elastic Compliance Matrix: (Units=1/GPa)
#
#
# Indices 1 2 3 4 5 6 
#
# 1 0.019052 -0.004097 -0.003331 0.000000 0.006304 0.000000
# 2 -0.004097 0.008766 -0.002139 0.000000 0.000038 0.000000
# 3 -0.003331 -0.002139 0.009279 0.000000 0.002084 0.000000
# 4 0.000000 0.000000 0.000000 0.591240 0.000000 -0.025546
# 5 0.006304 0.000038 0.002084 0.000000 0.026423 0.000000
# 6 0.000000 0.000000 0.000000 -0.025546 0.000000 0.056566
#
#
# Mechanical properties :
#
#
# Convention : Reuss Voigt Hill
#
# Bulk Modulus (GPa) = 55.66598 73.16229 64.41413
# Shear Modulus (GPa) = 6.78935 27.74696 17.26815
#
# Velocity S-wave (km/s) = 1.79052 3.61970 2.85554
# Velocity P-wave (km/s) = 5.52814 7.21229 6.42563
#
# Compressibility (1/GPa) = 0.01796429
#
# Stress axis : x y z
#
# Youngs Moduli (GPa) = 52.48795 114.07943 107.76575
#
# Poissons Ratio (x) = 0.46735 0.35894
# Poissons Ratio (y) = 0.21503 0.23051
# Poissons Ratio (z) = 0.17483 0.24401
#
# Static dielectric constant tensor:
#      x y z
#    x 1.780190 0.000000 0.008380 
#    y 0.000000 1.801440 0.000000 
#    z 0.008380 0.000000 1.768990 
# 
# From -- ./inp_files/118747.got.cif
#   From: 2010.05.17/outbox.cif.g08.bks.cpg/sg12_60_cif.got.tgz:118747.got - 2010.06.03 13:09:07.
