data_PCOD9218935
_publ_section_title
;
Structure prediction by ZEFSAII (Michael W. Deem and Ramdas Pophale) SiO2 
 PCOD9218935
Probable space group: C 2/M
;
_chemical_formula_sum "Si O2"
_cell_formula_units_Z 40
_cell_length_a 20.146151
_cell_length_b 11.472058
_cell_length_c 16.078401
_cell_angle_alpha 90.000000
_cell_angle_beta 36.725459
_cell_angle_gamma 90.000000
_cell_volume 2222.101616
_symmetry_space_group_name_H-M "C 2/M"
_symmetry_group_IT_number 12
_symmetry_cell_setting 'monoclinic'
loop_
_space_group_symop_operation_xyz
x,y,z
-x,y,-z
-x,-y,-z
x,-y,z
1/2+x,1/2+y,z
1/2-x,1/2+y,-z
1/2-x,1/2-y,-z
1/2+x,1/2-y,z
loop_
_atom_site_type_symbol
_atom_site_label
_atom_site_fract_x
_atom_site_fract_y
_atom_site_fract_z
Si Si1 0.373739 0.751823 0.911616
Si Si2 0.565298 0.000000 0.074321
Si Si3 0.836058 0.500000 0.211067
Si Si4 0.816914 0.210305 0.659200
Si Si5 0.118709 0.138387 0.916158
Si Si6 0.973093 0.140857 0.651066
O O1 0.407574 0.883914 0.901017
O O2 0.448768 0.689207 0.766803
O O3 0.250000 0.750000 0.000000
O O4 0.376842 0.680342 0.993702
O O5 0.439721 0.000000 0.167826
O O6 0.630542 0.000000 0.920411
O O7 0.761435 0.611652 0.299276
O O8 0.731291 0.315408 0.759584
O O9 0.868209 0.168516 0.696224
O O10 0.924009 0.211825 0.492219
O O11 0.116594 0.000000 0.912344
O O12 0.000000 0.184809 0.000000
O O13 0.991768 0.000000 0.629940
#
# Coordination Sequence:
#
# PCOD9218935 Si02
#       6
#     8   4   4   8   8   8
#     4  12  24  38  64  91 123 157 206 261 308 358
#     4  11  24  36  60  95 119 159 205 264 300 354
#     4  11  18  39  66  86 120 154 212 249 302 363
#     4  11  20  39  66  92 119 163 205 255 300 364
#     4  11  24  42  63  90 125 166 204 247 310 373
#     4  11  22  39  63  96 124 158 207 252 311 362
#
# _framework density 18.000976999999999
#
# number of rings (size 3 to 8) (size 9 to 14) (size 15 to 20)
#    0.000    0.800    6.000    2.400    2.800    0.000 
#    1.800    5.000    0.000    0.000    0.000    0.000 
#    0.000    0.000    0.000    0.000    0.000    0.000 
#
# Total GULP energy -111611.612241 kJ/mol
# GULP energy per Si atom -5580.580612 kJ/mol
# Density = 1.796001 g / cm^3
# Si number density = 18.000977 Si / 1000 Ang^3
#
#
#
# Elastic Constant Matrix: (Units=GPa)
#
#
# Indices 1 2 3 4 5 6 
#
# 1 121.2418 38.4900 61.1317 0.0000 -14.8506 0.0000
# 2 38.4900 94.0725 47.3563 0.0000 -5.7337 0.0000
# 3 61.1317 47.3563 112.5722 0.0000 -7.5781 0.0000
# 4 0.0000 0.0000 0.0000 55.5594 0.0000 9.4052
# 5 -14.8506 -5.7337 -7.5781 0.0000 32.3261 0.0000
# 6 0.0000 0.0000 0.0000 9.4052 0.0000 37.9033
#
#
#
# Elastic Compliance Matrix: (Units=1/GPa)
#
#
# Indices 1 2 3 4 5 6 
#
# 1 0.012121 -0.001953 -0.005496 0.000000 0.003934 0.000000
# 2 -0.001953 0.013838 -0.004731 0.000000 0.000448 0.000000
# 3 -0.005496 -0.004731 0.013850 0.000000 -0.000117 0.000000
# 4 0.000000 0.000000 0.000000 0.018788 0.000000 -0.004662
# 5 0.003934 0.000448 -0.000117 0.000000 0.032794 0.000000
# 6 0.000000 0.000000 0.000000 -0.004662 0.000000 0.027540
#
#
# Mechanical properties :
#
#
# Convention : Reuss Voigt Hill
#
# Bulk Modulus (GPa) = 64.72517 69.09361 66.90939
# Shear Modulus (GPa) = 33.68399 37.21833 35.45116
#
# Velocity S-wave (km/s) = 4.33047 4.55199 4.44261
# Velocity P-wave (km/s) = 7.81271 8.12983 7.97285
#
# Compressibility (1/GPa) = 0.01544994
#
# Stress axis : x y z
#
# Youngs Moduli (GPa) = 82.50257 72.26568 72.20324
#
# Poissons Ratio (x) = 0.14113 0.39682
# Poissons Ratio (y) = 0.16112 0.34156
# Poissons Ratio (z) = 0.45342 0.34186
#
# Static dielectric constant tensor:
#      x y z
#    x 1.602470 0.000000 -0.014770 
#    y 0.000000 1.641640 0.000000 
#    z -0.014770 0.000000 1.642770 
# 
# From -- ./inp_files/153352.got.cif
#   From: 2010.05.17/outbox.cif.g08.bks.cpg/sg12_77_cif.got.tgz:153352.got - 2010.06.03 13:09:07.
