data_PCOD9218584
_publ_section_title
;
Structure prediction by ZEFSAII (Michael W. Deem and Ramdas Pophale) SiO2 
 PCOD9218584
Probable space group: C 2/M
;
_chemical_formula_sum "Si O2"
_cell_formula_units_Z 52
_cell_length_a 16.507804
_cell_length_b 23.470111
_cell_length_c 11.262581
_cell_angle_alpha 90.000000
_cell_angle_beta 151.144974
_cell_angle_gamma 90.000000
_cell_volume 2105.839327
_symmetry_space_group_name_H-M "C 2/M"
_symmetry_group_IT_number 12
_symmetry_cell_setting 'monoclinic'
loop_
_space_group_symop_operation_xyz
x,y,z
-x,y,-z
-x,-y,-z
x,-y,z
1/2+x,1/2+y,z
1/2-x,1/2+y,-z
1/2-x,1/2-y,-z
1/2+x,1/2-y,z
loop_
_atom_site_type_symbol
_atom_site_label
_atom_site_fract_x
_atom_site_fract_y
_atom_site_fract_z
Si Si1 0.782889 0.856934 0.063786
Si Si2 0.823105 0.599366 0.831602
Si Si3 0.700689 0.435048 0.279747
Si Si4 0.500000 0.270082 0.500000
Si Si5 0.053930 0.939065 0.332956
Si Si6 0.635415 0.212210 0.264270
Si Si7 0.564341 0.171328 0.426614
O O1 0.698394 0.897408 0.054718
O O2 0.881695 0.808220 0.263578
O O3 0.917926 0.890099 0.159390
O O4 0.682004 0.882470 0.605140
O O5 0.660683 0.563605 0.588112
O O6 0.793052 0.661305 0.727123
O O7 0.000000 0.580244 0.000000
O O8 0.747774 0.500000 0.303369
O O9 0.696702 0.433068 0.417119
O O10 0.500000 0.427275 0.000000
O O11 0.629635 0.163410 0.787329
O O12 0.969941 0.000000 0.207533
O O13 0.547424 0.179843 0.262230
O O14 0.890855 0.269765 0.449437
O O15 0.500000 0.241230 0.000000
O O16 0.750000 0.250000 0.500000
#
# Coordination Sequence:
#
# PCOD9218584 Si02
#       7
#     8   8   8   4   8   8   8
#     4  12  24  46  67 100 154 181 237 305 356 437
#     4  11  20  43  67  96 140 182 233 299 356 426
#     4  10  24  49  76 105 140 183 246 315 368 442
#     4  12  28  46  68 104 150 200 238 304 362 442
#     4  11  24  43  72 102 135 185 235 295 375 436
#     4  11  23  42  70 100 139 188 247 301 353 429
#     4  12  26  45  73 105 139 195 250 292 380 440
#
# _framework density 24.693241
#
# number of rings (size 3 to 8) (size 9 to 14) (size 15 to 20)
#    0.000    0.769    6.154    1.385    2.154    2.769 
#    0.000    0.385    0.000    0.462    0.000    0.000 
#    0.000    0.000    0.000    0.000    0.000    0.000 
#
# Total GULP energy -145026.098052 kJ/mol
# GULP energy per Si atom -5577.926848 kJ/mol
# Density = 2.463704 g / cm^3
# Si number density = 24.693241 Si / 1000 Ang^3
#
#
#
# Elastic Constant Matrix: (Units=GPa)
#
#
# Indices 1 2 3 4 5 6 
#
# 1 71.3787 34.8569 8.7055 0.0000 -8.1181 0.0000
# 2 34.8569 119.8041 45.7961 0.0000 22.6345 0.0000
# 3 8.7055 45.7961 113.2946 0.0000 16.4349 0.0000
# 4 0.0000 0.0000 0.0000 -3.0277 0.0000 -12.5880
# 5 -8.1181 22.6345 16.4349 0.0000 51.9735 0.0000
# 6 0.0000 0.0000 0.0000 -12.5880 0.0000 24.0451
#
#
#
# Elastic Compliance Matrix: (Units=1/GPa)
#
#
# Indices 1 2 3 4 5 6 
#
# 1 0.017652 -0.006309 0.000415 0.000000 0.005374 0.000000
# 2 -0.006309 0.012657 -0.003866 0.000000 -0.005275 0.000000
# 3 0.000415 -0.003866 0.010590 0.000000 -0.001600 0.000000
# 4 0.000000 0.000000 0.000000 -0.103974 0.000000 -0.054432
# 5 0.005374 -0.005275 -0.001600 0.000000 0.022883 0.000000
# 6 0.000000 0.000000 0.000000 -0.054432 0.000000 0.013092
#
#
# Mechanical properties :
#
#
# Convention : Reuss Voigt Hill
#
# Bulk Modulus (GPa) = 46.78132 53.68827 50.23479
# Shear Modulus (GPa) = -11055.18462 28.93945 -5513.12258
#
# Velocity S-wave (km/s) = -66.98304 3.42710 -47.30213
# Velocity P-wave (km/s) = 77.22252 6.11959 54.43284
#
# Compressibility (1/GPa) = 0.02137605
#
# Stress axis : x y z
#
# Youngs Moduli (GPa) = 56.65234 79.00632 94.43197
#
# Poissons Ratio (x) = 0.49848 -0.03914
# Poissons Ratio (y) = 0.35744 0.36510
# Poissons Ratio (z) = -0.02348 0.30546
#
# Static dielectric constant tensor:
#      x y z
#    x 2.091780 0.000000 0.010770 
#    y 0.000000 2.099540 0.000000 
#    z 0.010770 0.000000 2.044830 
# 
# From -- ./inp_files/67943.got.cif
#   From: 2010.05.17/outbox.cif.g08.bks.cpg/sg12_34_cif.got.tgz:67943.got - 2010.06.03 13:09:07.
