data_PCOD9218285
_publ_section_title
;
Structure prediction by ZEFSAII (Michael W. Deem and Ramdas Pophale) SiO2 
 PCOD9218285
Probable space group: C 2/M
;
_chemical_formula_sum "Si O2"
_cell_formula_units_Z 44
_cell_length_a 9.088426
_cell_length_b 10.397139
_cell_length_c 23.813561
_cell_angle_alpha 90.000000
_cell_angle_beta 124.943250
_cell_angle_gamma 90.000000
_cell_volume 1844.557808
_symmetry_space_group_name_H-M "C 2/M"
_symmetry_group_IT_number 12
_symmetry_cell_setting 'monoclinic'
loop_
_space_group_symop_operation_xyz
x,y,z
-x,y,-z
-x,-y,-z
x,-y,z
1/2+x,1/2+y,z
1/2-x,1/2+y,-z
1/2-x,1/2-y,-z
1/2+x,1/2-y,z
loop_
_atom_site_type_symbol
_atom_site_label
_atom_site_fract_x
_atom_site_fract_y
_atom_site_fract_z
Si Si1 0.492686 0.500000 0.360890
Si Si2 0.896722 0.705915 0.595337
Si Si3 0.966860 0.140303 0.122165
Si Si4 0.922076 0.500000 0.691976
Si Si5 0.826208 0.207475 0.928488
Si Si6 0.500000 0.761771 0.500000
Si Si7 0.109020 0.000000 0.788586
Si Si8 0.974153 0.500000 0.156165
O O1 0.577385 0.361090 0.395029
O O2 0.290882 0.500000 0.341481
O O3 0.480182 0.500000 0.290911
O O4 0.966372 0.625161 0.663604
O O5 0.683860 0.682214 0.543872
O O6 0.986060 0.664385 0.556083
O O7 0.759640 0.167152 0.061953
O O8 0.959222 0.119751 0.187523
O O9 0.107448 0.226660 0.120467
O O10 0.019726 0.000000 0.111470
O O11 0.010823 0.500000 0.772605
O O12 0.651395 0.118918 0.888813
O O13 0.000000 0.163464 0.000000
O O14 0.324216 0.000000 0.825019
#
# Coordination Sequence:
#
# PCOD9218285 Si02
#       8
#     4   8   8   4   8   4   4   4
#     4  11  24  47  69 104 145 183 229 291 338 418
#     4  11  24  46  74 104 140 187 226 290 341 413
#     4  10  24  44  66 100 130 179 224 288 340 418
#     4  11  26  46  68 106 141 186 236 282 356 402
#     4  12  24  46  70 100 137 181 229 291 353 412
#     4  10  24  44  74 108 140 180 236 280 348 406
#     4   9  23  45  67  98 139 179 231 279 351 405
#     4  11  24  44  73  96 141 186 228 292 341 423
#
# _framework density 23.853956
#
# number of rings (size 3 to 8) (size 9 to 14) (size 15 to 20)
#    0.545    0.727    2.727    1.909    2.545    5.455 
#    6.545    0.000    0.000    0.000    0.000    0.000 
#    0.000    0.000    0.000    0.000    0.000    0.000 
#
# Total GULP energy -122677.807143 kJ/mol
# GULP energy per Si atom -5576.263961 kJ/mol
# Density = 2.379966 g / cm^3
# Si number density = 23.853956 Si / 1000 Ang^3
#
#
#
# Elastic Constant Matrix: (Units=GPa)
#
#
# Indices 1 2 3 4 5 6 
#
# 1 130.3944 21.0167 2.6752 0.0000 -10.7115 0.0000
# 2 21.0167 88.8804 26.1231 0.0000 -2.5123 0.0000
# 3 2.6752 26.1231 66.8549 0.0000 -5.5428 0.0000
# 4 0.0000 0.0000 0.0000 5.6364 0.0000 -6.1141
# 5 -10.7115 -2.5123 -5.5428 0.0000 38.2721 0.0000
# 6 0.0000 0.0000 0.0000 -6.1141 0.0000 19.7083
#
#
#
# Elastic Compliance Matrix: (Units=1/GPa)
#
#
# Indices 1 2 3 4 5 6 
#
# 1 0.008173 -0.002065 0.000666 0.000000 0.002248 0.000000
# 2 -0.002065 0.013233 -0.005126 0.000000 -0.000452 0.000000
# 3 0.000666 -0.005126 0.017127 0.000000 0.002330 0.000000
# 4 0.000000 0.000000 0.000000 0.267406 0.000000 0.082957
# 5 0.002248 -0.000452 0.002330 0.000000 0.027066 0.000000
# 6 0.000000 0.000000 0.000000 0.082957 0.000000 0.076476
#
#
# Mechanical properties :
#
#
# Convention : Reuss Voigt Hill
#
# Bulk Modulus (GPa) = 39.23930 42.86220 41.05075
# Shear Modulus (GPa) = 11.60028 28.47767 20.03898
#
# Velocity S-wave (km/s) = 2.20762 3.45894 2.90154
# Velocity P-wave (km/s) = 4.79413 5.82752 5.33590
#
# Compressibility (1/GPa) = 0.02548465
#
# Stress axis : x y z
#
# Youngs Moduli (GPa) = 122.35605 75.56853 58.38707
#
# Poissons Ratio (x) = 0.15603 -0.03890
# Poissons Ratio (y) = 0.25264 0.29926
# Poissons Ratio (z) = -0.08151 0.38733
#
# Static dielectric constant tensor:
#      x y z
#    x 1.866950 0.000000 -0.040510 
#    y 0.000000 2.276980 0.000000 
#    z -0.040510 0.000000 1.910620 
# 
# From -- ./inp_files/355961.got.cif
#   From: 2010.05.17/outbox.cif.g08.bks.cpg/sg12_178_cif.got.tgz:355961.got - 2010.06.03 13:09:07.
