data_PCOD9218691
_publ_section_title
;
Structure prediction by ZEFSAII (Michael W. Deem and Ramdas Pophale) SiO2 
 PCOD9218691
Probable space group: C 2/M
;
_chemical_formula_sum "Si O2"
_cell_formula_units_Z 16
_cell_length_a 5.550999
_cell_length_b 20.794523
_cell_length_c 5.156713
_cell_angle_alpha 90.000000
_cell_angle_beta 93.329045
_cell_angle_gamma 90.000000
_cell_volume 594.236857
_symmetry_space_group_name_H-M "C 2/M"
_symmetry_group_IT_number 12
_symmetry_cell_setting 'monoclinic'
loop_
_space_group_symop_operation_xyz
x,y,z
-x,y,-z
-x,-y,-z
x,-y,z
1/2+x,1/2+y,z
1/2-x,1/2+y,-z
1/2-x,1/2-y,-z
1/2+x,1/2-y,z
loop_
_atom_site_type_symbol
_atom_site_label
_atom_site_fract_x
_atom_site_fract_y
_atom_site_fract_z
Si Si1 0.500000 0.611138 0.000000
Si Si2 0.742697 0.823081 0.393016
Si Si3 0.325185 0.000000 0.237497
O O1 0.711589 0.659144 0.903730
O O2 0.351818 0.560805 0.810742
O O3 0.500000 0.850646 0.500000
O O4 0.750000 0.750000 0.500000
O O5 0.000000 0.848669 0.500000
O O6 0.500000 0.000000 0.500000
O O7 0.500000 0.000000 0.000000
#
# Coordination Sequence:
#
# PCOD9218691 Si02
#       3
#     4   8   4
#     4  11  28  48  84 122 174 219 284 358 426 513
#     4  10  25  46  78 121 169 220 279 339 434 514
#     4  11  30  53  85 122 166 230 298 354 432 498
#
# _framework density 26.925291999999999
#
# number of rings (size 3 to 8) (size 9 to 14) (size 15 to 20)
#    0.000    1.500    0.000    0.000   14.000   10.000 
#    0.000    3.750    0.000    3.000    0.000    0.000 
#    0.000    0.000    0.000    0.000    0.000    0.000 
#
# Total GULP energy -44580.265329 kJ/mol
# GULP energy per Si atom -5572.533166 kJ/mol
# Density = 2.686401 g / cm^3
# Si number density = 26.925292 Si / 1000 Ang^3
#
#
#
# Elastic Constant Matrix: (Units=GPa)
#
#
# Indices 1 2 3 4 5 6 
#
# 1 273.0205 76.8833 94.3123 0.0000 -33.7571 0.0000
# 2 76.8833 221.8033 93.3808 0.0000 -30.8949 0.0000
# 3 94.3123 93.3808 143.1113 0.0000 -10.5158 0.0000
# 4 0.0000 0.0000 0.0000 -11.4446 0.0000 -14.3271
# 5 -33.7571 -30.8949 -10.5158 0.0000 84.4291 0.0000
# 6 0.0000 0.0000 0.0000 -14.3271 0.0000 49.8832
#
#
#
# Elastic Compliance Matrix: (Units=1/GPa)
#
#
# Indices 1 2 3 4 5 6 
#
# 1 0.004953 -0.000246 -0.002992 0.000000 0.001518 0.000000
# 2 -0.000246 0.006507 -0.003952 0.000000 0.001791 0.000000
# 3 -0.002992 -0.003952 0.011449 0.000000 -0.001217 0.000000
# 4 0.000000 0.000000 0.000000 -0.064270 0.000000 -0.018459
# 5 0.001518 0.001791 -0.001217 0.000000 0.012955 0.000000
# 6 0.000000 0.000000 0.000000 -0.018459 0.000000 0.014745
#
#
# Mechanical properties :
#
#
# Convention : Reuss Voigt Hill
#
# Bulk Modulus (GPa) = 117.25431 129.67643 123.46537
# Shear Modulus (GPa) = 1402.95550 49.46413 726.20981
#
# Velocity S-wave (km/s) = 22.85139 4.29078 16.44075
# Velocity P-wave (km/s) = 27.20093 8.53310 20.15818
#
# Compressibility (1/GPa) = 0.00852847
#
# Stress axis : x y z
#
# Youngs Moduli (GPa) = 201.88554 153.67911 87.34239
#
# Poissons Ratio (x) = 0.03776 0.26137
# Poissons Ratio (y) = 0.04960 0.34521
# Poissons Ratio (z) = 0.60413 0.60740
#
# Static dielectric constant tensor:
#      x y z
#    x 2.131850 0.000000 -0.806220 
#    y 0.000000 1.757520 0.000000 
#    z -0.806220 0.000000 -8.799120 
# 
# From -- ./inp_files/607.got.cif
#   From: 2010.05.17/outbox.cif.g08.bks.cpg/sg12_1_cif.got.tgz:607.got - 2010.06.03 13:09:07.
