data_PCOD9218615
_publ_section_title
;
Structure prediction by ZEFSAII (Michael W. Deem and Ramdas Pophale) SiO2 
 PCOD9218615
Probable space group: C 2/M
;
_chemical_formula_sum "Si O2"
_cell_formula_units_Z 36
_cell_length_a 18.054997
_cell_length_b 7.430342
_cell_length_c 14.889651
_cell_angle_alpha 90.000000
_cell_angle_beta 69.555439
_cell_angle_gamma 90.000000
_cell_volume 1871.695735
_symmetry_space_group_name_H-M "C 2/M"
_symmetry_group_IT_number 12
_symmetry_cell_setting 'monoclinic'
loop_
_space_group_symop_operation_xyz
x,y,z
-x,y,-z
-x,-y,-z
x,-y,z
1/2+x,1/2+y,z
1/2-x,1/2+y,-z
1/2-x,1/2-y,-z
1/2+x,1/2-y,z
loop_
_atom_site_type_symbol
_atom_site_label
_atom_site_fract_x
_atom_site_fract_y
_atom_site_fract_z
Si Si1 0.818589 0.704544 0.825715
Si Si2 0.088695 0.000000 0.106009
Si Si3 0.927001 0.283901 0.405544
Si Si4 0.912674 0.000000 0.260494
Si Si5 0.608192 0.783805 0.385230
Si Si6 0.331686 0.500000 0.106097
O O1 0.852604 0.500000 0.814575
O O2 0.832715 0.773528 0.718201
O O3 0.726631 0.670594 0.884792
O O4 0.864199 0.829866 0.874285
O O5 0.000977 0.000000 0.182112
O O6 0.098330 0.000000 0.994805
O O7 0.919536 0.500000 0.397207
O O8 0.902362 0.172277 0.329326
O O9 0.883187 0.222625 0.515809
O O10 0.019667 0.243316 0.387262
O O11 0.856184 0.000000 0.198894
O O12 0.612981 0.000000 0.390290
#
# Coordination Sequence:
#
# PCOD9218615 Si02
#       6
#     8   4   8   4   8   4
#     4   9  20  38  62  81 111 143 192 233 278 324
#     4  12  21  39  66  81 100 156 205 225 270 338
#     4   9  18  32  55  85 118 144 183 226 279 328
#     4  12  23  36  56  89 119 145 181 236 288 331
#     4   8  14  31  57  85 108 145 186 234 261 325
#     4  10  25  42  53  82 126 140 181 251 287 311
#
# _framework density 19.233893999999999
#
# number of rings (size 3 to 8) (size 9 to 14) (size 15 to 20)
#    0.667    1.778    2.222    2.333    0.000    2.667 
#    2.000    1.111    0.000    2.667    0.000    0.000 
#    0.000    0.000    0.000    0.000    0.000    0.000 
#
# Total GULP energy -100280.235385 kJ/mol
# GULP energy per Si atom -5571.124188 kJ/mol
# Density = 1.919012 g / cm^3
# Si number density = 19.233894 Si / 1000 Ang^3
#
#
#
# Elastic Constant Matrix: (Units=GPa)
#
#
# Indices 1 2 3 4 5 6 
#
# 1 12.2099 0.8987 -12.4169 0.0000 1.5236 0.0000
# 2 0.8987 70.7219 8.9116 0.0000 5.3856 0.0000
# 3 -12.4169 8.9116 94.3653 0.0000 -10.6183 0.0000
# 4 0.0000 0.0000 0.0000 1.8017 0.0000 -16.0068
# 5 1.5236 5.3856 -10.6183 0.0000 26.0462 0.0000
# 6 0.0000 0.0000 0.0000 -16.0068 0.0000 -7.8120
#
#
#
# Elastic Compliance Matrix: (Units=1/GPa)
#
#
# Indices 1 2 3 4 5 6 
#
# 1 0.095107 -0.002842 0.012811 0.000000 0.000247 0.000000
# 2 -0.002842 0.014739 -0.002191 0.000000 -0.003775 0.000000
# 3 0.012811 -0.002191 0.013055 0.000000 0.005026 0.000000
# 4 0.000000 0.000000 0.000000 0.028902 0.000000 -0.059220
# 5 0.000247 -0.003775 0.005026 0.000000 0.041208 0.000000
# 6 0.000000 0.000000 0.000000 -0.059220 0.000000 -0.006666
#
#
# Mechanical properties :
#
#
# Convention : Reuss Voigt Hill
#
# Bulk Modulus (GPa) = 7.22240 19.12042 13.17141
# Shear Modulus (GPa) = 23.04770 16.00076 19.52423
#
# Velocity S-wave (km/s) = 3.46538 2.88740 3.18951
# Velocity P-wave (km/s) = 4.44691 4.59116 4.51961
#
# Compressibility (1/GPa) = 0.13845808
#
# Stress axis : x y z
#
# Youngs Moduli (GPa) = 10.51452 67.84503 76.59802
#
# Poissons Ratio (x) = 0.19278 -0.98126
# Poissons Ratio (y) = 0.02988 0.16779
# Poissons Ratio (z) = -0.13470 0.14862
#
# Static dielectric constant tensor:
#      x y z
#    x 1.645580 0.000000 -0.030520 
#    y 0.000000 1.842620 0.000000 
#    z -0.030520 0.000000 1.697870 
# 
# From -- ./inp_files/161930.got.cif
#   From: 2010.05.17/outbox.cif.g08.bks.cpg/sg12_81_cif.got.tgz:161930.got - 2010.06.03 13:09:07.
