data_PCOD9218723
_publ_section_title
;
Structure prediction by ZEFSAII (Michael W. Deem and Ramdas Pophale) SiO2 
 PCOD9218723
Probable space group: C 2/M
;
_chemical_formula_sum "Si O2"
_cell_formula_units_Z 48
_cell_length_a 10.927153
_cell_length_b 25.658811
_cell_length_c 8.935000
_cell_angle_alpha 90.000000
_cell_angle_beta 83.895397
_cell_angle_gamma 90.000000
_cell_volume 2490.969392
_symmetry_space_group_name_H-M "C 2/M"
_symmetry_group_IT_number 12
_symmetry_cell_setting 'monoclinic'
loop_
_space_group_symop_operation_xyz
x,y,z
-x,y,-z
-x,-y,-z
x,-y,z
1/2+x,1/2+y,z
1/2-x,1/2+y,-z
1/2-x,1/2-y,-z
1/2+x,1/2-y,z
loop_
_atom_site_type_symbol
_atom_site_label
_atom_site_fract_x
_atom_site_fract_y
_atom_site_fract_z
Si Si1 0.199707 0.856462 0.188711
Si Si2 0.357334 0.438031 0.556357
Si Si3 0.121016 0.351403 0.091667
Si Si4 0.654767 0.788275 0.593560
Si Si5 0.624510 0.893130 0.414724
Si Si6 0.544514 0.741469 0.165551
O O1 0.172885 0.907371 0.287487
O O2 0.291905 0.820287 0.272831
O O3 0.087636 0.816942 0.187532
O O4 0.263265 0.867016 0.023061
O O5 0.500000 0.425088 0.500000
O O6 0.348352 0.500000 0.573111
O O7 0.252358 0.419259 0.451784
O O8 0.109165 0.386864 0.239358
O O9 0.137168 0.291218 0.145043
O O10 0.000000 0.354331 0.000000
O O11 0.750000 0.750000 0.500000
O O12 0.627307 0.834534 0.481784
O O13 0.545554 0.756311 0.685950
O O14 0.500000 0.918129 0.500000
O O15 0.500000 0.741282 0.000000
#
# Coordination Sequence:
#
# PCOD9218723 Si02
#       6
#     8   8   8   8   8   8
#     4  11  23  37  60  87 125 174 213 259 321 388
#     4  10  25  49  70  93 127 168 224 289 338 381
#     4  11  20  39  58  93 140 173 203 262 325 393
#     4  11  23  34  55  90 132 175 215 255 307 386
#     4  11  22  40  69  97 127 170 219 274 324 388
#     4  11  22  35  56  91 138 177 207 254 317 397
#
# _framework density 19.269604999999999
#
# number of rings (size 3 to 8) (size 9 to 14) (size 15 to 20)
#    0.000    1.167    5.000    2.500    7.000    0.333 
#    0.000    0.833    0.000    4.500    0.000    0.000 
#    0.000    0.000    0.000    0.000    0.000    0.000 
#
# Total GULP energy -133857.488611 kJ/mol
# GULP energy per Si atom -5577.395359 kJ/mol
# Density = 1.922575 g / cm^3
# Si number density = 19.269605 Si / 1000 Ang^3
#
#
#
# Elastic Constant Matrix: (Units=GPa)
#
#
# Indices 1 2 3 4 5 6 
#
# 1 86.1023 43.4903 38.5246 0.0000 -10.6895 0.0000
# 2 43.4903 69.5472 39.9655 0.0000 -7.7885 0.0000
# 3 38.5246 39.9655 135.7461 0.0000 -15.1613 0.0000
# 4 0.0000 0.0000 0.0000 7.1684 0.0000 22.8553
# 5 -10.6895 -7.7885 -15.1613 0.0000 32.9670 0.0000
# 6 0.0000 0.0000 0.0000 22.8553 0.0000 -87.6817
#
#
#
# Elastic Compliance Matrix: (Units=1/GPa)
#
#
# Indices 1 2 3 4 5 6 
#
# 1 0.017662 -0.009678 -0.001875 0.000000 0.002578 0.000000
# 2 -0.009678 0.022717 -0.003892 0.000000 0.000439 0.000000
# 3 -0.001875 -0.003892 0.009355 0.000000 0.002775 0.000000
# 4 0.000000 0.000000 0.000000 0.076185 0.000000 0.019859
# 5 0.002578 0.000439 0.002775 0.000000 0.032549 0.000000
# 6 0.000000 0.000000 0.000000 0.019859 0.000000 -0.006228
#
#
# Mechanical properties :
#
#
# Convention : Reuss Voigt Hill
#
# Bulk Modulus (GPa) = 53.07391 59.48403 56.27897
# Shear Modulus (GPa) = 26.39770 1.78508 14.09139
#
# Velocity S-wave (km/s) = 3.70525 0.96353 2.70714
# Velocity P-wave (km/s) = 6.77553 5.67223 6.24828
#
# Compressibility (1/GPa) = 0.01884165
#
# Stress axis : x y z
#
# Youngs Moduli (GPa) = 56.62022 44.02036 106.89803
#
# Poissons Ratio (x) = 0.42604 0.20043
# Poissons Ratio (y) = 0.54798 0.41610
# Poissons Ratio (z) = 0.10616 0.17135
#
# Static dielectric constant tensor:
#      x y z
#    x 1.888660 0.000000 0.031140 
#    y 0.000000 1.640420 0.000000 
#    z 0.031140 0.000000 1.678020 
# 
# From -- ./inp_files/50604.got.cif
#   From: 2010.05.17/outbox.cif.g08.bks.cpg/sg12_26_cif.got.tgz:50604.got - 2010.06.03 13:09:07.
