data_PCOD9218036
_publ_section_title
;
Structure prediction by ZEFSAII (Michael W. Deem and Ramdas Pophale) SiO2 
 PCOD9218036
Probable space group: C 2/M
;
_chemical_formula_sum "Si O2"
_cell_formula_units_Z 50
_cell_length_a 16.261979
_cell_length_b 7.472452
_cell_length_c 17.330003
_cell_angle_alpha 90.000000
_cell_angle_beta 97.400030
_cell_angle_gamma 90.000000
_cell_volume 2088.347768
_symmetry_space_group_name_H-M "C 2/M"
_symmetry_group_IT_number 12
_symmetry_cell_setting 'monoclinic'
loop_
_space_group_symop_operation_xyz
x,y,z
-x,y,-z
-x,-y,-z
x,-y,z
1/2+x,1/2+y,z
1/2-x,1/2+y,-z
1/2-x,1/2-y,-z
1/2+x,1/2-y,z
loop_
_atom_site_type_symbol
_atom_site_label
_atom_site_fract_x
_atom_site_fract_y
_atom_site_fract_z
Si Si1 0.701947 0.786888 0.595814
Si Si2 0.000000 0.500000 0.000000
Si Si3 0.512652 0.292648 0.889850
Si Si4 0.242374 0.714232 0.238018
Si Si5 0.114512 0.295777 0.442039
Si Si6 0.802494 0.786272 0.081681
Si Si7 0.936784 0.282519 0.722839
O O1 0.693249 0.756668 0.685678
O O2 0.790893 0.704997 0.581227
O O3 0.630529 0.718666 0.529197
O O4 0.708907 0.000000 0.584169
O O5 0.038628 0.657862 0.063466
O O6 0.501995 0.500000 0.909823
O O7 0.604700 0.217512 0.916210
O O8 0.499158 0.277424 0.796418
O O9 0.237164 0.500000 0.233307
O O10 0.264677 0.784074 0.156702
O O11 0.152525 0.778574 0.254886
O O12 0.086185 0.500000 0.449006
O O13 0.059888 0.218443 0.365583
O O14 0.810961 0.000000 0.091089
O O15 0.750000 0.750000 0.000000
O O16 0.938198 0.500000 0.720524
#
# Coordination Sequence:
#
# PCOD9218036 Si02
#       7
#     8   2   8   8   8   8   8
#     4   9  15  25  44  77 109 141 186 234 278 330
#     4  12  26  44  68  82 120 158 184 244 302 346
#     4  11  25  42  63  92 116 149 198 241 287 352
#     4   9  19  35  55  78 113 153 188 231 288 346
#     4   8  15  27  46  72 110 147 183 229 282 336
#     4  10  24  41  60  84 113 147 191 239 287 349
#     4   9  17  33  57  84 113 154 191 232 292 342
#
# _framework density 23.942371000000001
#
# number of rings (size 3 to 8) (size 9 to 14) (size 15 to 20)
#    0.000    2.560    0.800    1.680    3.360    3.840 
#    0.000    0.000    0.000    0.960    0.000    6.720 
#    0.000    0.000    0.000    0.000    0.000    0.000 
#
# Total GULP energy -139290.770773 kJ/mol
# GULP energy per Si atom -5571.630831 kJ/mol
# Density = 2.388788 g / cm^3
# Si number density = 23.942371 Si / 1000 Ang^3
#
#
#
# Elastic Constant Matrix: (Units=GPa)
#
#
# Indices 1 2 3 4 5 6 
#
# 1 35.0267 -1.3652 50.7088 0.0000 14.0875 0.0000
# 2 -1.3652 107.9162 -1.1216 0.0000 -0.5268 0.0000
# 3 50.7088 -1.1216 227.5234 0.0000 33.4431 0.0000
# 4 0.0000 0.0000 0.0000 27.7276 0.0000 10.5297
# 5 14.0875 -0.5268 33.4431 0.0000 35.1355 0.0000
# 6 0.0000 0.0000 0.0000 10.5297 0.0000 -11.4078
#
#
#
# Elastic Compliance Matrix: (Units=1/GPa)
#
#
# Indices 1 2 3 4 5 6 
#
# 1 0.044926 0.000431 -0.008562 0.000000 -0.009857 0.000000
# 2 0.000431 0.009271 -0.000053 0.000000 0.000016 0.000000
# 3 -0.008562 -0.000053 0.006742 0.000000 -0.002985 0.000000
# 4 0.000000 0.000000 0.000000 0.026705 0.000000 0.024649
# 5 -0.009857 0.000016 -0.002985 0.000000 0.035255 0.000000
# 6 0.000000 0.000000 0.000000 0.024649 0.000000 -0.064908
#
#
# Mechanical properties :
#
#
# Convention : Reuss Voigt Hill
#
# Bulk Modulus (GPa) = 22.43535 51.87892 37.15713
# Shear Modulus (GPa) = 56.04420 31.77401 43.90911
#
# Velocity S-wave (km/s) = 4.84343 3.64690 4.28711
# Velocity P-wave (km/s) = 6.37725 6.28080 6.32921
#
# Compressibility (1/GPa) = 0.04457252
#
# Stress axis : x y z
#
# Youngs Moduli (GPa) = 22.25883 107.85817 148.32725
#
# Poissons Ratio (x) = -0.04651 1.26995
# Poissons Ratio (y) = -0.00960 0.00783
# Poissons Ratio (z) = 0.19058 0.00570
#
# Static dielectric constant tensor:
#      x y z
#    x 2.441110 0.000000 -0.177910 
#    y 0.000000 1.949030 0.000000 
#    z -0.177910 0.000000 2.063040 
# 
# From -- ./inp_files/230246.got.cif
#   From: 2010.05.17/outbox.cif.g08.bks.cpg/sg12_116_cif.got.tgz:230246.got - 2010.06.03 13:09:07.
