data_PCOD9218192
_publ_section_title
;
Structure prediction by ZEFSAII (Michael W. Deem and Ramdas Pophale) SiO2 
 PCOD9218192
Probable space group: C 2/M
;
_chemical_formula_sum "Si O2"
_cell_formula_units_Z 32
_cell_length_a 17.220597
_cell_length_b 18.996842
_cell_length_c 8.036574
_cell_angle_alpha 90.000000
_cell_angle_beta 147.687370
_cell_angle_gamma 90.000000
_cell_volume 1405.334423
_symmetry_space_group_name_H-M "C 2/M"
_symmetry_group_IT_number 12
_symmetry_cell_setting 'monoclinic'
loop_
_space_group_symop_operation_xyz
x,y,z
-x,y,-z
-x,-y,-z
x,-y,z
1/2+x,1/2+y,z
1/2-x,1/2+y,-z
1/2-x,1/2-y,-z
1/2+x,1/2-y,z
loop_
_atom_site_type_symbol
_atom_site_label
_atom_site_fract_x
_atom_site_fract_y
_atom_site_fract_z
Si Si1 0.351872 0.708463 0.815344
Si Si2 0.149643 0.920311 0.694179
Si Si3 0.912030 0.646248 0.016816
Si Si4 0.680088 0.079057 0.655013
O O1 0.250000 0.750000 0.500000
O O2 0.271130 0.641096 0.735836
O O3 0.500000 0.685201 0.000000
O O4 0.396823 0.770465 0.025565
O O5 0.000000 0.888878 0.500000
O O6 0.113307 0.000000 0.572840
O O7 0.247752 0.883294 0.731137
O O8 0.257180 0.923531 0.046232
O O9 0.015376 0.603821 0.328788
O O10 0.000000 0.640067 0.000000
O O11 0.696190 0.000000 0.613404
#
# Coordination Sequence:
#
# PCOD9218192 Si02
#       4
#     8   8   8   8
#     4  11  23  44  65 101 142 180 222 289 340 407
#     4  10  24  43  65 101 143 179 227 288 342 405
#     4  11  23  43  70 100 134 184 225 283 337 412
#     4  11  24  43  69 100 136 181 230 279 343 410
#
# _framework density 22.770382000000001
#
# number of rings (size 3 to 8) (size 9 to 14) (size 15 to 20)
#    0.000    1.250    5.000    1.500    3.500    5.500 
#    0.000    0.000    0.000    0.000    0.000    0.000 
#    0.000    0.000    0.000    0.000    0.000    0.000 
#
# Total GULP energy -89295.697559 kJ/mol
# GULP energy per Si atom -5580.981097 kJ/mol
# Density = 2.271856 g / cm^3
# Si number density = 22.770382 Si / 1000 Ang^3
#
#
#
# Elastic Constant Matrix: (Units=GPa)
#
#
# Indices 1 2 3 4 5 6 
#
# 1 114.6629 65.9383 43.2384 0.0000 56.5140 0.0000
# 2 65.9383 159.4246 26.0434 0.0000 22.9253 0.0000
# 3 43.2384 26.0434 99.4041 0.0000 26.7961 0.0000
# 4 0.0000 0.0000 0.0000 55.0873 0.0000 32.8874
# 5 56.5140 22.9253 26.7961 0.0000 58.9583 0.0000
# 6 0.0000 0.0000 0.0000 32.8874 0.0000 24.4204
#
#
#
# Elastic Compliance Matrix: (Units=1/GPa)
#
#
# Indices 1 2 3 4 5 6 
#
# 1 0.021892 -0.006050 -0.003322 0.000000 -0.017122 0.000000
# 2 -0.006050 0.008442 -0.000295 0.000000 0.002650 0.000000
# 3 -0.003322 -0.000295 0.012186 0.000000 -0.002240 0.000000
# 4 0.000000 0.000000 0.000000 0.092615 0.000000 -0.124726
# 5 -0.017122 0.002650 -0.002240 0.000000 0.033361 0.000000
# 6 0.000000 0.000000 0.000000 -0.124726 0.000000 0.208920
#
#
# Mechanical properties :
#
#
# Convention : Reuss Voigt Hill
#
# Bulk Modulus (GPa) = 43.12775 71.54798 57.33786
# Shear Modulus (GPa) = 12.36165 43.57797 27.96981
#
# Velocity S-wave (km/s) = 2.33251 4.37945 3.50857
# Velocity P-wave (km/s) = 5.12207 7.55397 6.45360
#
# Compressibility (1/GPa) = 0.02318693
#
# Stress axis : x y z
#
# Youngs Moduli (GPa) = 45.67930 118.45913 82.06269
#
# Poissons Ratio (x) = 0.71664 0.27260
# Poissons Ratio (y) = 0.27634 0.02418
# Poissons Ratio (z) = 0.15174 0.03491
#
# Static dielectric constant tensor:
#      x y z
#    x 1.813760 0.000000 -0.124280 
#    y 0.000000 1.855930 0.000000 
#    z -0.124280 0.000000 1.795920 
# 
# From -- ./inp_files/37756.got.cif
#   From: 2010.05.17/outbox.cif.g08.bks.cpg/sg12_19_cif.got.tgz:37756.got - 2010.06.03 13:09:07.
