data_PCOD9218412
_publ_section_title
;
Structure prediction by ZEFSAII (Michael W. Deem and Ramdas Pophale) SiO2 
 PCOD9218412
Probable space group: C 2/M
;
_chemical_formula_sum "Si O2"
_cell_formula_units_Z 48
_cell_length_a 26.811021
_cell_length_b 14.508345
_cell_length_c 12.181714
_cell_angle_alpha 90.000000
_cell_angle_beta 150.956146
_cell_angle_gamma 90.000000
_cell_volume 2300.435143
_symmetry_space_group_name_H-M "C 2/M"
_symmetry_group_IT_number 12
_symmetry_cell_setting 'monoclinic'
loop_
_space_group_symop_operation_xyz
x,y,z
-x,y,-z
-x,-y,-z
x,-y,z
1/2+x,1/2+y,z
1/2-x,1/2+y,-z
1/2-x,1/2-y,-z
1/2+x,1/2-y,z
loop_
_atom_site_type_symbol
_atom_site_label
_atom_site_fract_x
_atom_site_fract_y
_atom_site_fract_z
Si Si1 0.401024 0.770869 0.244115
Si Si2 0.973100 0.897432 0.819380
Si Si3 0.351300 0.100617 0.538014
Si Si4 0.757667 0.388859 0.122284
Si Si5 0.055513 0.705680 0.915761
Si Si6 0.756287 0.347930 0.571272
O O1 0.500000 0.738866 0.500000
O O2 0.346327 0.848178 0.213772
O O3 0.430922 0.814920 0.185695
O O4 0.333751 0.680253 0.087669
O O5 0.850853 0.875808 0.578566
O O6 0.041463 0.815910 0.901314
O O7 0.994094 0.000000 0.815106
O O8 0.000000 0.897676 0.000000
O O9 0.289191 0.130272 0.310073
O O10 0.446898 0.166051 0.747283
O O11 0.282949 0.093224 0.515193
O O12 0.394673 0.000000 0.594676
O O13 0.741815 0.500000 0.080084
O O14 0.149498 0.661918 0.163401
O O15 0.750000 0.250000 0.500000
#
# Coordination Sequence:
#
# PCOD9218412 Si02
#       6
#     8   8   8   8   8   8
#     4  11  24  44  69  95 128 172 219 272 323 380
#     4  11  24  41  63  96 134 175 215 259 319 389
#     4  11  23  41  67  97 131 170 216 265 323 390
#     4  10  24  45  69  97 127 170 218 267 326 387
#     4  12  24  41  67  96 131 171 218 269 324 383
#     4  12  22  40  63  93 134 175 208 264 324 383
#
# _framework density 20.865617
#
# number of rings (size 3 to 8) (size 9 to 14) (size 15 to 20)
#    0.000    0.833    5.000    2.000    0.000    4.000 
#    0.000    1.667    0.000    0.000    0.000    0.000 
#    0.000    0.000    0.000    0.000    0.000    0.000 
#
# Total GULP energy -134024.512356 kJ/mol
# GULP energy per Si atom -5584.354681 kJ/mol
# Density = 2.081813 g / cm^3
# Si number density = 20.865617 Si / 1000 Ang^3
#
#
#
# Elastic Constant Matrix: (Units=GPa)
#
#
# Indices 1 2 3 4 5 6 
#
# 1 87.9146 3.2530 27.7657 0.0000 -11.5026 0.0000
# 2 3.2530 85.6638 19.1998 0.0000 -4.4392 0.0000
# 3 27.7657 19.1998 121.1474 0.0000 -15.8073 0.0000
# 4 0.0000 0.0000 0.0000 -25.8799 0.0000 -12.2858
# 5 -11.5026 -4.4392 -15.8073 0.0000 31.0174 0.0000
# 6 0.0000 0.0000 0.0000 -12.2858 0.0000 13.1222
#
#
#
# Elastic Compliance Matrix: (Units=1/GPa)
#
#
# Indices 1 2 3 4 5 6 
#
# 1 0.012599 0.000256 -0.002478 0.000000 0.003446 0.000000
# 2 0.000256 0.012128 -0.001866 0.000000 0.000880 0.000000
# 3 -0.002478 -0.001866 0.009602 0.000000 0.003707 0.000000
# 4 0.000000 0.000000 0.000000 -0.026750 0.000000 -0.025045
# 5 0.003446 0.000880 0.003707 0.000000 0.035533 0.000000
# 6 0.000000 0.000000 0.000000 -0.025045 0.000000 0.052758
#
#
# Mechanical properties :
#
#
# Convention : Reuss Voigt Hill
#
# Bulk Modulus (GPa) = 38.23948 43.90696 41.07322
# Shear Modulus (GPa) = 44.34091 19.95245 32.14668
#
# Velocity S-wave (km/s) = 4.61485 3.09566 3.92937
# Velocity P-wave (km/s) = 6.83828 5.81944 6.34933
#
# Compressibility (1/GPa) = 0.02615099
#
# Stress axis : x y z
#
# Youngs Moduli (GPa) = 79.37273 82.45649 104.14650
#
# Poissons Ratio (x) = -0.02108 0.25812
# Poissons Ratio (y) = -0.02029 0.19432
# Poissons Ratio (z) = 0.19672 0.15385
#
# Static dielectric constant tensor:
#      x y z
#    x 1.756700 0.000000 0.037760 
#    y 0.000000 1.513250 0.000000 
#    z 0.037760 0.000000 1.753370 
# 
# From -- ./inp_files/183871.got.cif
#   From: 2010.05.17/outbox.cif.g08.bks.cpg/sg12_92_cif.got.tgz:183871.got - 2010.06.03 13:09:07.
