data_PCOD9218878
_publ_section_title
;
Structure prediction by ZEFSAII (Michael W. Deem and Ramdas Pophale) SiO2 
 PCOD9218878
Probable space group: C 2/M
;
_chemical_formula_sum "Si O2"
_cell_formula_units_Z 40
_cell_length_a 10.075521
_cell_length_b 22.824738
_cell_length_c 10.253812
_cell_angle_alpha 90.000000
_cell_angle_beta 75.770370
_cell_angle_gamma 90.000000
_cell_volume 2285.730923
_symmetry_space_group_name_H-M "C 2/M"
_symmetry_group_IT_number 12
_symmetry_cell_setting 'monoclinic'
loop_
_space_group_symop_operation_xyz
x,y,z
-x,y,-z
-x,-y,-z
x,-y,z
1/2+x,1/2+y,z
1/2-x,1/2+y,-z
1/2-x,1/2-y,-z
1/2+x,1/2-y,z
loop_
_atom_site_type_symbol
_atom_site_label
_atom_site_fract_x
_atom_site_fract_y
_atom_site_fract_z
Si Si1 0.158305 0.611678 0.812498
Si Si2 0.562910 0.567998 0.342800
Si Si3 0.351571 0.761605 0.096419
Si Si4 0.641617 0.930062 0.116791
Si Si5 0.406290 0.366743 0.152876
O O1 0.275306 0.580729 0.701117
O O2 0.188537 0.680907 0.814182
O O3 0.003527 0.597875 0.806772
O O4 0.165615 0.587380 0.959423
O O5 0.500000 0.578210 0.500000
O O6 0.539534 0.500000 0.312830
O O7 0.491419 0.608858 0.252932
O O8 0.366360 0.701585 0.172361
O O9 0.500000 0.775586 0.000000
O O10 0.250000 0.750000 0.000000
O O11 0.769032 0.904002 0.164386
O O12 0.634002 0.000000 0.128467
O O13 0.500000 0.371603 0.000000
#
# Coordination Sequence:
#
# PCOD9218878 Si02
#       5
#     8   8   8   8   8
#     4  11  19  35  55  82 114 147 183 229 287 334
#     4  11  24  41  58  80 116 156 191 232 285 340
#     4  11  18  33  54  85 116 142 180 234 285 327
#     4  11  20  31  54  86 114 139 183 236 280 328
#     4  11  21  35  59  88 113 147 191 236 279 333
#
# _framework density 17.499870999999999
#
# number of rings (size 3 to 8) (size 9 to 14) (size 15 to 20)
#    0.000    1.000    6.000    4.200    0.000    0.800 
#    0.000    2.000    0.000    3.600    0.000    0.000 
#    0.000    0.000    0.000    0.000    0.000    0.000 
#
# Total GULP energy -111719.588006 kJ/mol
# GULP energy per Si atom -5585.979400 kJ/mol
# Density = 1.746004 g / cm^3
# Si number density = 17.499871 Si / 1000 Ang^3
#
#
#
# Elastic Constant Matrix: (Units=GPa)
#
#
# Indices 1 2 3 4 5 6 
#
# 1 102.1828 24.3353 21.1178 0.0000 -12.2926 0.0000
# 2 24.3353 147.5074 39.1944 0.0000 1.7930 0.0000
# 3 21.1178 39.1944 43.5236 0.0000 -14.3531 0.0000
# 4 0.0000 0.0000 0.0000 -2.1862 0.0000 -15.0136
# 5 -12.2926 1.7930 -14.3531 0.0000 20.9555 0.0000
# 6 0.0000 0.0000 0.0000 -15.0136 0.0000 11.2153
#
#
#
# Elastic Compliance Matrix: (Units=1/GPa)
#
#
# Indices 1 2 3 4 5 6 
#
# 1 0.011218 -0.001152 -0.002846 0.000000 0.004730 0.000000
# 2 -0.001152 0.010234 -0.011844 0.000000 -0.009664 0.000000
# 3 -0.002846 -0.011844 0.044962 0.000000 0.030140 0.000000
# 4 0.000000 0.000000 0.000000 -0.044874 0.000000 -0.060072
# 5 0.004730 -0.009664 0.030140 0.000000 0.071965 0.000000
# 6 0.000000 0.000000 0.000000 -0.060072 0.000000 0.008747
#
#
# Mechanical properties :
#
#
# Convention : Reuss Voigt Hill
#
# Bulk Modulus (GPa) = 28.79302 51.38988 40.09145
# Shear Modulus (GPa) = 34.36144 19.90134 27.13139
#
# Velocity S-wave (km/s) = 4.43598 3.37594 3.94175
# Velocity P-wave (km/s) = 6.53653 6.68024 6.60877
#
# Compressibility (1/GPa) = 0.03473063
#
# Stress axis : x y z
#
# Youngs Moduli (GPa) = 89.14355 97.71470 22.24108
#
# Poissons Ratio (x) = 0.11257 0.06329
# Poissons Ratio (y) = 0.10270 0.26342
# Poissons Ratio (z) = 0.25367 1.15731
#
# Static dielectric constant tensor:
#      x y z
#    x 1.609080 0.000000 -0.003410 
#    y 0.000000 1.616370 0.000000 
#    z -0.003410 0.000000 1.550260 
# 
# From -- ./inp_files/39354.got.cif
#   From: 2010.05.17/outbox.cif.g08.bks.cpg/sg12_20_cif.got.tgz:39354.got - 2010.06.03 13:09:07.
