data_PCOD9218303
_publ_section_title
;
Structure prediction by ZEFSAII (Michael W. Deem and Ramdas Pophale) SiO2 
 PCOD9218303
Probable space group: C 2/M
;
_chemical_formula_sum "Si O2"
_cell_formula_units_Z 42
_cell_length_a 11.462853
_cell_length_b 26.716023
_cell_length_c 6.816815
_cell_angle_alpha 90.000000
_cell_angle_beta 99.787608
_cell_angle_gamma 90.000000
_cell_volume 2057.208418
_symmetry_space_group_name_H-M "C 2/M"
_symmetry_group_IT_number 12
_symmetry_cell_setting 'monoclinic'
loop_
_space_group_symop_operation_xyz
x,y,z
-x,y,-z
-x,-y,-z
x,-y,z
1/2+x,1/2+y,z
1/2-x,1/2+y,-z
1/2-x,1/2-y,-z
1/2+x,1/2-y,z
loop_
_atom_site_type_symbol
_atom_site_label
_atom_site_fract_x
_atom_site_fract_y
_atom_site_fract_z
Si Si1 0.616670 0.181794 0.423001
Si Si2 0.866901 0.758367 0.898963
Si Si3 0.864574 0.941912 0.526573
Si Si4 0.667856 0.093794 0.163647
Si Si5 0.000000 0.500000 0.000000
Si Si6 0.285031 0.363273 0.805525
O O1 0.500000 0.198823 0.500000
O O2 0.662034 0.227328 0.305143
O O3 0.595978 0.135219 0.268394
O O4 0.700733 0.161000 0.616519
O O5 0.872882 0.818028 0.877164
O O6 0.750000 0.750000 0.000000
O O7 0.000000 0.741105 0.000000
O O8 0.779570 0.920690 0.332178
O O9 0.844062 0.910613 0.717939
O O10 0.000000 0.937753 0.500000
O O11 0.834983 0.000000 0.550785
O O12 0.592511 0.044496 0.098738
O O13 0.714330 0.119004 0.976955
#
# Coordination Sequence:
#
# PCOD9218303 Si02
#       6
#     8   8   8   8   2   8
#     4  11  24  45  71 102 145 187 235 296 361 432
#     4  12  26  45  73 104 147 193 241 300 370 430
#     4  10  24  44  66  98 138 182 234 293 358 430
#     4  11  24  44  68 103 142 179 238 297 362 429
#     4  12  24  40  72  98 138 184 228 292 358 436
#     4  11  25  43  72 101 139 186 240 296 358 434
#
# _framework density 20.416015999999999
#
# number of rings (size 3 to 8) (size 9 to 14) (size 15 to 20)
#    0.000    0.952    2.857    2.857    5.333    0.762 
#    0.000    4.286    0.000    0.000    0.000    0.000 
#    0.000    0.000    0.000    0.000    0.000    0.000 
#
# Total GULP energy -117049.862877 kJ/mol
# GULP energy per Si atom -5573.802994 kJ/mol
# Density = 2.036955 g / cm^3
# Si number density = 20.416016 Si / 1000 Ang^3
#
#
#
# Elastic Constant Matrix: (Units=GPa)
#
#
# Indices 1 2 3 4 5 6 
#
# 1 81.1122 38.7098 45.4459 0.0000 -8.4614 0.0000
# 2 38.7098 103.9546 68.3453 0.0000 -13.0004 0.0000
# 3 45.4459 68.3453 103.3586 0.0000 -19.8561 0.0000
# 4 0.0000 0.0000 0.0000 37.6998 0.0000 4.1542
# 5 -8.4614 -13.0004 -19.8561 0.0000 38.0192 0.0000
# 6 0.0000 0.0000 0.0000 4.1542 0.0000 27.5149
#
#
#
# Elastic Compliance Matrix: (Units=1/GPa)
#
#
# Indices 1 2 3 4 5 6 
#
# 1 0.016708 -0.002462 -0.005742 0.000000 -0.000122 0.000000
# 2 -0.002462 0.017381 -0.010419 0.000000 -0.000046 0.000000
# 3 -0.005742 -0.010419 0.020185 0.000000 0.005701 0.000000
# 4 0.000000 0.000000 0.000000 0.026974 0.000000 -0.004073
# 5 -0.000122 -0.000046 0.005701 0.000000 0.029237 0.000000
# 6 0.000000 0.000000 0.000000 -0.004073 0.000000 0.036959
#
#
# Mechanical properties :
#
#
# Convention : Reuss Voigt Hill
#
# Bulk Modulus (GPa) = 58.72992 65.93637 62.33315
# Shear Modulus (GPa) = 26.26533 29.70842 27.98688
#
# Velocity S-wave (km/s) = 3.59068 3.81878 3.70649
# Velocity P-wave (km/s) = 6.78378 7.19796 6.99394
#
# Compressibility (1/GPa) = 0.01702710
#
# Stress axis : x y z
#
# Youngs Moduli (GPa) = 59.85229 57.53486 49.54232
#
# Poissons Ratio (x) = 0.14164 0.28447
# Poissons Ratio (y) = 0.14734 0.51620
# Poissons Ratio (z) = 0.34367 0.59948
#
# Static dielectric constant tensor:
#      x y z
#    x 1.751300 0.000000 0.027270 
#    y 0.000000 1.718290 0.000000 
#    z 0.027270 0.000000 1.733650 
# 
# From -- ./inp_files/8410.got.cif
#   From: 2010.05.17/outbox.cif.g08.bks.cpg/sg12_5_cif.got.tgz:8410.got - 2010.06.03 13:09:07.
