data_PCOD9218485
_publ_section_title
;
Structure prediction by ZEFSAII (Michael W. Deem and Ramdas Pophale) SiO2 
 PCOD9218485
Probable space group: C 2/M
;
_chemical_formula_sum "Si O2"
_cell_formula_units_Z 64
_cell_length_a 30.885051
_cell_length_b 21.284204
_cell_length_c 16.492621
_cell_angle_alpha 90.000000
_cell_angle_beta 162.747748
_cell_angle_gamma 90.000000
_cell_volume 3215.407161
_symmetry_space_group_name_H-M "C 2/M"
_symmetry_group_IT_number 12
_symmetry_cell_setting 'monoclinic'
loop_
_space_group_symop_operation_xyz
x,y,z
-x,y,-z
-x,-y,-z
x,-y,z
1/2+x,1/2+y,z
1/2-x,1/2+y,-z
1/2-x,1/2-y,-z
1/2+x,1/2-y,z
loop_
_atom_site_type_symbol
_atom_site_label
_atom_site_fract_x
_atom_site_fract_y
_atom_site_fract_z
Si Si1 0.411329 0.879741 0.725977
Si Si2 0.547071 0.927749 0.678321
Si Si3 0.701402 0.929450 0.311688
Si Si4 0.708818 0.124761 0.662759
Si Si5 0.535127 0.359987 0.284506
Si Si6 0.915572 0.240428 0.767906
Si Si7 0.857435 0.240595 0.398123
Si Si8 0.659190 0.794024 0.897666
O O1 0.319530 0.888435 0.644433
O O2 0.323011 0.894627 0.486788
O O3 0.465765 0.807800 0.823226
O O4 0.556519 0.920355 0.998805
O O5 0.500000 0.927526 0.500000
O O6 0.412244 0.907468 0.495900
O O7 0.592563 0.000000 0.779223
O O8 0.660491 0.869408 0.888526
O O9 0.841961 0.911505 0.511784
O O10 0.709916 0.000000 0.356415
O O11 0.691747 0.200984 0.634112
O O12 0.871479 0.113517 0.987078
O O13 0.555550 0.311303 0.247212
O O14 0.577122 0.318850 0.437802
O O15 0.750000 0.250000 0.500000
O O16 0.000000 0.223748 0.000000
O O17 0.724087 0.221027 0.102474
O O18 0.992416 0.271268 0.591091
O O19 0.750000 0.750000 0.000000
#
# Coordination Sequence:
#
# PCOD9218485 Si02
#       8
#     8   8   8   8   8   8   8   8
#     4  11  21  41  65  90 124 168 220 274 324 390
#     4  10  24  46  71  98 133 177 226 269 326 408
#     4  11  26  44  61  88 127 179 225 269 326 397
#     4  11  24  40  66  98 130 170 214 275 333 394
#     4  12  25  38  62  95 135 168 214 279 333 382
#     4  12  21  35  60  91 121 159 211 266 329 376
#     4  11  23  38  62 102 136 161 212 268 333 397
#     4  11  22  42  70 101 134 172 213 275 337 400
#
# _framework density 19.904166
#
# number of rings (size 3 to 8) (size 9 to 14) (size 15 to 20)
#    0.000    0.875    5.000    3.375    5.250    1.500 
#    0.000    0.625    0.000    1.500    0.000    0.000 
#    0.000    0.000    0.000    0.000    0.000    0.000 
#
# Total GULP energy -178709.088125 kJ/mol
# GULP energy per Si atom -5584.659004 kJ/mol
# Density = 1.985886 g / cm^3
# Si number density = 19.904166 Si / 1000 Ang^3
#
#
#
# Elastic Constant Matrix: (Units=GPa)
#
#
# Indices 1 2 3 4 5 6 
#
# 1 46.0443 15.3608 22.6032 0.0000 -4.0575 0.0000
# 2 15.3608 103.6252 23.6883 0.0000 -1.4128 0.0000
# 3 22.6032 23.6883 54.6494 0.0000 -2.4365 0.0000
# 4 0.0000 0.0000 0.0000 16.4914 0.0000 5.7534
# 5 -4.0575 -1.4128 -2.4365 0.0000 37.7686 0.0000
# 6 0.0000 0.0000 0.0000 5.7534 0.0000 14.4764
#
#
#
# Elastic Compliance Matrix: (Units=1/GPa)
#
#
# Indices 1 2 3 4 5 6 
#
# 1 0.027685 -0.001641 -0.010640 0.000000 0.002226 0.000000
# 2 -0.001641 0.010809 -0.004008 0.000000 -0.000031 0.000000
# 3 -0.010640 -0.004008 0.024449 0.000000 0.000284 0.000000
# 4 0.000000 0.000000 0.000000 0.070398 0.000000 -0.027979
# 5 0.002226 -0.000031 0.000284 0.000000 0.026733 0.000000
# 6 0.000000 0.000000 0.000000 -0.027979 0.000000 0.080198
#
#
# Mechanical properties :
#
#
# Convention : Reuss Voigt Hill
#
# Bulk Modulus (GPa) = 32.93245 36.40262 34.66754
# Shear Modulus (GPa) = 17.66953 23.25838 20.46395
#
# Velocity S-wave (km/s) = 2.98271 3.42207 3.20992
# Velocity P-wave (km/s) = 5.33325 5.82604 5.58508
#
# Compressibility (1/GPa) = 0.03036519
#
# Stress axis : x y z
#
# Youngs Moduli (GPa) = 36.12043 92.51357 40.90121
#
# Poissons Ratio (x) = 0.15184 0.43519
# Poissons Ratio (y) = 0.05928 0.16393
# Poissons Ratio (z) = 0.38432 0.37078
#
# Static dielectric constant tensor:
#      x y z
#    x 1.710680 0.000000 0.015460 
#    y 0.000000 1.745720 0.000000 
#    z 0.015460 0.000000 1.699380 
# 
# From -- ./inp_files/251962.got.cif
#   From: 2010.05.17/outbox.cif.g08.bks.cpg/sg12_126_cif.got.tgz:251962.got - 2010.06.03 13:09:07.
