data_PCOD9218418
_publ_section_title
;
Structure prediction by ZEFSAII (Michael W. Deem and Ramdas Pophale) SiO2 
 PCOD9218418
Probable space group: C 2/M
;
_chemical_formula_sum "Si O2"
_cell_formula_units_Z 56
_cell_length_a 25.498901
_cell_length_b 17.645377
_cell_length_c 6.264990
_cell_angle_alpha 90.000000
_cell_angle_beta 114.166332
_cell_angle_gamma 90.000000
_cell_volume 2571.813202
_symmetry_space_group_name_H-M "C 2/M"
_symmetry_group_IT_number 12
_symmetry_cell_setting 'monoclinic'
loop_
_space_group_symop_operation_xyz
x,y,z
-x,y,-z
-x,-y,-z
x,-y,z
1/2+x,1/2+y,z
1/2-x,1/2+y,-z
1/2-x,1/2-y,-z
1/2+x,1/2-y,z
loop_
_atom_site_type_symbol
_atom_site_label
_atom_site_fract_x
_atom_site_fract_y
_atom_site_fract_z
Si Si1 0.853162 0.632771 0.492470
Si Si2 0.937454 0.418514 0.286166
Si Si3 0.264319 0.585178 0.501493
Si Si4 0.487055 0.584125 0.231880
Si Si5 0.797480 0.213665 0.230558
Si Si6 0.434245 0.788509 0.949165
Si Si7 0.133747 0.859780 0.023463
O O1 0.883343 0.587268 0.354079
O O2 0.799004 0.590080 0.502680
O O3 0.828032 0.714912 0.387422
O O4 0.904965 0.654401 0.734970
O O5 0.932802 0.500000 0.158706
O O6 0.000000 0.420094 0.500000
O O7 0.935306 0.339112 0.161544
O O8 0.273563 0.500000 0.431468
O O9 0.269018 0.653381 0.340973
O O10 0.314516 0.604616 0.755087
O O11 0.500000 0.618521 0.500000
O O12 0.513226 0.500000 0.286063
O O13 0.500000 0.609348 0.000000
O O14 0.418498 0.584753 0.108285
O O15 0.750000 0.250000 0.000000
O O16 0.841988 0.168960 0.159414
O O17 0.395069 0.714009 0.911032
O O18 0.500000 0.771126 0.000000
#
# Coordination Sequence:
#
# PCOD9218418 Si02
#       7
#     8   8   8   8   8   8   8
#     4  12  24  47  72 101 141 191 237 298 364 447
#     4  11  25  44  68 102 142 183 235 300 365 432
#     4  12  28  46  72 109 147 190 242 304 375 447
#     4  10  24  45  70 105 151 199 250 312 382 451
#     4  12  25  47  73  99 141 189 243 301 364 438
#     4  12  25  43  72 105 140 186 242 294 362 438
#     4  12  25  44  75 103 143 191 243 304 368 451
#
# _framework density 21.774522000000001
#
# number of rings (size 3 to 8) (size 9 to 14) (size 15 to 20)
#    0.000    0.429    5.714    2.571    2.000    4.286 
#    0.000    0.000    0.000    0.000    0.000    0.000 
#    0.000    0.000    0.000    0.000    0.000    0.000 
#
# Total GULP energy -156145.975000 kJ/mol
# GULP energy per Si atom -5576.641964 kJ/mol
# Density = 2.172496 g / cm^3
# Si number density = 21.774522 Si / 1000 Ang^3
#
#
#
# Elastic Constant Matrix: (Units=GPa)
#
#
# Indices 1 2 3 4 5 6 
#
# 1 127.6628 23.5645 16.0906 0.0000 -3.9422 0.0000
# 2 23.5645 114.0626 18.5502 0.0000 -1.2540 0.0000
# 3 16.0906 18.5502 71.4416 0.0000 4.7240 0.0000
# 4 0.0000 0.0000 0.0000 8.2580 0.0000 -9.5817
# 5 -3.9422 -1.2540 4.7240 0.0000 34.4071 0.0000
# 6 0.0000 0.0000 0.0000 -9.5817 0.0000 24.0232
#
#
#
# Elastic Compliance Matrix: (Units=1/GPa)
#
#
# Indices 1 2 3 4 5 6 
#
# 1 0.008334 -0.001454 -0.001574 0.000000 0.001118 0.000000
# 2 -0.001454 0.009422 -0.002150 0.000000 0.000472 0.000000
# 3 -0.001574 -0.002150 0.015064 0.000000 -0.002327 0.000000
# 4 0.000000 0.000000 0.000000 0.225413 0.000000 0.089907
# 5 0.001118 0.000472 -0.002327 0.000000 0.029529 0.000000
# 6 0.000000 0.000000 0.000000 0.089907 0.000000 0.077486
#
#
# Mechanical properties :
#
#
# Convention : Reuss Voigt Hill
#
# Bulk Modulus (GPa) = 44.51261 47.73085 46.12173
# Shear Modulus (GPa) = 13.05168 30.33511 21.69339
#
# Velocity S-wave (km/s) = 2.45092 3.73654 3.15981
# Velocity P-wave (km/s) = 5.33819 6.37053 5.87707
#
# Compressibility (1/GPa) = 0.02246555
#
# Stress axis : x y z
#
# Youngs Moduli (GPa) = 119.98597 106.13091 66.38309
#
# Poissons Ratio (x) = 0.15427 0.10446
# Poissons Ratio (y) = 0.17441 0.14275
# Poissons Ratio (z) = 0.18881 0.22822
#
# Static dielectric constant tensor:
#      x y z
#    x 1.785420 0.000000 -0.087050 
#    y 0.000000 1.688550 0.000000 
#    z -0.087050 0.000000 1.799230 
# 
# From -- ./inp_files/25668.got.cif
#   From: 2010.05.17/outbox.cif.g08.bks.cpg/sg12_13_cif.got.tgz:25668.got - 2010.06.03 13:09:07.
