data_PCOD9218693
_publ_section_title
;
Structure prediction by ZEFSAII (Michael W. Deem and Ramdas Pophale) SiO2 
 PCOD9218693
Probable space group: C 2/M
;
_chemical_formula_sum "Si O2"
_cell_formula_units_Z 28
_cell_length_a 9.511720
_cell_length_b 14.009866
_cell_length_c 8.642411
_cell_angle_alpha 90.000000
_cell_angle_beta 113.759278
_cell_angle_gamma 90.000000
_cell_volume 1054.061407
_symmetry_space_group_name_H-M "C 2/M"
_symmetry_group_IT_number 12
_symmetry_cell_setting 'monoclinic'
loop_
_space_group_symop_operation_xyz
x,y,z
-x,y,-z
-x,-y,-z
x,-y,z
1/2+x,1/2+y,z
1/2-x,1/2+y,-z
1/2-x,1/2-y,-z
1/2+x,1/2-y,z
loop_
_atom_site_type_symbol
_atom_site_label
_atom_site_fract_x
_atom_site_fract_y
_atom_site_fract_z
Si Si1 0.904129 0.000000 0.788646
Si Si2 0.000000 0.336662 0.500000
Si Si3 0.232022 0.795085 0.166832
Si Si4 0.730222 0.000000 0.070003
Si Si5 0.000000 0.657469 0.000000
Si Si6 0.306356 0.000000 0.578993
O O1 0.830261 0.902760 0.827469
O O2 0.850637 0.000000 0.587471
O O3 0.911596 0.000000 0.118929
O O4 0.878400 0.280048 0.341207
O O5 0.902135 0.408497 0.564532
O O6 0.250000 0.750000 0.000000
O O7 0.092060 0.726207 0.155433
O O8 0.622556 0.911941 0.972154
O O9 0.717784 0.000000 0.250287
#
# Coordination Sequence:
#
# PCOD9218693 Si02
#       6
#     4   4   8   4   4   4
#     4  10  25  46  80 112 154 205 268 323 403 479
#     4   9  20  44  78 113 156 204 264 319 408 471
#     4  11  25  48  77 117 154 207 264 331 397 479
#     4  11  24  48  72 112 156 211 261 329 395 474
#     4  11  28  45  72 110 158 205 264 317 392 478
#     4   9  18  43  75 111 153 202 256 336 390 476
#
# _framework density 26.563917
#
# number of rings (size 3 to 8) (size 9 to 14) (size 15 to 20)
#    0.000    1.714    0.000    3.000    4.000    2.857 
#    5.143    4.286    0.000    4.286    0.000    0.000 
#    0.000    0.000    0.000    0.000    0.000    0.000 
#
# Total GULP energy -78318.638730 kJ/mol
# GULP energy per Si atom -5594.188481 kJ/mol
# Density = 2.650346 g / cm^3
# Si number density = 26.563917 Si / 1000 Ang^3
#
#
#
# Elastic Constant Matrix: (Units=GPa)
#
#
# Indices 1 2 3 4 5 6 
#
# 1 196.3002 59.2689 87.8687 0.0000 29.1584 0.0000
# 2 59.2689 188.2824 61.9613 0.0000 29.0277 0.0000
# 3 87.8687 61.9613 242.5170 0.0000 48.2513 0.0000
# 4 0.0000 0.0000 0.0000 -28.5866 0.0000 42.9569
# 5 29.1584 29.0277 48.2513 0.0000 77.6148 0.0000
# 6 0.0000 0.0000 0.0000 42.9569 0.0000 20.4370
#
#
#
# Elastic Compliance Matrix: (Units=1/GPa)
#
#
# Indices 1 2 3 4 5 6 
#
# 1 0.006426 -0.001296 -0.001841 0.000000 -0.000785 0.000000
# 2 -0.001296 0.006201 -0.000856 0.000000 -0.001300 0.000000
# 3 -0.001841 -0.000856 0.005487 0.000000 -0.002399 0.000000
# 4 0.000000 0.000000 0.000000 -0.008412 0.000000 0.017681
# 5 -0.000785 -0.001300 -0.002399 0.000000 0.015157 0.000000
# 6 0.000000 0.000000 0.000000 0.017681 0.000000 0.011766
#
#
# Mechanical properties :
#
#
# Convention : Reuss Voigt Hill
#
# Bulk Modulus (GPa) = 98.73945 116.14417 107.44181
# Shear Modulus (GPa) = 104.19375 41.75974 72.97675
#
# Velocity S-wave (km/s) = 6.26968 3.96921 5.24707
# Velocity P-wave (km/s) = 9.46906 8.05131 8.78882
#
# Compressibility (1/GPa) = 0.01012766
#
# Stress axis : x y z
#
# Youngs Moduli (GPa) = 155.61192 161.25579 182.26491
#
# Poissons Ratio (x) = 0.20899 0.33556
# Poissons Ratio (y) = 0.20167 0.15605
# Poissons Ratio (z) = 0.28649 0.13806
#
# Static dielectric constant tensor:
#      x y z
#    x 2.213790 0.000000 -0.053750 
#    y 0.000000 2.149370 0.000000 
#    z -0.053750 0.000000 2.059190 
# 
# From -- ./inp_files/58825.got.cif
#   From: 2010.05.17/outbox.cif.g08.bks.cpg/sg12_30_cif.got.tgz:58825.got - 2010.06.03 13:09:07.
