data_PCOD9218861
_publ_section_title
;
Structure prediction by ZEFSAII (Michael W. Deem and Ramdas Pophale) SiO2 
 PCOD9218861
Probable space group: C 2/M
;
_chemical_formula_sum "Si O2"
_cell_formula_units_Z 64
_cell_length_a 16.159824
_cell_length_b 15.435196
_cell_length_c 14.386129
_cell_angle_alpha 90.000000
_cell_angle_beta 119.037586
_cell_angle_gamma 90.000000
_cell_volume 3137.284768
_symmetry_space_group_name_H-M "C 2/M"
_symmetry_group_IT_number 12
_symmetry_cell_setting 'monoclinic'
loop_
_space_group_symop_operation_xyz
x,y,z
-x,y,-z
-x,-y,-z
x,-y,z
1/2+x,1/2+y,z
1/2-x,1/2+y,-z
1/2-x,1/2-y,-z
1/2+x,1/2-y,z
loop_
_atom_site_type_symbol
_atom_site_label
_atom_site_fract_x
_atom_site_fract_y
_atom_site_fract_z
Si Si1 0.422920 0.104256 0.087335
Si Si2 0.568704 0.600098 0.406672
Si Si3 0.822407 0.396720 0.224861
Si Si4 0.271208 0.642890 0.654952
Si Si5 0.022284 0.731553 0.620312
Si Si6 0.123421 0.590871 0.430505
Si Si7 0.729905 0.654888 0.629794
Si Si8 0.868220 0.604560 0.851016
O O1 0.351374 0.123277 0.133303
O O2 0.534572 0.132150 0.150955
O O3 0.428519 0.000000 0.087007
O O4 0.383182 0.132968 0.965686
O O5 0.541540 0.500000 0.400033
O O6 0.639057 0.613233 0.357173
O O7 0.485225 0.670017 0.351096
O O8 0.628333 0.629622 0.531566
O O9 0.842565 0.500000 0.246621
O O10 0.727145 0.380723 0.234655
O O11 0.885661 0.323352 0.309155
O O12 0.181041 0.596271 0.557695
O O13 0.252327 0.744350 0.624156
O O14 0.939917 0.673892 0.619560
O O15 0.000000 0.726840 0.500000
O O16 0.069100 0.500000 0.396561
O O17 0.201745 0.595198 0.394456
O O18 0.770001 0.637867 0.754185
O O19 0.865599 0.500000 0.847325
#
# Coordination Sequence:
#
# PCOD9218861 Si02
#       8
#     8   8   8   8   8   8   8   8
#     4   8  17  31  49  76 106 133 167 216 266 316
#     4  11  22  37  52  72 108 148 181 214 254 309
#     4  11  21  34  54  79 109 142 171 215 276 315
#     4  11  20  34  49  73 109 142 176 216 253 311
#     4  12  22  34  49  78 108 140 180 220 255 311
#     4  11  19  31  49  72 105 139 170 209 254 303
#     4  11  18  32  51  74 101 141 178 214 255 304
#     4   9  16  30  51  76 104 135 173 213 263 317
#
# _framework density 20.399806000000002
#
# number of rings (size 3 to 8) (size 9 to 14) (size 15 to 20)
#    0.000    1.500    3.750    5.625    0.000    1.750 
#    0.000    0.625    0.000    0.000    0.000    0.000 
#    0.000    4.000    0.000    0.000    0.000    0.375 
#
# Total GULP energy -178254.463264 kJ/mol
# GULP energy per Si atom -5570.451977 kJ/mol
# Density = 2.035337 g / cm^3
# Si number density = 20.399806 Si / 1000 Ang^3
#
#
#
# Elastic Constant Matrix: (Units=GPa)
#
#
# Indices 1 2 3 4 5 6 
#
# 1 54.1862 12.7246 29.4921 0.0000 -23.3104 0.0000
# 2 12.7246 139.4206 15.5802 0.0000 -4.3852 0.0000
# 3 29.4921 15.5802 88.7540 0.0000 -26.4663 0.0000
# 4 0.0000 0.0000 0.0000 18.7822 0.0000 -10.7799
# 5 -23.3104 -4.3852 -26.4663 0.0000 30.4943 0.0000
# 6 0.0000 0.0000 0.0000 -10.7799 0.0000 15.2352
#
#
#
# Elastic Compliance Matrix: (Units=1/GPa)
#
#
# Indices 1 2 3 4 5 6 
#
# 1 0.028878 -0.001630 -0.003774 0.000000 0.018566 0.000000
# 2 -0.001630 0.007408 -0.001096 0.000000 -0.001132 0.000000
# 3 -0.003774 -0.001096 0.015929 0.000000 0.010783 0.000000
# 4 0.000000 0.000000 0.000000 0.089649 0.000000 0.063432
# 5 0.018566 -0.001132 0.010783 0.000000 0.056180 0.000000
# 6 0.000000 0.000000 0.000000 0.063432 0.000000 0.110520
#
#
# Mechanical properties :
#
#
# Convention : Reuss Voigt Hill
#
# Bulk Modulus (GPa) = 25.50036 44.21716 34.85876
# Shear Modulus (GPa) = 14.94158 27.87324 21.40741
#
# Velocity S-wave (km/s) = 2.70929 3.70043 3.24295
# Velocity P-wave (km/s) = 4.72382 6.32296 5.58096
#
# Compressibility (1/GPa) = 0.03921513
#
# Stress axis : x y z
#
# Youngs Moduli (GPa) = 34.62809 134.98506 62.77911
#
# Poissons Ratio (x) = 0.22003 0.23690
# Poissons Ratio (y) = 0.05644 0.06884
# Poissons Ratio (z) = 0.13067 0.14801
#
# Static dielectric constant tensor:
#      x y z
#    x 1.826310 0.000000 -0.016730 
#    y 0.000000 1.733510 0.000000 
#    z -0.016730 0.000000 1.782950 
# 
# From -- ./inp_files/233164.got.cif
#   From: 2010.05.17/outbox.cif.g08.bks.cpg/sg12_117_cif.got.tgz:233164.got - 2010.06.03 13:09:07.
