data_PCOD9218815
_publ_section_title
;
Structure prediction by ZEFSAII (Michael W. Deem and Ramdas Pophale) SiO2 
 PCOD9218815
Probable space group: C 2/M
;
_chemical_formula_sum "Si O2"
_cell_formula_units_Z 64
_cell_length_a 8.639488
_cell_length_b 18.354923
_cell_length_c 24.118674
_cell_angle_alpha 90.000000
_cell_angle_beta 88.173342
_cell_angle_gamma 90.000000
_cell_volume 3822.726718
_symmetry_space_group_name_H-M "C 2/M"
_symmetry_group_IT_number 12
_symmetry_cell_setting 'monoclinic'
loop_
_space_group_symop_operation_xyz
x,y,z
-x,y,-z
-x,-y,-z
x,-y,z
1/2+x,1/2+y,z
1/2-x,1/2+y,-z
1/2-x,1/2-y,-z
1/2+x,1/2-y,z
loop_
_atom_site_type_symbol
_atom_site_label
_atom_site_fract_x
_atom_site_fract_y
_atom_site_fract_z
Si Si1 0.118050 0.303168 0.715687
Si Si2 0.867568 0.296014 0.037774
Si Si3 0.677195 0.585108 0.612136
Si Si4 0.347974 0.914786 0.728835
Si Si5 0.818672 0.193826 0.188486
Si Si6 0.604091 0.714233 0.115225
Si Si7 0.579894 0.304216 0.357977
Si Si8 0.645983 0.799858 0.461701
O O1 0.170840 0.264685 0.771723
O O2 0.259250 0.321158 0.673601
O O3 0.010023 0.372196 0.727116
O O4 0.018823 0.241624 0.685227
O O5 0.743687 0.329577 0.083125
O O6 0.980032 0.243390 0.071812
O O7 0.750000 0.250000 0.000000
O O8 0.000000 0.337926 0.000000
O O9 0.664101 0.500000 0.599421
O O10 0.772639 0.593180 0.668587
O O11 0.513474 0.624387 0.623642
O O12 0.764030 0.631423 0.564193
O O13 0.241842 0.872651 0.774235
O O14 0.362603 0.000000 0.740827
O O15 0.693091 0.218044 0.143620
O O16 0.988725 0.178711 0.161319
O O17 0.600230 0.251270 0.410336
O O18 0.500000 0.822809 0.500000
O O19 0.750000 0.750000 0.500000
#
# Coordination Sequence:
#
# PCOD9218815 Si02
#       8
#     8   8   8   8   8   8   8   8
#     4  12  19  34  60  79 105 144 183 215 261 335
#     4   8  14  26  40  67 114 148 172 225 283 311
#     4  11  24  41  58  83 111 138 178 227 273 324
#     4  11  23  37  54  80 113 144 178 226 274 322
#     4  11  17  30  50  79 104 141 179 222 264 327
#     4   9  17  24  46  77 103 143 185 221 264 322
#     4  12  20  37  59  82 102 140 183 214 260 338
#     4  12  22  37  62  84 101 136 177 223 270 327
#
# _framework density 16.741976000000001
#
# number of rings (size 3 to 8) (size 9 to 14) (size 15 to 20)
#    0.000    1.250    7.500    0.000    0.000    0.750 
#    0.000    1.250    0.000    0.000    0.000    0.000 
#    0.000   63.000    0.000    0.000    0.000    0.000 
#
# Total GULP energy -178275.098566 kJ/mol
# GULP energy per Si atom -5571.096830 kJ/mol
# Density = 1.670387 g / cm^3
# Si number density = 16.741976 Si / 1000 Ang^3
#
#
#
# Elastic Constant Matrix: (Units=GPa)
#
#
# Indices 1 2 3 4 5 6 
#
# 1 130.5733 50.2624 46.7899 0.0000 -46.2383 0.0000
# 2 50.2624 106.2988 30.7490 0.0000 -21.6192 0.0000
# 3 46.7899 30.7490 70.9177 0.0000 -25.6118 0.0000
# 4 0.0000 0.0000 0.0000 2.0901 0.0000 -0.2565
# 5 -46.2383 -21.6192 -25.6118 0.0000 54.2577 0.0000
# 6 0.0000 0.0000 0.0000 -0.2565 0.0000 21.1126
#
#
#
# Elastic Compliance Matrix: (Units=1/GPa)
#
#
# Indices 1 2 3 4 5 6 
#
# 1 0.013392 -0.003421 -0.004488 0.000000 0.007931 0.000000
# 2 -0.003421 0.011922 -0.002712 0.000000 0.000555 0.000000
# 3 -0.004488 -0.002712 0.019850 0.000000 0.004465 0.000000
# 4 0.000000 0.000000 0.000000 0.479169 0.000000 0.005822
# 5 0.007931 0.000555 0.004465 0.000000 0.027518 0.000000
# 6 0.000000 0.000000 0.000000 0.005822 0.000000 0.047436
#
#
# Mechanical properties :
#
#
# Convention : Reuss Voigt Hill
#
# Bulk Modulus (GPa) = 41.80130 62.59915 52.20022
# Shear Modulus (GPa) = 7.95540 27.49130 17.72335
#
# Velocity S-wave (km/s) = 2.18222 4.05663 3.25717
# Velocity P-wave (km/s) = 5.60104 7.70801 6.73739
#
# Compressibility (1/GPa) = 0.02392270
#
# Stress axis : x y z
#
# Youngs Moduli (GPa) = 74.66969 83.87583 50.37695
#
# Poissons Ratio (x) = 0.28694 0.22611
# Poissons Ratio (y) = 0.25545 0.13661
# Poissons Ratio (z) = 0.33514 0.22745
#
# Static dielectric constant tensor:
#      x y z
#    x 1.614920 0.000000 -0.033970 
#    y 0.000000 1.510390 0.000000 
#    z -0.033970 0.000000 1.667800 
# 
# From -- ./inp_files/333184.got.cif
#   From: 2010.05.17/outbox.cif.g08.bks.cpg/sg12_167_cif.got.tgz:333184.got - 2010.06.03 13:09:07.
