data_PCOD9218223
_publ_section_title
;
Structure prediction by ZEFSAII (Michael W. Deem and Ramdas Pophale) SiO2 
 PCOD9218223
Probable space group: C 2/M
;
_chemical_formula_sum "Si O2"
_cell_formula_units_Z 26
_cell_length_a 7.392995
_cell_length_b 18.335025
_cell_length_c 14.486809
_cell_angle_alpha 90.000000
_cell_angle_beta 34.865567
_cell_angle_gamma 90.000000
_cell_volume 1122.553510
_symmetry_space_group_name_H-M "C 2/M"
_symmetry_group_IT_number 12
_symmetry_cell_setting 'monoclinic'
loop_
_space_group_symop_operation_xyz
x,y,z
-x,y,-z
-x,-y,-z
x,-y,z
1/2+x,1/2+y,z
1/2-x,1/2+y,-z
1/2-x,1/2-y,-z
1/2+x,1/2-y,z
loop_
_atom_site_type_symbol
_atom_site_label
_atom_site_fract_x
_atom_site_fract_y
_atom_site_fract_z
Si Si1 0.000000 0.000000 0.500000
Si Si2 0.209876 0.153654 0.688799
Si Si3 0.313880 0.921949 0.200127
Si Si4 0.150170 0.696504 0.169274
O O1 0.100586 0.937793 0.380527
O O2 0.500000 0.136759 0.500000
O O3 0.321432 0.151831 0.747536
O O4 0.919677 0.101589 0.783503
O O5 0.088095 0.236241 0.722180
O O6 0.543090 0.857117 0.132943
O O7 0.475136 0.000000 0.115605
O O8 0.500000 0.725038 0.000000
#
# Coordination Sequence:
#
# PCOD9218223 Si02
#       4
#     2   8   8   8
#     4   8  20  44  64  94 142 172 206 300 332 376
#     4  12  25  41  74 104 129 185 235 277 337 405
#     4  10  24  43  68  97 143 172 226 286 336 400
#     4  12  26  44  71 103 143 180 225 283 348 404
#
# _framework density 23.161480999999998
#
# number of rings (size 3 to 8) (size 9 to 14) (size 15 to 20)
#    0.923    0.000    3.077    3.692    2.154    2.462 
#    0.000    1.538    0.000    0.000    0.000    0.000 
#    0.000    0.000    0.000    0.000    0.000    0.000 
#
# Total GULP energy -72480.224294 kJ/mol
# GULP energy per Si atom -5575.401869 kJ/mol
# Density = 2.310876 g / cm^3
# Si number density = 23.161481 Si / 1000 Ang^3
#
#
#
# Elastic Constant Matrix: (Units=GPa)
#
#
# Indices 1 2 3 4 5 6 
#
# 1 112.4419 23.9017 24.1319 -0.0019 -3.0760 0.0014
# 2 23.9017 89.7769 -16.5646 -0.0012 -19.5943 0.0016
# 3 24.1319 -16.5646 51.2820 -0.0024 12.4533 0.0058
# 4 -0.0019 -0.0012 -0.0024 11.3743 0.0025 9.4908
# 5 -3.0760 -19.5943 12.4533 0.0025 44.0327 -0.0001
# 6 0.0014 0.0016 0.0058 9.4908 -0.0001 -8.8383
#
#
#
# Elastic Compliance Matrix: (Units=1/GPa)
#
#
# Indices 1 2 3 4 5 6 
#
# 1 0.011244 -0.004053 -0.006822 0.000001 0.000911 -0.000002
# 2 -0.004053 0.014198 0.005399 -0.000002 0.004508 0.000003
# 3 -0.006822 0.005399 0.025755 -0.000004 -0.005358 0.000012
# 4 0.000001 -0.000002 -0.000004 0.046369 -0.000002 0.049793
# 5 0.000911 0.004508 -0.005358 -0.000002 0.026295 -0.000005
# 6 -0.000002 0.000003 0.000012 0.049793 -0.000005 -0.059675
#
#
# Mechanical properties :
#
#
# Convention : Reuss Voigt Hill
#
# Bulk Modulus (GPa) = 24.84812 35.15986 30.00399
# Shear Modulus (GPa) = 56.46245 24.11589 40.28917
#
# Velocity S-wave (km/s) = 4.94274 3.23027 4.17524
# Velocity P-wave (km/s) = 6.58223 5.39687 6.01880
#
# Compressibility (1/GPa) = 0.04024450
#
# Stress axis : x y z
#
# Youngs Moduli (GPa) = 88.93585 70.43311 38.82727
#
# Poissons Ratio (x) = 0.28549 0.26487
# Poissons Ratio (y) = 0.36049 -0.20962
# Poissons Ratio (z) = 0.60669 -0.38025
#
# Static dielectric constant tensor:
#      x y z
#    x 1.852830 0.000000 0.018360 
#    y 0.000000 1.803840 0.000000 
#    z 0.018360 0.000000 1.878180 
# 
# From -- ./inp_files/256325.got.cif
#   From: 2010.05.17/outbox.cif.g08.bks.cpg/sg12_129_cif.got.tgz:256325.got - 2010.06.03 13:09:07.
