data_PCOD9218086
_publ_section_title
;
Structure prediction by ZEFSAII (Michael W. Deem and Ramdas Pophale) SiO2 
 PCOD9218086
Probable space group: C 2/M
;
_chemical_formula_sum "Si O2"
_cell_formula_units_Z 52
_cell_length_a 10.120613
_cell_length_b 15.148686
_cell_length_c 33.270939
_cell_angle_alpha 90.000000
_cell_angle_beta 146.528806
_cell_angle_gamma 90.000000
_cell_volume 2813.236688
_symmetry_space_group_name_H-M "C 2/M"
_symmetry_group_IT_number 12
_symmetry_cell_setting 'monoclinic'
loop_
_space_group_symop_operation_xyz
x,y,z
-x,y,-z
-x,-y,-z
x,-y,z
1/2+x,1/2+y,z
1/2-x,1/2+y,-z
1/2-x,1/2-y,-z
1/2+x,1/2-y,z
loop_
_atom_site_type_symbol
_atom_site_label
_atom_site_fract_x
_atom_site_fract_y
_atom_site_fract_z
Si Si1 0.481356 0.750000 0.447686
Si Si2 0.688814 0.396954 0.327191
Si Si3 0.749999 0.000000 1.000000
Si Si4 0.697940 0.000000 0.889045
Si Si5 0.675740 0.146861 0.231252
Si Si6 0.688814 0.896954 0.327191
Si Si7 0.697940 0.500000 0.889045
Si Si8 0.324260 0.353139 0.768748
O O1 0.500000 0.750000 0.500000
O O2 0.750000 0.750000 0.500000
O O3 0.339916 0.834699 0.394843
O O4 0.339917 0.665300 0.394843
O O5 0.741955 0.500000 0.346306
O O6 0.408717 0.379921 0.264896
O O7 0.737579 0.369906 0.293620
O O8 0.786109 0.000000 0.058660
O O9 0.044473 0.000000 0.066993
O O10 0.713889 0.000000 0.941339
O O11 0.455525 0.000000 0.933007
O O12 0.545798 0.085304 0.836688
O O13 0.737580 0.130095 0.293621
O O14 0.623451 0.250000 0.211900
O O15 0.408718 0.879921 0.264896
O O16 0.741955 0.000000 0.346306
O O17 0.545798 0.414696 0.836689
#
# Coordination Sequence:
#
# PCOD9218086 Si02
#       8
#     8   8   4   4   8   8   4   8
#     4  12  26  42  62  90 138 171 204 263 338 386
#     4  12  23  41  66  95 126 163 221 270 314 376
#     4  10  24  42  62  94 140 174 192 252 322 406
#     4  11  22  42  66  94 132 169 208 253 326 370
#     4  12  22  40  69 100 122 164 217 274 312 358
#     4  12  23  41  66  95 126 163 221 270 314 376
#     4  11  22  42  66  94 132 169 208 253 326 370
#     4  12  22  40  69 100 122 164 217 274 312 358
#
# _framework density 18.484048000000001
#
# number of rings (size 3 to 8) (size 9 to 14) (size 15 to 20)
#    0.000    0.308    6.154    3.692    0.000    1.231 
#    0.000    4.615    0.000    0.000    0.000    0.000 
#    0.000    0.000    0.000    0.000    0.000    0.000 
#
# Total GULP energy -144895.049056 kJ/mol
# GULP energy per Si atom -5572.886502 kJ/mol
# Density = 1.844198 g / cm^3
# Si number density = 18.484048 Si / 1000 Ang^3
#
#
#
# Elastic Constant Matrix: (Units=GPa)
#
#
# Indices 1 2 3 4 5 6 
#
# 1 97.6574 -1.8157 -0.6534 0.0000 8.0759 0.0000
# 2 -1.8157 165.0600 36.2874 0.0000 7.4228 0.0000
# 3 -0.6534 36.2874 80.8411 0.0000 7.7329 -0.0001
# 4 0.0000 0.0000 0.0000 -7.4690 0.0000 0.8166
# 5 8.0759 7.4228 7.7329 0.0000 50.5957 0.0000
# 6 0.0000 0.0000 -0.0001 0.8166 0.0000 40.9073
#
#
#
# Elastic Compliance Matrix: (Units=1/GPa)
#
#
# Indices 1 2 3 4 5 6 
#
# 1 0.010385 0.000152 0.000179 0.000000 -0.001707 0.000000
# 2 0.000152 0.006738 -0.002970 0.000000 -0.000559 0.000000
# 3 0.000179 -0.002970 0.013868 0.000000 -0.001712 0.000000
# 4 0.000000 0.000000 0.000000 -0.133596 0.000000 0.002667
# 5 -0.001707 -0.000559 -0.001712 0.000000 0.020381 0.000000
# 6 0.000000 0.000000 0.000000 0.002667 0.000000 0.024392
#
#
# Mechanical properties :
#
#
# Convention : Reuss Voigt Hill
#
# Bulk Modulus (GPa) = 38.89029 45.68835 42.28932
# Shear Modulus (GPa) = -113.68286 37.45616 -38.11335
#
# Velocity S-wave (km/s) = -7.85091 4.50644 -4.54581
# Velocity P-wave (km/s) = 7.81644 7.20061 2.15035
#
# Compressibility (1/GPa) = 0.02571336
#
# Stress axis : x y z
#
# Youngs Moduli (GPa) = 96.29200 148.40964 72.10694
#
# Poissons Ratio (x) = -0.02250 -0.01292
# Poissons Ratio (y) = -0.01460 0.21415
# Poissons Ratio (z) = -0.01726 0.44076
#
# Static dielectric constant tensor:
#      x y z
#    x 1.618420 0.000000 -0.000500 
#    y 0.000000 1.626690 0.000000 
#    z -0.000500 0.000000 1.607500 
# 
# From -- ./inp_files/372663.got.cif
#   From: 2010.05.17/outbox.cif.g08.bks.cpg/sg12_187_cif.got.tgz:372663.got - 2010.06.03 13:09:07.
