data_PCOD9218283
_publ_section_title
;
Structure prediction by ZEFSAII (Michael W. Deem and Ramdas Pophale) SiO2 
 PCOD9218283
Probable space group: C 2/M
;
_chemical_formula_sum "Si O2"
_cell_formula_units_Z 44
_cell_length_a 9.622675
_cell_length_b 9.332037
_cell_length_c 25.625777
_cell_angle_alpha 90.000000
_cell_angle_beta 116.179208
_cell_angle_gamma 90.000000
_cell_volume 2065.115490
_symmetry_space_group_name_H-M "C 2/M"
_symmetry_group_IT_number 12
_symmetry_cell_setting 'monoclinic'
loop_
_space_group_symop_operation_xyz
x,y,z
-x,y,-z
-x,-y,-z
x,-y,z
1/2+x,1/2+y,z
1/2-x,1/2+y,-z
1/2-x,1/2-y,-z
1/2+x,1/2-y,z
loop_
_atom_site_type_symbol
_atom_site_label
_atom_site_fract_x
_atom_site_fract_y
_atom_site_fract_z
Si Si1 0.815961 0.663817 0.462019
Si Si2 0.308159 0.000000 0.998158
Si Si3 0.064382 0.167314 0.725382
Si Si4 0.321940 0.335625 0.831636
Si Si5 0.660483 0.237668 0.909448
Si Si6 0.258692 0.167941 0.656026
O O1 0.756135 0.500000 0.450106
O O2 0.750000 0.750000 0.500000
O O3 0.777800 0.746829 0.402597
O O4 0.000000 0.658134 0.500000
O O5 0.366833 0.875625 0.049055
O O6 0.240865 0.875467 0.947894
O O7 0.203376 0.234108 0.781780
O O8 0.119067 0.178080 0.674162
O O9 0.909556 0.258900 0.706374
O O10 0.040937 0.000000 0.734028
O O11 0.308889 0.500000 0.811452
O O12 0.497414 0.281641 0.857037
O O13 0.272613 0.328296 0.884309
O O14 0.287916 0.000000 0.650406
#
# Coordination Sequence:
#
# PCOD9218283 Si02
#       6
#     8   4   8   8   8   8
#     4  11  24  41  66 100 137 177 222 269 323 382
#     4  10  24  44  66 100 126 170 212 260 324 396
#     4  11  26  43  68  96 128 172 222 268 325 388
#     4  12  26  45  65  97 131 166 215 272 323 383
#     4  11  25  43  70  94 130 169 211 265 327 389
#     4  11  24  44  67  97 134 174 219 272 324 382
#
# _framework density 21.306314
#
# number of rings (size 3 to 8) (size 9 to 14) (size 15 to 20)
#    0.000    0.909    1.818    3.818    2.545   14.545 
#    0.000    0.000    0.000    0.000    0.000    0.000 
#    0.000    0.000    0.000    0.000    0.000    0.000 
#
# Total GULP energy -122630.668349 kJ/mol
# GULP energy per Si atom -5574.121289 kJ/mol
# Density = 2.125782 g / cm^3
# Si number density = 21.306314 Si / 1000 Ang^3
#
#
#
# Elastic Constant Matrix: (Units=GPa)
#
#
# Indices 1 2 3 4 5 6 
#
# 1 68.8525 21.1733 -5.6297 0.0000 1.0768 0.0000
# 2 21.1733 175.1254 25.9346 0.0000 -6.7604 0.0000
# 3 -5.6297 25.9346 77.8106 0.0000 13.7845 0.0000
# 4 0.0000 0.0000 0.0000 40.2768 0.0000 2.5873
# 5 1.0768 -6.7604 13.7845 0.0000 119.0001 0.0000
# 6 0.0000 0.0000 0.0000 2.5873 0.0000 13.2387
#
#
#
# Elastic Compliance Matrix: (Units=1/GPa)
#
#
# Indices 1 2 3 4 5 6 
#
# 1 0.015352 -0.002158 0.001916 0.000000 -0.000483 0.000000
# 2 -0.002158 0.006350 -0.002389 0.000000 0.000657 0.000000
# 3 0.001916 -0.002389 0.014103 0.000000 -0.001787 0.000000
# 4 0.000000 0.000000 0.000000 0.025144 0.000000 -0.004914
# 5 -0.000483 0.000657 -0.001787 0.000000 0.008652 0.000000
# 6 0.000000 0.000000 0.000000 -0.004914 0.000000 0.076496
#
#
# Mechanical properties :
#
#
# Convention : Reuss Voigt Hill
#
# Bulk Modulus (GPa) = 32.74219 44.97164 38.85691
# Shear Modulus (GPa) = 30.95176 53.19049 42.07112
#
# Velocity S-wave (km/s) = 3.81557 5.00189 4.44845
# Velocity P-wave (km/s) = 5.90018 7.38319 6.68295
#
# Compressibility (1/GPa) = 0.03054164
#
# Stress axis : x y z
#
# Youngs Moduli (GPa) = 65.13909 157.47193 70.90600
#
# Poissons Ratio (x) = 0.33990 -0.13584
# Poissons Ratio (y) = 0.14060 0.16941
# Poissons Ratio (z) = -0.12479 0.37623
#
# Static dielectric constant tensor:
#      x y z
#    x 1.777590 0.000000 -0.020870 
#    y 0.000000 1.715930 0.000000 
#    z -0.020870 0.000000 1.741070 
# 
# From -- ./inp_files/357445.got.cif
#   From: 2010.05.17/outbox.cif.g08.bks.cpg/sg12_179_cif.got.tgz:357445.got - 2010.06.03 13:09:07.
