data_PCOD9218045
_publ_section_title
;
Structure prediction by ZEFSAII (Michael W. Deem and Ramdas Pophale) SiO2 
 PCOD9218045
Probable space group: C 2/M
;
_chemical_formula_sum "Si O2"
_cell_formula_units_Z 56
_cell_length_a 8.977116
_cell_length_b 18.539562
_cell_length_c 21.023333
_cell_angle_alpha 90.000000
_cell_angle_beta 122.203431
_cell_angle_gamma 90.000000
_cell_volume 2960.676874
_symmetry_space_group_name_H-M "C 2/M"
_symmetry_group_IT_number 12
_symmetry_cell_setting 'monoclinic'
loop_
_space_group_symop_operation_xyz
x,y,z
-x,y,-z
-x,-y,-z
x,-y,z
1/2+x,1/2+y,z
1/2-x,1/2+y,-z
1/2-x,1/2-y,-z
1/2+x,1/2-y,z
loop_
_atom_site_type_symbol
_atom_site_label
_atom_site_fract_x
_atom_site_fract_y
_atom_site_fract_z
Si Si1 0.014154 0.683010 0.076867
Si Si2 0.796045 0.710904 0.445547
Si Si3 0.812827 0.158879 0.227768
Si Si4 0.158580 0.842197 0.081034
Si Si5 0.085895 0.711070 0.291341
Si Si6 0.315111 0.915277 0.242275
Si Si7 0.371453 0.419675 0.663161
O O1 0.181902 0.639912 0.141751
O O2 0.078446 0.766872 0.090011
O O3 0.834559 0.672542 0.077342
O O4 0.000000 0.663143 0.000000
O O5 0.750000 0.750000 0.500000
O O6 0.732252 0.764614 0.375277
O O7 0.698317 0.637747 0.403427
O O8 0.000000 0.695161 0.500000
O O9 0.683788 0.192240 0.249838
O O10 0.954586 0.222273 0.248018
O O11 0.921619 0.093202 0.280881
O O12 0.213769 0.889670 0.154907
O O13 0.000000 0.871629 0.000000
O O14 0.974960 0.641175 0.286175
O O15 0.206979 0.907798 0.283595
O O16 0.362995 0.000000 0.246876
O O17 0.327014 0.500000 0.633158
#
# Coordination Sequence:
#
# PCOD9218045 Si02
#       7
#     8   8   8   8   8   8   8
#     4  11  21  34  58  93 120 158 202 264 318 351
#     4  11  22  39  65  95 121 152 195 247 309 369
#     4  11  20  36  63  88 119 161 207 254 306 357
#     4  11  23  36  58  89 125 160 207 265 315 362
#     4  11  21  38  61  90 121 153 202 257 297 367
#     4  11  23  40  61  86 122 172 214 251 304 364
#     4  10  24  41  63  91 124 165 205 248 302 368
#
# _framework density 18.914594000000001
#
# number of rings (size 3 to 8) (size 9 to 14) (size 15 to 20)
#    0.000    1.143    2.857    6.000    4.000    1.143 
#    0.000    0.714    0.000    2.571    0.000    0.000 
#    0.000    0.000    0.000    0.000    0.000    0.000 
#
# Total GULP energy -156181.777124 kJ/mol
# GULP energy per Si atom -5577.920612 kJ/mol
# Density = 1.887154 g / cm^3
# Si number density = 18.914594 Si / 1000 Ang^3
#
#
#
# Elastic Constant Matrix: (Units=GPa)
#
#
# Indices 1 2 3 4 5 6 
#
# 1 72.1712 30.1281 27.5680 0.0000 3.6738 0.0000
# 2 30.1281 103.9962 57.5232 0.0000 -0.5684 0.0000
# 3 27.5680 57.5232 157.4674 0.0000 12.0856 0.0000
# 4 0.0000 0.0000 0.0000 16.0902 0.0000 -5.1527
# 5 3.6738 -0.5684 12.0856 0.0000 36.4866 0.0000
# 6 0.0000 0.0000 0.0000 -5.1527 0.0000 18.4770
#
#
#
# Elastic Compliance Matrix: (Units=1/GPa)
#
#
# Indices 1 2 3 4 5 6 
#
# 1 0.016056 -0.003956 -0.001269 0.000000 -0.001258 0.000000
# 2 -0.003956 0.013128 -0.004257 0.000000 0.002013 0.000000
# 3 -0.001269 -0.004257 0.008335 0.000000 -0.002699 0.000000
# 4 0.000000 0.000000 0.000000 0.068244 0.000000 0.019031
# 5 -0.001258 0.002013 -0.002699 0.000000 0.028459 0.000000
# 6 0.000000 0.000000 0.000000 0.019031 0.000000 0.059429
#
#
# Mechanical properties :
#
#
# Convention : Reuss Voigt Hill
#
# Bulk Modulus (GPa) = 53.89901 62.67484 58.28692
# Shear Modulus (GPa) = 22.85164 28.77179 25.81172
#
# Velocity S-wave (km/s) = 3.47961 3.90441 3.69812
# Velocity P-wave (km/s) = 6.68592 7.31666 7.00839
#
# Compressibility (1/GPa) = 0.01855322
#
# Stress axis : x y z
#
# Youngs Moduli (GPa) = 62.28045 76.17381 119.97368
#
# Poissons Ratio (x) = 0.30138 0.15227
# Poissons Ratio (y) = 0.24641 0.51079
# Poissons Ratio (z) = 0.07904 0.32431
#
# Static dielectric constant tensor:
#      x y z
#    x 1.666880 0.000000 -0.071780 
#    y 0.000000 1.656840 0.000000 
#    z -0.071780 0.000000 1.742010 
# 
# From -- ./inp_files/300678.got.cif
#   From: 2010.05.17/outbox.cif.g08.bks.cpg/sg12_151_cif.got.tgz:300678.got - 2010.06.03 13:09:07.
