data_PCOD9218275
_publ_section_title
;
Structure prediction by ZEFSAII (Michael W. Deem and Ramdas Pophale) SiO2 
 PCOD9218275
Probable space group: C 2/M
;
_chemical_formula_sum "Si O2"
_cell_formula_units_Z 40
_cell_length_a 9.105279
_cell_length_b 29.446131
_cell_length_c 15.767984
_cell_angle_alpha 90.000000
_cell_angle_beta 150.017773
_cell_angle_gamma 90.000000
_cell_volume 2112.682584
_symmetry_space_group_name_H-M "C 2/M"
_symmetry_group_IT_number 12
_symmetry_cell_setting 'monoclinic'
loop_
_space_group_symop_operation_xyz
x,y,z
-x,y,-z
-x,-y,-z
x,-y,z
1/2+x,1/2+y,z
1/2-x,1/2+y,-z
1/2-x,1/2-y,-z
1/2+x,1/2-y,z
loop_
_atom_site_type_symbol
_atom_site_label
_atom_site_fract_x
_atom_site_fract_y
_atom_site_fract_z
Si Si1 0.633643 0.448479 0.704535
Si Si2 0.176587 0.298975 0.500000
Si Si3 0.166532 0.858703 0.827468
Si Si4 0.020039 0.551521 0.295465
Si Si5 0.184127 0.858703 0.172532
O O1 0.667742 0.500000 0.754104
O O2 0.667295 0.409499 0.790063
O O3 0.863405 0.441815 0.742270
O O4 0.310395 0.445270 0.500000
O O5 0.250000 0.250000 0.500000
O O6 0.468053 0.327674 0.666976
O O7 0.000000 0.294210 0.500000
O O8 0.967126 0.327674 0.333024
O O9 0.015359 0.858568 0.843573
O O10 0.500000 0.842203 0.000000
O O11 0.905429 0.500000 0.245895
O O12 0.797104 0.590501 0.209936
O O13 0.000000 0.842203 0.000000
#
# Coordination Sequence:
#
# PCOD9218275 Si02
#       5
#     8   8   8   8   8
#     4   9  18  34  58  88 121 159 201 242 289 346
#     4  10  24  44  65  88 117 151 194 245 301 358
#     4  11  23  40  61  90 122 156 199 244 293 352
#     4   9  18  34  58  88 121 159 201 242 289 346
#     4  11  23  40  61  90 122 156 199 244 293 352
#
# _framework density 18.933274999999998
#
# number of rings (size 3 to 8) (size 9 to 14) (size 15 to 20)
#    0.000    2.000    2.000    2.400    0.000    5.600 
#    0.000    6.000    0.000    0.000    0.000    0.000 
#    0.000    0.000    0.000    0.000    0.000    0.000 
#
# Total GULP energy -111749.503329 kJ/mol
# GULP energy per Si atom -5587.475166 kJ/mol
# Density = 1.889018 g / cm^3
# Si number density = 18.933275 Si / 1000 Ang^3
#
#
#
# Elastic Constant Matrix: (Units=GPa)
#
#
# Indices 1 2 3 4 5 6 
#
# 1 52.9091 55.4744 63.3052 0.0000 2.4151 0.0000
# 2 55.4744 129.4874 81.0881 0.0000 0.8548 0.0000
# 3 63.3052 81.0881 149.7531 0.0000 0.8165 0.0000
# 4 0.0000 0.0000 0.0000 -3.0128 0.0000 -1.3993
# 5 2.4151 0.8548 0.8165 0.0000 30.9357 0.0000
# 6 0.0000 0.0000 0.0000 -1.3993 0.0000 38.9196
#
#
#
# Elastic Compliance Matrix: (Units=1/GPa)
#
#
# Indices 1 2 3 4 5 6 
#
# 1 0.048139 -0.011908 -0.013885 0.000000 -0.003063 0.000000
# 2 -0.011908 0.014631 -0.002892 0.000000 0.000602 0.000000
# 3 -0.013885 -0.002892 0.014109 0.000000 0.000792 0.000000
# 4 0.000000 0.000000 0.000000 -0.326462 0.000000 -0.011737
# 5 -0.003063 0.000602 0.000792 0.000000 0.032527 0.000000
# 6 0.000000 0.000000 0.000000 -0.011737 0.000000 0.025272
#
#
# Mechanical properties :
#
#
# Convention : Reuss Voigt Hill
#
# Bulk Modulus (GPa) = 51.25841 81.32054 66.28948
# Shear Modulus (GPa) = -39.08990 22.18730 -8.45130
#
# Velocity S-wave (km/s) = -4.54873 3.42697 -2.11505
# Velocity P-wave (km/s) = 0.67527 7.66180 5.39663
#
# Compressibility (1/GPa) = 0.01950899
#
# Stress axis : x y z
#
# Youngs Moduli (GPa) = 20.77317 68.34614 70.87697
#
# Poissons Ratio (x) = 0.81387 0.98414
# Poissons Ratio (y) = 0.24737 0.20497
# Poissons Ratio (z) = 0.28844 0.19766
#
# Static dielectric constant tensor:
#      x y z
#    x 1.626210 0.000000 0.001650 
#    y 0.000000 1.624900 0.000000 
#    z 0.001650 0.000000 1.675590 
# 
# From -- ./inp_files/41391.got.cif
#   From: 2010.05.17/outbox.cif.g08.bks.cpg/sg12_21_cif.got.tgz:41391.got - 2010.06.03 13:09:07.
