data_PCOD9218446
_publ_section_title
;
Structure prediction by ZEFSAII (Michael W. Deem and Ramdas Pophale) SiO2 
 PCOD9218446
Probable space group: C 2/M
;
_chemical_formula_sum "Si O2"
_cell_formula_units_Z 48
_cell_length_a 13.004251
_cell_length_b 13.457298
_cell_length_c 23.542885
_cell_angle_alpha 90.000000
_cell_angle_beta 145.949723
_cell_angle_gamma 90.000000
_cell_volume 2306.901253
_symmetry_space_group_name_H-M "C 2/M"
_symmetry_group_IT_number 12
_symmetry_cell_setting 'monoclinic'
loop_
_space_group_symop_operation_xyz
x,y,z
-x,y,-z
-x,-y,-z
x,-y,z
1/2+x,1/2+y,z
1/2-x,1/2+y,-z
1/2-x,1/2-y,-z
1/2+x,1/2-y,z
loop_
_atom_site_type_symbol
_atom_site_label
_atom_site_fract_x
_atom_site_fract_y
_atom_site_fract_z
Si Si1 0.375813 0.119785 0.500000
Si Si2 0.490687 0.750000 0.660458
Si Si3 0.130475 0.314058 0.838684
Si Si4 0.385578 0.814058 0.838684
Si Si5 0.705195 0.106837 0.052799
Si Si6 0.046799 0.893163 0.947201
O O1 0.500000 0.131814 0.500000
O O2 0.464729 0.178308 0.594239
O O3 0.182012 0.178308 0.405761
O O4 0.355342 0.000000 0.500000
O O5 0.529485 0.819779 0.732837
O O6 0.669026 0.680221 0.732837
O O7 0.210620 0.201837 0.878291
O O8 0.311780 0.378364 0.935812
O O9 0.988444 0.328111 0.825630
O O10 0.495656 0.878364 0.935812
O O11 0.424253 0.701837 0.878291
O O12 0.738747 0.000000 0.094690
O O13 0.816055 0.107614 0.044037
O O14 0.954676 0.000000 0.905309
#
# Coordination Sequence:
#
# PCOD9218446 Si02
#       6
#     8   8   8   8   8   8
#     4  10  24  46  66  84 110 144 186 242 306 366
#     4  11  22  37  62  88 110 141 192 247 296 346
#     4   9  18  32  51  79 114 151 189 228 274 327
#     4   9  18  32  51  79 114 151 189 228 274 327
#     4   8  15  29  48  74 115 160 192 221 262 317
#     4   8  15  29  48  74 115 160 192 221 262 317
#
# _framework density 20.807133
#
# number of rings (size 3 to 8) (size 9 to 14) (size 15 to 20)
#    0.000    2.833    0.000    3.000    0.000    5.333 
#    0.000    5.000    0.000   17.000    0.000    0.000 
#    0.000    0.000    0.000    0.000    0.000    0.000 
#
# Total GULP energy -133937.756960 kJ/mol
# GULP energy per Si atom -5580.739873 kJ/mol
# Density = 2.075978 g / cm^3
# Si number density = 20.807133 Si / 1000 Ang^3
#
#
#
# Elastic Constant Matrix: (Units=GPa)
#
#
# Indices 1 2 3 4 5 6 
#
# 1 112.2010 18.6306 47.6689 0.0000 0.6164 0.0000
# 2 18.6306 97.0812 19.0200 0.0000 0.0248 0.0000
# 3 47.6689 19.0200 107.8708 -0.0001 -0.8902 0.0000
# 4 0.0000 0.0000 -0.0001 1.8019 0.0000 -2.0355
# 5 0.6164 0.0248 -0.8902 0.0000 37.0379 0.0000
# 6 0.0000 0.0000 0.0000 -2.0355 0.0000 33.9557
#
#
#
# Elastic Compliance Matrix: (Units=1/GPa)
#
#
# Indices 1 2 3 4 5 6 
#
# 1 0.011112 -0.001212 -0.004699 0.000000 -0.000297 0.000000
# 2 -0.001212 0.010801 -0.001369 0.000000 -0.000020 0.000000
# 3 -0.004699 -0.001369 0.011591 0.000001 0.000358 0.000000
# 4 0.000000 0.000000 0.000001 0.595274 0.000000 0.035685
# 5 -0.000297 -0.000020 0.000358 0.000000 0.027013 0.000000
# 6 0.000000 0.000000 0.000000 0.035685 0.000000 0.031589
#
#
# Mechanical properties :
#
#
# Convention : Reuss Voigt Hill
#
# Bulk Modulus (GPa) = 52.78619 54.19911 53.49265
# Shear Modulus (GPa) = 7.05959 30.01468 18.53713
#
# Velocity S-wave (km/s) = 1.84397 3.80217 2.98804
# Velocity P-wave (km/s) = 5.47339 6.73648 6.13752
#
# Compressibility (1/GPa) = 0.01894435
#
# Stress axis : x y z
#
# Youngs Moduli (GPa) = 89.99374 92.58015 86.27125
#
# Poissons Ratio (x) = 0.11218 0.40541
# Poissons Ratio (y) = 0.10905 0.11812
# Poissons Ratio (z) = 0.42290 0.12676
#
# Static dielectric constant tensor:
#      x y z
#    x 1.871850 0.000000 -0.008720 
#    y 0.000000 1.722580 0.000000 
#    z -0.008720 0.000000 1.734030 
# 
# From -- ./inp_files/340222.got.cif
#   From: 2010.05.17/outbox.cif.g08.bks.cpg/sg12_171_cif.got.tgz:340222.got - 2010.06.03 13:09:07.
