data_PCOD9218028
_publ_section_title
;
Structure prediction by ZEFSAII (Michael W. Deem and Ramdas Pophale) SiO2 
 PCOD9218028
Probable space group: C 2/M
;
_chemical_formula_sum "Si O2"
_cell_formula_units_Z 28
_cell_length_a 8.938721
_cell_length_b 16.190144
_cell_length_c 9.232481
_cell_angle_alpha 90.000000
_cell_angle_beta 81.292478
_cell_angle_gamma 90.000000
_cell_volume 1320.717023
_symmetry_space_group_name_H-M "C 2/M"
_symmetry_group_IT_number 12
_symmetry_cell_setting 'monoclinic'
loop_
_space_group_symop_operation_xyz
x,y,z
-x,y,-z
-x,-y,-z
x,-y,z
1/2+x,1/2+y,z
1/2-x,1/2+y,-z
1/2-x,1/2-y,-z
1/2+x,1/2-y,z
loop_
_atom_site_type_symbol
_atom_site_label
_atom_site_fract_x
_atom_site_fract_y
_atom_site_fract_z
Si Si1 0.337486 0.500000 0.445652
Si Si2 0.500000 0.238498 0.500000
Si Si3 0.682758 0.842488 0.977151
Si Si4 0.335523 0.500000 0.101985
Si Si5 0.773318 0.351632 0.358620
O O1 0.500000 0.500000 0.500000
O O2 0.355607 0.500000 0.271971
O O3 0.248339 0.423003 0.522103
O O4 0.635994 0.290955 0.415126
O O5 0.567711 0.188589 0.624013
O O6 0.733052 0.871318 0.808777
O O7 0.500000 0.838164 0.000000
O O8 0.750000 0.750000 0.000000
O O9 0.745948 0.915739 0.070907
O O10 0.500000 0.500000 0.000000
#
# Coordination Sequence:
#
# PCOD9218028 Si02
#       5
#     4   4   8   4   8
#     4  12  26  45  72 100 142 187 236 295 357 421
#     4  10  24  40  72 102 134 176 238 292 342 422
#     4  12  27  47  76 107 149 192 242 298 368 430
#     4  12  29  48  72 108 148 190 244 305 366 433
#     4  11  24  44  71 100 141 180 240 284 358 419
#
# _framework density 21.200603999999998
#
# number of rings (size 3 to 8) (size 9 to 14) (size 15 to 20)
#    0.000    0.571    1.429    5.571   12.000    0.571 
#    0.000    0.000    0.000    0.000    0.000    0.000 
#    0.000    0.000    0.000    0.000    0.000    0.000 
#
# Total GULP energy -78257.368166 kJ/mol
# GULP energy per Si atom -5589.812012 kJ/mol
# Density = 2.115235 g / cm^3
# Si number density = 21.200604 Si / 1000 Ang^3
#
#
#
# Elastic Constant Matrix: (Units=GPa)
#
#
# Indices 1 2 3 4 5 6 
#
# 1 134.3586 73.3952 35.3820 0.0000 11.7176 0.0000
# 2 73.3952 142.3295 51.9298 0.0000 16.0960 0.0000
# 3 35.3820 51.9298 200.5106 0.0000 13.5589 0.0000
# 4 0.0000 0.0000 0.0000 29.9473 0.0000 13.8999
# 5 11.7176 16.0960 13.5589 0.0000 30.0030 0.0000
# 6 0.0000 0.0000 0.0000 13.8999 0.0000 9.0162
#
#
#
# Elastic Compliance Matrix: (Units=1/GPa)
#
#
# Indices 1 2 3 4 5 6 
#
# 1 0.010442 -0.005092 -0.000446 0.000000 -0.001144 0.000000
# 2 -0.005092 0.010585 -0.001643 0.000000 -0.002947 0.000000
# 3 -0.000446 -0.001643 0.005591 0.000000 -0.001471 0.000000
# 4 0.000000 0.000000 0.000000 0.117396 0.000000 -0.180985
# 5 -0.001144 -0.002947 -0.001471 0.000000 0.036023 0.000000
# 6 0.000000 0.000000 0.000000 -0.180985 0.000000 0.389930
#
#
# Mechanical properties :
#
#
# Convention : Reuss Voigt Hill
#
# Bulk Modulus (GPa) = 81.60875 88.73475 85.17175
# Shear Modulus (GPa) = 8.49741 34.89273 21.69507
#
# Velocity S-wave (km/s) = 2.00420 4.06129 3.20241
# Velocity P-wave (km/s) = 6.62819 7.99611 7.34407
#
# Compressibility (1/GPa) = 0.01225359
#
# Stress axis : x y z
#
# Youngs Moduli (GPa) = 95.76849 94.47498 178.85511
#
# Poissons Ratio (x) = 0.48109 0.07983
# Poissons Ratio (y) = 0.48768 0.29394
# Poissons Ratio (z) = 0.04274 0.15527
#
# Static dielectric constant tensor:
#      x y z
#    x 1.715510 0.000000 0.026150 
#    y 0.000000 1.753460 0.000000 
#    z 0.026150 0.000000 1.796480 
# 
# From -- ./inp_files/36770.got.cif
#   From: 2010.05.17/outbox.cif.g08.bks.cpg/sg12_19_cif.got.tgz:36770.got - 2010.06.03 13:09:07.
