data_PCOD9218643
_publ_section_title
;
Structure prediction by ZEFSAII (Michael W. Deem and Ramdas Pophale) SiO2 
 PCOD9218643
Probable space group: C 2/M
;
_chemical_formula_sum "Si O2"
_cell_formula_units_Z 48
_cell_length_a 14.895925
_cell_length_b 17.405445
_cell_length_c 14.717038
_cell_angle_alpha 90.000000
_cell_angle_beta 140.216774
_cell_angle_gamma 90.000000
_cell_volume 2441.601473
_symmetry_space_group_name_H-M "C 2/M"
_symmetry_group_IT_number 12
_symmetry_cell_setting 'monoclinic'
loop_
_space_group_symop_operation_xyz
x,y,z
-x,y,-z
-x,-y,-z
x,-y,z
1/2+x,1/2+y,z
1/2-x,1/2+y,-z
1/2-x,1/2-y,-z
1/2+x,1/2-y,z
loop_
_atom_site_type_symbol
_atom_site_label
_atom_site_fract_x
_atom_site_fract_y
_atom_site_fract_z
Si Si1 0.708657 0.830247 0.418833
Si Si2 0.352646 0.857809 0.338261
Si Si3 0.148303 0.177607 0.658681
Si Si4 0.376161 0.590247 0.697216
Si Si5 0.678274 0.407513 0.870573
Si Si6 0.083663 0.588830 0.801146
O O1 0.750000 0.750000 0.500000
O O2 0.742340 0.828164 0.338737
O O3 0.804344 0.892602 0.544542
O O4 0.548942 0.855065 0.308615
O O5 0.500000 0.882121 0.500000
O O6 0.365559 0.767443 0.327845
O O7 0.223643 0.870781 0.305961
O O8 0.336019 0.903186 0.231922
O O9 0.183474 0.130650 0.775936
O O10 0.000000 0.152381 0.500000
O O11 0.376703 0.500000 0.717011
O O12 0.536072 0.618063 0.811970
O O13 0.669503 0.500000 0.854062
O O14 0.813206 0.390157 0.036702
O O15 0.037909 0.500000 0.776988
#
# Coordination Sequence:
#
# PCOD9218643 Si02
#       6
#     8   8   8   8   8   8
#     4  12  22  41  66  95 129 163 214 269 319 385
#     4  11  22  38  66  97 127 166 219 274 319 392
#     4  11  22  40  66  93 128 171 216 267 325 385
#     4  11  22  39  65  94 126 167 216 265 318 387
#     4  10  25  44  62  93 134 172 217 268 324 390
#     4  11  25  44  65  94 133 172 213 271 329 382
#
# _framework density 19.659227999999999
#
# number of rings (size 3 to 8) (size 9 to 14) (size 15 to 20)
#    0.000    1.000    5.000    2.000    0.000    4.333 
#    0.000    5.833    0.000    0.000    0.000    0.000 
#    0.000    0.000    0.000    0.000    0.000    0.000 
#
# Total GULP energy -134121.497503 kJ/mol
# GULP energy per Si atom -5588.395729 kJ/mol
# Density = 1.961448 g / cm^3
# Si number density = 19.659228 Si / 1000 Ang^3
#
#
#
# Elastic Constant Matrix: (Units=GPa)
#
#
# Indices 1 2 3 4 5 6 
#
# 1 116.6911 37.5034 45.8711 0.0000 -2.4042 0.0000
# 2 37.5034 42.8871 54.3141 0.0000 -2.1456 0.0000
# 3 45.8711 54.3141 118.5532 -0.0001 -5.9362 0.0000
# 4 0.0000 0.0000 -0.0001 21.0074 0.0000 -6.7076
# 5 -2.4042 -2.1456 -5.9362 0.0000 31.4271 0.0000
# 6 0.0000 0.0000 0.0000 -6.7076 0.0000 31.3346
#
#
#
# Elastic Compliance Matrix: (Units=1/GPa)
#
#
# Indices 1 2 3 4 5 6 
#
# 1 0.011929 -0.010932 0.000405 0.000000 0.000243 0.000000
# 2 -0.010932 0.065596 -0.025885 0.000000 -0.001247 0.000000
# 3 0.000405 -0.025885 0.020242 0.000000 0.002087 0.000000
# 4 0.000000 0.000000 0.000000 0.051095 0.000000 0.010938
# 5 0.000243 -0.001247 0.002087 0.000000 0.032147 0.000000
# 6 0.000000 0.000000 0.000000 0.010938 0.000000 0.034255
#
#
# Mechanical properties :
#
#
# Convention : Reuss Voigt Hill
#
# Bulk Modulus (GPa) = 40.09177 61.50096 50.79636
# Shear Modulus (GPa) = 16.86896 26.11668 21.49282
#
# Velocity S-wave (km/s) = 2.93246 3.64877 3.31005
# Velocity P-wave (km/s) = 5.64831 7.00734 6.36420
#
# Compressibility (1/GPa) = 0.02494278
#
# Stress axis : x y z
#
# Youngs Moduli (GPa) = 83.82964 15.24474 49.40299
#
# Poissons Ratio (x) = 0.16666 -0.02002
# Poissons Ratio (y) = 0.91646 1.27879
# Poissons Ratio (z) = -0.03396 0.39461
#
# Static dielectric constant tensor:
#      x y z
#    x 1.713250 0.000000 0.019200 
#    y 0.000000 1.696970 0.000000 
#    z 0.019200 0.000000 1.664540 
# 
# From -- ./inp_files/216495.got.cif
#   From: 2010.05.17/outbox.cif.g08.bks.cpg/sg12_109_cif.got.tgz:216495.got - 2010.06.03 13:09:07.
