data_PCOD9218621
_publ_section_title
;
Structure prediction by ZEFSAII (Michael W. Deem and Ramdas Pophale) SiO2 
 PCOD9218621
Probable space group: C 2/M
;
_chemical_formula_sum "Si O2"
_cell_formula_units_Z 40
_cell_length_a 26.983778
_cell_length_b 16.023364
_cell_length_c 7.782883
_cell_angle_alpha 90.000000
_cell_angle_beta 145.254564
_cell_angle_gamma 90.000000
_cell_volume 1917.871354
_symmetry_space_group_name_H-M "C 2/M"
_symmetry_group_IT_number 12
_symmetry_cell_setting 'monoclinic'
loop_
_space_group_symop_operation_xyz
x,y,z
-x,y,-z
-x,-y,-z
x,-y,z
1/2+x,1/2+y,z
1/2-x,1/2+y,-z
1/2-x,1/2-y,-z
1/2+x,1/2-y,z
loop_
_atom_site_type_symbol
_atom_site_label
_atom_site_fract_x
_atom_site_fract_y
_atom_site_fract_z
Si Si1 0.292847 0.500000 0.047810
Si Si2 0.802989 0.334272 0.101168
Si Si3 0.757035 0.500000 0.456417
Si Si4 0.000000 0.859027 0.000000
Si Si5 0.316400 0.174228 0.733323
Si Si6 0.510888 0.764488 0.331237
Si Si7 0.627995 0.500000 0.375567
O O1 0.238854 0.415939 0.934102
O O2 0.310649 0.500000 0.895241
O O3 0.367382 0.500000 0.405075
O O4 0.905086 0.324117 0.436660
O O5 0.750000 0.250000 0.000000
O O6 0.799342 0.342788 0.885514
O O7 0.804183 0.589896 0.587666
O O8 0.717594 0.500000 0.533959
O O9 0.029867 0.807019 0.248405
O O10 0.078092 0.918843 0.169833
O O11 0.250000 0.250000 0.500000
O O12 0.417302 0.200389 0.007618
O O13 0.500000 0.737740 0.500000
#
# Coordination Sequence:
#
# PCOD9218621 Si02
#       7
#     4   8   4   4   8   8   4
#     4  12  25  42  66  99 135 177 226 276 337 401
#     4  11  23  43  67  97 136 177 225 279 335 401
#     4  12  25  42  66  99 135 177 226 276 337 401
#     4  11  24  40  70  91 134 174 228 279 338 407
#     4  11  23  43  67  97 136 177 225 279 335 401
#     4  10  25  42  64  99 133 173 222 276 338 401
#     4  11  24  44  62  99 130 178 224 287 336 403
#
# _framework density 20.856458
#
# number of rings (size 3 to 8) (size 9 to 14) (size 15 to 20)
#    0.000    1.000    2.000    3.600    5.600    5.600 
#    0.000    6.000    0.000    0.000    0.000    0.000 
#    0.000    0.000    0.000    0.000    0.000    0.000 
#
# Total GULP energy -111640.122027 kJ/mol
# GULP energy per Si atom -5582.006101 kJ/mol
# Density = 2.080899 g / cm^3
# Si number density = 20.856458 Si / 1000 Ang^3
#
#
#
# Elastic Constant Matrix: (Units=GPa)
#
#
# Indices 1 2 3 4 5 6 
#
# 1 23.4237 10.0085 -5.3839 0.0000 0.6003 0.0000
# 2 10.0085 124.2469 35.1927 0.0000 1.4282 0.0000
# 3 -5.3839 35.1927 105.0281 0.0000 0.0482 0.0000
# 4 0.0000 0.0000 0.0000 -159.2059 0.0000 -28.7604
# 5 0.6003 1.4282 0.0482 0.0000 34.9847 0.0000
# 6 0.0000 0.0000 0.0000 -28.7604 0.0000 46.8692
#
#
#
# Elastic Compliance Matrix: (Units=1/GPa)
#
#
# Indices 1 2 3 4 5 6 
#
# 1 0.045660 -0.004789 0.003945 0.000000 -0.000593 0.000000
# 2 -0.004789 0.009399 -0.003395 0.000000 -0.000297 0.000000
# 3 0.003945 -0.003395 0.010861 0.000000 0.000056 0.000000
# 4 0.000000 0.000000 0.000000 -0.005654 0.000000 -0.003470
# 5 -0.000593 -0.000297 0.000056 0.000000 0.028606 0.000000
# 6 0.000000 0.000000 0.000000 -0.003470 0.000000 0.019207
#
#
# Mechanical properties :
#
#
# Convention : Reuss Voigt Hill
#
# Bulk Modulus (GPa) = 17.40824 36.92591 27.16707
# Shear Modulus (GPa) = 36.84510 -1.27831 17.78339
#
# Velocity S-wave (km/s) = 4.20766 -0.78373 2.92320
# Velocity P-wave (km/s) = 5.65426 4.11391 4.94444
#
# Compressibility (1/GPa) = 0.05744407
#
# Stress axis : x y z
#
# Youngs Moduli (GPa) = 21.90097 106.39168 92.07240
#
# Poissons Ratio (x) = 0.50949 -0.36327
# Poissons Ratio (y) = 0.10488 0.31257
# Poissons Ratio (z) = -0.08641 0.36118
#
# Static dielectric constant tensor:
#      x y z
#    x 1.740740 0.000000 0.008690 
#    y 0.000000 1.764820 0.000000 
#    z 0.008690 0.000000 1.751740 
# 
# From -- ./inp_files/112145.got.cif
#   From: 2010.05.17/outbox.cif.g08.bks.cpg/sg12_57_cif.got.tgz:112145.got - 2010.06.03 13:09:07.
