data_PCOD9218478
_publ_section_title
;
Structure prediction by ZEFSAII (Michael W. Deem and Ramdas Pophale) SiO2 
 PCOD9218478
Probable space group: C 2/M
;
_chemical_formula_sum "Si O2"
_cell_formula_units_Z 56
_cell_length_a 16.558574
_cell_length_b 23.485268
_cell_length_c 19.548665
_cell_angle_alpha 90.000000
_cell_angle_beta 159.910447
_cell_angle_gamma 90.000000
_cell_volume 2611.245523
_symmetry_space_group_name_H-M "C 2/M"
_symmetry_group_IT_number 12
_symmetry_cell_setting 'monoclinic'
loop_
_space_group_symop_operation_xyz
x,y,z
-x,y,-z
-x,-y,-z
x,-y,z
1/2+x,1/2+y,z
1/2-x,1/2+y,-z
1/2-x,1/2-y,-z
1/2+x,1/2-y,z
loop_
_atom_site_type_symbol
_atom_site_label
_atom_site_fract_x
_atom_site_fract_y
_atom_site_fract_z
Si Si1 0.231196 0.934635 0.310699
Si Si2 0.351468 0.436092 0.591318
Si Si3 0.569697 0.335471 0.915196
Si Si4 0.862854 0.395193 0.961105
Si Si5 0.556039 0.868760 0.246322
Si Si6 0.269102 0.236911 0.860035
Si Si7 0.261723 0.247816 0.426928
O O1 0.500000 0.927591 0.500000
O O2 0.200392 0.928767 0.368904
O O3 0.070545 0.883482 0.153957
O O4 0.160412 0.000000 0.237090
O O5 0.275050 0.500000 0.513440
O O6 0.625937 0.429171 0.790060
O O7 0.203926 0.393923 0.426179
O O8 0.381848 0.304898 0.716528
O O9 0.781681 0.367190 0.046742
O O10 0.702292 0.283944 0.058765
O O11 0.773828 0.328730 0.887756
O O12 0.055085 0.401475 0.174087
O O13 0.000000 0.407481 0.000000
O O14 0.647657 0.805025 0.307124
O O15 0.038502 0.251074 0.632807
O O16 0.500000 0.244054 0.000000
O O17 0.250000 0.250000 0.500000
#
# Coordination Sequence:
#
# PCOD9218478 Si02
#       7
#     8   8   8   8   8   8   8
#     4  10  24  46  70  97 135 177 224 282 337 394
#     4  11  25  46  72  99 132 183 233 279 337 405
#     4  12  24  38  70  99 126 181 225 265 337 408
#     4  11  24  46  67  99 141 181 224 284 345 400
#     4  12  23  41  69  98 137 180 225 282 343 397
#     4  11  25  40  61 102 144 173 217 274 341 404
#     4  12  22  38  64  94 133 173 219 273 332 407
#
# _framework density 21.445703000000002
#
# number of rings (size 3 to 8) (size 9 to 14) (size 15 to 20)
#    0.000    0.714    5.714    2.143    2.000    2.000 
#    0.000    0.714    0.000    3.000    0.000    0.000 
#    0.000    0.000    0.000    0.000    0.000    0.000 
#
# Total GULP energy -156473.179548 kJ/mol
# GULP energy per Si atom -5588.327841 kJ/mol
# Density = 2.139689 g / cm^3
# Si number density = 21.445703 Si / 1000 Ang^3
#
#
#
# Elastic Constant Matrix: (Units=GPa)
#
#
# Indices 1 2 3 4 5 6 
#
# 1 75.1722 2.9671 15.5173 -0.0419 22.7364 -0.0047
# 2 2.9671 77.1766 19.9451 -0.0149 9.3690 -0.0108
# 3 15.5173 19.9451 113.3097 -0.0496 20.2779 -0.0342
# 4 -0.0419 -0.0149 -0.0496 22.6091 -0.0318 10.2410
# 5 22.7364 9.3690 20.2779 -0.0318 32.4244 -0.0031
# 6 -0.0047 -0.0108 -0.0342 10.2410 -0.0031 18.6354
#
#
#
# Elastic Compliance Matrix: (Units=1/GPa)
#
#
# Indices 1 2 3 4 5 6 
#
# 1 0.016945 0.000884 -0.000342 0.000018 -0.011923 -0.000008
# 2 0.000884 0.013840 -0.001949 0.000000 -0.003400 0.000004
# 3 -0.000342 -0.001949 0.010215 0.000007 -0.005585 0.000013
# 4 0.000018 0.000000 0.000007 0.058889 0.000038 -0.032362
# 5 -0.011923 -0.003400 -0.005585 0.000038 0.043677 -0.000029
# 6 -0.000008 0.000004 0.000013 -0.032362 -0.000029 0.071446
#
#
# Mechanical properties :
#
#
# Convention : Reuss Voigt Hill
#
# Bulk Modulus (GPa) = 26.18747 38.05748 32.12248
# Shear Modulus (GPa) = 21.68693 29.88236 25.78464
#
# Velocity S-wave (km/s) = 3.18346 3.73687 3.47121
# Velocity P-wave (km/s) = 5.07446 6.03353 5.57466
#
# Compressibility (1/GPa) = 0.03818619
#
# Stress axis : x y z
#
# Youngs Moduli (GPa) = 59.01482 72.25584 97.89737
#
# Poissons Ratio (x) = -0.06391 0.03352
# Poissons Ratio (y) = -0.05220 0.19077
# Poissons Ratio (z) = 0.02021 0.14080
#
# Static dielectric constant tensor:
#      x y z
#    x 1.879550 -0.000010 -0.014650 
#    y -0.000010 1.817150 -0.000050 
#    z -0.014650 -0.000050 1.759900 
# 
# From -- ./inp_files/318292.got.cif
#   From: 2010.05.17/outbox.cif.g08.bks.cpg/sg12_160_cif.got.tgz:318292.got - 2010.06.03 13:09:07.
