data_PCOD9218509
_publ_section_title
;
Structure prediction by ZEFSAII (Michael W. Deem and Ramdas Pophale) SiO2 
 PCOD9218509
Probable space group: C 2/M
;
_chemical_formula_sum "Si O2"
_cell_formula_units_Z 44
_cell_length_a 31.401851
_cell_length_b 9.231020
_cell_length_c 7.591105
_cell_angle_alpha 90.000000
_cell_angle_beta 62.638784
_cell_angle_gamma 90.000000
_cell_volume 1954.271341
_symmetry_space_group_name_H-M "C 2/M"
_symmetry_group_IT_number 12
_symmetry_cell_setting 'monoclinic'
loop_
_space_group_symop_operation_xyz
x,y,z
-x,y,-z
-x,-y,-z
x,-y,z
1/2+x,1/2+y,z
1/2-x,1/2+y,-z
1/2-x,1/2-y,-z
1/2+x,1/2-y,z
loop_
_atom_site_type_symbol
_atom_site_label
_atom_site_fract_x
_atom_site_fract_y
_atom_site_fract_z
Si Si1 0.647925 0.171315 0.652484
Si Si2 0.554306 0.328719 0.963966
Si Si3 0.446184 0.164910 0.672764
Si Si4 0.296523 0.747577 0.098124
Si Si5 0.262269 0.000000 0.897140
Si Si6 0.134985 0.834446 0.345528
O O1 0.594102 0.231120 0.793003
O O2 0.663340 0.267338 0.455738
O O3 0.648271 0.000000 0.609757
O O4 0.678166 0.201616 0.771314
O O5 0.565625 0.500000 0.927778
O O6 0.500000 0.306472 0.000000
O O7 0.555728 0.273918 0.161098
O O8 0.500000 0.160814 0.500000
O O9 0.409915 0.228984 0.599524
O O10 0.431795 0.000000 0.749547
O O11 0.277067 0.877056 0.016443
O O12 0.334890 0.671412 0.892109
O O13 0.256756 0.626706 0.201289
O O14 0.121003 0.000000 0.407241
#
# Coordination Sequence:
#
# PCOD9218509 Si02
#       6
#     8   8   8   8   4   8
#     4  12  26  43  71 103 139 185 232 282 346 413
#     4  11  24  41  64  97 139 184 233 285 337 401
#     4  11  24  41  64  97 139 184 233 285 337 401
#     4  11  24  48  72 104 138 180 226 286 354 415
#     4  10  24  46  78  98 138 178 224 290 354 420
#     4  12  26  43  71 103 139 185 232 282 346 413
#
# _framework density 22.514783000000001
#
# number of rings (size 3 to 8) (size 9 to 14) (size 15 to 20)
#    0.000    0.727    3.636    3.273    5.091    5.818 
#    0.000    5.455    0.000    0.000    0.000    0.000 
#    0.000    0.000    0.000    0.000    0.000    0.000 
#
# Total GULP energy -122578.324238 kJ/mol
# GULP energy per Si atom -5571.742011 kJ/mol
# Density = 2.246354 g / cm^3
# Si number density = 22.514783 Si / 1000 Ang^3
#
#
#
# Elastic Constant Matrix: (Units=GPa)
#
#
# Indices 1 2 3 4 5 6 
#
# 1 80.7305 33.2399 -0.1294 0.0000 17.4803 0.0000
# 2 33.2399 125.7957 -24.7877 0.0000 3.2546 0.0000
# 3 -0.1294 -24.7877 44.9311 0.0000 16.1845 0.0000
# 4 0.0000 0.0000 0.0000 33.1163 0.0000 -18.6824
# 5 17.4803 3.2546 16.1845 0.0000 40.4231 0.0000
# 6 0.0000 0.0000 0.0000 -18.6824 0.0000 51.5479
#
#
#
# Elastic Compliance Matrix: (Units=1/GPa)
#
#
# Indices 1 2 3 4 5 6 
#
# 1 0.015363 -0.003846 0.000238 0.000000 -0.006429 0.000000
# 2 -0.003846 0.010237 0.006233 0.000000 -0.001657 0.000000
# 3 0.000238 0.006233 0.030281 0.000000 -0.012729 0.000000
# 4 0.000000 0.000000 0.000000 0.037958 0.000000 0.013757
# 5 -0.006429 -0.001657 -0.012729 0.000000 0.032748 0.000000
# 6 0.000000 0.000000 0.000000 0.013757 0.000000 0.024385
#
#
# Mechanical properties :
#
#
# Convention : Reuss Voigt Hill
#
# Bulk Modulus (GPa) = 16.35844 29.78920 23.07382
# Shear Modulus (GPa) = 30.10270 41.22641 35.66455
#
# Velocity S-wave (km/s) = 3.66049 4.28376 3.98433
# Velocity P-wave (km/s) = 5.01468 6.14224 5.60688
#
# Compressibility (1/GPa) = 0.06113050
#
# Stress axis : x y z
#
# Youngs Moduli (GPa) = 65.09142 97.68690 33.02449
#
# Poissons Ratio (x) = 0.37572 -0.00787
# Poissons Ratio (y) = 0.25036 -0.20584
# Poissons Ratio (z) = -0.01550 -0.60889
#
# Static dielectric constant tensor:
#      x y z
#    x 1.910820 0.000000 -0.081930 
#    y 0.000000 1.772570 0.000000 
#    z -0.081930 0.000000 1.918460 
# 
# From -- ./inp_files/107941.got.cif
#   From: 2010.05.17/outbox.cif.g08.bks.cpg/sg12_54_cif.got.tgz:107941.got - 2010.06.03 13:09:07.
