data_PCOD9218756
_publ_section_title
;
Structure prediction by ZEFSAII (Michael W. Deem and Ramdas Pophale) SiO2 
 PCOD9218756
Probable space group: C 2/M
;
_chemical_formula_sum "Si O2"
_cell_formula_units_Z 52
_cell_length_a 16.945527
_cell_length_b 20.030753
_cell_length_c 14.352044
_cell_angle_alpha 90.000000
_cell_angle_beta 149.206830
_cell_angle_gamma 90.000000
_cell_volume 2493.937548
_symmetry_space_group_name_H-M "C 2/M"
_symmetry_group_IT_number 12
_symmetry_cell_setting 'monoclinic'
loop_
_space_group_symop_operation_xyz
x,y,z
-x,y,-z
-x,-y,-z
x,-y,z
1/2+x,1/2+y,z
1/2-x,1/2+y,-z
1/2-x,1/2-y,-z
1/2+x,1/2-y,z
loop_
_atom_site_type_symbol
_atom_site_label
_atom_site_fract_x
_atom_site_fract_y
_atom_site_fract_z
Si Si1 0.123308 0.759034 0.540477
Si Si2 0.090286 0.644930 0.189755
Si Si3 0.540076 0.000000 0.432307
Si Si4 0.594122 0.393106 0.958308
Si Si5 0.010523 0.500000 0.121634
Si Si6 0.753477 0.500000 0.003467
Si Si7 0.428011 0.748186 0.153662
Si Si8 0.264317 0.611932 0.702193
O O1 0.246222 0.819228 0.661523
O O2 0.219160 0.689548 0.644897
O O3 0.000000 0.762726 0.500000
O O4 0.029986 0.759336 0.349371
O O5 0.991425 0.688801 0.161625
O O6 0.095394 0.569073 0.232261
O O7 0.000000 0.645124 0.000000
O O8 0.500000 0.000000 0.500000
O O9 0.638068 0.067386 0.523238
O O10 0.398965 0.000000 0.220264
O O11 0.653287 0.435606 0.930841
O O12 0.565606 0.316514 0.904710
O O13 0.426815 0.412878 0.826032
O O14 0.715998 0.399838 0.166570
O O15 0.000000 0.500000 0.000000
O O16 0.837922 0.500000 0.989994
O O17 0.250000 0.750000 0.000000
#
# Coordination Sequence:
#
# PCOD9218756 Si02
#       8
#     8   8   4   8   4   4   8   8
#     4  12  26  42  69 102 140 181 228 284 339 408
#     4  11  23  47  70  99 132 177 229 288 346 396
#     4  12  23  37  63  98 143 182 221 261 325 413
#     4  11  23  41  65  98 140 183 220 274 339 407
#     4  10  26  45  72  93 132 179 237 290 346 398
#     4  12  25  42  69 103 136 184 230 274 340 416
#     4  12  25  41  68  99 135 179 233 278 339 408
#     4  11  23  41  64  99 146 184 216 271 341 413
#
# _framework density 20.850562
#
# number of rings (size 3 to 8) (size 9 to 14) (size 15 to 20)
#    0.000    0.615    3.077    5.077    4.308    2.462 
#    0.000    1.154    0.000    0.000    0.000    0.000 
#    0.000    0.000    0.000    0.000    0.000    0.000 
#
# Total GULP energy -145349.384737 kJ/mol
# GULP energy per Si atom -5590.360951 kJ/mol
# Density = 2.080311 g / cm^3
# Si number density = 20.850562 Si / 1000 Ang^3
#
#
#
# Elastic Constant Matrix: (Units=GPa)
#
#
# Indices 1 2 3 4 5 6 
#
# 1 124.3029 49.6222 35.6183 0.0000 12.3728 0.0000
# 2 49.6222 163.8352 28.5540 0.0000 21.0491 0.0000
# 3 35.6183 28.5540 92.8721 0.0000 6.0223 0.0000
# 4 0.0000 0.0000 0.0000 7.4547 0.0000 11.8438
# 5 12.3728 21.0491 6.0223 0.0000 35.2678 0.0000
# 6 0.0000 0.0000 0.0000 11.8438 0.0000 76.3245
#
#
#
# Elastic Compliance Matrix: (Units=1/GPa)
#
#
# Indices 1 2 3 4 5 6 
#
# 1 0.009986 -0.002290 -0.003021 0.000000 -0.001621 0.000000
# 2 -0.002290 0.007446 -0.001188 0.000000 -0.003438 0.000000
# 3 -0.003021 -0.001188 0.012313 0.000000 -0.000334 0.000000
# 4 0.000000 0.000000 0.000000 0.178038 0.000000 -0.027628
# 5 -0.001621 -0.003438 -0.000334 0.000000 0.031032 0.000000
# 6 0.000000 0.000000 0.000000 -0.027628 0.000000 0.017389
#
#
# Mechanical properties :
#
#
# Convention : Reuss Voigt Hill
#
# Bulk Modulus (GPa) = 59.71053 67.62212 63.66633
# Shear Modulus (GPa) = 18.19610 41.62377 29.90994
#
# Velocity S-wave (km/s) = 2.95734 4.47283 3.79158
# Velocity P-wave (km/s) = 6.35301 7.69267 7.05471
#
# Compressibility (1/GPa) = 0.01674746
#
# Stress axis : x y z
#
# Youngs Moduli (GPa) = 100.14177 134.30034 81.21543
#
# Poissons Ratio (x) = 0.30752 0.24532
# Poissons Ratio (y) = 0.22931 0.09650
# Poissons Ratio (z) = 0.30249 0.15958
#
# Static dielectric constant tensor:
#      x y z
#    x 1.516520 0.000000 -0.112110 
#    y 0.000000 1.994260 0.000000 
#    z -0.112110 0.000000 1.650030 
# 
# From -- ./inp_files/227468.got.cif
#   From: 2010.05.17/outbox.cif.g08.bks.cpg/sg12_114_cif.got.tgz:227468.got - 2010.06.03 13:09:07.
