data_PCOD9218590
_publ_section_title
;
Structure prediction by ZEFSAII (Michael W. Deem and Ramdas Pophale) SiO2 
 PCOD9218590
Probable space group: C 2/M
;
_chemical_formula_sum "Si O2"
_cell_formula_units_Z 34
_cell_length_a 14.212230
_cell_length_b 21.317797
_cell_length_c 13.846069
_cell_angle_alpha 90.000000
_cell_angle_beta 159.850736
_cell_angle_gamma 90.000000
_cell_volume 1445.036068
_symmetry_space_group_name_H-M "C 2/M"
_symmetry_group_IT_number 12
_symmetry_cell_setting 'monoclinic'
loop_
_space_group_symop_operation_xyz
x,y,z
-x,y,-z
-x,-y,-z
x,-y,z
1/2+x,1/2+y,z
1/2-x,1/2+y,-z
1/2-x,1/2-y,-z
1/2+x,1/2-y,z
loop_
_atom_site_type_symbol
_atom_site_label
_atom_site_fract_x
_atom_site_fract_y
_atom_site_fract_z
Si Si1 0.500000 0.222989 0.500000
Si Si2 0.000000 0.500000 0.500000
Si Si3 0.084229 0.877358 0.781720
Si Si4 0.225669 0.889234 0.135227
Si Si5 0.913280 0.675564 0.813699
Si Si6 0.269230 0.500000 0.196250
O O1 0.634411 0.177012 0.707672
O O2 0.263548 0.264582 0.321874
O O3 0.937775 0.444941 0.358453
O O4 0.794482 0.862291 0.454141
O O5 0.199300 0.939366 0.841143
O O6 0.085793 0.888089 0.896835
O O7 0.298940 0.821290 0.964037
O O8 0.000000 0.901271 0.000000
O O9 0.000000 0.645572 0.000000
O O10 0.500000 0.500000 0.500000
O O11 0.000000 0.500000 0.000000
#
# Coordination Sequence:
#
# PCOD9218590 Si02
#       6
#     4   2   8   8   8   4
#     4  11  26  47  76 103 160 195 256 314 378 435
#     4  10  24  50  76  98 158 184 240 320 374 428
#     4  12  27  45  79 109 152 199 254 304 391 444
#     4  11  27  50  75 113 148 199 255 315 371 455
#     4  12  24  48  73 108 154 196 245 315 373 448
#     4  12  25  45  73 109 144 186 241 306 368 454
#
# _framework density 23.528824
#
# number of rings (size 3 to 8) (size 9 to 14) (size 15 to 20)
#    0.000    0.471    2.353    5.294    6.588    1.882 
#    4.235    0.000    0.000    0.000    0.000    0.000 
#    0.000    0.000    0.000    0.000    0.000    0.000 
#
# Total GULP energy -94904.028531 kJ/mol
# GULP energy per Si atom -5582.589914 kJ/mol
# Density = 2.347527 g / cm^3
# Si number density = 23.528824 Si / 1000 Ang^3
#
#
#
# Elastic Constant Matrix: (Units=GPa)
#
#
# Indices 1 2 3 4 5 6 
#
# 1 158.5052 28.1624 64.1484 0.0008 -49.0897 -0.0001
# 2 28.1624 112.6309 25.9508 0.0027 -23.7182 0.0014
# 3 64.1484 25.9508 163.3051 0.0119 -35.6824 0.0044
# 4 0.0008 0.0027 0.0119 116.2926 0.0064 11.8454
# 5 -49.0897 -23.7182 -35.6824 0.0064 56.4039 0.0009
# 6 -0.0001 0.0014 0.0044 11.8454 0.0009 9.8743
#
#
#
# Elastic Compliance Matrix: (Units=1/GPa)
#
#
# Indices 1 2 3 4 5 6 
#
# 1 0.009280 -0.000451 -0.002147 0.000000 0.006529 0.000001
# 2 -0.000451 0.009845 -0.000660 0.000000 0.003330 -0.000001
# 3 -0.002147 -0.000660 0.007662 -0.000001 0.002701 -0.000003
# 4 0.000000 0.000000 -0.000001 0.009796 -0.000002 -0.011751
# 5 0.006529 0.003330 0.002701 -0.000002 0.026520 -0.000002
# 6 0.000001 -0.000001 -0.000003 -0.011751 -0.000002 0.115371
#
#
# Mechanical properties :
#
#
# Convention : Reuss Voigt Hill
#
# Bulk Modulus (GPa) = 49.33130 74.55160 61.94145
# Shear Modulus (GPa) = 26.07621 57.59281 41.83451
#
# Velocity S-wave (km/s) = 3.33268 4.95285 4.22122
# Velocity P-wave (km/s) = 5.98505 8.02880 7.08105
#
# Compressibility (1/GPa) = 0.02027111
#
# Stress axis : x y z
#
# Youngs Moduli (GPa) = 107.75919 101.57937 130.51530
#
# Poissons Ratio (x) = 0.04580 0.28023
# Poissons Ratio (y) = 0.04858 0.08610
# Poissons Ratio (z) = 0.23137 0.06701
#
# Static dielectric constant tensor:
#      x y z
#    x 1.884500 -0.000010 0.018640 
#    y -0.000010 2.001700 0.000000 
#    z 0.018640 0.000000 1.911290 
# 
# From -- ./inp_files/218624.got.cif
#   From: 2010.05.17/outbox.cif.g08.bks.cpg/sg12_110_cif.got.tgz:218624.got - 2010.06.03 13:09:07.
