data_PCOD9218583
_publ_section_title
;
Structure prediction by ZEFSAII (Michael W. Deem and Ramdas Pophale) SiO2 
 PCOD9218583
Probable space group: C 2/M
;
_chemical_formula_sum "Si O2"
_cell_formula_units_Z 50
_cell_length_a 24.706522
_cell_length_b 13.586114
_cell_length_c 14.923713
_cell_angle_alpha 90.000000
_cell_angle_beta 24.510000
_cell_angle_gamma 90.000000
_cell_volume 2078.150524
_symmetry_space_group_name_H-M "C 2/M"
_symmetry_group_IT_number 12
_symmetry_cell_setting 'monoclinic'
loop_
_space_group_symop_operation_xyz
x,y,z
-x,y,-z
-x,-y,-z
x,-y,z
1/2+x,1/2+y,z
1/2-x,1/2+y,-z
1/2-x,1/2-y,-z
1/2+x,1/2-y,z
loop_
_atom_site_type_symbol
_atom_site_label
_atom_site_fract_x
_atom_site_fract_y
_atom_site_fract_z
Si Si1 0.000000 0.000000 0.500000
Si Si2 0.592710 0.393774 0.610107
Si Si3 0.864140 0.860315 0.246205
Si Si4 0.636449 0.706428 0.327676
Si Si5 0.355424 0.894242 0.562743
Si Si6 0.379730 0.151860 0.133139
Si Si7 0.583580 0.202418 0.130369
O O1 0.908967 0.908753 0.592845
O O2 0.528548 0.500000 0.692843
O O3 0.629068 0.382111 0.660015
O O4 0.734394 0.390716 0.350337
O O5 0.493532 0.305289 0.736746
O O6 0.739316 0.897235 0.380724
O O7 0.863070 0.745275 0.224253
O O8 0.000000 0.896579 0.000000
O O9 0.500000 0.751539 0.500000
O O10 0.679851 0.793722 0.331697
O O11 0.764707 0.701750 0.073171
O O12 0.500865 0.878099 0.307698
O O13 0.340671 0.000000 0.632572
O O14 0.500000 0.098482 0.000000
O O15 0.418842 0.179053 0.972598
#
# Coordination Sequence:
#
# PCOD9218583 Si02
#       7
#     2   8   8   8   8   8   8
#     4   8  24  52  82 104 126 178 216 282 364 432
#     4  12  24  39  63 100 140 192 247 287 335 398
#     4  11  20  40  63  93 138 195 236 282 332 396
#     4  10  24  49  76 101 134 171 225 279 356 426
#     4  12  26  42  69 106 140 181 231 282 346 409
#     4  11  21  40  66  90 142 192 240 286 332 396
#     4  12  23  44  66 101 134 181 227 289 347 404
#
# _framework density 24.059854999999999
#
# number of rings (size 3 to 8) (size 9 to 14) (size 15 to 20)
#    0.480    0.320    6.400    1.920    1.120    5.120 
#    4.320    0.000    0.000    0.000    0.000    0.000 
#    0.000    0.000    0.000    0.000    0.000    0.000 
#
# Total GULP energy -139181.860364 kJ/mol
# GULP energy per Si atom -5567.274415 kJ/mol
# Density = 2.400509 g / cm^3
# Si number density = 24.059855 Si / 1000 Ang^3
#
#
#
# Elastic Constant Matrix: (Units=GPa)
#
#
# Indices 1 2 3 4 5 6 
#
# 1 54.1049 22.8805 18.3044 0.0000 -21.4792 0.0000
# 2 22.8805 200.2194 21.0614 0.0000 1.1422 0.0000
# 3 18.3044 21.0614 127.4254 0.0000 -23.6993 0.0000
# 4 0.0000 0.0000 0.0000 -23.5208 0.0000 -8.5605
# 5 -21.4792 1.1422 -23.6993 0.0000 44.7609 0.0000
# 6 0.0000 0.0000 0.0000 -8.5605 0.0000 27.5336
#
#
#
# Elastic Compliance Matrix: (Units=1/GPa)
#
#
# Indices 1 2 3 4 5 6 
#
# 1 0.024459 -0.002759 -0.000956 0.000000 0.011302 0.000000
# 2 -0.002759 0.005411 -0.000854 0.000000 -0.001914 0.000000
# 3 -0.000956 -0.000854 0.008924 0.000000 0.004288 0.000000
# 4 0.000000 0.000000 0.000000 -0.038194 0.000000 -0.011875
# 5 0.011302 -0.001914 0.004288 0.000000 0.030083 0.000000
# 6 0.000000 0.000000 0.000000 -0.011875 0.000000 0.032627
#
#
# Mechanical properties :
#
#
# Convention : Reuss Voigt Hill
#
# Bulk Modulus (GPa) = 33.71962 56.24917 44.98439
# Shear Modulus (GPa) = 60.72887 31.05496 45.89191
#
# Velocity S-wave (km/s) = 5.02947 3.59658 4.37212
# Velocity P-wave (km/s) = 6.91178 6.37784 6.65017
#
# Compressibility (1/GPa) = 0.02965633
#
# Stress axis : x y z
#
# Youngs Moduli (GPa) = 40.88417 184.82329 112.06183
#
# Poissons Ratio (x) = 0.50995 0.10708
# Poissons Ratio (y) = 0.11280 0.09570
# Poissons Ratio (z) = 0.03907 0.15783
#
# Static dielectric constant tensor:
#      x y z
#    x 2.040640 0.000000 0.009920 
#    y 0.000000 1.959210 0.000000 
#    z 0.009920 0.000000 1.920090 
# 
# From -- ./inp_files/296770.got.cif
#   From: 2010.05.17/outbox.cif.g08.bks.cpg/sg12_149_cif.got.tgz:296770.got - 2010.06.03 13:09:07.
