data_PCOD9218695
_publ_section_title
;
Structure prediction by ZEFSAII (Michael W. Deem and Ramdas Pophale) SiO2 
 PCOD9218695
Probable space group: C 2/M
;
_chemical_formula_sum "Si O2"
_cell_formula_units_Z 38
_cell_length_a 10.871929
_cell_length_b 21.230510
_cell_length_c 10.459242
_cell_angle_alpha 90.000000
_cell_angle_beta 132.091482
_cell_angle_gamma 90.000000
_cell_volume 1791.493931
_symmetry_space_group_name_H-M "C 2/M"
_symmetry_group_IT_number 12
_symmetry_cell_setting 'monoclinic'
loop_
_space_group_symop_operation_xyz
x,y,z
-x,y,-z
-x,-y,-z
x,-y,z
1/2+x,1/2+y,z
1/2-x,1/2+y,-z
1/2-x,1/2-y,-z
1/2+x,1/2-y,z
loop_
_atom_site_type_symbol
_atom_site_label
_atom_site_fract_x
_atom_site_fract_y
_atom_site_fract_z
Si Si1 0.000000 0.884771 0.000000
Si Si2 0.593327 0.571542 0.340087
Si Si3 0.500000 0.000000 0.000000
Si Si4 0.803726 0.683756 0.096676
Si Si5 0.819196 0.317233 0.592014
Si Si6 0.743753 0.886673 0.197441
O O1 0.966749 0.924173 0.848971
O O2 0.840117 0.841481 0.912455
O O3 0.644544 0.500000 0.404785
O O4 0.732974 0.624261 0.459694
O O5 0.433462 0.591232 0.312629
O O6 0.625945 0.945191 0.143593
O O7 0.983079 0.684968 0.285090
O O8 0.750000 0.750000 0.000000
O O9 0.809660 0.638010 0.978736
O O10 0.750000 0.250000 0.500000
O O11 0.777618 0.332728 0.711492
#
# Coordination Sequence:
#
# PCOD9218695 Si02
#       6
#     4   8   2   8   8   8
#     4  10  25  47  66  99 134 193 232 286 357 428
#     4  11  25  45  72 105 145 186 235 296 358 426
#     4  12  20  42  82 100 142 180 248 298 344 436
#     4  11  25  45  72  95 138 184 239 285 351 435
#     4  12  26  44  68 107 145 182 233 298 362 419
#     4  11  24  44  73 106 137 185 237 296 356 422
#
# _framework density 21.211348000000001
#
# number of rings (size 3 to 8) (size 9 to 14) (size 15 to 20)
#    0.000    0.842    3.158    3.474    7.368    1.684 
#    0.000    1.053    0.000    0.000    0.000    0.000 
#    0.000    0.000    0.000    0.000    0.000    0.000 
#
# Total GULP energy -106016.228163 kJ/mol
# GULP energy per Si atom -5579.801482 kJ/mol
# Density = 2.116307 g / cm^3
# Si number density = 21.211348 Si / 1000 Ang^3
#
#
#
# Elastic Constant Matrix: (Units=GPa)
#
#
# Indices 1 2 3 4 5 6 
#
# 1 110.3774 54.7109 51.6757 0.0000 15.6251 0.0000
# 2 54.7109 174.8297 65.6210 0.0000 40.6800 0.0000
# 3 51.6757 65.6210 138.3922 0.0000 36.2857 0.0000
# 4 0.0000 0.0000 0.0000 30.6421 0.0000 4.6636
# 5 15.6251 40.6800 36.2857 0.0000 32.5230 0.0000
# 6 0.0000 0.0000 0.0000 4.6636 0.0000 9.6593
#
#
#
# Elastic Compliance Matrix: (Units=1/GPa)
#
#
# Indices 1 2 3 4 5 6 
#
# 1 0.011862 -0.002782 -0.003574 0.000000 0.001768 0.000000
# 2 -0.002782 0.009002 -0.000887 0.000000 -0.008933 0.000000
# 3 -0.003574 -0.000887 0.011647 0.000000 -0.010167 0.000000
# 4 0.000000 0.000000 0.000000 0.035223 0.000000 -0.017006
# 5 0.001768 -0.008933 -0.010167 0.000000 0.052416 0.000000
# 6 0.000000 0.000000 0.000000 -0.017006 0.000000 0.111738
#
#
# Mechanical properties :
#
#
# Convention : Reuss Voigt Hill
#
# Bulk Modulus (GPa) = 55.48003 85.29050 70.38527
# Shear Modulus (GPa) = 19.81128 31.33766 25.57447
#
# Velocity S-wave (km/s) = 3.05945 3.84787 3.47608
# Velocity P-wave (km/s) = 6.22036 7.74846 7.02608
#
# Compressibility (1/GPa) = 0.01802450
#
# Stress axis : x y z
#
# Youngs Moduli (GPa) = 84.30606 111.08407 85.85996
#
# Poissons Ratio (x) = 0.30904 0.30682
# Poissons Ratio (y) = 0.23454 0.07620
# Poissons Ratio (z) = 0.30127 0.09858
#
# Static dielectric constant tensor:
#      x y z
#    x 1.785300 0.000000 -0.017660 
#    y 0.000000 1.585510 0.000000 
#    z -0.017660 0.000000 1.793360 
# 
# From -- ./inp_files/134194.got.cif
#   From: 2010.05.17/outbox.cif.g08.bks.cpg/sg12_68_cif.got.tgz:134194.got - 2010.06.03 13:09:07.
