data_PCOD9218061
_publ_section_title
;
Structure prediction by ZEFSAII (Michael W. Deem and Ramdas Pophale) SiO2 
 PCOD9218061
Probable space group: C 2/M
;
_chemical_formula_sum "Si O2"
_cell_formula_units_Z 46
_cell_length_a 12.058340
_cell_length_b 22.172490
_cell_length_c 11.582812
_cell_angle_alpha 90.000000
_cell_angle_beta 131.007483
_cell_angle_gamma 90.000000
_cell_volume 2336.934557
_symmetry_space_group_name_H-M "C 2/M"
_symmetry_group_IT_number 12
_symmetry_cell_setting 'monoclinic'
loop_
_space_group_symop_operation_xyz
x,y,z
-x,y,-z
-x,-y,-z
x,-y,z
1/2+x,1/2+y,z
1/2-x,1/2+y,-z
1/2-x,1/2-y,-z
1/2+x,1/2-y,z
loop_
_atom_site_type_symbol
_atom_site_label
_atom_site_fract_x
_atom_site_fract_y
_atom_site_fract_z
Si Si1 0.771745 0.407840 0.160105
Si Si2 0.158693 0.428787 0.059116
Si Si3 0.146536 0.307650 0.411536
Si Si4 0.500000 0.500000 0.000000
Si Si5 0.683537 0.772274 0.834999
Si Si6 0.664870 0.656546 0.662204
Si Si7 0.000000 0.387653 0.500000
O O1 0.745248 0.335809 0.152480
O O2 0.900011 0.422414 0.339879
O O3 0.829498 0.417971 0.069363
O O4 0.629244 0.447668 0.082137
O O5 0.172978 0.500000 0.091190
O O6 0.288306 0.393032 0.212209
O O7 0.000000 0.408583 0.000000
O O8 0.250000 0.250000 0.500000
O O9 0.225653 0.348415 0.370874
O O10 0.988166 0.285569 0.261379
O O11 0.109158 0.344912 0.500834
O O12 0.690250 0.721038 0.741736
O O13 0.750000 0.750000 0.000000
O O14 0.500000 0.652789 0.500000
#
# Coordination Sequence:
#
# PCOD9218061 Si02
#       7
#     8   8   8   2   8   8   4
#     4  11  24  46  68 100 137 182 238 280 352 415
#     4  11  24  47  73  96 134 181 237 291 344 418
#     4  11  21  40  64 100 143 177 220 280 344 420
#     4  12  28  46  66  96 142 190 230 300 330 420
#     4  11  23  40  67 103 140 177 226 286 353 416
#     4  12  25  42  70 106 141 180 225 290 357 421
#     4  10  24  41  68  96 132 188 233 284 344 418
#
# _framework density 19.683904999999999
#
# number of rings (size 3 to 8) (size 9 to 14) (size 15 to 20)
#    0.000    0.870    4.348    4.174    1.217    4.870 
#    0.000    0.000    5.739    0.000    0.000    0.000 
#    0.000    0.000    0.000    0.000    0.000    0.000 
#
# Total GULP energy -128278.376756 kJ/mol
# GULP energy per Si atom -5577.320729 kJ/mol
# Density = 1.963910 g / cm^3
# Si number density = 19.683905 Si / 1000 Ang^3
#
#
#
# Elastic Constant Matrix: (Units=GPa)
#
#
# Indices 1 2 3 4 5 6 
#
# 1 124.1827 42.5435 75.1687 0.0000 -2.3323 0.0000
# 2 42.5435 114.6409 69.4788 0.0000 17.3774 0.0000
# 3 75.1687 69.4788 164.4989 0.0000 -5.0413 0.0000
# 4 0.0000 0.0000 0.0000 3.5457 0.0000 21.8705
# 5 -2.3323 17.3774 -5.0413 0.0000 26.9209 0.0000
# 6 0.0000 0.0000 0.0000 21.8705 0.0000 20.5526
#
#
#
# Elastic Compliance Matrix: (Units=1/GPa)
#
#
# Indices 1 2 3 4 5 6 
#
# 1 0.011339 -0.001725 -0.004414 0.000000 0.001270 0.000000
# 2 -0.001725 0.014331 -0.005585 0.000000 -0.010446 0.000000
# 3 -0.004414 -0.005585 0.010615 0.000000 0.005210 0.000000
# 4 0.000000 0.000000 0.000000 -0.050691 0.000000 0.053942
# 5 0.001270 -0.010446 0.005210 0.000000 0.044975 0.000000
# 6 0.000000 0.000000 0.000000 0.053942 0.000000 -0.008745
#
#
# Mechanical properties :
#
#
# Convention : Reuss Voigt Hill
#
# Bulk Modulus (GPa) = 77.89979 86.41161 82.15570
# Shear Modulus (GPa) = 100.90683 24.61261 62.75972
#
# Velocity S-wave (km/s) = 7.16763 3.53993 5.65270
# Velocity P-wave (km/s) = 10.40006 7.79121 9.18869
#
# Compressibility (1/GPa) = 0.01283701
#
# Stress axis : x y z
#
# Youngs Moduli (GPa) = 88.18819 69.77723 94.21048
#
# Poissons Ratio (x) = 0.12040 0.41584
# Poissons Ratio (y) = 0.15216 0.52614
# Poissons Ratio (z) = 0.38926 0.38969
#
# Static dielectric constant tensor:
#      x y z
#    x 1.681850 0.000000 -0.021990 
#    y 0.000000 1.712570 0.000000 
#    z -0.021990 0.000000 1.696630 
# 
# From -- ./inp_files/134133.got.cif
#   From: 2010.05.17/outbox.cif.g08.bks.cpg/sg12_68_cif.got.tgz:134133.got - 2010.06.03 13:09:07.
