data_PCOD9218263
_publ_section_title
;
Structure prediction by ZEFSAII (Michael W. Deem and Ramdas Pophale) SiO2 
 PCOD9218263
Probable space group: C 2/M
;
_chemical_formula_sum "Si O2"
_cell_formula_units_Z 52
_cell_length_a 19.607950
_cell_length_b 9.331902
_cell_length_c 18.472327
_cell_angle_alpha 90.000000
_cell_angle_beta 131.388563
_cell_angle_gamma 90.000000
_cell_volume 2535.863984
_symmetry_space_group_name_H-M "C 2/M"
_symmetry_group_IT_number 12
_symmetry_cell_setting 'monoclinic'
loop_
_space_group_symop_operation_xyz
x,y,z
-x,y,-z
-x,-y,-z
x,-y,z
1/2+x,1/2+y,z
1/2-x,1/2+y,-z
1/2-x,1/2-y,-z
1/2+x,1/2-y,z
loop_
_atom_site_type_symbol
_atom_site_label
_atom_site_fract_x
_atom_site_fract_y
_atom_site_fract_z
Si Si1 0.907825 0.670750 0.772241
Si Si2 0.655720 0.330328 0.415342
Si Si3 0.215572 0.500000 0.992603
Si Si4 0.243940 0.282099 0.893104
Si Si5 0.757135 0.330542 0.271581
Si Si6 0.901213 0.835812 0.464844
Si Si7 0.956592 0.157873 0.049013
O O1 0.898984 0.500000 0.760778
O O2 0.889463 0.748909 0.683412
O O3 0.833043 0.739095 0.773960
O O4 0.004115 0.717817 0.873214
O O5 0.670200 0.500000 0.409665
O O6 0.750000 0.250000 0.500000
O O7 0.597409 0.319961 0.447778
O O8 0.191627 0.376126 0.914872
O O9 0.249437 0.623325 0.073285
O O10 0.211550 0.299375 0.788291
O O11 0.348478 0.338618 0.967102
O O12 0.739241 0.500000 0.266533
O O13 0.831784 0.275031 0.380487
O O14 0.000000 0.819013 0.500000
O O15 0.869035 0.000000 0.427620
O O16 0.983446 0.000000 0.096613
O O17 0.000000 0.172714 0.000000
#
# Coordination Sequence:
#
# PCOD9218263 Si02
#       7
#     8   8   4   8   8   8   8
#     4  12  26  40  63 100 131 174 221 273 336 393
#     4  11  22  42  69  96 133 171 217 274 330 391
#     4  10  24  44  64  88 132 178 224 258 318 392
#     4  11  23  44  66  95 131 177 221 269 323 389
#     4  12  23  41  69  96 129 169 222 271 332 398
#     4  10  24  46  68  98 132 173 219 270 329 397
#     4  11  22  40  65  93 133 166 213 275 332 384
#
# _framework density 20.505832000000002
#
# number of rings (size 3 to 8) (size 9 to 14) (size 15 to 20)
#    0.000    0.923    4.615    2.308    3.231    1.231 
#    5.538    0.000    0.000    0.000    0.000    0.000 
#    0.000    0.000    0.000    0.000    0.000    0.000 
#
# Total GULP energy -144837.429077 kJ/mol
# GULP energy per Si atom -5570.670349 kJ/mol
# Density = 2.045916 g / cm^3
# Si number density = 20.505832 Si / 1000 Ang^3
#
#
#
# Elastic Constant Matrix: (Units=GPa)
#
#
# Indices 1 2 3 4 5 6 
#
# 1 51.4348 25.5740 -3.6043 0.0000 -13.8674 0.0000
# 2 25.5740 181.9617 38.3780 0.0000 -29.5151 0.0000
# 3 -3.6043 38.3780 67.7605 0.0000 -20.5712 0.0000
# 4 0.0000 0.0000 0.0000 23.6696 0.0000 -6.8435
# 5 -13.8674 -29.5151 -20.5712 0.0000 25.2071 0.0000
# 6 0.0000 0.0000 0.0000 -6.8435 0.0000 98.8284
#
#
#
# Elastic Compliance Matrix: (Units=1/GPa)
#
#
# Indices 1 2 3 4 5 6 
#
# 1 0.026203 -0.002471 0.008363 0.000000 0.018348 0.000000
# 2 -0.002471 0.007207 -0.002744 0.000000 0.004840 0.000000
# 3 0.008363 -0.002744 0.022836 0.000000 0.020024 0.000000
# 4 0.000000 0.000000 0.000000 0.043111 0.000000 0.002985
# 5 0.018348 0.004840 0.020024 0.000000 0.071774 0.000000
# 6 0.000000 0.000000 0.000000 0.002985 0.000000 0.010325
#
#
# Mechanical properties :
#
#
# Convention : Reuss Voigt Hill
#
# Bulk Modulus (GPa) = 15.98884 46.87249 31.43067
# Shear Modulus (GPa) = 25.50936 45.59499 35.55218
#
# Velocity S-wave (km/s) = 3.53087 4.72053 4.16836
# Velocity P-wave (km/s) = 4.94337 7.25389 6.20709
#
# Compressibility (1/GPa) = 0.06254363
#
# Stress axis : x y z
#
# Youngs Moduli (GPa) = 38.16309 138.76055 43.79085
#
# Poissons Ratio (x) = 0.34282 -0.36623
# Poissons Ratio (y) = 0.09429 0.12015
# Poissons Ratio (z) = -0.31917 0.38072
#
# Static dielectric constant tensor:
#      x y z
#    x 1.780120 0.000000 0.004140 
#    y 0.000000 1.709230 0.000000 
#    z 0.004140 0.000000 1.702250 
# 
# From -- ./inp_files/282277.got.cif
#   From: 2010.05.17/outbox.cif.g08.bks.cpg/sg12_142_cif.got.tgz:282277.got - 2010.06.03 13:09:07.
