data_PCOD9218362
_publ_section_title
;
Structure prediction by ZEFSAII (Michael W. Deem and Ramdas Pophale) SiO2 
 PCOD9218362
Probable space group: C 2/M
;
_chemical_formula_sum "Si O2"
_cell_formula_units_Z 44
_cell_length_a 7.908479
_cell_length_b 24.236006
_cell_length_c 10.318700
_cell_angle_alpha 90.000000
_cell_angle_beta 105.624946
_cell_angle_gamma 90.000000
_cell_volume 1904.696397
_symmetry_space_group_name_H-M "C 2/M"
_symmetry_group_IT_number 12
_symmetry_cell_setting 'monoclinic'
loop_
_space_group_symop_operation_xyz
x,y,z
-x,y,-z
-x,-y,-z
x,-y,z
1/2+x,1/2+y,z
1/2-x,1/2+y,-z
1/2-x,1/2-y,-z
1/2+x,1/2-y,z
loop_
_atom_site_type_symbol
_atom_site_label
_atom_site_fract_x
_atom_site_fract_y
_atom_site_fract_z
Si Si1 0.474056 0.699088 0.768002
Si Si2 0.821177 0.500000 0.043846
Si Si3 0.333397 0.616583 0.057001
Si Si4 0.889205 0.310517 0.161578
Si Si5 0.000000 0.820226 0.500000
Si Si6 0.370510 0.878086 0.599700
Si Si7 0.532648 0.000000 0.350072
O O1 0.588363 0.642756 0.796928
O O2 0.278043 0.690829 0.776085
O O3 0.561286 0.748506 0.865574
O O4 0.490100 0.717732 0.623879
O O5 0.873395 0.500000 0.209066
O O6 0.716854 0.553858 0.976018
O O7 0.000000 0.500000 0.000000
O O8 0.500000 0.628221 0.000000
O O9 0.174842 0.653257 0.971961
O O10 0.044107 0.340842 0.270247
O O11 0.823257 0.856604 0.472784
O O12 0.500000 0.875785 0.500000
O O13 0.370758 0.941607 0.649750
O O14 0.500000 0.000000 0.500000
#
# Coordination Sequence:
#
# PCOD9218362 Si02
#       7
#     8   4   8   8   4   8   4
#     4  11  25  40  65 102 133 182 223 283 335 412
#     4  12  25  41  69 104 134 173 231 286 342 406
#     4  10  24  45  68  96 134 179 227 274 343 409
#     4  11  22  43  68  94 138 175 229 277 342 401
#     4  12  26  41  68 100 138 177 230 278 346 408
#     4  11  23  44  68  99 139 177 230 280 342 410
#     4  10  24  44  73  99 133 187 227 283 352 411
#
# _framework density 23.100791999999998
#
# number of rings (size 3 to 8) (size 9 to 14) (size 15 to 20)
#    0.000    1.091    3.636    1.909    3.818    3.273 
#    0.000    0.909    0.000    0.000    0.000    0.000 
#    0.000    0.000    0.000    0.000    0.000    0.000 
#
# Total GULP energy -122987.164816 kJ/mol
# GULP energy per Si atom -5590.325673 kJ/mol
# Density = 2.304821 g / cm^3
# Si number density = 23.100792 Si / 1000 Ang^3
#
#
#
# Elastic Constant Matrix: (Units=GPa)
#
#
# Indices 1 2 3 4 5 6 
#
# 1 133.5715 23.4496 31.9524 0.0000 20.0516 0.0000
# 2 23.4496 136.6618 18.7915 0.0000 33.8922 0.0000
# 3 31.9524 18.7915 75.0349 0.0000 7.2545 0.0000
# 4 0.0000 0.0000 0.0000 34.0334 0.0000 8.1952
# 5 20.0516 33.8922 7.2545 0.0000 45.3866 0.0000
# 6 0.0000 0.0000 0.0000 8.1952 0.0000 11.1251
#
#
#
# Elastic Compliance Matrix: (Units=1/GPa)
#
#
# Indices 1 2 3 4 5 6 
#
# 1 0.008816 -0.000265 -0.003383 0.000000 -0.003157 0.000000
# 2 -0.000265 0.009188 -0.001560 0.000000 -0.006495 0.000000
# 3 -0.003383 -0.001560 0.015135 0.000000 0.000240 0.000000
# 4 0.000000 0.000000 0.000000 0.035719 0.000000 -0.026312
# 5 -0.003157 -0.006495 0.000240 0.000000 0.028239 0.000000
# 6 0.000000 0.000000 0.000000 -0.026312 0.000000 0.109269
#
#
# Mechanical properties :
#
#
# Convention : Reuss Voigt Hill
#
# Bulk Modulus (GPa) = 44.00712 54.85057 49.42884
# Shear Modulus (GPa) = 22.28599 36.18067 29.23333
#
# Velocity S-wave (km/s) = 3.10938 3.96183 3.56120
# Velocity P-wave (km/s) = 5.65530 6.68758 6.19298
#
# Compressibility (1/GPa) = 0.02272359
#
# Stress axis : x y z
#
# Youngs Moduli (GPa) = 113.42796 108.83740 66.07143
#
# Poissons Ratio (x) = 0.02882 0.22350
# Poissons Ratio (y) = 0.03004 0.10309
# Poissons Ratio (z) = 0.38370 0.16982
#
# Static dielectric constant tensor:
#      x y z
#    x 1.850440 0.000000 -0.027090 
#    y 0.000000 1.960920 0.000000 
#    z -0.027090 0.000000 1.950460 
# 
# From -- ./inp_files/122686.got.cif
#   From: 2010.05.17/outbox.cif.g08.bks.cpg/sg12_62_cif.got.tgz:122686.got - 2010.06.03 13:09:07.
