data_PCOD9218391
_publ_section_title
;
Structure prediction by ZEFSAII (Michael W. Deem and Ramdas Pophale) SiO2 
 PCOD9218391
Probable space group: C 2/M
;
_chemical_formula_sum "Si O2"
_cell_formula_units_Z 48
_cell_length_a 14.335570
_cell_length_b 17.823284
_cell_length_c 16.844720
_cell_angle_alpha 90.000000
_cell_angle_beta 33.518722
_cell_angle_gamma 90.000000
_cell_volume 2376.677821
_symmetry_space_group_name_H-M "C 2/M"
_symmetry_group_IT_number 12
_symmetry_cell_setting 'monoclinic'
loop_
_space_group_symop_operation_xyz
x,y,z
-x,y,-z
-x,-y,-z
x,-y,z
1/2+x,1/2+y,z
1/2-x,1/2+y,-z
1/2-x,1/2-y,-z
1/2+x,1/2-y,z
loop_
_atom_site_type_symbol
_atom_site_label
_atom_site_fract_x
_atom_site_fract_y
_atom_site_fract_z
Si Si1 0.692403 0.685702 0.359920
Si Si2 0.260149 0.159788 0.486913
Si Si3 0.434373 0.912243 0.637420
Si Si4 0.596253 0.322512 0.853205
Si Si5 0.960877 0.089832 0.805970
Si Si6 0.803150 0.589302 0.136116
O O1 0.500000 0.714625 0.500000
O O2 0.736783 0.644231 0.410237
O O3 0.819496 0.753980 0.254022
O O4 0.707997 0.631287 0.274028
O O5 0.250000 0.250000 0.500000
O O6 0.435811 0.131024 0.398049
O O7 0.113178 0.120580 0.642629
O O8 0.500000 0.906576 0.500000
O O9 0.250107 0.876086 0.770086
O O10 0.430383 0.000000 0.661285
O O11 0.477947 0.368785 0.877473
O O12 0.500000 0.296504 0.000000
O O13 0.787819 0.107270 0.882349
O O14 0.978013 0.000000 0.802823
O O15 0.788486 0.500000 0.157625
O O16 0.000000 0.609189 0.000000
#
# Coordination Sequence:
#
# PCOD9218391 Si02
#       6
#     8   8   8   8   8   8
#     4  12  24  43  70  98 134 172 229 278 330 394
#     4  12  22  40  67 100 134 169 223 278 327 387
#     4  11  23  41  66  97 135 175 220 275 331 392
#     4  12  26  43  67 100 136 178 220 272 339 403
#     4  11  23  42  69  99 133 175 221 275 333 396
#     4  10  24  45  67  96 137 177 218 275 338 398
#
# _framework density 20.196259999999999
#
# number of rings (size 3 to 8) (size 9 to 14) (size 15 to 20)
#    0.000    0.667    5.000    3.000    0.000    4.333 
#    0.000    4.167    0.000    0.000    0.000    0.000 
#    0.000    0.000    0.000    0.000    0.000    0.000 
#
# Total GULP energy -134296.384362 kJ/mol
# GULP energy per Si atom -5595.682682 kJ/mol
# Density = 2.015029 g / cm^3
# Si number density = 20.196260 Si / 1000 Ang^3
#
#
#
# Elastic Constant Matrix: (Units=GPa)
#
#
# Indices 1 2 3 4 5 6 
#
# 1 144.5061 37.9797 24.8243 -0.0006 -7.7215 0.0008
# 2 37.9797 57.3883 10.2886 -0.0015 -2.4719 0.0012
# 3 24.8243 10.2886 66.8100 -0.0001 1.8221 0.0016
# 4 -0.0006 -0.0015 -0.0001 14.4597 0.0012 -1.7843
# 5 -7.7215 -2.4719 1.8221 0.0012 35.8907 -0.0010
# 6 0.0008 0.0012 0.0016 -1.7843 -0.0010 34.2828
#
#
#
# Elastic Compliance Matrix: (Units=1/GPa)
#
#
# Indices 1 2 3 4 5 6 
#
# 1 0.008841 -0.005329 -0.002510 0.000000 0.001662 0.000000
# 2 -0.005329 0.021201 -0.001295 0.000002 0.000379 0.000000
# 3 -0.002510 -0.001295 0.016139 0.000000 -0.001448 -0.000001
# 4 0.000000 0.000002 0.000000 0.069605 -0.000002 0.003623
# 5 0.001662 0.000379 -0.001448 -0.000002 0.028320 0.000001
# 6 0.000000 0.000000 -0.000001 0.003623 0.000001 0.029358
#
#
# Mechanical properties :
#
#
# Convention : Reuss Voigt Hill
#
# Bulk Modulus (GPa) = 35.82580 46.09885 40.96233
# Shear Modulus (GPa) = 24.87132 29.96742 27.41937
#
# Velocity S-wave (km/s) = 3.51305 3.85620 3.68862
# Velocity P-wave (km/s) = 5.85088 6.53468 6.20221
#
# Compressibility (1/GPa) = 0.02791284
#
# Stress axis : x y z
#
# Youngs Moduli (GPa) = 113.11284 47.16841 61.96091
#
# Poissons Ratio (x) = 0.25137 0.15549
# Poissons Ratio (y) = 0.60281 0.08024
# Poissons Ratio (z) = 0.28386 0.06108
#
# Static dielectric constant tensor:
#      x y z
#    x 1.719850 0.000000 -0.002260 
#    y 0.000000 1.697930 0.000000 
#    z -0.002260 0.000000 1.703550 
# 
# From -- ./inp_files/271586.got.cif
#   From: 2010.05.17/outbox.cif.g08.bks.cpg/sg12_136_cif.got.tgz:271586.got - 2010.06.03 13:09:07.
