data_PCOD9218614
_publ_section_title
;
Structure prediction by ZEFSAII (Michael W. Deem and Ramdas Pophale) SiO2 
 PCOD9218614
Probable space group: C 2/M
;
_chemical_formula_sum "Si O2"
_cell_formula_units_Z 44
_cell_length_a 9.241374
_cell_length_b 24.250253
_cell_length_c 12.128982
_cell_angle_alpha 90.000000
_cell_angle_beta 42.921036
_cell_angle_gamma 90.000000
_cell_volume 1851.048349
_symmetry_space_group_name_H-M "C 2/M"
_symmetry_group_IT_number 12
_symmetry_cell_setting 'monoclinic'
loop_
_space_group_symop_operation_xyz
x,y,z
-x,y,-z
-x,-y,-z
x,-y,z
1/2+x,1/2+y,z
1/2-x,1/2+y,-z
1/2-x,1/2-y,-z
1/2+x,1/2-y,z
loop_
_atom_site_type_symbol
_atom_site_label
_atom_site_fract_x
_atom_site_fract_y
_atom_site_fract_z
Si Si1 0.603519 0.785449 0.203073
Si Si2 0.092222 0.881243 0.648732
Si Si3 0.304873 0.183380 0.174797
Si Si4 0.677749 0.000000 0.989968
Si Si5 0.500000 0.187431 0.500000
Si Si6 0.561947 0.500000 0.594876
Si Si7 0.675590 0.601099 0.981949
O O1 0.408067 0.791462 0.228225
O O2 0.743230 0.730183 0.118219
O O3 0.541743 0.779424 0.365622
O O4 0.729854 0.842970 0.120619
O O5 0.298159 0.848149 0.572619
O O6 0.907123 0.851331 0.680056
O O7 0.164049 0.939976 0.559660
O O8 0.954221 0.885869 0.836431
O O9 0.500000 0.152616 0.000000
O O10 0.885330 0.000000 0.793403
O O11 0.500000 0.000000 0.000000
O O12 0.662643 0.946330 0.074938
O O13 0.500000 0.500000 0.500000
O O14 0.500000 0.575928 0.000000
#
# Coordination Sequence:
#
# PCOD9218614 Si02
#       7
#     8   8   8   4   4   4   8
#     4  12  27  44  76 104 147 189 242 302 364 435
#     4  11  26  46  72 105 145 187 244 292 364 431
#     4  12  26  46  77 108 140 190 244 307 362 426
#     4  10  25  41  73 109 140 182 250 308 355 427
#     4  12  28  47  68 110 146 193 238 298 366 442
#     4  10  26  46  71 102 148 190 236 291 365 434
#     4  11  22  45  70 101 140 190 238 298 360 428
#
# _framework density 23.770313000000002
#
# number of rings (size 3 to 8) (size 9 to 14) (size 15 to 20)
#    0.000    0.727    3.636    2.455    7.636    3.273 
#    0.000    0.000    0.000    0.000    0.000    0.000 
#    0.000    0.000    0.000    0.000    0.000    0.000 
#
# Total GULP energy -122851.412572 kJ/mol
# GULP energy per Si atom -5584.155117 kJ/mol
# Density = 2.371621 g / cm^3
# Si number density = 23.770313 Si / 1000 Ang^3
#
#
#
# Elastic Constant Matrix: (Units=GPa)
#
#
# Indices 1 2 3 4 5 6 
#
# 1 171.7478 41.5277 12.8835 0.0000 -5.5405 0.0000
# 2 41.5277 102.2353 11.7716 0.0000 -11.6987 0.0000
# 3 12.8835 11.7716 52.1334 0.0000 9.1635 0.0000
# 4 0.0000 0.0000 0.0000 9.1833 0.0000 -0.1658
# 5 -5.5405 -11.6987 9.1635 0.0000 45.6894 0.0000
# 6 0.0000 0.0000 0.0000 -0.1658 0.0000 48.4346
#
#
#
# Elastic Compliance Matrix: (Units=1/GPa)
#
#
# Indices 1 2 3 4 5 6 
#
# 1 0.006517 -0.002475 -0.001119 0.000000 0.000381 0.000000
# 2 -0.002475 0.011436 -0.002521 0.000000 0.003134 0.000000
# 3 -0.001119 -0.002521 0.020901 0.000000 -0.004973 0.000000
# 4 0.000000 0.000000 0.000000 0.108900 0.000000 0.000373
# 5 0.000381 0.003134 -0.004973 0.000000 0.023733 0.000000
# 6 0.000000 0.000000 0.000000 0.000373 0.000000 0.020648
#
#
# Mechanical properties :
#
#
# Convention : Reuss Voigt Hill
#
# Bulk Modulus (GPa) = 37.55951 50.94245 44.25098
# Shear Modulus (GPa) = 23.44790 37.99038 30.71914
#
# Velocity S-wave (km/s) = 3.14417 4.00212 3.59880
# Velocity P-wave (km/s) = 5.38668 6.54474 5.99375
#
# Compressibility (1/GPa) = 0.02662442
#
# Stress axis : x y z
#
# Youngs Moduli (GPa) = 153.44253 87.44684 47.84351
#
# Poissons Ratio (x) = 0.21642 0.05352
# Poissons Ratio (y) = 0.37974 0.12063
# Poissons Ratio (z) = 0.17166 0.22048
#
# Static dielectric constant tensor:
#      x y z
#    x 4.093280 0.000000 1.434410 
#    y 0.000000 2.007260 0.000000 
#    z 1.434410 0.000000 3.297490 
# 
# From -- ./inp_files/124094.got.cif
#   From: 2010.05.17/outbox.cif.g08.bks.cpg/sg12_63_cif.got.tgz:124094.got - 2010.06.03 13:09:07.
