data_PCOD9218951
_publ_section_title
;
Structure prediction by ZEFSAII (Michael W. Deem and Ramdas Pophale) SiO2 
 PCOD9218951
Probable space group: C 2/M
;
_chemical_formula_sum "Si O2"
_cell_formula_units_Z 56
_cell_length_a 22.690074
_cell_length_b 16.155780
_cell_length_c 21.793382
_cell_angle_alpha 90.000000
_cell_angle_beta 21.692511
_cell_angle_gamma 90.000000
_cell_volume 2952.909759
_symmetry_space_group_name_H-M "C 2/M"
_symmetry_group_IT_number 12
_symmetry_cell_setting 'monoclinic'
loop_
_space_group_symop_operation_xyz
x,y,z
-x,y,-z
-x,-y,-z
x,-y,z
1/2+x,1/2+y,z
1/2-x,1/2+y,-z
1/2-x,1/2-y,-z
1/2+x,1/2-y,z
loop_
_atom_site_type_symbol
_atom_site_label
_atom_site_fract_x
_atom_site_fract_y
_atom_site_fract_z
Si Si1 0.075870 0.909109 0.858727
Si Si2 0.266641 0.322679 0.117155
Si Si3 0.137218 0.092951 0.610327
Si Si4 0.458336 0.848996 0.358773
Si Si5 0.683902 0.773716 0.330784
Si Si6 0.962862 0.746949 0.834054
Si Si7 0.781506 0.190352 0.586112
O O1 0.219176 0.844599 0.726221
O O2 0.130026 0.000000 0.786977
O O3 0.000000 0.914423 0.000000
O O4 0.926358 0.877667 0.964280
O O5 0.106591 0.374736 0.258098
O O6 0.254119 0.275099 0.194111
O O7 0.302546 0.259329 0.027286
O O8 0.301166 0.100060 0.491942
O O9 0.024794 0.167107 0.743526
O O10 0.178330 0.115685 0.499331
O O11 0.073807 0.000000 0.676789
O O12 0.535212 0.822493 0.219724
O O13 0.391954 0.765345 0.454447
O O14 0.500000 0.795491 0.500000
O O15 0.695181 0.692418 0.363039
O O16 0.101025 0.717240 0.746731
#
# Coordination Sequence:
#
# PCOD9218951 Si02
#       7
#     8   8   8   8   8   8   8
#     4   9  20  34  45  67 104 137 166 204 249 301
#     4  11  19  30  51  76 104 134 172 208 260 306
#     4   9  19  35  56  76 105 141 171 216 271 306
#     4   9  18  32  51  77 103 129 173 217 253 309
#     4  11  20  33  53  74 100 138 183 214 253 303
#     4   9  18  32  51  75 104 130 170 218 258 306
#     4   9  17  35  52  77 103 130 180 223 246 310
#
# _framework density 18.964344000000001
#
# number of rings (size 3 to 8) (size 9 to 14) (size 15 to 20)
#    0.000    2.429    2.857    2.143    0.000    1.429 
#    0.000    0.000    0.000    0.429    0.000    8.000 
#    0.000    0.000    0.000    0.000    0.000    0.000 
#
# Total GULP energy -155871.976790 kJ/mol
# GULP energy per Si atom -5566.856314 kJ/mol
# Density = 1.892118 g / cm^3
# Si number density = 18.964344 Si / 1000 Ang^3
#
#
#
# Elastic Constant Matrix: (Units=GPa)
#
#
# Indices 1 2 3 4 5 6 
#
# 1 88.8071 6.2345 19.9903 0.0100 3.1946 0.0016
# 2 6.2345 32.0615 -9.8943 0.0240 4.9608 0.0010
# 3 19.9903 -9.8943 48.9352 0.0145 -5.8630 0.0022
# 4 0.0100 0.0240 0.0145 10.3318 -0.0065 4.2951
# 5 3.1946 4.9608 -5.8630 -0.0065 48.1810 -0.0037
# 6 0.0016 0.0010 0.0022 4.2951 -0.0037 6.7638
#
#
#
# Elastic Compliance Matrix: (Units=1/GPa)
#
#
# Indices 1 2 3 4 5 6 
#
# 1 0.013032 -0.004305 -0.006337 0.000008 -0.001192 -0.000006
# 2 -0.004305 0.035024 0.008567 -0.000119 -0.002278 0.000067
# 3 -0.006337 0.008567 0.025066 -0.000061 0.002588 0.000032
# 4 0.000008 -0.000119 -0.000061 0.131505 0.000016 -0.083507
# 5 -0.001192 -0.002278 0.002588 0.000016 0.021384 0.000002
# 6 -0.000006 0.000067 0.000032 -0.083507 0.000002 0.200873
#
#
# Mechanical properties :
#
#
# Convention : Reuss Voigt Hill
#
# Bulk Modulus (GPa) = 14.49858 22.49606 18.49732
# Shear Modulus (GPa) = 11.01265 23.28689 17.14977
#
# Velocity S-wave (km/s) = 2.41239 3.50799 3.01045
# Velocity P-wave (km/s) = 3.92699 5.31940 4.67532
#
# Compressibility (1/GPa) = 0.06897228
#
# Stress axis : x y z
#
# Youngs Moduli (GPa) = 76.73485 28.55203 39.89433
#
# Poissons Ratio (x) = 0.12292 0.25281
# Poissons Ratio (y) = 0.33036 -0.34179
# Poissons Ratio (z) = 0.48626 -0.24462
#
# Static dielectric constant tensor:
#      x y z
#    x 1.768160 0.000000 0.009210 
#    y 0.000000 1.663290 0.000010 
#    z 0.009210 0.000010 1.679210 
# 
# From -- ./inp_files/349918.got.cif
#   From: 2010.05.17/outbox.cif.g08.bks.cpg/sg12_175_cif.got.tgz:349918.got - 2010.06.03 13:09:07.
