data_PCOD9218850
_publ_section_title
;
Structure prediction by ZEFSAII (Michael W. Deem and Ramdas Pophale) SiO2 
 PCOD9218850
Probable space group: C 2/M
;
_chemical_formula_sum "Si O2"
_cell_formula_units_Z 48
_cell_length_a 25.098635
_cell_length_b 26.412888
_cell_length_c 12.968279
_cell_angle_alpha 90.000000
_cell_angle_beta 161.314915
_cell_angle_gamma 90.000000
_cell_volume 2754.198941
_symmetry_space_group_name_H-M "C 2/M"
_symmetry_group_IT_number 12
_symmetry_cell_setting 'monoclinic'
loop_
_space_group_symop_operation_xyz
x,y,z
-x,y,-z
-x,-y,-z
x,-y,z
1/2+x,1/2+y,z
1/2-x,1/2+y,-z
1/2-x,1/2-y,-z
1/2+x,1/2-y,z
loop_
_atom_site_type_symbol
_atom_site_label
_atom_site_fract_x
_atom_site_fract_y
_atom_site_fract_z
Si Si1 0.046299 0.223907 0.204843
Si Si2 0.294228 0.362741 0.783175
Si Si3 0.508270 0.801775 0.308565
Si Si4 0.303124 0.858433 0.635216
Si Si5 0.339881 0.280822 0.256026
Si Si6 0.550245 0.442165 0.214396
O O1 0.041733 0.275624 0.259029
O O2 0.219799 0.193188 0.525059
O O3 0.000000 0.229269 0.000000
O O4 0.914194 0.186008 0.016379
O O5 0.123059 0.351204 0.526912
O O6 0.253788 0.363008 0.587577
O O7 0.400518 0.412929 0.997711
O O8 0.582381 0.760089 0.523023
O O9 0.312777 0.809711 0.969595
O O10 0.211299 0.906117 0.520302
O O11 0.500000 0.860086 0.000000
O O12 0.500000 0.308816 0.500000
O O13 0.250000 0.250000 0.000000
O O14 0.575300 0.500000 0.292190
O O15 0.500000 0.442898 0.000000
#
# Coordination Sequence:
#
# PCOD9218850 Si02
#       6
#     8   8   8   8   8   8
#     4   9  19  31  40  63 101 135 159 182 223 282
#     4   9  18  29  42  67  90 124 164 184 226 281
#     4  11  18  31  49  65  93 132 155 197 237 272
#     4   9  18  27  40  65  96 120 160 199 216 270
#     4   9  20  34  47  64  86 122 166 203 236 279
#     4   8  15  31  47  58  87 130 161 193 231 269
#
# _framework density 17.427935999999999
#
# number of rings (size 3 to 8) (size 9 to 14) (size 15 to 20)
#    0.000    2.833    1.667    2.000    2.333    3.667 
#    0.000    2.500    0.000    0.000    0.000    0.000 
#    0.000    6.667    0.000    4.000    0.000    2.000 
#
# Total GULP energy -133781.251395 kJ/mol
# GULP energy per Si atom -5574.218808 kJ/mol
# Density = 1.738827 g / cm^3
# Si number density = 17.427936 Si / 1000 Ang^3
#
#
#
# Elastic Constant Matrix: (Units=GPa)
#
#
# Indices 1 2 3 4 5 6 
#
# 1 54.3708 25.1644 34.2807 0.0000 27.9091 0.0000
# 2 25.1644 88.9277 41.3592 0.0000 28.6834 0.0000
# 3 34.2807 41.3592 109.2761 0.0000 43.0091 0.0000
# 4 0.0000 0.0000 0.0000 12.4226 0.0000 5.9913
# 5 27.9091 28.6834 43.0091 0.0000 50.8707 0.0000
# 6 0.0000 0.0000 0.0000 5.9913 0.0000 6.6824
#
#
#
# Elastic Compliance Matrix: (Units=1/GPa)
#
#
# Indices 1 2 3 4 5 6 
#
# 1 0.027176 -0.002736 -0.003340 0.000000 -0.010543 0.000000
# 2 -0.002736 0.014823 -0.003077 0.000000 -0.004255 0.000000
# 3 -0.003340 -0.003077 0.014926 0.000000 -0.009052 0.000000
# 4 0.000000 0.000000 0.000000 0.141825 0.000000 -0.127156
# 5 -0.010543 -0.004255 -0.009052 0.000000 0.035494 0.000000
# 6 0.000000 0.000000 0.000000 -0.127156 0.000000 0.263652
#
#
# Mechanical properties :
#
#
# Convention : Reuss Voigt Hill
#
# Bulk Modulus (GPa) = 25.89434 50.46478 38.17956
# Shear Modulus (GPa) = 9.45043 24.11317 16.78180
#
# Velocity S-wave (km/s) = 2.33117 3.72370 3.10647
# Velocity P-wave (km/s) = 4.70489 6.89254 5.90098
#
# Compressibility (1/GPa) = 0.03861848
#
# Stress axis : x y z
#
# Youngs Moduli (GPa) = 36.79662 67.46269 66.99559
#
# Poissons Ratio (x) = 0.18459 0.22379
# Poissons Ratio (y) = 0.10068 0.20615
# Poissons Ratio (z) = 0.12292 0.20759
#
# Static dielectric constant tensor:
#      x y z
#    x 1.653410 0.000000 0.024600 
#    y 0.000000 1.591940 0.000000 
#    z 0.024600 0.000000 1.654300 
# 
# From -- ./inp_files/178663.got.cif
#   From: 2010.05.17/outbox.cif.g08.bks.cpg/sg12_90_cif.got.tgz:178663.got - 2010.06.03 13:09:07.
