data_PCOD9218613
_publ_section_title
;
Structure prediction by ZEFSAII (Michael W. Deem and Ramdas Pophale) SiO2 
 PCOD9218613
Probable space group: C 2/M
;
_chemical_formula_sum "Si O2"
_cell_formula_units_Z 32
_cell_length_a 9.004052
_cell_length_b 10.118054
_cell_length_c 15.788789
_cell_angle_alpha 90.000000
_cell_angle_beta 95.500273
_cell_angle_gamma 90.000000
_cell_volume 1431.790863
_symmetry_space_group_name_H-M "C 2/M"
_symmetry_group_IT_number 12
_symmetry_cell_setting 'monoclinic'
loop_
_space_group_symop_operation_xyz
x,y,z
-x,y,-z
-x,-y,-z
x,-y,z
1/2+x,1/2+y,z
1/2-x,1/2+y,-z
1/2-x,1/2-y,-z
1/2+x,1/2-y,z
loop_
_atom_site_type_symbol
_atom_site_label
_atom_site_fract_x
_atom_site_fract_y
_atom_site_fract_z
Si Si1 0.453238 0.238609 0.305765
Si Si2 0.135047 0.000000 0.124092
Si Si3 0.816536 0.704053 0.812869
Si Si4 0.724218 0.355055 0.425360
Si Si5 0.780948 0.000000 0.061768
O O1 0.328392 0.325294 0.251886
O O2 0.540803 0.165328 0.235145
O O3 0.577130 0.319362 0.363950
O O4 0.362217 0.152734 0.367927
O O5 0.172834 0.137500 0.172690
O O6 0.956994 0.000000 0.095798
O O7 0.221590 0.000000 0.039302
O O8 0.796864 0.626680 0.899146
O O9 0.710980 0.500000 0.462169
O O10 0.750000 0.250000 0.500000
#
# Coordination Sequence:
#
# PCOD9218613 Si02
#       5
#     8   4   8   8   4
#     4  10  25  41  70  98 137 175 221 279 332 399
#     4  11  24  45  65 103 144 176 227 290 333 399
#     4  11  23  44  69 102 135 182 229 278 338 395
#     4  11  26  48  70 101 137 176 222 279 339 409
#     4  11  24  43  71  97 140 188 223 276 351 399
#
# _framework density 22.349630999999999
#
# number of rings (size 3 to 8) (size 9 to 14) (size 15 to 20)
#    0.000    1.250    2.500    1.500   10.500    4.000 
#    4.500    1.250    0.000    0.000    0.000    0.000 
#    0.000    0.000    0.000    0.000    0.000    0.000 
#
# Total GULP energy -89488.915532 kJ/mol
# GULP energy per Si atom -5593.057221 kJ/mol
# Density = 2.229876 g / cm^3
# Si number density = 22.349631 Si / 1000 Ang^3
#
#
#
# Elastic Constant Matrix: (Units=GPa)
#
#
# Indices 1 2 3 4 5 6 
#
# 1 114.0999 13.0057 20.6318 0.0000 -12.0206 0.0000
# 2 13.0057 136.4694 30.6883 0.0000 5.9121 0.0000
# 3 20.6318 30.6883 95.0674 0.0000 -6.3416 0.0000
# 4 0.0000 0.0000 0.0000 24.0600 0.0000 -6.4468
# 5 -12.0206 5.9121 -6.3416 0.0000 25.5424 0.0000
# 6 0.0000 0.0000 0.0000 -6.4468 0.0000 4.5528
#
#
#
# Elastic Compliance Matrix: (Units=1/GPa)
#
#
# Indices 1 2 3 4 5 6 
#
# 1 0.009583 -0.000751 -0.001551 0.000000 0.004299 0.000000
# 2 -0.000751 0.008121 -0.002651 0.000000 -0.002891 0.000000
# 3 -0.001551 -0.002651 0.011901 0.000000 0.002839 0.000000
# 4 0.000000 0.000000 0.000000 0.066973 0.000000 0.094833
# 5 0.004299 -0.002891 0.002839 0.000000 0.042548 0.000000
# 6 0.000000 0.000000 0.000000 0.094833 0.000000 0.353926
#
#
# Mechanical properties :
#
#
# Convention : Reuss Voigt Hill
#
# Bulk Modulus (GPa) = 50.76445 52.69870 51.73158
# Shear Modulus (GPa) = 9.81311 29.58511 19.69911
#
# Velocity S-wave (km/s) = 2.09768 3.64227 2.97207
# Velocity P-wave (km/s) = 5.35071 6.42795 5.91391
#
# Compressibility (1/GPa) = 0.01969883
#
# Stress axis : x y z
#
# Youngs Moduli (GPa) = 104.35040 123.14263 84.02949
#
# Poissons Ratio (x) = 0.09246 0.13030
# Poissons Ratio (y) = 0.07835 0.22279
# Poissons Ratio (z) = 0.16181 0.32649
#
# Static dielectric constant tensor:
#      x y z
#    x 1.823490 0.000000 -0.026870 
#    y 0.000000 1.804020 0.000000 
#    z -0.026870 0.000000 1.791670 
# 
# From -- ./inp_files/193432.got.cif
#   From: 2010.05.17/outbox.cif.g08.bks.cpg/sg12_97_cif.got.tgz:193432.got - 2010.06.03 13:09:07.
