data_PCOD9218489
_publ_section_title
;
Structure prediction by ZEFSAII (Michael W. Deem and Ramdas Pophale) SiO2 
 PCOD9218489
Probable space group: C 2/M
;
_chemical_formula_sum "Si O2"
_cell_formula_units_Z 26
_cell_length_a 17.614436
_cell_length_b 13.396050
_cell_length_c 19.707958
_cell_angle_alpha 90.000000
_cell_angle_beta 166.942361
_cell_angle_gamma 90.000000
_cell_volume 1050.662514
_symmetry_space_group_name_H-M "C 2/M"
_symmetry_group_IT_number 12
_symmetry_cell_setting 'monoclinic'
loop_
_space_group_symop_operation_xyz
x,y,z
-x,y,-z
-x,-y,-z
x,-y,z
1/2+x,1/2+y,z
1/2-x,1/2+y,-z
1/2-x,1/2-y,-z
1/2+x,1/2-y,z
loop_
_atom_site_type_symbol
_atom_site_label
_atom_site_fract_x
_atom_site_fract_y
_atom_site_fract_z
Si Si1 0.780100 0.000000 0.430728
Si Si2 0.000000 0.000000 0.000000
Si Si3 0.025645 0.838542 0.146840
Si Si4 0.546123 0.500000 0.800804
Si Si5 0.643887 0.707485 0.727829
O O1 0.974764 0.099783 0.581191
O O2 0.757035 0.000000 0.492915
O O3 0.404346 0.000000 0.075167
O O4 0.023680 0.913217 0.080695
O O5 0.376176 0.781991 0.461672
O O6 0.975636 0.904571 0.169898
O O7 0.740190 0.755904 0.884258
O O8 0.000000 0.701413 0.000000
#
# Coordination Sequence:
#
# PCOD9218489 Si02
#       5
#     4   2   8   4   8
#     4  12  27  48  72  97 158 193 243 280 349 431
#     4  10  24  46  72 106 144 176 224 312 360 422
#     4  11  25  45  75 106 144 180 246 294 370 413
#     4  11  26  47  70 110 137 199 233 298 358 430
#     4  12  26  46  72 110 141 195 237 299 349 426
#
# _framework density 24.746289999999998
#
# number of rings (size 3 to 8) (size 9 to 14) (size 15 to 20)
#    0.000    0.615    1.538    5.077    0.000   12.308 
#    0.000    4.615    0.000    0.000    0.000    0.000 
#    0.000    0.000    0.000    0.000    0.000    0.000 
#
# Total GULP energy -72654.441935 kJ/mol
# GULP energy per Si atom -5588.803226 kJ/mol
# Density = 2.468997 g / cm^3
# Si number density = 24.746290 Si / 1000 Ang^3
#
#
#
# Elastic Constant Matrix: (Units=GPa)
#
#
# Indices 1 2 3 4 5 6 
#
# 1 44.3628 23.9468 14.4063 0.0103 -0.4772 0.0253
# 2 23.9468 177.4694 60.8430 -0.1556 28.4537 -0.2387
# 3 14.4063 60.8430 131.0334 -0.2909 -0.2634 -0.2720
# 4 0.0103 -0.1556 -0.2909 32.8177 -0.0408 -24.1072
# 5 -0.4772 28.4537 -0.2634 -0.0408 27.6828 -0.0203
# 6 0.0253 -0.2387 -0.2720 -24.1072 -0.0203 9.0803
#
#
#
# Elastic Compliance Matrix: (Units=1/GPa)
#
#
# Indices 1 2 3 4 5 6 
#
# 1 0.024907 -0.003686 -0.001017 0.000175 0.004209 0.000278
# 2 -0.003686 0.008898 -0.003746 -0.000085 -0.009246 -0.000113
# 3 -0.001017 -0.003746 0.009489 -0.000228 0.003922 -0.000408
# 4 0.000175 -0.000085 -0.000228 -0.032057 -0.000022 -0.085119
# 5 0.004209 -0.009246 0.003922 -0.000022 0.045736 -0.000093
# 6 0.000278 -0.000113 -0.000408 -0.085119 -0.000093 -0.115868
#
#
# Mechanical properties :
#
#
# Convention : Reuss Voigt Hill
#
# Bulk Modulus (GPa) = 37.88442 61.25085 49.56763
# Shear Modulus (GPa) = -150.61045 30.82747 -59.89149
#
# Velocity S-wave (km/s) = -7.80986 3.53333 -4.92491
# Velocity P-wave (km/s) = 8.12299 6.43826 3.50226
#
# Compressibility (1/GPa) = 0.02639608
#
# Stress axis : x y z
#
# Youngs Moduli (GPa) = 40.14984 112.37952 105.38321
#
# Poissons Ratio (x) = 0.41427 0.10720
# Poissons Ratio (y) = 0.14801 0.39472
# Poissons Ratio (z) = 0.04084 0.42092
#
# Static dielectric constant tensor:
#      x y z
#    x 2.025880 0.000000 0.010780 
#    y 0.000000 1.896080 -0.000040 
#    z 0.010780 -0.000040 1.922070 
# 
# From -- ./inp_files/367998.got.cif
#   From: 2010.05.17/outbox.cif.g08.bks.cpg/sg12_184_cif.got.tgz:367998.got - 2010.06.03 13:09:07.
