data_PCOD9218435
_publ_section_title
;
Structure prediction by ZEFSAII (Michael W. Deem and Ramdas Pophale) SiO2 
 PCOD9218435
Probable space group: C 2/M
;
_chemical_formula_sum "Si O2"
_cell_formula_units_Z 48
_cell_length_a 12.124163
_cell_length_b 25.608329
_cell_length_c 7.258823
_cell_angle_alpha 90.000000
_cell_angle_beta 115.479987
_cell_angle_gamma 90.000000
_cell_volume 2034.509795
_symmetry_space_group_name_H-M "C 2/M"
_symmetry_group_IT_number 12
_symmetry_cell_setting 'monoclinic'
loop_
_space_group_symop_operation_xyz
x,y,z
-x,y,-z
-x,-y,-z
x,-y,z
1/2+x,1/2+y,z
1/2-x,1/2+y,-z
1/2-x,1/2-y,-z
1/2+x,1/2-y,z
loop_
_atom_site_type_symbol
_atom_site_label
_atom_site_fract_x
_atom_site_fract_y
_atom_site_fract_z
Si Si1 0.768558 0.825722 0.050219
Si Si2 0.467845 0.884923 0.258338
Si Si3 0.417763 0.000000 0.257706
Si Si4 0.050499 0.902884 0.719842
Si Si5 0.147503 0.296159 0.306015
Si Si6 0.634236 0.500000 0.004681
Si Si7 0.124874 0.186331 0.263971
O O1 0.846703 0.860495 0.248222
O O2 0.712366 0.785475 0.155076
O O3 0.659009 0.856639 0.875335
O O4 0.857940 0.815764 0.943404
O O5 0.500000 0.883981 0.500000
O O6 0.453365 0.945223 0.188781
O O7 0.568582 0.848526 0.235025
O O8 0.500000 0.000000 0.500000
O O9 0.270335 0.000000 0.191085
O O10 0.000000 0.928658 0.500000
O O11 0.941676 0.867679 0.728173
O O12 0.120760 0.945977 0.886423
O O13 0.069428 0.243120 0.284494
O O14 0.244688 0.307236 0.537670
O O15 0.500000 0.500000 0.000000
#
# Coordination Sequence:
#
# PCOD9218435 Si02
#       7
#     8   8   4   8   8   4   8
#     4  12  23  44  71 100 147 186 244 292 368 434
#     4  11  23  44  72 102 142 187 243 294 366 441
#     4  10  24  45  76 109 149 194 245 305 381 453
#     4  12  26  46  72 108 143 186 247 308 368 443
#     4  11  25  44  71 106 145 192 247 295 367 444
#     4  12  25  47  81 112 141 198 255 313 378 449
#     4  11  25  45  71 106 145 193 241 304 365 439
#
# _framework density 23.592905999999999
#
# number of rings (size 3 to 8) (size 9 to 14) (size 15 to 20)
#    0.000    0.667    5.000    2.750    0.000    4.667 
#    0.000    2.500    0.000    0.000    0.000    0.000 
#    0.000    0.000    0.000    0.000    0.000    0.000 
#
# Total GULP energy -133835.408580 kJ/mol
# GULP energy per Si atom -5576.475358 kJ/mol
# Density = 2.353921 g / cm^3
# Si number density = 23.592906 Si / 1000 Ang^3
#
#
#
# Elastic Constant Matrix: (Units=GPa)
#
#
# Indices 1 2 3 4 5 6 
#
# 1 65.1176 21.2680 25.5167 0.0000 3.9905 0.0000
# 2 21.2680 103.4014 6.4262 0.0000 9.9143 0.0000
# 3 25.5167 6.4262 127.2871 0.0000 15.8036 0.0000
# 4 0.0000 0.0000 0.0000 13.3646 0.0000 11.9783
# 5 3.9905 9.9143 15.8036 0.0000 42.6184 0.0000
# 6 0.0000 0.0000 0.0000 11.9783 0.0000 21.2803
#
#
#
# Elastic Compliance Matrix: (Units=1/GPa)
#
#
# Indices 1 2 3 4 5 6 
#
# 1 0.017823 -0.003492 -0.003449 0.000000 0.000423 0.000000
# 2 -0.003492 0.010582 0.000452 0.000000 -0.002302 0.000000
# 3 -0.003449 0.000452 0.008908 0.000000 -0.003085 0.000000
# 4 0.000000 0.000000 0.000000 0.151007 0.000000 -0.084999
# 5 0.000423 -0.002302 -0.003085 0.000000 0.025104 0.000000
# 6 0.000000 0.000000 0.000000 -0.084999 0.000000 0.094836
#
#
# Mechanical properties :
#
#
# Convention : Reuss Voigt Hill
#
# Bulk Modulus (GPa) = 41.09486 44.69199 42.89342
# Shear Modulus (GPa) = 15.18138 31.62568 23.40353
#
# Velocity S-wave (km/s) = 2.53943 3.66522 3.15298
# Velocity P-wave (km/s) = 5.10435 6.07420 5.61027
#
# Compressibility (1/GPa) = 0.02433395
#
# Stress axis : x y z
#
# Youngs Moduli (GPa) = 56.10722 94.50032 112.25941
#
# Poissons Ratio (x) = 0.33000 0.38719
# Poissons Ratio (y) = 0.19593 -0.05070
# Poissons Ratio (z) = 0.19352 -0.04268
#
# Static dielectric constant tensor:
#      x y z
#    x 1.836780 0.000000 -0.038430 
#    y 0.000000 0.273370 0.000000 
#    z -0.038430 0.000000 1.907350 
# 
# From -- ./inp_files/52827.got.cif
#   From: 2010.05.17/outbox.cif.g08.bks.cpg/sg12_27_cif.got.tgz:52827.got - 2010.06.03 13:09:07.
