data_PCOD9218320
_publ_section_title
;
Structure prediction by ZEFSAII (Michael W. Deem and Ramdas Pophale) SiO2 
 PCOD9218320
Probable space group: C 2/M
;
_chemical_formula_sum "Si O2"
_cell_formula_units_Z 48
_cell_length_a 16.089873
_cell_length_b 8.803164
_cell_length_c 29.625572
_cell_angle_alpha 90.000000
_cell_angle_beta 144.552103
_cell_angle_gamma 90.000000
_cell_volume 2433.649217
_symmetry_space_group_name_H-M "C 2/M"
_symmetry_group_IT_number 12
_symmetry_cell_setting 'monoclinic'
loop_
_space_group_symop_operation_xyz
x,y,z
-x,y,-z
-x,-y,-z
x,-y,z
1/2+x,1/2+y,z
1/2-x,1/2+y,-z
1/2-x,1/2-y,-z
1/2+x,1/2-y,z
loop_
_atom_site_type_symbol
_atom_site_label
_atom_site_fract_x
_atom_site_fract_y
_atom_site_fract_z
Si Si1 0.641822 0.677462 0.659811
Si Si2 0.342231 0.181512 0.500005
Si Si3 0.311281 0.682123 0.816317
Si Si4 0.337587 0.822538 0.659800
Si Si5 0.120933 0.183250 0.913961
Si Si6 0.862370 0.817877 0.183697
O O1 0.610103 0.500000 0.654306
O O2 0.502515 0.757509 0.577736
O O3 0.696573 0.756755 0.729297
O O4 0.766980 0.687021 0.677989
O O5 0.250000 0.250000 0.500000
O O6 0.269331 0.242479 0.422273
O O7 0.340155 0.000000 0.500008
O O8 0.305340 0.500000 0.815280
O O9 0.468019 0.729086 0.867610
O O10 0.268633 0.750005 0.845763
O O11 0.491295 0.743258 0.729284
O O12 0.352773 0.000000 0.654284
O O13 0.134760 0.229084 0.867593
O O14 0.126453 0.000000 0.917642
O O15 0.250000 0.250000 0.000000
O O16 0.859552 0.000000 0.184740
#
# Coordination Sequence:
#
# PCOD9218320 Si02
#       6
#     8   8   8   8   8   8
#     4  11  23  40  63  91 124 165 212 263 316 375
#     4  12  25  40  59  85 123 167 213 265 316 371
#     4  11  23  42  66  96 130 169 214 261 316 379
#     4  11  23  40  63  91 124 165 212 263 316 375
#     4  10  24  44  68  95 130 167 208 260 317 382
#     4  11  23  42  66  96 130 169 214 261 316 379
#
# _framework density 19.723468
#
# number of rings (size 3 to 8) (size 9 to 14) (size 15 to 20)
#    0.000    1.000    1.667    5.000    0.000    7.333 
#    0.000    3.333    0.000    0.000    0.000    0.000 
#    0.000    0.000    0.000    0.000    0.000    0.000 
#
# Total GULP energy -134292.253155 kJ/mol
# GULP energy per Si atom -5595.510548 kJ/mol
# Density = 1.967858 g / cm^3
# Si number density = 19.723468 Si / 1000 Ang^3
#
#
#
# Elastic Constant Matrix: (Units=GPa)
#
#
# Indices 1 2 3 4 5 6 
#
# 1 147.0351 59.8754 65.0652 0.0000 -2.1674 0.0000
# 2 59.8754 107.5963 41.7707 0.0000 -0.5146 0.0000
# 3 65.0652 41.7707 130.9535 0.0000 1.7642 0.0000
# 4 0.0000 0.0000 0.0000 38.4790 0.0000 0.0955
# 5 -2.1674 -0.5146 1.7642 0.0000 4.0604 0.0000
# 6 0.0000 0.0000 0.0000 0.0955 0.0000 35.2837
#
#
#
# Elastic Compliance Matrix: (Units=1/GPa)
#
#
# Indices 1 2 3 4 5 6 
#
# 1 0.010331 -0.004211 -0.003880 0.000000 0.006666 0.000000
# 2 -0.004211 0.012356 -0.001851 0.000000 0.000122 0.000000
# 3 -0.003880 -0.001851 0.010245 0.000000 -0.006757 0.000000
# 4 0.000000 0.000000 0.000000 0.025988 0.000000 -0.000070
# 5 0.006666 0.000122 -0.006757 0.000000 0.252792 0.000000
# 6 0.000000 0.000000 0.000000 -0.000070 0.000000 0.028342
#
#
# Mechanical properties :
#
#
# Convention : Reuss Voigt Hill
#
# Bulk Modulus (GPa) = 76.62879 79.88974 78.25927
# Shear Modulus (GPa) = 13.72543 30.15618 21.94081
#
# Velocity S-wave (km/s) = 2.64084 3.91442 3.33892
# Velocity P-wave (km/s) = 6.94512 7.81173 7.39113
#
# Compressibility (1/GPa) = 0.01304992
#
# Stress axis : x y z
#
# Youngs Moduli (GPa) = 96.79661 80.92964 97.60588
#
# Poissons Ratio (x) = 0.34079 0.37867
# Poissons Ratio (y) = 0.40761 0.18065
# Poissons Ratio (z) = 0.37553 0.14978
#
# Static dielectric constant tensor:
#      x y z
#    x 1.735610 0.000000 -0.002340 
#    y 0.000000 1.662330 0.000000 
#    z -0.002340 0.000000 1.656980 
# 
# From -- ./inp_files/378557.got.cif
#   From: 2010.05.17/outbox.cif.g08.bks.cpg/sg12_190_cif.got.tgz:378557.got - 2010.06.03 13:09:07.
