data_PCOD9218067
_publ_section_title
;
Structure prediction by ZEFSAII (Michael W. Deem and Ramdas Pophale) SiO2 
 PCOD9218067
Probable space group: C 2/M
;
_chemical_formula_sum "Si O2"
_cell_formula_units_Z 56
_cell_length_a 16.318308
_cell_length_b 27.288723
_cell_length_c 8.337657
_cell_angle_alpha 90.000000
_cell_angle_beta 134.949690
_cell_angle_gamma 90.000000
_cell_volume 2627.655187
_symmetry_space_group_name_H-M "C 2/M"
_symmetry_group_IT_number 12
_symmetry_cell_setting 'monoclinic'
loop_
_space_group_symop_operation_xyz
x,y,z
-x,y,-z
-x,-y,-z
x,-y,z
1/2+x,1/2+y,z
1/2-x,1/2+y,-z
1/2-x,1/2-y,-z
1/2+x,1/2-y,z
loop_
_atom_site_type_symbol
_atom_site_label
_atom_site_fract_x
_atom_site_fract_y
_atom_site_fract_z
Si Si1 0.638198 0.000000 0.248545
Si Si2 0.630327 0.225075 0.880923
Si Si3 0.857215 0.000000 0.277604
Si Si4 0.383110 0.863745 0.383576
Si Si5 0.388580 0.103912 0.731666
Si Si6 0.649693 0.607208 0.894391
Si Si7 0.231994 0.164690 0.704626
Si Si8 0.518776 0.314427 0.214252
O O1 0.638465 0.951356 0.355977
O O2 0.747905 0.000000 0.265743
O O3 0.500000 0.000000 0.000000
O O4 0.608192 0.184991 0.713244
O O5 0.541823 0.268729 0.781629
O O6 0.750000 0.250000 0.000000
O O7 0.660687 0.197443 0.088478
O O8 0.846593 0.051734 0.166396
O O9 0.000000 0.000000 0.500000
O O10 0.500000 0.893323 0.500000
O O11 0.390732 0.859510 0.585170
O O12 0.260825 0.886307 0.163435
O O13 0.282865 0.116668 0.697502
O O14 0.500000 0.106502 0.000000
O O15 0.666565 0.645199 0.770290
O O16 0.536988 0.632027 0.820547
O O17 0.148478 0.187856 0.459168
O O18 0.500000 0.307689 0.000000
#
# Coordination Sequence:
#
# PCOD9218067 Si02
#       8
#     4   8   4   8   8   8   8   8
#     4  10  24  41  77 110 153 187 244 304 365 438
#     4  11  25  42  63  96 134 184 235 283 358 428
#     4  12  24  45  76 111 145 202 247 295 372 450
#     4  11  25  42  71  97 142 185 234 301 357 428
#     4  11  23  46  70 107 143 188 238 297 366 433
#     4  11  24  45  67 106 139 190 241 294 361 439
#     4  11  23  42  70  94 139 183 235 290 359 424
#     4  12  26  44  69 101 138 183 239 299 357 429
#
# _framework density 21.311776999999999
#
# number of rings (size 3 to 8) (size 9 to 14) (size 15 to 20)
#    0.000    0.857    4.286    3.857    4.000    2.857 
#    0.000    1.071    0.000    0.000    0.000    0.000 
#    0.000    0.000    0.000    0.000    0.000    0.000 
#
# Total GULP energy -155924.415770 kJ/mol
# GULP energy per Si atom -5568.729135 kJ/mol
# Density = 2.126327 g / cm^3
# Si number density = 21.311777 Si / 1000 Ang^3
#
#
#
# Elastic Constant Matrix: (Units=GPa)
#
#
# Indices 1 2 3 4 5 6 
#
# 1 59.4846 13.1793 21.3640 0.0000 -4.4660 0.0000
# 2 13.1793 115.6928 40.2689 0.0000 -0.8918 0.0000
# 3 21.3640 40.2689 143.7017 0.0000 -4.3185 0.0000
# 4 0.0000 0.0000 0.0000-1560.5559 0.0000 -913.5790
# 5 -4.4660 -0.8918 -4.3185 0.0000 35.0071 0.0000
# 6 0.0000 0.0000 0.0000 -913.5790 0.0000 -501.3403
#
#
#
# Elastic Compliance Matrix: (Units=1/GPa)
#
#
# Indices 1 2 3 4 5 6 
#
# 1 0.018054 -0.001250 -0.002274 0.000000 0.001991 0.000000
# 2 -0.001250 0.009665 -0.002529 0.000000 -0.000225 0.000000
# 3 -0.002274 -0.002529 0.008025 0.000000 0.000635 0.000000
# 4 0.000000 0.000000 0.000000 0.009594 0.000000 -0.017482
# 5 0.001991 -0.000225 0.000635 0.000000 0.028892 0.000000
# 6 0.000000 0.000000 0.000000 -0.017482 0.000000 0.029863
#
#
# Mechanical properties :
#
#
# Convention : Reuss Voigt Hill
#
# Bulk Modulus (GPa) = 42.30587 52.05596 47.18091
# Shear Modulus (GPa) = 40.29730 -389.10668 -174.40469
#
# Velocity S-wave (km/s) = 4.35310 -13.52681 -9.05608
# Velocity P-wave (km/s) = 6.72012 14.81510 9.33614
#
# Compressibility (1/GPa) = 0.02363738
#
# Stress axis : x y z
#
# Youngs Moduli (GPa) = 55.38888 103.47084 124.61391
#
# Poissons Ratio (x) = 0.12932 0.28338
# Poissons Ratio (y) = 0.06923 0.31518
# Poissons Ratio (z) = 0.12596 0.26170
#
# Static dielectric constant tensor:
#      x y z
#    x 1.843070 0.000000 0.067440 
#    y 0.000000 2.896800 0.000000 
#    z 0.067440 0.000000 1.848530 
# 
# From -- ./inp_files/80158.got.cif
#   From: 2010.05.17/outbox.cif.g08.bks.cpg/sg12_41_cif.got.tgz:80158.got - 2010.06.03 13:09:07.
