data_PCOD9218247
_publ_section_title
;
Structure prediction by ZEFSAII (Michael W. Deem and Ramdas Pophale) SiO2 
 PCOD9218247
Probable space group: C 2/M
;
_chemical_formula_sum "Si O2"
_cell_formula_units_Z 46
_cell_length_a 27.538940
_cell_length_b 10.616932
_cell_length_c 19.974924
_cell_angle_alpha 90.000000
_cell_angle_beta 153.035417
_cell_angle_gamma 90.000000
_cell_volume 2648.200591
_symmetry_space_group_name_H-M "C 2/M"
_symmetry_group_IT_number 12
_symmetry_cell_setting 'monoclinic'
loop_
_space_group_symop_operation_xyz
x,y,z
-x,y,-z
-x,-y,-z
x,-y,z
1/2+x,1/2+y,z
1/2-x,1/2+y,-z
1/2-x,1/2-y,-z
1/2+x,1/2-y,z
loop_
_atom_site_type_symbol
_atom_site_label
_atom_site_fract_x
_atom_site_fract_y
_atom_site_fract_z
Si Si1 0.633351 0.257742 0.484471
Si Si2 0.402709 0.855129 0.186742
Si Si3 0.235782 0.231295 0.093944
Si Si4 0.115553 0.849411 0.613769
Si Si5 0.730516 0.500000 0.363557
Si Si6 0.639178 0.500000 0.400235
Si Si7 0.000000 0.000000 0.000000
Si Si8 0.413897 0.500000 0.048968
O O1 0.509780 0.226172 0.317038
O O2 0.635382 0.303491 0.563333
O O3 0.702470 0.129550 0.564441
O O4 0.664920 0.374112 0.474806
O O5 0.327649 0.821989 0.157509
O O6 0.433725 0.000000 0.228461
O O7 0.333223 0.826490 0.035724
O O8 0.293345 0.298218 0.225832
O O9 0.158713 0.121166 0.024641
O O10 0.000000 0.805917 0.500000
O O11 0.115109 0.000000 0.613977
O O12 0.699721 0.500000 0.404122
O O13 0.625144 0.500000 0.186442
O O14 0.514434 0.500000 0.223816
O O15 0.952554 0.000000 0.019469
#
# Coordination Sequence:
#
# PCOD9218247 Si02
#       8
#     8   8   8   8   4   4   2   4
#     4  12  22  42  66  95 125 165 209 266 313 374
#     4  11  22  37  60  95 128 162 214 252 314 385
#     4  11  22  37  60  88 129 172 199 257 313 377
#     4  11  23  37  57  87 127 170 204 243 310 380
#     4  11  25  43  71  91 123 162 215 274 320 362
#     4  11  24  43  65  92 123 164 214 263 314 379
#     4  10  24  44  60  92 120 164 216 256 316 384
#     4  11  21  39  63  88 119 165 206 256 314 367
#
# _framework density 17.370284999999999
#
# number of rings (size 3 to 8) (size 9 to 14) (size 15 to 20)
#    0.000    0.870    6.087    2.087    0.000    0.000 
#    0.000    1.739    0.000    0.522    0.000    0.000 
#    0.000    0.000    0.000    0.000    0.000    0.000 
#
# Total GULP energy -128155.674979 kJ/mol
# GULP energy per Si atom -5571.985869 kJ/mol
# Density = 1.733075 g / cm^3
# Si number density = 17.370285 Si / 1000 Ang^3
#
#
#
# Elastic Constant Matrix: (Units=GPa)
#
#
# Indices 1 2 3 4 5 6 
#
# 1 95.0790 41.1926 46.5005 0.0000 -17.3191 0.0000
# 2 41.1926 92.2209 39.0924 0.0000 -8.0723 0.0000
# 3 46.5005 39.0924 107.8662 0.0000 -18.6035 0.0000
# 4 0.0000 0.0000 0.0000 14.3595 0.0000 5.1907
# 5 -17.3191 -8.0723 -18.6035 0.0000 37.6374 0.0000
# 6 0.0000 0.0000 0.0000 5.1907 0.0000 11.0531
#
#
#
# Elastic Compliance Matrix: (Units=1/GPa)
#
#
# Indices 1 2 3 4 5 6 
#
# 1 0.015350 -0.004719 -0.004223 0.000000 0.003964 0.000000
# 2 -0.004719 0.014271 -0.003262 0.000000 -0.000723 0.000000
# 3 -0.004223 -0.003262 0.012919 0.000000 0.003743 0.000000
# 4 0.000000 0.000000 0.000000 0.083880 0.000000 -0.039392
# 5 0.003964 -0.000723 0.003743 0.000000 0.030088 0.000000
# 6 0.000000 0.000000 0.000000 -0.039392 0.000000 0.108972
#
#
# Mechanical properties :
#
#
# Convention : Reuss Voigt Hill
#
# Bulk Modulus (GPa) = 55.15621 60.97079 58.06350
# Shear Modulus (GPa) = 16.89577 23.83537 20.36557
#
# Velocity S-wave (km/s) = 3.12217 3.70833 3.42780
# Velocity P-wave (km/s) = 6.69473 7.31522 7.01184
#
# Compressibility (1/GPa) = 0.01813032
#
# Stress axis : x y z
#
# Youngs Moduli (GPa) = 65.14860 70.07197 77.40410
#
# Poissons Ratio (x) = 0.33067 0.32690
# Poissons Ratio (y) = 0.30744 0.25253
# Poissons Ratio (z) = 0.27514 0.22861
#
# Static dielectric constant tensor:
#      x y z
#    x 1.572100 0.000000 0.010850 
#    y 0.000000 1.576960 0.000000 
#    z 0.010850 0.000000 1.583830 
# 
# From -- ./inp_files/289496.got.cif
#   From: 2010.05.17/outbox.cif.g08.bks.cpg/sg12_145_cif.got.tgz:289496.got - 2010.06.03 13:09:07.
