data_PCOD9218395
_publ_section_title
;
Structure prediction by ZEFSAII (Michael W. Deem and Ramdas Pophale) SiO2 
 PCOD9218395
Probable space group: C 2/M
;
_chemical_formula_sum "Si O2"
_cell_formula_units_Z 30
_cell_length_a 8.275659
_cell_length_b 21.988993
_cell_length_c 12.015920
_cell_angle_alpha 90.000000
_cell_angle_beta 134.415550
_cell_angle_gamma 90.000000
_cell_volume 1561.834917
_symmetry_space_group_name_H-M "C 2/M"
_symmetry_group_IT_number 12
_symmetry_cell_setting 'monoclinic'
loop_
_space_group_symop_operation_xyz
x,y,z
-x,y,-z
-x,-y,-z
x,-y,z
1/2+x,1/2+y,z
1/2-x,1/2+y,-z
1/2-x,1/2-y,-z
1/2+x,1/2-y,z
loop_
_atom_site_type_symbol
_atom_site_label
_atom_site_fract_x
_atom_site_fract_y
_atom_site_fract_z
Si Si1 0.000000 0.616075 0.000000
Si Si2 0.500000 0.500000 0.500000
Si Si3 0.113848 0.211747 0.841803
Si Si4 0.028975 0.435260 0.255142
Si Si5 0.880526 0.318624 0.323483
O O1 0.217837 0.659472 0.118242
O O2 0.977396 0.577604 0.101144
O O3 0.296855 0.448045 0.397034
O O4 0.888276 0.184902 0.786648
O O5 0.250000 0.250000 0.000000
O O6 0.446213 0.241017 0.284485
O O7 0.919764 0.500000 0.237198
O O8 0.947917 0.378444 0.287486
O O9 0.000000 0.319108 0.500000
#
# Coordination Sequence:
#
# PCOD9218395 Si02
#       5
#     4   2   8   8   8
#     4  12  23  42  76  96 135 182 224 282 334 412
#     4   8  24  46  66  90 142 172 226 278 332 398
#     4  12  23  43  67  99 141 175 223 280 342 403
#     4  10  24  45  67  98 130 181 229 272 339 392
#     4  12  25  42  68 102 140 180 225 280 342 406
#
# _framework density 19.208178
#
# number of rings (size 3 to 8) (size 9 to 14) (size 15 to 20)
#    0.800    0.000    5.333    1.200    3.733    0.533 
#    2.400    4.000    0.000    0.000    0.000    0.000 
#    0.000    0.000    0.000    0.000    0.000    0.000 
#
# Total GULP energy -83516.939308 kJ/mol
# GULP energy per Si atom -5567.795954 kJ/mol
# Density = 1.916446 g / cm^3
# Si number density = 19.208178 Si / 1000 Ang^3
#
#
#
# Elastic Constant Matrix: (Units=GPa)
#
#
# Indices 1 2 3 4 5 6 
#
# 1 98.9748 66.7403 55.4961 0.0000 7.2598 0.0000
# 2 66.7403 128.0682 48.9774 0.0000 11.3769 0.0000
# 3 55.4961 48.9774 104.4846 0.0000 -7.7166 0.0000
# 4 0.0000 0.0000 0.0000 13.9962 0.0000 11.0949
# 5 7.2598 11.3769 -7.7166 0.0000 35.9049 0.0000
# 6 0.0000 0.0000 0.0000 11.0949 0.0000 -25.4384
#
#
#
# Elastic Compliance Matrix: (Units=1/GPa)
#
#
# Indices 1 2 3 4 5 6 
#
# 1 0.018943 -0.006888 -0.007066 0.000000 -0.003166 0.000000
# 2 -0.006888 0.012631 -0.002495 0.000000 -0.003146 0.000000
# 3 -0.007066 -0.002495 0.014894 0.000000 0.005420 0.000000
# 4 0.000000 0.000000 0.000000 0.053092 0.000000 0.023156
# 5 -0.003166 -0.003146 0.005420 0.000000 0.030653 0.000000
# 6 0.000000 0.000000 0.000000 0.023156 0.000000 -0.029211
#
#
# Mechanical properties :
#
#
# Convention : Reuss Voigt Hill
#
# Bulk Modulus (GPa) = 73.69423 74.88391 74.28907
# Shear Modulus (GPa) = 36.12102 15.58011 25.85057
#
# Velocity S-wave (km/s) = 4.34118 2.85110 3.67251
# Velocity P-wave (km/s) = 7.97353 7.06459 7.53278
#
# Compressibility (1/GPa) = 0.01356958
#
# Stress axis : x y z
#
# Youngs Moduli (GPa) = 52.79101 79.16758 67.14201
#
# Poissons Ratio (x) = 0.54530 0.47445
# Poissons Ratio (y) = 0.36362 0.16751
# Poissons Ratio (z) = 0.37304 0.19751
#
# Static dielectric constant tensor:
#      x y z
#    x 1.667400 0.000000 -0.008350 
#    y 0.000000 1.673100 0.000000 
#    z -0.008350 0.000000 1.657660 
# 
# From -- ./inp_files/122287.got.cif
#   From: 2010.05.17/outbox.cif.g08.bks.cpg/sg12_62_cif.got.tgz:122287.got - 2010.06.03 13:09:07.
