data_PCOD9218598
_publ_section_title
;
Structure prediction by ZEFSAII (Michael W. Deem and Ramdas Pophale) SiO2 
 PCOD9218598
Probable space group: C 2/M
;
_chemical_formula_sum "Si O2"
_cell_formula_units_Z 40
_cell_length_a 9.476152
_cell_length_b 19.837137
_cell_length_c 19.586603
_cell_angle_alpha 90.000000
_cell_angle_beta 37.503142
_cell_angle_gamma 90.000000
_cell_volume 2241.549301
_symmetry_space_group_name_H-M "C 2/M"
_symmetry_group_IT_number 12
_symmetry_cell_setting 'monoclinic'
loop_
_space_group_symop_operation_xyz
x,y,z
-x,y,-z
-x,-y,-z
x,-y,z
1/2+x,1/2+y,z
1/2-x,1/2+y,-z
1/2-x,1/2-y,-z
1/2+x,1/2-y,z
loop_
_atom_site_type_symbol
_atom_site_label
_atom_site_fract_x
_atom_site_fract_y
_atom_site_fract_z
Si Si1 0.485219 0.764887 0.582609
Si Si2 0.932909 0.000000 0.214167
Si Si3 0.162831 0.000000 0.268602
Si Si4 0.000000 0.113015 0.000000
Si Si5 0.685812 0.385365 0.370131
Si Si6 0.203603 0.500000 0.038725
Si Si7 0.685697 0.871606 0.242128
O O1 0.500000 0.793498 0.500000
O O2 0.351943 0.693569 0.631704
O O3 0.372653 0.813958 0.680984
O O4 0.750000 0.750000 0.500000
O O5 0.796993 0.934667 0.239092
O O6 0.985808 0.000000 0.273771
O O7 0.177726 0.000000 0.080506
O O8 0.138284 0.066104 0.324995
O O9 0.429280 0.000000 0.141641
O O10 0.864757 0.149858 0.113233
O O11 0.808473 0.064157 0.038884
O O12 0.500000 0.402133 0.500000
O O13 0.944660 0.393921 0.299594
#
# Coordination Sequence:
#
# PCOD9218598 Si02
#       7
#     8   4   4   4   8   4   8
#     4  11  23  42  65  86 120 167 204 244 302 369
#     4  10  25  34  62  95 120 159 199 261 296 352
#     4  12  22  37  62  92 128 149 207 256 298 356
#     4   9  18  36  66  92 114 167 198 246 298 367
#     4  11  23  40  62  89 119 165 200 247 305 369
#     4   9  17  37  61  85 124 161 201 235 310 361
#     4  11  21  42  64  89 125 158 209 245 305 365
#
# _framework density 17.844799999999999
#
# number of rings (size 3 to 8) (size 9 to 14) (size 15 to 20)
#    0.000    1.400    6.000    1.800    2.800    0.000 
#    0.000    2.500    4.400    0.000    0.000    0.000 
#    0.000    0.000    0.000    0.000    0.000    0.000 
#
# Total GULP energy -111634.822991 kJ/mol
# GULP energy per Si atom -5581.741150 kJ/mol
# Density = 1.780418 g / cm^3
# Si number density = 17.844800 Si / 1000 Ang^3
#
#
#
# Elastic Constant Matrix: (Units=GPa)
#
#
# Indices 1 2 3 4 5 6 
#
# 1 123.9114 34.4165 64.7078 -0.0021 14.5579 -0.0023
# 2 34.4165 74.6567 67.4633 -0.0014 19.5830 -0.0012
# 3 64.7078 67.4633 159.0139 -0.0051 15.7737 -0.0059
# 4 -0.0021 -0.0014 -0.0051 41.2882 0.0028 14.9440
# 5 14.5579 19.5830 15.7737 0.0028 37.9330 0.0029
# 6 -0.0023 -0.0012 -0.0059 14.9440 0.0029 38.2561
#
#
#
# Elastic Compliance Matrix: (Units=1/GPa)
#
#
# Indices 1 2 3 4 5 6 
#
# 1 0.010487 -0.001032 -0.003633 0.000000 -0.001981 0.000000
# 2 -0.001032 0.024218 -0.009026 0.000000 -0.008353 0.000000
# 3 -0.003633 -0.009026 0.011469 0.000000 0.001285 0.000001
# 4 0.000000 0.000000 0.000000 0.028208 -0.000002 -0.011019
# 5 -0.001981 -0.008353 0.001285 -0.000002 0.030901 -0.000002
# 6 0.000000 0.000000 0.000001 -0.011019 -0.000002 0.030444
#
#
# Mechanical properties :
#
#
# Convention : Reuss Voigt Hill
#
# Bulk Modulus (GPa) = 53.21454 76.75080 64.98267
# Shear Modulus (GPa) = 29.52060 36.22842 32.87451
#
# Velocity S-wave (km/s) = 4.07172 4.51066 4.29680
# Velocity P-wave (km/s) = 7.21046 8.38043 7.81736
#
# Compressibility (1/GPa) = 0.01879186
#
# Stress axis : x y z
#
# Youngs Moduli (GPa) = 95.35711 41.29176 87.18919
#
# Poissons Ratio (x) = 0.04259 0.31678
# Poissons Ratio (y) = 0.09836 0.78700
# Poissons Ratio (z) = 0.34646 0.37271
#
# Static dielectric constant tensor:
#      x y z
#    x 1.638670 0.000000 0.022260 
#    y 0.000000 1.601520 0.000000 
#    z 0.022260 0.000000 1.618170 
# 
# From -- ./inp_files/120215.got.cif
#   From: 2010.05.17/outbox.cif.g08.bks.cpg/sg12_61_cif.got.tgz:120215.got - 2010.06.03 13:09:07.
