data_PCOD9218131
_publ_section_title
;
Structure prediction by ZEFSAII (Michael W. Deem and Ramdas Pophale) SiO2 
 PCOD9218131
Probable space group: C 2/M
;
_chemical_formula_sum "Si O2"
_cell_formula_units_Z 32
_cell_length_a 32.943477
_cell_length_b 7.762737
_cell_length_c 9.580439
_cell_angle_alpha 90.000000
_cell_angle_beta 138.942927
_cell_angle_gamma 90.000000
_cell_volume 1609.199133
_symmetry_space_group_name_H-M "C 2/M"
_symmetry_group_IT_number 12
_symmetry_cell_setting 'monoclinic'
loop_
_space_group_symop_operation_xyz
x,y,z
-x,y,-z
-x,-y,-z
x,-y,z
1/2+x,1/2+y,z
1/2-x,1/2+y,-z
1/2-x,1/2-y,-z
1/2+x,1/2-y,z
loop_
_atom_site_type_symbol
_atom_site_label
_atom_site_fract_x
_atom_site_fract_y
_atom_site_fract_z
Si Si1 0.977415 0.500000 0.784821
Si Si2 0.728835 0.204601 0.601440
Si Si3 0.654850 0.296629 0.905081
Si Si4 0.380777 0.305649 0.498325
Si Si5 0.937953 0.500000 0.248018
O O1 0.934671 0.665783 0.644609
O O2 0.037750 0.500000 0.845548
O O3 0.000000 0.500000 0.000000
O O4 0.750000 0.250000 0.500000
O O5 0.665640 0.287872 0.491964
O O6 0.719637 0.000000 0.585182
O O7 0.783126 0.250747 0.851109
O O8 0.642325 0.500000 0.899702
O O9 0.657386 0.274850 0.744250
O O10 0.601771 0.168944 0.820370
O O11 0.405515 0.500000 0.556208
O O12 0.000000 0.500000 0.500000
#
# Coordination Sequence:
#
# PCOD9218131 Si02
#       5
#     4   8   8   8   4
#     4  12  28  46  66  98 138 178 220 274 322 398
#     4  11  24  41  65  99 136 170 217 275 334 390
#     4  10  24  42  67  99 130 171 220 275 325 389
#     4  11  23  44  68  96 130 174 220 272 330 389
#     4  12  24  44  72  96 130 180 226 262 328 398
#
# _framework density 19.885670000000001
#
# number of rings (size 3 to 8) (size 9 to 14) (size 15 to 20)
#    0.000    1.000    3.750    1.500    7.000    2.000 
#    0.000    0.000    0.000    0.000    0.000    0.000 
#    0.000    0.000    0.000    0.000    0.000    0.000 
#
# Total GULP energy -89458.758809 kJ/mol
# GULP energy per Si atom -5591.172426 kJ/mol
# Density = 1.984041 g / cm^3
# Si number density = 19.885670 Si / 1000 Ang^3
#
#
#
# Elastic Constant Matrix: (Units=GPa)
#
#
# Indices 1 2 3 4 5 6 
#
# 1 124.1180 28.7960 3.2144 0.0000 -16.1415 0.0000
# 2 28.7960 79.1378 25.4078 0.0000 8.2541 0.0000
# 3 3.2144 25.4078 57.8910 0.0000 -15.0701 0.0000
# 4 0.0000 0.0000 0.0000 26.4584 0.0000 0.9800
# 5 -16.1415 8.2541 -15.0701 0.0000 36.9041 0.0000
# 6 0.0000 0.0000 0.0000 0.9800 0.0000 30.7352
#
#
#
# Elastic Compliance Matrix: (Units=1/GPa)
#
#
# Indices 1 2 3 4 5 6 
#
# 1 0.010240 -0.005729 0.003855 0.000000 0.007334 0.000000
# 2 -0.005729 0.019522 -0.011233 0.000000 -0.011459 0.000000
# 3 0.003855 -0.011233 0.025828 0.000000 0.014746 0.000000
# 4 0.000000 0.000000 0.000000 0.037840 0.000000 -0.001207
# 5 0.007334 -0.011459 0.014746 0.000000 0.038890 0.000000
# 6 0.000000 0.000000 0.000000 -0.001207 0.000000 0.032574
#
#
# Mechanical properties :
#
#
# Convention : Reuss Voigt Hill
#
# Bulk Modulus (GPa) = 34.04013 41.77591 37.90802
# Shear Modulus (GPa) = 24.88789 32.40144 28.64467
#
# Velocity S-wave (km/s) = 3.54156 4.04095 3.79947
# Velocity P-wave (km/s) = 5.82053 6.54416 6.19292
#
# Compressibility (1/GPa) = 0.02937709
#
# Stress axis : x y z
#
# Youngs Moduli (GPa) = 97.65718 51.22337 38.71693
#
# Poissons Ratio (x) = 0.29344 -0.14925
# Poissons Ratio (y) = 0.55944 0.43491
# Poissons Ratio (z) = -0.37646 0.57540
#
# Static dielectric constant tensor:
#      x y z
#    x 1.738240 0.000000 -0.037330 
#    y 0.000000 1.639630 0.000000 
#    z -0.037330 0.000000 1.690430 
# 
# From -- ./inp_files/107617.got.cif
#   From: 2010.05.17/outbox.cif.g08.bks.cpg/sg12_54_cif.got.tgz:107617.got - 2010.06.03 13:09:07.
