data_PCOD9218307
_publ_section_title
;
Structure prediction by ZEFSAII (Michael W. Deem and Ramdas Pophale) SiO2 
 PCOD9218307
Probable space group: C 2/M
;
_chemical_formula_sum "Si O2"
_cell_formula_units_Z 40
_cell_length_a 11.781436
_cell_length_b 13.890464
_cell_length_c 10.427312
_cell_angle_alpha 90.000000
_cell_angle_beta 65.600889
_cell_angle_gamma 90.000000
_cell_volume 1554.024822
_symmetry_space_group_name_H-M "C 2/M"
_symmetry_group_IT_number 12
_symmetry_cell_setting 'monoclinic'
loop_
_space_group_symop_operation_xyz
x,y,z
-x,y,-z
-x,-y,-z
x,-y,z
1/2+x,1/2+y,z
1/2-x,1/2+y,-z
1/2-x,1/2-y,-z
1/2+x,1/2-y,z
loop_
_atom_site_type_symbol
_atom_site_label
_atom_site_fract_x
_atom_site_fract_y
_atom_site_fract_z
Si Si1 0.875641 0.612499 0.471915
Si Si2 0.682557 0.391377 0.916359
Si Si3 0.903025 0.107508 0.760818
Si Si4 0.365133 0.722239 0.305951
Si Si5 0.858720 0.382950 0.046231
O O1 0.844248 0.500000 0.472265
O O2 0.764166 0.674040 0.586946
O O3 0.889516 0.667184 0.330555
O O4 0.000000 0.618556 0.500000
O O5 0.695303 0.500000 0.854897
O O6 0.761948 0.145090 0.810203
O O7 0.634043 0.314834 0.839756
O O8 0.597933 0.399689 0.082581
O O9 0.687121 0.140396 0.077808
O O10 0.020796 0.170350 0.671371
O O11 0.914268 0.000000 0.702269
O O12 0.856110 0.500000 0.054156
O O13 0.000000 0.353045 0.000000
#
# Coordination Sequence:
#
# PCOD9218307 Si02
#       5
#     8   8   8   8   8
#     4  10  24  44  67  95 132 180 233 289 347 402
#     4   8  15  26  54 102 146 183 222 271 335 405
#     4   8  15  26  54 102 147 183 221 272 338 408
#     4  11  19  35  71 101 130 170 234 287 336 406
#     4   7  12  23  43  85 152 196 220 264 328 405
#
# _framework density 25.739614
#
# number of rings (size 3 to 8) (size 9 to 14) (size 15 to 20)
#    1.200    2.000    0.000    2.400    0.000    1.600 
#    0.000    0.000    8.800   28.800    0.000    0.000 
#    0.000    1.600    0.000    0.000    0.000    0.000 
#
# Total GULP energy -111646.221968 kJ/mol
# GULP energy per Si atom -5582.311098 kJ/mol
# Density = 2.568103 g / cm^3
# Si number density = 25.739614 Si / 1000 Ang^3
#
#
#
# Elastic Constant Matrix: (Units=GPa)
#
#
# Indices 1 2 3 4 5 6 
#
# 1 160.7342 54.0628 29.4768 0.0000 -24.9855 0.0000
# 2 54.0628 136.7290 5.7145 0.0000 3.5887 0.0000
# 3 29.4768 5.7145 26.8761 0.0000 -20.1276 0.0000
# 4 0.0000 0.0000 0.0000 31.9741 0.0000 -2.5905
# 5 -24.9855 3.5887 -20.1276 0.0000 43.2242 0.0000
# 6 0.0000 0.0000 0.0000 -2.5905 0.0000 30.2514
#
#
#
# Elastic Compliance Matrix: (Units=1/GPa)
#
#
# Indices 1 2 3 4 5 6 
#
# 1 0.009060 -0.003303 -0.007841 0.000000 0.001860 0.000000
# 2 -0.003303 0.008705 -0.000306 0.000000 -0.002775 0.000000
# 3 -0.007841 -0.000306 0.065253 0.000000 0.025878 0.000000
# 4 0.000000 0.000000 0.000000 0.031494 0.000000 0.002697
# 5 0.001860 -0.002775 0.025878 0.000000 0.036491 0.000000
# 6 0.000000 0.000000 0.000000 0.002697 0.000000 0.033287
#
#
# Mechanical properties :
#
#
# Convention : Reuss Voigt Hill
#
# Bulk Modulus (GPa) = 16.63410 55.87192 36.25301
# Shear Modulus (GPa) = 22.00412 36.76229 29.38320
#
# Velocity S-wave (km/s) = 2.92699 3.78330 3.38236
# Velocity P-wave (km/s) = 4.23079 6.39048 5.41931
#
# Compressibility (1/GPa) = 0.06011745
#
# Stress axis : x y z
#
# Youngs Moduli (GPa) = 110.38069 114.87026 15.32494
#
# Poissons Ratio (x) = 0.37945 0.12016
# Poissons Ratio (y) = 0.36462 0.00469
# Poissons Ratio (z) = 0.86550 0.03516
#
# Static dielectric constant tensor:
#      x y z
#    x 2.100510 0.000000 0.064810 
#    y 0.000000 2.070370 0.000000 
#    z 0.064810 0.000000 2.209130 
# 
# From -- ./inp_files/212374.got.cif
#   From: 2010.05.17/outbox.cif.g08.bks.cpg/sg12_107_cif.got.tgz:212374.got - 2010.06.03 13:09:07.
