data_PCOD9218100
_publ_section_title
;
Structure prediction by ZEFSAII (Michael W. Deem and Ramdas Pophale) SiO2 
 PCOD9218100
Probable space group: C 2/M
;
_chemical_formula_sum "Si O2"
_cell_formula_units_Z 44
_cell_length_a 8.766985
_cell_length_b 20.169566
_cell_length_c 11.973100
_cell_angle_alpha 90.000000
_cell_angle_beta 94.796498
_cell_angle_gamma 90.000000
_cell_volume 2109.744414
_symmetry_space_group_name_H-M "C 2/M"
_symmetry_group_IT_number 12
_symmetry_cell_setting 'monoclinic'
loop_
_space_group_symop_operation_xyz
x,y,z
-x,y,-z
-x,-y,-z
x,-y,z
1/2+x,1/2+y,z
1/2-x,1/2+y,-z
1/2-x,1/2-y,-z
1/2+x,1/2-y,z
loop_
_atom_site_type_symbol
_atom_site_label
_atom_site_fract_x
_atom_site_fract_y
_atom_site_fract_z
Si Si1 0.340820 0.381407 0.688329
Si Si2 0.168792 0.422012 0.459267
Si Si3 0.825937 0.000000 0.851182
Si Si4 0.000000 0.254742 0.000000
Si Si5 0.203636 0.128773 0.755186
Si Si6 0.695933 0.500000 0.897820
Si Si7 0.230410 0.722430 0.840065
O O1 0.288295 0.401908 0.562651
O O2 0.287353 0.436694 0.773963
O O3 0.524130 0.376125 0.709550
O O4 0.258423 0.315295 0.727264
O O5 0.190196 0.500000 0.433017
O O6 0.197295 0.379512 0.350518
O O7 0.000000 0.413467 0.500000
O O8 0.010070 0.000000 0.878729
O O9 0.756921 0.000000 0.970133
O O10 0.915541 0.294761 0.092904
O O11 0.124753 0.210244 0.070616
O O12 0.243179 0.067134 0.837791
O O13 0.224117 0.199221 0.815660
#
# Coordination Sequence:
#
# PCOD9218100 Si02
#       7
#     8   8   4   4   8   4   8
#     4  11  23  42  67  96 128 174 223 268 324 390
#     4  11  25  44  67  94 133 173 213 274 341 390
#     4   9  20  35  61  94 126 159 214 269 314 383
#     4  10  24  42  64  90 146 180 212 254 336 396
#     4  11  23  42  67  96 128 174 223 268 324 390
#     4   9  20  35  61  94 126 159 214 269 314 383
#     4  11  24  41  66 100 132 179 217 270 322 392
#
# _framework density 20.855606999999999
#
# number of rings (size 3 to 8) (size 9 to 14) (size 15 to 20)
#    0.000    1.455    3.636    0.545    7.636    1.455 
#    0.000    0.000    0.000    2.182    0.000    0.000 
#    0.000    0.000    0.000    0.000    0.000    0.000 
#
# Total GULP energy -122953.226734 kJ/mol
# GULP energy per Si atom -5588.783033 kJ/mol
# Density = 2.080814 g / cm^3
# Si number density = 20.855607 Si / 1000 Ang^3
#
#
#
# Elastic Constant Matrix: (Units=GPa)
#
#
# Indices 1 2 3 4 5 6 
#
# 1 61.5057 10.1963 11.3544 0.0000 -14.4175 0.0000
# 2 10.1963 103.8309 31.8835 0.0000 -10.6838 0.0000
# 3 11.3544 31.8835 108.6701 0.0000 -18.5641 0.0000
# 4 0.0000 0.0000 0.0000 -2.1317 0.0000 -1.9536
# 5 -14.4175 -10.6838 -18.5641 0.0000 34.8640 0.0000
# 6 0.0000 0.0000 0.0000 -1.9536 0.0000 15.6527
#
#
#
# Elastic Compliance Matrix: (Units=1/GPa)
#
#
# Indices 1 2 3 4 5 6 
#
# 1 0.018129 -0.000930 -0.000428 0.000000 0.006984 0.000000
# 2 -0.000930 0.010730 -0.002811 0.000000 0.001407 0.000000
# 3 -0.000428 -0.002811 0.010884 0.000000 0.004757 0.000000
# 4 0.000000 0.000000 0.000000 -0.420970 0.000000 -0.052540
# 5 0.006984 0.001407 0.004757 0.000000 0.034535 0.000000
# 6 0.000000 0.000000 0.000000 -0.052540 0.000000 0.057329
#
#
# Mechanical properties :
#
#
# Convention : Reuss Voigt Hill
#
# Bulk Modulus (GPa) = 31.84184 42.31947 37.08066
# Shear Modulus (GPa) = -18.48051 24.38185 2.95067
#
# Velocity S-wave (km/s) = -2.98000 3.42289 1.19075
# Velocity P-wave (km/s) = 1.86020 5.99644 4.43946
#
# Compressibility (1/GPa) = 0.03140522
#
# Stress axis : x y z
#
# Youngs Moduli (GPa) = 55.16029 93.19457 91.87619
#
# Poissons Ratio (x) = 0.08669 0.03935
# Poissons Ratio (y) = 0.05131 0.25824
# Poissons Ratio (z) = 0.02362 0.26194
#
# Static dielectric constant tensor:
#      x y z
#    x 1.773180 0.000000 -0.003520 
#    y 0.000000 1.747950 0.000000 
#    z -0.003520 0.000000 1.704640 
# 
# From -- ./inp_files/120894.got.cif
#   From: 2010.05.17/outbox.cif.g08.bks.cpg/sg12_61_cif.got.tgz:120894.got - 2010.06.03 13:09:07.
