data_PCOD9218571
_publ_section_title
;
Structure prediction by ZEFSAII (Michael W. Deem and Ramdas Pophale) SiO2 
 PCOD9218571
Probable space group: C 2/M
;
_chemical_formula_sum "Si O2"
_cell_formula_units_Z 40
_cell_length_a 9.334673
_cell_length_b 14.687861
_cell_length_c 14.010128
_cell_angle_alpha 90.000000
_cell_angle_beta 86.021485
_cell_angle_gamma 90.000000
_cell_volume 1916.248875
_symmetry_space_group_name_H-M "C 2/M"
_symmetry_group_IT_number 12
_symmetry_cell_setting 'monoclinic'
loop_
_space_group_symop_operation_xyz
x,y,z
-x,y,-z
-x,-y,-z
x,-y,z
1/2+x,1/2+y,z
1/2-x,1/2+y,-z
1/2-x,1/2-y,-z
1/2+x,1/2-y,z
loop_
_atom_site_type_symbol
_atom_site_label
_atom_site_fract_x
_atom_site_fract_y
_atom_site_fract_z
Si Si1 0.192312 0.191235 0.803808
Si Si2 0.230423 0.000000 0.042401
Si Si3 0.154454 0.500000 0.748222
Si Si4 0.000000 0.756263 0.500000
Si Si5 0.263829 0.178756 0.372001
Si Si6 0.833668 0.500000 0.830678
Si Si7 0.906151 0.804686 0.919094
O O1 0.230272 0.238746 0.703417
O O2 0.248761 0.089678 0.806042
O O3 0.274312 0.247100 0.884199
O O4 0.022383 0.190293 0.829056
O O5 0.142186 0.904944 0.043789
O O6 0.294798 0.000000 0.144816
O O7 0.336771 0.000000 0.946713
O O8 0.209795 0.588220 0.690008
O O9 0.983632 0.500000 0.769210
O O10 0.111751 0.816066 0.433052
O O11 0.104841 0.695278 0.560868
O O12 0.000000 0.760973 0.000000
#
# Coordination Sequence:
#
# PCOD9218571 Si02
#       7
#     8   4   4   4   8   4   8
#     4  12  25  43  69  97 137 184 229 281 333 404
#     4  12  25  44  63 100 144 187 233 278 318 393
#     4  12  25  43  72 104 137 179 230 280 331 407
#     4  10  24  48  74  98 136 166 220 288 358 418
#     4  11  24  47  72 103 133 174 222 285 351 412
#     4  12  26  42  64 100 145 188 232 273 326 386
#     4  12  24  42  64  96 137 186 231 277 325 385
#
# _framework density 20.874116000000001
#
# number of rings (size 3 to 8) (size 9 to 14) (size 15 to 20)
#    0.000    0.400    4.000    5.400    0.000    0.800 
#    0.000    4.000    0.000    0.000    0.000    0.000 
#    0.000    0.000    0.000    0.000    0.000    0.000 
#
# Total GULP energy -111887.187503 kJ/mol
# GULP energy per Si atom -5594.359375 kJ/mol
# Density = 2.082661 g / cm^3
# Si number density = 20.874116 Si / 1000 Ang^3
#
#
#
# Elastic Constant Matrix: (Units=GPa)
#
#
# Indices 1 2 3 4 5 6 
#
# 1 117.3827 43.9332 35.4387 0.0000 -36.4935 0.0000
# 2 43.9332 137.4847 48.1648 0.0000 -15.0287 0.0000
# 3 35.4387 48.1648 112.5460 0.0000 -21.1440 0.0000
# 4 0.0000 0.0000 0.0000 -58.4197 0.0000 24.4370
# 5 -36.4935 -15.0287 -21.1440 0.0000 54.1039 0.0000
# 6 0.0000 0.0000 0.0000 24.4370 0.0000 -10.1420
#
#
#
# Elastic Compliance Matrix: (Units=1/GPa)
#
#
# Indices 1 2 3 4 5 6 
#
# 1 0.012049 -0.002615 -0.001386 0.000000 0.006859 0.000000
# 2 -0.002615 0.009176 -0.003190 0.000000 -0.000462 0.000000
# 3 -0.001386 -0.003190 0.011165 0.000000 0.002542 0.000000
# 4 0.000000 0.000000 0.000000 2.169441 0.000000 5.227246
# 5 0.006859 -0.000462 0.002542 0.000000 0.023974 0.000000
# 6 0.000000 0.000000 0.000000 5.227246 0.000000 12.496398
#
#
# Mechanical properties :
#
#
# Convention : Reuss Voigt Hill
#
# Bulk Modulus (GPa) = 55.53504 69.16520 62.35012
# Shear Modulus (GPa) = 0.33915 13.10022 6.71969
#
# Velocity S-wave (km/s) = 0.40352 2.50788 1.79615
# Velocity P-wave (km/s) = 5.18455 6.44921 5.85115
#
# Compressibility (1/GPa) = 0.01800665
#
# Stress axis : x y z
#
# Youngs Moduli (GPa) = 82.99658 108.97614 89.56793
#
# Poissons Ratio (x) = 0.28494 0.12417
# Poissons Ratio (y) = 0.21701 0.28576
# Poissons Ratio (z) = 0.11506 0.34768
#
# Static dielectric constant tensor:
#      x y z
#    x 1.755700 0.000000 0.005550 
#    y 0.000000 1.706970 0.000000 
#    z 0.005550 0.000000 1.774400 
# 
# From -- ./inp_files/194633.got.cif
#   From: 2010.05.17/outbox.cif.g08.bks.cpg/sg12_98_cif.got.tgz:194633.got - 2010.06.03 13:09:07.
