data_PCOD9218369
_publ_section_title
;
Structure prediction by ZEFSAII (Michael W. Deem and Ramdas Pophale) SiO2 
 PCOD9218369
Probable space group: C 2/M
;
_chemical_formula_sum "Si O2"
_cell_formula_units_Z 36
_cell_length_a 9.172621
_cell_length_b 20.716761
_cell_length_c 8.119665
_cell_angle_alpha 90.000000
_cell_angle_beta 110.458183
_cell_angle_gamma 90.000000
_cell_volume 1445.637549
_symmetry_space_group_name_H-M "C 2/M"
_symmetry_group_IT_number 12
_symmetry_cell_setting 'monoclinic'
loop_
_space_group_symop_operation_xyz
x,y,z
-x,y,-z
-x,-y,-z
x,-y,z
1/2+x,1/2+y,z
1/2-x,1/2+y,-z
1/2-x,1/2-y,-z
1/2+x,1/2-y,z
loop_
_atom_site_type_symbol
_atom_site_label
_atom_site_fract_x
_atom_site_fract_y
_atom_site_fract_z
Si Si1 0.000000 0.500000 0.000000
Si Si2 0.870304 0.181685 0.828451
Si Si3 0.335949 0.500000 0.277433
Si Si4 0.015800 0.676718 0.826976
Si Si5 0.337313 0.000000 0.276847
Si Si6 0.237684 0.394877 0.490660
Si Si7 0.500000 0.500000 0.000000
O O1 0.179739 0.500000 0.112264
O O2 0.968514 0.500000 0.193240
O O3 0.940011 0.252766 0.825298
O O4 0.697758 0.181719 0.845341
O O5 0.850135 0.150847 0.641722
O O6 0.000000 0.147762 0.000000
O O7 0.326854 0.437666 0.392032
O O8 0.467810 0.500000 0.193756
O O9 0.901124 0.643379 0.653430
O O10 0.000000 0.641323 0.000000
O O11 0.333848 0.939721 0.396478
O O12 0.179707 0.000000 0.113829
#
# Coordination Sequence:
#
# PCOD9218369 Si02
#       7
#     2   8   4   8   4   8   2
#     4  10  24  44  80  94 158 204 250 300 370 464
#     4  11  25  49  74 113 156 202 254 316 385 455
#     4  10  26  48  75 112 152 201 255 313 388 454
#     4  11  25  48  75 110 157 202 257 314 383 455
#     4  10  26  48  73 114 155 197 260 304 393 449
#     4  11  26  45  77 117 153 199 261 315 374 463
#     4  10  24  56  68 106 158 206 248 322 372 470
#
# _framework density 24.902508000000001
#
# number of rings (size 3 to 8) (size 9 to 14) (size 15 to 20)
#    0.000    1.333    0.000    4.000    9.333    4.444 
#   12.000    0.000    0.000    0.000    0.000    0.000 
#    0.000    0.000    0.000    0.000    0.000    0.000 
#
# Total GULP energy -100411.545639 kJ/mol
# GULP energy per Si atom -5578.419202 kJ/mol
# Density = 2.484583 g / cm^3
# Si number density = 24.902508 Si / 1000 Ang^3
#
#
#
# Elastic Constant Matrix: (Units=GPa)
#
#
# Indices 1 2 3 4 5 6 
#
# 1 247.4537 43.8638 96.1814 0.0000 -19.1445 0.0000
# 2 43.8638 80.4310 80.8887 0.0000 -0.6539 0.0000
# 3 96.1814 80.8887 254.8191 0.0000 5.4402 0.0000
# 4 0.0000 0.0000 0.0000 103.7662 0.0000 -20.4155
# 5 -19.1445 -0.6539 5.4402 0.0000 71.9757 0.0000
# 6 0.0000 0.0000 0.0000 -20.4155 0.0000 34.0747
#
#
#
# Elastic Compliance Matrix: (Units=1/GPa)
#
#
# Indices 1 2 3 4 5 6 
#
# 1 0.004951 -0.001144 -0.001536 0.000000 0.001423 0.000000
# 2 -0.001144 0.018554 -0.005464 0.000000 0.000277 0.000000
# 3 -0.001536 -0.005464 0.006258 0.000000 -0.000931 0.000000
# 4 0.000000 0.000000 0.000000 0.010925 0.000000 0.006545
# 5 0.001423 0.000277 -0.000931 0.000000 0.014345 0.000000
# 6 0.000000 0.000000 0.000000 0.006545 0.000000 0.033269
#
#
# Mechanical properties :
#
#
# Convention : Reuss Voigt Hill
#
# Bulk Modulus (GPa) = 74.20555 113.84128 94.02341
# Shear Modulus (GPa) = 45.83721 66.08131 55.95926
#
# Velocity S-wave (km/s) = 4.29495 5.15690 4.74554
# Velocity P-wave (km/s) = 7.37961 9.01511 8.23805
#
# Compressibility (1/GPa) = 0.01347608
#
# Stress axis : x y z
#
# Youngs Moduli (GPa) = 201.97929 53.89664 159.78318
#
# Poissons Ratio (x) = 0.06164 0.24544
# Poissons Ratio (y) = 0.23100 0.87305
# Poissons Ratio (z) = 0.31026 0.29449
#
# Static dielectric constant tensor:
#      x y z
#    x 1.878300 0.000000 0.017090 
#    y 0.000000 2.284440 0.000000 
#    z 0.017090 0.000000 1.994480 
# 
# From -- ./inp_files/39594.got.cif
#   From: 2010.05.17/outbox.cif.g08.bks.cpg/sg12_20_cif.got.tgz:39594.got - 2010.06.03 13:09:07.
