data_PCOD9218447
_publ_section_title
;
Structure prediction by ZEFSAII (Michael W. Deem and Ramdas Pophale) SiO2 
 PCOD9218447
Probable space group: C 2/M
;
_chemical_formula_sum "Si O2"
_cell_formula_units_Z 38
_cell_length_a 12.181091
_cell_length_b 23.798887
_cell_length_c 16.029629
_cell_angle_alpha 90.000000
_cell_angle_beta 153.453097
_cell_angle_gamma 90.000000
_cell_volume 2076.854504
_symmetry_space_group_name_H-M "C 2/M"
_symmetry_group_IT_number 12
_symmetry_cell_setting 'monoclinic'
loop_
_space_group_symop_operation_xyz
x,y,z
-x,y,-z
-x,-y,-z
x,-y,z
1/2+x,1/2+y,z
1/2-x,1/2+y,-z
1/2-x,1/2-y,-z
1/2+x,1/2-y,z
loop_
_atom_site_type_symbol
_atom_site_label
_atom_site_fract_x
_atom_site_fract_y
_atom_site_fract_z
Si Si1 0.731081 0.624125 0.095855
Si Si2 0.735175 0.061276 0.468792
Si Si3 0.965381 0.149857 0.750550
Si Si4 0.500000 0.500000 0.500000
Si Si5 0.790020 0.751970 0.187572
Si Si6 0.500000 0.216689 0.500000
O O1 0.815682 0.688392 0.171062
O O2 0.961799 0.584256 0.267783
O O3 0.500000 0.612827 0.000000
O O4 0.634398 0.622078 0.935819
O O5 0.878996 0.105427 0.623286
O O6 0.722427 0.000000 0.503236
O O7 0.875604 0.048121 0.477700
O O8 0.729461 0.176770 0.635554
O O9 0.100222 0.201990 0.798783
O O10 0.927286 0.752643 0.369774
O O11 0.500000 0.761737 0.000000
#
# Coordination Sequence:
#
# PCOD9218447 Si02
#       6
#     8   8   8   2   8   4
#     4  11  22  41  66  95 135 161 210 268 317 373
#     4  10  24  46  66  90 127 166 218 270 306 377
#     4  12  23  40  67  94 128 178 207 257 325 372
#     4   8  24  50  60  90 126 150 224 268 292 382
#     4  11  24  39  62 101 136 163 211 259 313 393
#     4  12  22  39  63  96 137 163 210 260 308 386
#
# _framework density 18.296900999999998
#
# number of rings (size 3 to 8) (size 9 to 14) (size 15 to 20)
#    0.632    0.421    6.316    1.263    0.000    3.789 
#    0.000    4.737    0.000    0.000    0.000    0.000 
#    0.000    0.000    0.000    0.000    0.000    0.000 
#
# Total GULP energy -105819.626948 kJ/mol
# GULP energy per Si atom -5569.454050 kJ/mol
# Density = 1.825526 g / cm^3
# Si number density = 18.296901 Si / 1000 Ang^3
#
#
#
# Elastic Constant Matrix: (Units=GPa)
#
#
# Indices 1 2 3 4 5 6 
#
# 1 80.3702 39.5373 17.0877 0.0006 -5.4957 -0.0048
# 2 39.5373 47.4056 -4.0859 -0.0008 16.0862 -0.0027
# 3 17.0877 -4.0859 63.2240 0.0002 -15.3517 -0.0159
# 4 0.0006 -0.0008 0.0002 19.3034 0.0003 9.2393
# 5 -5.4957 16.0862 -15.3517 0.0003 23.1303 -0.0030
# 6 -0.0048 -0.0027 -0.0159 9.2393 -0.0030 58.4914
#
#
#
# Elastic Compliance Matrix: (Units=1/GPa)
#
#
# Indices 1 2 3 4 5 6 
#
# 1 0.037648 -0.044338 -0.004031 -0.000005 0.037105 0.000003
# 2 -0.044338 0.080465 0.001237 0.000008 -0.065674 -0.000004
# 3 -0.004031 0.001237 0.019723 -0.000003 0.011273 0.000006
# 4 -0.000005 0.000008 -0.000003 0.056041 -0.000010 -0.008852
# 5 0.037105 -0.065674 0.011273 -0.000010 0.105205 0.000010
# 6 0.000003 -0.000004 0.000006 -0.008852 0.000010 0.018495
#
#
# Mechanical properties :
#
#
# Convention : Reuss Voigt Hill
#
# Bulk Modulus (GPa) = 22.95021 32.89754 27.92388
# Shear Modulus (GPa) = 11.72701 29.41572 20.57137
#
# Velocity S-wave (km/s) = 2.53440 4.01395 3.35671
# Velocity P-wave (km/s) = 4.59725 6.28500 5.50618
#
# Compressibility (1/GPa) = 0.04357258
#
# Stress axis : x y z
#
# Youngs Moduli (GPa) = 26.56170 12.42776 50.70133
#
# Poissons Ratio (x) = 0.55102 0.20437
# Poissons Ratio (y) = 1.17768 -0.06270
# Poissons Ratio (z) = 0.10707 -0.01537
#
# Static dielectric constant tensor:
#      x y z
#    x 1.626710 0.000000 -0.002760 
#    y 0.000000 1.602370 0.000000 
#    z -0.002760 0.000000 1.653220 
# 
# From -- ./inp_files/208743.got.cif
#   From: 2010.05.17/outbox.cif.g08.bks.cpg/sg12_105_cif.got.tgz:208743.got - 2010.06.03 13:09:07.
