data_PCOD9218445
_publ_section_title
;
Structure prediction by ZEFSAII (Michael W. Deem and Ramdas Pophale) SiO2 
 PCOD9218445
Probable space group: C 2/M
;
_chemical_formula_sum "Si O2"
_cell_formula_units_Z 56
_cell_length_a 10.416661
_cell_length_b 29.206751
_cell_length_c 7.507532
_cell_angle_alpha 90.000000
_cell_angle_beta 94.660624
_cell_angle_gamma 90.000000
_cell_volume 2276.515338
_symmetry_space_group_name_H-M "C 2/M"
_symmetry_group_IT_number 12
_symmetry_cell_setting 'monoclinic'
loop_
_space_group_symop_operation_xyz
x,y,z
-x,y,-z
-x,-y,-z
x,-y,z
1/2+x,1/2+y,z
1/2-x,1/2+y,-z
1/2-x,1/2-y,-z
1/2+x,1/2-y,z
loop_
_atom_site_type_symbol
_atom_site_label
_atom_site_fract_x
_atom_site_fract_y
_atom_site_fract_z
Si Si1 0.793563 0.093779 0.197746
Si Si2 0.548206 0.450408 0.301156
Si Si3 0.036555 0.448613 0.295254
Si Si4 0.087899 0.733905 0.859273
Si Si5 0.138452 0.631429 0.851042
Si Si6 0.659491 0.261549 0.325825
Si Si7 0.689382 0.639064 0.430212
O O1 0.922584 0.065148 0.180373
O O2 0.686625 0.060999 0.276080
O O3 0.817351 0.131303 0.358959
O O4 0.741908 0.113923 0.007903
O O5 0.500000 0.454686 0.500000
O O6 0.601290 0.500000 0.252148
O O7 0.640242 0.407123 0.329171
O O8 0.001984 0.500000 0.232135
O O9 0.964389 0.408657 0.181904
O O10 0.000000 0.445861 0.500000
O O11 0.106432 0.681586 0.916997
O O12 0.231771 0.748465 0.815381
O O13 0.974636 0.735055 0.698683
O O14 0.000000 0.759789 0.000000
O O15 0.172898 0.642577 0.647729
O O16 0.750000 0.250000 0.500000
O O17 0.622915 0.315145 0.349638
#
# Coordination Sequence:
#
# PCOD9218445 Si02
#       7
#     8   8   8   8   8   8   8
#     4  11  22  41  70  95 136 177 230 278 345 409
#     4   9  20  40  68  98 135 182 227 280 345 410
#     4  11  23  39  63  95 134 179 226 279 339 406
#     4  11  25  48  71 104 142 182 234 297 363 427
#     4  11  25  43  70 100 134 180 226 284 348 413
#     4  11  26  45  74 103 139 188 236 293 360 433
#     4  10  24  46  66 100 138 174 228 283 342 417
#
# _framework density 24.598998000000002
#
# number of rings (size 3 to 8) (size 9 to 14) (size 15 to 20)
#    0.000    1.429    1.429    2.571    4.000    6.857 
#    5.143    0.714    0.000    0.000    0.000    0.000 
#    0.000    0.000    0.000    0.000    0.000    0.000 
#
# Total GULP energy -156178.845194 kJ/mol
# GULP energy per Si atom -5577.815900 kJ/mol
# Density = 2.454301 g / cm^3
# Si number density = 24.598998 Si / 1000 Ang^3
#
#
#
# Elastic Constant Matrix: (Units=GPa)
#
#
# Indices 1 2 3 4 5 6 
#
# 1 50.5068 -1.1829 13.4314 0.0000 -4.3019 0.0000
# 2 -1.1829 100.7209 18.5704 0.0000 15.4980 0.0000
# 3 13.4314 18.5704 98.2693 0.0000 -8.9119 0.0000
# 4 0.0000 0.0000 0.0000 13.3491 0.0000 33.9038
# 5 -4.3019 15.4980 -8.9119 0.0000 48.4976 0.0000
# 6 0.0000 0.0000 0.0000 33.9038 0.0000 62.4732
#
#
#
# Elastic Compliance Matrix: (Units=1/GPa)
#
#
# Indices 1 2 3 4 5 6 
#
# 1 0.020663 0.000593 -0.002834 0.000000 0.001123 0.000000
# 2 0.000593 0.011003 -0.002516 0.000000 -0.003926 0.000000
# 3 -0.002834 -0.002516 0.011277 0.000000 0.002625 0.000000
# 4 0.000000 0.000000 0.000000 -0.198008 0.000000 0.107458
# 5 0.001123 -0.003926 0.002625 0.000000 0.022456 0.000000
# 6 0.000000 0.000000 0.000000 0.107458 0.000000 -0.042310
#
#
# Mechanical properties :
#
#
# Convention : Reuss Voigt Hill
#
# Bulk Modulus (GPa) = 29.91624 34.57055 32.24339
# Shear Modulus (GPa) = -32.41293 39.44251 3.51479
#
# Velocity S-wave (km/s) = -3.63389 4.00862 1.19664
# Velocity P-wave (km/s) = 2.32785 5.95898 3.87883
#
# Compressibility (1/GPa) = 0.03342667
#
# Stress axis : x y z
#
# Youngs Moduli (GPa) = 48.39677 90.88038 88.67521
#
# Poissons Ratio (x) = -0.05385 0.25133
# Poissons Ratio (y) = -0.02868 0.22314
# Poissons Ratio (z) = 0.13717 0.22869
#
# Static dielectric constant tensor:
#      x y z
#    x 2.006740 0.000000 -0.139150 
#    y 0.000000 1.980300 0.000000 
#    z -0.139150 0.000000 1.853170 
# 
# From -- ./inp_files/53276.got.cif
#   From: 2010.05.17/outbox.cif.g08.bks.cpg/sg12_27_cif.got.tgz:53276.got - 2010.06.03 13:09:07.
