data_PCOD9218359
_publ_section_title
;
Structure prediction by ZEFSAII (Michael W. Deem and Ramdas Pophale) SiO2 
 PCOD9218359
Probable space group: C 2/M
;
_chemical_formula_sum "Si O2"
_cell_formula_units_Z 36
_cell_length_a 17.370471
_cell_length_b 10.279077
_cell_length_c 10.266941
_cell_angle_alpha 90.000000
_cell_angle_beta 129.864305
_cell_angle_gamma 90.000000
_cell_volume 1407.089525
_symmetry_space_group_name_H-M "C 2/M"
_symmetry_group_IT_number 12
_symmetry_cell_setting 'monoclinic'
loop_
_space_group_symop_operation_xyz
x,y,z
-x,y,-z
-x,-y,-z
x,-y,z
1/2+x,1/2+y,z
1/2-x,1/2+y,-z
1/2-x,1/2-y,-z
1/2+x,1/2-y,z
loop_
_atom_site_type_symbol
_atom_site_label
_atom_site_fract_x
_atom_site_fract_y
_atom_site_fract_z
Si Si1 0.500000 0.774352 0.500000
Si Si2 0.142179 0.500000 0.198118
Si Si3 0.815254 0.000000 0.582270
Si Si4 0.628175 0.000000 0.575029
Si Si5 0.681084 0.000000 0.938901
Si Si6 0.375606 0.644742 0.165595
Si Si7 0.041473 0.768855 0.178546
O O1 0.413395 0.684986 0.347749
O O2 0.562191 0.872569 0.474406
O O3 0.254206 0.500000 0.380270
O O4 0.134762 0.500000 0.033130
O O5 0.091430 0.631342 0.197695
O O6 0.730960 0.000000 0.606978
O O7 0.881362 0.130478 0.671768
O O8 0.638674 0.000000 0.745420
O O9 0.758707 0.878625 0.024135
O O10 0.416789 0.500000 0.179013
O O11 0.438657 0.743491 0.147723
O O12 0.000000 0.829945 0.000000
#
# Coordination Sequence:
#
# PCOD9218359 Si02
#       7
#     4   4   4   4   4   8   8
#     4  11  25  42  74  98 147 181 246 288 382 420
#     4  12  29  45  74 114 150 188 247 318 366 424
#     4  12  25  46  77 103 146 193 252 292 371 441
#     4  11  26  46  68 109 145 192 230 310 367 444
#     4  10  26  46  72 111 145 183 252 302 364 425
#     4  10  24  44  73 101 142 191 246 294 361 444
#     4  12  26  47  74 105 146 198 243 298 371 448
#
# _framework density 25.584724000000001
#
# number of rings (size 3 to 8) (size 9 to 14) (size 15 to 20)
#    0.667    0.222    1.111    4.333    9.333    1.778 
#    0.000    0.000    0.000    0.000    0.000    0.000 
#    0.000    0.000    0.000    0.000    0.000    0.000 
#
# Total GULP energy -100634.885176 kJ/mol
# GULP energy per Si atom -5590.826954 kJ/mol
# Density = 2.552649 g / cm^3
# Si number density = 25.584724 Si / 1000 Ang^3
#
#
#
# Elastic Constant Matrix: (Units=GPa)
#
#
# Indices 1 2 3 4 5 6 
#
# 1 139.9157 43.4048 17.4815 0.0000 10.7440 0.0000
# 2 43.4048 155.8154 37.5091 0.0000 8.5561 0.0000
# 3 17.4815 37.5091 119.6284 0.0000 4.6077 0.0000
# 4 0.0000 0.0000 0.0000 59.1404 0.0000 10.4407
# 5 10.7440 8.5561 4.6077 0.0000 44.3468 0.0000
# 6 0.0000 0.0000 0.0000 10.4407 0.0000 29.3771
#
#
#
# Elastic Compliance Matrix: (Units=1/GPa)
#
#
# Indices 1 2 3 4 5 6 
#
# 1 0.007946 -0.002019 -0.000471 0.000000 -0.001487 0.000000
# 2 -0.002019 0.007510 -0.002031 0.000000 -0.000749 0.000000
# 3 -0.000471 -0.002031 0.009082 0.000000 -0.000438 0.000000
# 4 0.000000 0.000000 0.000000 0.018041 0.000000 -0.006412
# 5 -0.001487 -0.000749 -0.000438 0.000000 0.023100 0.000000
# 6 0.000000 0.000000 0.000000 -0.006412 0.000000 0.036319
#
#
# Mechanical properties :
#
#
# Convention : Reuss Voigt Hill
#
# Bulk Modulus (GPa) = 64.52801 68.01671 66.27236
# Shear Modulus (GPa) = 43.02754 47.70380 45.36567
#
# Velocity S-wave (km/s) = 4.10538 4.32272 4.21545
# Velocity P-wave (km/s) = 6.91001 7.18033 7.04647
#
# Compressibility (1/GPa) = 0.01549715
#
# Stress axis : x y z
#
# Youngs Moduli (GPa) = 125.84342 133.15244 110.11133
#
# Poissons Ratio (x) = 0.26878 0.05187
# Poissons Ratio (y) = 0.25402 0.22363
# Poissons Ratio (z) = 0.05928 0.27043
#
# Static dielectric constant tensor:
#      x y z
#    x 2.133200 0.000000 -0.128070 
#    y 0.000000 2.011850 0.000000 
#    z -0.128070 0.000000 2.095750 
# 
# From -- ./inp_files/153991.got.cif
#   From: 2010.05.17/outbox.cif.g08.bks.cpg/sg12_77_cif.got.tgz:153991.got - 2010.06.03 13:09:07.
