data_PCOD9218279
_publ_section_title
;
Structure prediction by ZEFSAII (Michael W. Deem and Ramdas Pophale) SiO2 
 PCOD9218279
Probable space group: C 2/M
;
_chemical_formula_sum "Si O2"
_cell_formula_units_Z 40
_cell_length_a 23.985560
_cell_length_b 8.812854
_cell_length_c 9.727810
_cell_angle_alpha 90.000000
_cell_angle_beta 74.944771
_cell_angle_gamma 90.000000
_cell_volume 1985.696673
_symmetry_space_group_name_H-M "C 2/M"
_symmetry_group_IT_number 12
_symmetry_cell_setting 'monoclinic'
loop_
_space_group_symop_operation_xyz
x,y,z
-x,y,-z
-x,-y,-z
x,-y,z
1/2+x,1/2+y,z
1/2-x,1/2+y,-z
1/2-x,1/2-y,-z
1/2+x,1/2-y,z
loop_
_atom_site_type_symbol
_atom_site_label
_atom_site_fract_x
_atom_site_fract_y
_atom_site_fract_z
Si Si1 0.393181 0.819755 0.717257
Si Si2 0.978993 0.182118 0.861720
Si Si3 0.741358 0.818506 0.155230
Si Si4 0.417758 0.318643 0.414946
Si Si5 0.699740 0.818863 0.626909
O O1 0.421591 0.759299 0.839316
O O2 0.324733 0.787088 0.756737
O O3 0.422759 0.740897 0.567168
O O4 0.400829 0.000000 0.702913
O O5 0.028629 0.217076 0.718285
O O6 0.970534 0.000000 0.870563
O O7 0.000000 0.229717 0.000000
O O8 0.785460 0.739897 0.231005
O O9 0.749471 0.000000 0.150807
O O10 0.750000 0.750000 0.000000
O O11 0.411018 0.500000 0.422549
O O12 0.361048 0.242885 0.386962
O O13 0.750000 0.750000 0.500000
O O14 0.700962 0.000000 0.618417
#
# Coordination Sequence:
#
# PCOD9218279 Si02
#       5
#     8   8   8   8   8
#     4  11  24  42  65  94 127 167 213 262 319 378
#     4  10  24  44  65  93 126 165 211 263 321 379
#     4  11  25  43  64  95 132 172 213 261 320 381
#     4  11  23  41  67  95 126 169 215 262 316 378
#     4  12  24  41  66  97 131 168 212 262 316 380
#
# _framework density 20.144064
#
# number of rings (size 3 to 8) (size 9 to 14) (size 15 to 20)
#    0.000    1.000    2.000    4.200    2.800    6.800 
#    0.000    0.000    0.000    0.000    0.000    0.000 
#    0.000    0.000    0.000    0.000    0.000    0.000 
#
# Total GULP energy -111929.493332 kJ/mol
# GULP energy per Si atom -5596.474667 kJ/mol
# Density = 2.009821 g / cm^3
# Si number density = 20.144064 Si / 1000 Ang^3
#
#
#
# Elastic Constant Matrix: (Units=GPa)
#
#
# Indices 1 2 3 4 5 6 
#
# 1 81.3296 35.1936 14.4031 0.0000 26.6323 0.0000
# 2 35.1936 48.5131 24.2478 0.0000 -3.9502 0.0000
# 3 14.4031 24.2478 109.8681 0.0000 24.0570 0.0000
# 4 0.0000 0.0000 0.0000 29.7337 0.0000 11.6631
# 5 26.6323 -3.9502 24.0570 0.0000 39.5477 0.0000
# 6 0.0000 0.0000 0.0000 11.6631 0.0000 32.3375
#
#
#
# Elastic Compliance Matrix: (Units=1/GPa)
#
#
# Indices 1 2 3 4 5 6 
#
# 1 0.036795 -0.034710 0.010408 0.000000 -0.034577 0.000000
# 2 -0.034710 0.057338 -0.016701 0.000000 0.039261 0.000000
# 3 0.010408 -0.016701 0.015370 0.000000 -0.018027 0.000000
# 4 0.000000 0.000000 0.000000 0.039174 0.000000 -0.014129
# 5 -0.034577 0.039261 -0.018027 0.000000 0.063458 0.000000
# 6 0.000000 0.000000 0.000000 -0.014129 0.000000 0.036020
#
#
# Mechanical properties :
#
#
# Convention : Reuss Voigt Hill
#
# Bulk Modulus (GPa) = 36.36763 43.04441 39.70602
# Shear Modulus (GPa) = 14.73504 31.38154 23.05829
#
# Velocity S-wave (km/s) = 2.70753 3.95125 3.38697
# Velocity P-wave (km/s) = 5.27894 6.49855 5.92024
#
# Compressibility (1/GPa) = 0.02749698
#
# Stress axis : x y z
#
# Youngs Moduli (GPa) = 27.17744 17.44053 65.05979
#
# Poissons Ratio (x) = 0.60537 -0.67714
# Poissons Ratio (y) = 0.94334 1.08655
# Poissons Ratio (z) = -0.28286 0.29127
#
# Static dielectric constant tensor:
#      x y z
#    x 1.700710 0.000000 0.002800 
#    y 0.000000 1.671790 0.000000 
#    z 0.002800 0.000000 1.694910 
# 
# From -- ./inp_files/92741.got.cif
#   From: 2010.05.17/outbox.cif.g08.bks.cpg/sg12_47_cif.got.tgz:92741.got - 2010.06.03 13:09:07.
