data_PCOD9218457
_publ_section_title
;
Structure prediction by ZEFSAII (Michael W. Deem and Ramdas Pophale) SiO2 
 PCOD9218457
Probable space group: C 2/M
;
_chemical_formula_sum "Si O2"
_cell_formula_units_Z 36
_cell_length_a 14.296383
_cell_length_b 9.583401
_cell_length_c 25.499144
_cell_angle_alpha 90.000000
_cell_angle_beta 28.666587
_cell_angle_gamma 90.000000
_cell_volume 1675.914747
_symmetry_space_group_name_H-M "C 2/M"
_symmetry_group_IT_number 12
_symmetry_cell_setting 'monoclinic'
loop_
_space_group_symop_operation_xyz
x,y,z
-x,y,-z
-x,-y,-z
x,-y,z
1/2+x,1/2+y,z
1/2-x,1/2+y,-z
1/2-x,1/2-y,-z
1/2+x,1/2-y,z
loop_
_atom_site_type_symbol
_atom_site_label
_atom_site_fract_x
_atom_site_fract_y
_atom_site_fract_z
Si Si1 0.556825 0.340187 0.087546
Si Si2 0.437562 0.659019 0.419039
Si Si3 0.000000 0.246262 0.000000
Si Si4 0.189862 0.331826 0.708782
Si Si5 0.427735 0.344323 0.763910
O O1 0.579771 0.500000 0.093393
O O2 0.404118 0.256231 0.197615
O O3 0.750000 0.250000 0.000000
O O4 0.508138 0.338132 0.049999
O O5 0.373946 0.500000 0.458532
O O6 0.250000 0.750000 0.500000
O O7 0.579578 0.695720 0.397449
O O8 0.563157 0.664180 0.303456
O O9 0.793589 0.327159 0.106432
O O10 0.161561 0.500000 0.727433
O O11 0.072741 0.270920 0.716846
O O12 0.498137 0.500000 0.743440
#
# Coordination Sequence:
#
# PCOD9218457 Si02
#       5
#     8   8   4   8   8
#     4  12  25  40  62  95 134 174 217 262 321 387
#     4  10  24  46  68  95 128 169 218 270 327 386
#     4  12  24  40  66  98 138 168 218 256 328 378
#     4  11  24  43  65  95 132 168 217 270 325 386
#     4  11  24  42  67  98 132 173 217 264 323 388
#
# _framework density 21.480806999999999
#
# number of rings (size 3 to 8) (size 9 to 14) (size 15 to 20)
#    0.000    0.889    4.444    2.000    0.000    6.222 
#    0.000    4.444    0.000    0.000    0.000    0.000 
#    0.000    0.000    0.000    0.000    0.000    0.000 
#
# Total GULP energy -100506.446507 kJ/mol
# GULP energy per Si atom -5583.691473 kJ/mol
# Density = 2.143192 g / cm^3
# Si number density = 21.480807 Si / 1000 Ang^3
#
#
#
# Elastic Constant Matrix: (Units=GPa)
#
#
# Indices 1 2 3 4 5 6 
#
# 1 108.2184 48.4347 4.0440 0.0000 -18.0233 0.0000
# 2 48.4347 140.6565 30.4483 0.0001 -36.5417 0.0000
# 3 4.0440 30.4483 49.4046 -0.0007 -27.5083 -0.0001
# 4 0.0000 0.0001 -0.0007 23.2029 -0.0001 -2.3073
# 5 -18.0233 -36.5417 -27.5083 -0.0001 50.1886 0.0000
# 6 0.0000 0.0000 -0.0001 -2.3073 0.0000 26.7330
#
#
#
# Elastic Compliance Matrix: (Units=1/GPa)
#
#
# Indices 1 2 3 4 5 6 
#
# 1 0.011318 -0.003785 0.003073 0.000000 0.002993 0.000000
# 2 -0.003785 0.010284 -0.003765 0.000000 0.004065 0.000000
# 3 0.003073 -0.003765 0.030796 0.000001 0.015242 0.000000
# 4 0.000000 0.000000 0.000001 0.043471 0.000001 0.003752
# 5 0.002993 0.004065 0.015242 0.000001 0.032313 0.000000
# 6 0.000000 0.000000 0.000000 0.003752 0.000000 0.037731
#
#
# Mechanical properties :
#
#
# Convention : Reuss Voigt Hill
#
# Bulk Modulus (GPa) = 23.01819 51.57039 37.29429
# Shear Modulus (GPa) = 26.40620 34.38173 30.39396
#
# Velocity S-wave (km/s) = 3.50993 4.00506 3.76564
# Velocity P-wave (km/s) = 5.21202 6.74145 6.02546
#
# Compressibility (1/GPa) = 0.04344390
#
# Stress axis : x y z
#
# Youngs Moduli (GPa) = 88.35295 97.23931 32.47135
#
# Poissons Ratio (x) = 0.36806 -0.09977
# Poissons Ratio (y) = 0.33442 0.12225
# Poissons Ratio (z) = -0.27148 0.36610
#
# Static dielectric constant tensor:
#      x y z
#    x 1.824410 0.000000 -0.024360 
#    y 0.000000 2.520830 0.000000 
#    z -0.024360 0.000000 1.885350 
# 
# From -- ./inp_files/244549.got.cif
#   From: 2010.05.17/outbox.cif.g08.bks.cpg/sg12_123_cif.got.tgz:244549.got - 2010.06.03 13:09:07.
