data_PCOD9218690
_publ_section_title
;
Structure prediction by ZEFSAII (Michael W. Deem and Ramdas Pophale) SiO2 
 PCOD9218690
Probable space group: C 2/M
;
_chemical_formula_sum "Si O2"
_cell_formula_units_Z 32
_cell_length_a 9.929489
_cell_length_b 18.741683
_cell_length_c 6.836681
_cell_angle_alpha 90.000000
_cell_angle_beta 109.251982
_cell_angle_gamma 90.000000
_cell_volume 1201.125821
_symmetry_space_group_name_H-M "C 2/M"
_symmetry_group_IT_number 12
_symmetry_cell_setting 'monoclinic'
loop_
_space_group_symop_operation_xyz
x,y,z
-x,y,-z
-x,-y,-z
x,-y,z
1/2+x,1/2+y,z
1/2-x,1/2+y,-z
1/2-x,1/2-y,-z
1/2+x,1/2-y,z
loop_
_atom_site_type_symbol
_atom_site_label
_atom_site_fract_x
_atom_site_fract_y
_atom_site_fract_z
Si Si1 0.322066 0.134602 0.966041
Si Si2 0.866180 0.745006 0.328688
Si Si3 0.120666 0.000000 0.942606
Si Si4 0.636282 0.891435 0.432746
Si Si5 0.890184 0.000000 0.577761
O O1 0.223769 0.193493 0.810358
O O2 0.400317 0.100759 0.813839
O O3 0.219841 0.071749 0.995918
O O4 0.390887 0.187309 0.163088
O O5 0.824776 0.688176 0.475861
O O6 0.000000 0.780843 0.500000
O O7 0.075905 0.000000 0.660941
O O8 0.064154 0.000000 0.157074
O O9 0.500000 0.914801 0.500000
O O10 0.781701 0.933407 0.530659
#
# Coordination Sequence:
#
# PCOD9218690 Si02
#       5
#     8   8   4   8   4
#     4  11  24  49  74 113 159 207 260 335 384 469
#     4  10  25  46  75 111 161 211 263 314 399 467
#     4  12  26  46  77 114 150 199 272 327 395 460
#     4  11  24  45  73 115 160 204 261 322 394 473
#     4  12  23  44  77 110 151 209 255 323 396 459
#
# _framework density 26.641672
#
# number of rings (size 3 to 8) (size 9 to 14) (size 15 to 20)
#    0.000    1.000    2.500    2.625    3.500    4.000 
#   18.000    1.875    0.000   15.000    0.000    0.000 
#    0.000    0.000    0.000    0.000    0.000    0.000 
#
# Total GULP energy -89237.751038 kJ/mol
# GULP energy per Si atom -5577.359440 kJ/mol
# Density = 2.658103 g / cm^3
# Si number density = 26.641672 Si / 1000 Ang^3
#
#
#
# Elastic Constant Matrix: (Units=GPa)
#
#
# Indices 1 2 3 4 5 6 
#
# 1 133.0605 35.5015 55.5771 0.0000 -55.5053 0.0000
# 2 35.5015 88.8490 14.7059 0.0000 -24.1019 0.0000
# 3 55.5771 14.7059 249.2889 0.0000 -13.0636 0.0000
# 4 0.0000 0.0000 0.0000 57.3963 0.0000 33.3678
# 5 -55.5053 -24.1019 -13.0636 0.0000 69.3623 0.0000
# 6 0.0000 0.0000 0.0000 33.3678 0.0000 81.4826
#
#
#
# Elastic Compliance Matrix: (Units=1/GPa)
#
#
# Indices 1 2 3 4 5 6 
#
# 1 0.012850 -0.002304 -0.002254 0.000000 0.009058 0.000000
# 2 -0.002304 0.012905 -0.000110 0.000000 0.002619 0.000000
# 3 -0.002254 -0.000110 0.004468 0.000000 -0.001001 0.000000
# 4 0.000000 0.000000 0.000000 0.022867 0.000000 -0.009364
# 5 0.009058 0.002619 -0.001001 0.000000 0.022387 0.000000
# 6 0.000000 0.000000 0.000000 -0.009364 0.000000 0.016107
#
#
# Mechanical properties :
#
#
# Convention : Reuss Voigt Hill
#
# Bulk Modulus (GPa) = 47.88125 75.86306 61.87216
# Shear Modulus (GPa) = 46.34653 66.00914 56.17784
#
# Velocity S-wave (km/s) = 4.17541 4.98302 4.59698
# Velocity P-wave (km/s) = 6.42314 7.85140 7.17290
#
# Compressibility (1/GPa) = 0.02088500
#
# Stress axis : x y z
#
# Youngs Moduli (GPa) = 77.82029 77.49180 223.81173
#
# Poissons Ratio (x) = 0.17857 0.50453
# Poissons Ratio (y) = 0.17933 0.02468
# Poissons Ratio (z) = 0.17543 0.00854
#
# Static dielectric constant tensor:
#      x y z
#    x 2.351760 0.000000 -0.064340 
#    y 0.000000 2.014080 0.000000 
#    z -0.064340 0.000000 2.294580 
# 
# From -- ./inp_files/10691.got.cif
#   From: 2010.05.17/outbox.cif.g08.bks.cpg/sg12_6_cif.got.tgz:10691.got - 2010.06.03 13:09:07.
