data_PCOD9218768
_publ_section_title
;
Structure prediction by ZEFSAII (Michael W. Deem and Ramdas Pophale) SiO2 
 PCOD9218768
Probable space group: C 2/M
;
_chemical_formula_sum "Si O2"
_cell_formula_units_Z 32
_cell_length_a 14.675777
_cell_length_b 17.420557
_cell_length_c 6.154163
_cell_angle_alpha 90.000000
_cell_angle_beta 111.283708
_cell_angle_gamma 90.000000
_cell_volume 1466.061771
_symmetry_space_group_name_H-M "C 2/M"
_symmetry_group_IT_number 12
_symmetry_cell_setting 'monoclinic'
loop_
_space_group_symop_operation_xyz
x,y,z
-x,y,-z
-x,-y,-z
x,-y,z
1/2+x,1/2+y,z
1/2-x,1/2+y,-z
1/2-x,1/2-y,-z
1/2+x,1/2-y,z
loop_
_atom_site_type_symbol
_atom_site_label
_atom_site_fract_x
_atom_site_fract_y
_atom_site_fract_z
Si Si1 0.500000 0.641034 0.500000
Si Si2 0.246197 0.500000 0.314466
Si Si3 0.723403 0.126251 0.939334
Si Si4 0.567149 0.500000 0.269342
Si Si5 0.114490 0.500000 0.565020
Si Si6 0.399162 0.273712 0.048350
O O1 0.538558 0.580097 0.358346
O O2 0.574491 0.696428 0.687695
O O3 0.317034 0.500000 0.585824
O O4 0.140458 0.500000 0.332579
O O5 0.260670 0.571983 0.167747
O O6 0.661179 0.074014 0.723213
O O7 0.654840 0.192471 0.979673
O O8 0.816387 0.165507 0.901753
O O9 0.500000 0.500000 0.000000
O O10 0.000000 0.500000 0.500000
O O11 0.500000 0.271826 0.000000
#
# Coordination Sequence:
#
# PCOD9218768 Si02
#       6
#     4   4   8   4   4   8
#     4  11  24  40  68 103 142 176 222 281 354 416
#     4  11  24  47  73  98 141 182 232 299 338 415
#     4  10  26  48  68 107 138 186 243 280 350 425
#     4  11  24  40  69 104 141 177 223 281 355 415
#     4  11  28  44  73  99 138 191 239 287 345 410
#     4  11  25  44  74 102 144 183 230 290 351 419
#
# _framework density 21.827186000000001
#
# number of rings (size 3 to 8) (size 9 to 14) (size 15 to 20)
#    0.000    1.250    2.500    0.750   12.250    1.000 
#    0.000    7.500    0.000    0.000    0.000    0.000 
#    0.000    0.000    0.000    0.000    0.000    0.000 
#
# Total GULP energy -89362.800825 kJ/mol
# GULP energy per Si atom -5585.175052 kJ/mol
# Density = 2.177751 g / cm^3
# Si number density = 21.827186 Si / 1000 Ang^3
#
#
#
# Elastic Constant Matrix: (Units=GPa)
#
#
# Indices 1 2 3 4 5 6 
#
# 1 165.3807 71.6704 26.8174 0.0000 -2.0785 0.0000
# 2 71.6704 155.4304 49.4519 0.0000 9.6786 0.0000
# 3 26.8174 49.4519 75.8796 0.0000 10.9341 0.0000
# 4 0.0000 0.0000 0.0000 9.3035 0.0000 -3.6272
# 5 -2.0785 9.6786 10.9341 0.0000 34.3950 0.0000
# 6 0.0000 0.0000 0.0000 -3.6272 0.0000 18.8718
#
#
#
# Elastic Compliance Matrix: (Units=1/GPa)
#
#
# Indices 1 2 3 4 5 6 
#
# 1 0.007660 -0.003404 -0.000727 0.000000 0.001652 0.000000
# 2 -0.003404 0.009642 -0.004884 0.000000 -0.001366 0.000000
# 3 -0.000727 -0.004884 0.017216 0.000000 -0.004142 0.000000
# 4 0.000000 0.000000 0.000000 0.116193 0.000000 0.022333
# 5 0.001652 -0.001366 -0.004142 0.000000 0.030875 0.000000
# 6 0.000000 0.000000 0.000000 0.022333 0.000000 0.057282
#
#
# Mechanical properties :
#
#
# Convention : Reuss Voigt Hill
#
# Bulk Modulus (GPa) = 60.64887 76.95223 68.80055
# Shear Modulus (GPa) = 19.05524 29.09745 24.07635
#
# Velocity S-wave (km/s) = 2.95787 3.65510 3.32481
# Velocity P-wave (km/s) = 6.28582 7.29005 6.80648
#
# Compressibility (1/GPa) = 0.01648835
#
# Stress axis : x y z
#
# Youngs Moduli (GPa) = 130.54129 103.70954 58.08638
#
# Poissons Ratio (x) = 0.35301 0.04223
# Poissons Ratio (y) = 0.44434 0.28370
# Poissons Ratio (z) = 0.09491 0.50654
#
# Static dielectric constant tensor:
#      x y z
#    x 1.859430 0.000000 0.002960 
#    y 0.000000 1.769980 0.000000 
#    z 0.002960 0.000000 1.795280 
# 
# From -- ./inp_files/10301.got.cif
#   From: 2010.05.17/outbox.cif.g08.bks.cpg/sg12_6_cif.got.tgz:10301.got - 2010.06.03 13:09:07.
