data_PCOD9218305
_publ_section_title
;
Structure prediction by ZEFSAII (Michael W. Deem and Ramdas Pophale) SiO2 
 PCOD9218305
Probable space group: C 2/M
;
_chemical_formula_sum "Si O2"
_cell_formula_units_Z 44
_cell_length_a 27.398964
_cell_length_b 8.022792
_cell_length_c 22.562153
_cell_angle_alpha 90.000000
_cell_angle_beta 155.179136
_cell_angle_gamma 90.000000
_cell_volume 2081.923014
_symmetry_space_group_name_H-M "C 2/M"
_symmetry_group_IT_number 12
_symmetry_cell_setting 'monoclinic'
loop_
_space_group_symop_operation_xyz
x,y,z
-x,y,-z
-x,-y,-z
x,-y,z
1/2+x,1/2+y,z
1/2-x,1/2+y,-z
1/2-x,1/2-y,-z
1/2+x,1/2-y,z
loop_
_atom_site_type_symbol
_atom_site_label
_atom_site_fract_x
_atom_site_fract_y
_atom_site_fract_z
Si Si1 0.697700 0.300333 0.378987
Si Si2 0.256238 0.500000 0.091242
Si Si3 0.493337 0.500000 0.593128
Si Si4 0.114334 0.300305 0.086107
Si Si5 0.946113 0.749576 0.105212
Si Si6 0.833007 0.304685 0.405809
Si Si7 0.552507 0.500000 0.789125
O O1 0.669516 0.500000 0.347692
O O2 0.750000 0.250000 0.500000
O O3 0.579093 0.195600 0.238495
O O4 0.784240 0.277755 0.419031
O O5 0.366513 0.500000 0.257331
O O6 0.317773 0.500000 0.095117
O O7 0.168061 0.648799 0.002775
O O8 0.433687 0.668963 0.504974
O O9 0.476728 0.500000 0.646602
O O10 0.125442 0.500000 0.083329
O O11 0.226262 0.238561 0.244852
O O12 0.093111 0.194440 0.003301
O O13 0.000000 0.283878 0.000000
O O14 0.966946 0.849461 0.188350
O O15 0.866610 0.500000 0.437140
#
# Coordination Sequence:
#
# PCOD9218305 Si02
#       7
#     8   4   4   8   8   8   4
#     4  11  25  39  63 103 140 178 225 287 363 436
#     4  10  26  44  70  98 127 196 238 297 347 403
#     4  10  24  50  68  98 144 180 245 296 353 407
#     4  11  23  40  68 102 143 184 224 290 353 435
#     4  12  22  44  66 101 134 178 239 279 356 419
#     4  11  24  43  69 104 144 187 228 291 360 428
#     4  10  24  44  67  93 140 181 226 307 340 402
#
# _framework density 21.134308000000001
#
# number of rings (size 3 to 8) (size 9 to 14) (size 15 to 20)
#    0.545    0.545    4.545    1.636    3.818    0.364 
#    3.273    1.818    0.000    1.091    0.000    0.000 
#    0.000    0.000    0.000    0.000    0.000    0.000 
#
# Total GULP energy -122514.802156 kJ/mol
# GULP energy per Si atom -5568.854643 kJ/mol
# Density = 2.108620 g / cm^3
# Si number density = 21.134308 Si / 1000 Ang^3
#
#
#
# Elastic Constant Matrix: (Units=GPa)
#
#
# Indices 1 2 3 4 5 6 
#
# 1 37.8001 0.2852 -15.8382 0.0000 -10.3575 0.0000
# 2 0.2852 91.5465 39.1549 0.0000 15.0974 0.0000
# 3 -15.8382 39.1549 124.9724 0.0000 -5.3793 0.0000
# 4 0.0000 0.0000 0.0000 29.1922 0.0000 -6.7414
# 5 -10.3575 15.0974 -5.3793 0.0000 52.5630 0.0000
# 6 0.0000 0.0000 0.0000 -6.7414 0.0000 30.6733
#
#
#
# Elastic Compliance Matrix: (Units=1/GPa)
#
#
# Indices 1 2 3 4 5 6 
#
# 1 0.030846 -0.003668 0.005389 0.000000 0.007683 0.000000
# 2 -0.003668 0.013969 -0.005067 0.000000 -0.005254 0.000000
# 3 0.005389 -0.005067 0.010427 0.000000 0.003585 0.000000
# 4 0.000000 0.000000 0.000000 0.036087 0.000000 0.007931
# 5 0.007683 -0.005254 0.003585 0.000000 0.022415 0.000000
# 6 0.000000 0.000000 0.000000 0.007931 0.000000 0.034345
#
#
# Mechanical properties :
#
#
# Convention : Reuss Voigt Hill
#
# Bulk Modulus (GPa) = 20.59799 33.50253 27.05026
# Shear Modulus (GPa) = 29.24595 37.86683 33.55639
#
# Velocity S-wave (km/s) = 3.72400 4.23747 3.98900
# Velocity P-wave (km/s) = 5.31585 6.31095 5.83466
#
# Compressibility (1/GPa) = 0.04854843
#
# Stress axis : x y z
#
# Youngs Moduli (GPa) = 32.41910 71.58904 95.90726
#
# Poissons Ratio (x) = 0.26260 -0.51686
# Poissons Ratio (y) = 0.11892 0.48601
# Poissons Ratio (z) = -0.17471 0.36278
#
# Static dielectric constant tensor:
#      x y z
#    x 1.733340 0.000000 -0.005340 
#    y 0.000000 1.800570 0.000000 
#    z -0.005340 0.000000 1.721920 
# 
# From -- ./inp_files/353640.got.cif
#   From: 2010.05.17/outbox.cif.g08.bks.cpg/sg12_177_cif.got.tgz:353640.got - 2010.06.03 13:09:07.
