data_PCOD9218277
_publ_section_title
;
Structure prediction by ZEFSAII (Michael W. Deem and Ramdas Pophale) SiO2 
 PCOD9218277
Probable space group: C 2/M
;
_chemical_formula_sum "Si O2"
_cell_formula_units_Z 48
_cell_length_a 24.628289
_cell_length_b 8.682567
_cell_length_c 11.703643
_cell_angle_alpha 90.000000
_cell_angle_beta 69.189052
_cell_angle_gamma 90.000000
_cell_volume 2339.389579
_symmetry_space_group_name_H-M "C 2/M"
_symmetry_group_IT_number 12
_symmetry_cell_setting 'monoclinic'
loop_
_space_group_symop_operation_xyz
x,y,z
-x,y,-z
-x,-y,-z
x,-y,z
1/2+x,1/2+y,z
1/2-x,1/2+y,-z
1/2-x,1/2-y,-z
1/2+x,1/2-y,z
loop_
_atom_site_type_symbol
_atom_site_label
_atom_site_fract_x
_atom_site_fract_y
_atom_site_fract_z
Si Si1 0.766224 0.815699 0.364329
Si Si2 0.115615 0.318411 0.105236
Si Si3 0.878090 0.185039 0.142061
Si Si4 0.441846 0.820842 0.467011
Si Si5 0.512894 0.317445 0.796286
Si Si6 0.661415 0.316659 0.302964
O O1 0.750000 0.750000 0.500000
O O2 0.831217 0.776589 0.274532
O O3 0.721713 0.748458 0.305103
O O4 0.761133 0.000000 0.371571
O O5 0.121565 0.500000 0.117275
O O6 0.148201 0.232678 0.183417
O O7 0.047660 0.271614 0.160047
O O8 0.136945 0.266463 0.964907
O O9 0.942702 0.226040 0.136123
O O10 0.876895 0.000000 0.126357
O O11 0.500000 0.813898 0.500000
O O12 0.453792 0.721256 0.345822
O O13 0.388959 0.756254 0.580447
O O14 0.431565 0.000000 0.444545
O O15 0.500979 0.500000 0.813094
O O16 0.659937 0.500000 0.314624
#
# Coordination Sequence:
#
# PCOD9218277 Si02
#       6
#     8   8   8   8   8   8
#     4  11  24  45  71  98 130 166 212 265 318 380
#     4  12  25  41  63  94 129 168 214 265 321 378
#     4  10  24  44  65  92 126 169 214 258 315 381
#     4  11  22  37  61  94 129 163 208 263 317 374
#     4  11  22  39  65  95 130 170 213 261 317 385
#     4  12  25  42  66  94 129 172 215 263 321 380
#
# _framework density 20.518173999999998
#
# number of rings (size 3 to 8) (size 9 to 14) (size 15 to 20)
#    0.000    0.833    1.667    6.000    0.000    7.333 
#    0.000    0.000    0.000    0.000    0.000    0.000 
#    0.000    0.000    0.000    0.000    0.000    0.000 
#
# Total GULP energy -134367.569672 kJ/mol
# GULP energy per Si atom -5598.648736 kJ/mol
# Density = 2.047147 g / cm^3
# Si number density = 20.518174 Si / 1000 Ang^3
#
#
#
# Elastic Constant Matrix: (Units=GPa)
#
#
# Indices 1 2 3 4 5 6 
#
# 1 98.9392 24.5494 16.6452 0.0000 5.6509 0.0000
# 2 24.5494 38.6999 0.5920 0.0000 -11.3799 0.0000
# 3 16.6452 0.5920 82.1934 0.0000 5.3546 0.0000
# 4 0.0000 0.0000 0.0000 34.5939 0.0000 1.7765
# 5 5.6509 -11.3799 5.3546 0.0000 22.0279 0.0000
# 6 0.0000 0.0000 0.0000 1.7765 0.0000 32.0015
#
#
#
# Elastic Compliance Matrix: (Units=1/GPa)
#
#
# Indices 1 2 3 4 5 6 
#
# 1 0.013779 -0.011314 -0.002132 0.000000 -0.008862 0.000000
# 2 -0.011314 0.039888 0.000480 0.000000 0.023393 0.000000
# 3 -0.002132 0.000480 0.012745 0.000000 -0.002303 0.000000
# 4 0.000000 0.000000 0.000000 0.028989 0.000000 -0.001609
# 5 -0.008862 0.023393 -0.002303 0.000000 0.060315 0.000000
# 6 0.000000 0.000000 0.000000 -0.001609 0.000000 0.031338
#
#
# Mechanical properties :
#
#
# Convention : Reuss Voigt Hill
#
# Bulk Modulus (GPa) = 24.70312 33.71176 29.20744
# Shear Modulus (GPa) = 22.07697 29.59438 25.83568
#
# Velocity S-wave (km/s) = 3.28376 3.80195 3.55231
# Velocity P-wave (km/s) = 5.14230 5.97821 5.57594
#
# Compressibility (1/GPa) = 0.04048072
#
# Stress axis : x y z
#
# Youngs Moduli (GPa) = 72.57249 25.06993 78.46400
#
# Poissons Ratio (x) = 0.28365 0.16726
# Poissons Ratio (y) = 0.82110 -0.03766
# Poissons Ratio (z) = 0.15470 -0.01203
#
# Static dielectric constant tensor:
#      x y z
#    x 1.718490 0.000000 -0.007980 
#    y 0.000000 1.685000 0.000000 
#    z -0.007980 0.000000 1.723150 
# 
# From -- ./inp_files/172890.got.cif
#   From: 2010.05.17/outbox.cif.g08.bks.cpg/sg12_87_cif.got.tgz:172890.got - 2010.06.03 13:09:07.
