data_PCOD9218523
_publ_section_title
;
Structure prediction by ZEFSAII (Michael W. Deem and Ramdas Pophale) SiO2 
 PCOD9218523
Probable space group: C 2/M
;
_chemical_formula_sum "Si O2"
_cell_formula_units_Z 34
_cell_length_a 9.356442
_cell_length_b 22.338473
_cell_length_c 8.919981
_cell_angle_alpha 90.000000
_cell_angle_beta 53.151137
_cell_angle_gamma 90.000000
_cell_volume 1491.892954
_symmetry_space_group_name_H-M "C 2/M"
_symmetry_group_IT_number 12
_symmetry_cell_setting 'monoclinic'
loop_
_space_group_symop_operation_xyz
x,y,z
-x,y,-z
-x,-y,-z
x,-y,z
1/2+x,1/2+y,z
1/2-x,1/2+y,-z
1/2-x,1/2-y,-z
1/2+x,1/2-y,z
loop_
_atom_site_type_symbol
_atom_site_label
_atom_site_fract_x
_atom_site_fract_y
_atom_site_fract_z
Si Si1 0.500000 0.000000 0.000000
Si Si2 0.249589 0.437048 0.068036
Si Si3 0.296616 0.782967 0.127633
Si Si4 0.791836 0.664636 0.660239
Si Si5 0.489620 0.611078 0.668765
O O1 0.418045 0.948848 0.936036
O O2 0.267578 0.500000 0.144112
O O3 0.235822 0.379734 0.181119
O O4 0.414067 0.428853 0.850659
O O5 0.284694 0.729856 0.256102
O O6 0.151474 0.834016 0.249642
O O7 0.500000 0.805320 0.000000
O O8 0.250000 0.750000 0.000000
O O9 0.681464 0.636136 0.594450
O O10 0.000000 0.669226 0.500000
O O11 0.500000 0.581106 0.500000
#
# Coordination Sequence:
#
# PCOD9218523 Si02
#       5
#     2   8   8   8   8
#     4   8  24  44  74 104 120 186 230 280 342 400
#     4  10  24  47  71  96 139 173 232 278 347 400
#     4  12  24  44  73  99 139 185 227 278 344 407
#     4  12  27  45  69 103 139 183 229 279 345 406
#     4  12  28  43  70 105 138 181 230 283 341 406
#
# _framework density 22.789839000000001
#
# number of rings (size 3 to 8) (size 9 to 14) (size 15 to 20)
#    0.706    0.000    4.706    1.412    8.235    4.706 
#    0.000    0.000    0.000    0.000    0.000    0.000 
#    0.000    0.000    0.000    0.000    0.000    0.000 
#
# Total GULP energy -94837.296398 kJ/mol
# GULP energy per Si atom -5578.664494 kJ/mol
# Density = 2.273797 g / cm^3
# Si number density = 22.789839 Si / 1000 Ang^3
#
#
#
# Elastic Constant Matrix: (Units=GPa)
#
#
# Indices 1 2 3 4 5 6 
#
# 1 125.8444 1.6858 8.9530 0.0000 -9.2725 0.0000
# 2 1.6858 96.1805 -2.1242 0.0000 -12.5616 0.0000
# 3 8.9530 -2.1242 68.5445 0.0000 -12.2823 0.0000
# 4 0.0000 0.0000 0.0000 -4.7458 0.0000 -5.3491
# 5 -9.2725 -12.5616 -12.2823 0.0000 29.1189 0.0000
# 6 0.0000 0.0000 0.0000 -5.3491 0.0000 9.6502
#
#
#
# Elastic Compliance Matrix: (Units=1/GPa)
#
#
# Indices 1 2 3 4 5 6 
#
# 1 0.008166 0.000157 -0.000631 0.000000 0.002402 0.000000
# 2 0.000157 0.011127 0.001291 0.000000 0.005395 0.000000
# 3 -0.000631 0.001291 0.015983 0.000000 0.007098 0.000000
# 4 0.000000 0.000000 0.000000 -0.129688 0.000000 -0.071885
# 5 0.002402 0.005395 0.007098 0.000000 0.040428 0.000000
# 6 0.000000 0.000000 0.000000 -0.071885 0.000000 0.063779
#
#
# Mechanical properties :
#
#
# Convention : Reuss Voigt Hill
#
# Bulk Modulus (GPa) = 27.09344 34.17762 30.63553
# Shear Modulus (GPa) = 244.30857 25.60830 134.95843
#
# Velocity S-wave (km/s) = 10.36501 3.35576 7.70372
# Velocity P-wave (km/s) = 12.45627 5.48126 9.62297
#
# Compressibility (1/GPa) = 0.03690931
#
# Stress axis : x y z
#
# Youngs Moduli (GPa) = 122.45750 89.86774 62.56509
#
# Poissons Ratio (x) = -0.01407 0.03951
# Poissons Ratio (y) = -0.01917 -0.08077
# Poissons Ratio (z) = 0.07732 -0.11602
#
# Static dielectric constant tensor:
#      x y z
#    x 1.852720 0.000000 0.012630 
#    y 0.000000 1.841010 0.000000 
#    z 0.012630 0.000000 1.842170 
# 
# From -- ./inp_files/40188.got.cif
#   From: 2010.05.17/outbox.cif.g08.bks.cpg/sg12_21_cif.got.tgz:40188.got - 2010.06.03 13:09:07.
