data_PCOD9218079
_publ_section_title
;
Structure prediction by ZEFSAII (Michael W. Deem and Ramdas Pophale) SiO2 
 PCOD9218079
Probable space group: C 2/M
;
_chemical_formula_sum "Si O2"
_cell_formula_units_Z 26
_cell_length_a 18.100773
_cell_length_b 9.731470
_cell_length_c 17.541640
_cell_angle_alpha 90.000000
_cell_angle_beta 23.332560
_cell_angle_gamma 90.000000
_cell_volume 1223.812350
_symmetry_space_group_name_H-M "C 2/M"
_symmetry_group_IT_number 12
_symmetry_cell_setting 'monoclinic'
loop_
_space_group_symop_operation_xyz
x,y,z
-x,y,-z
-x,-y,-z
x,-y,z
1/2+x,1/2+y,z
1/2-x,1/2+y,-z
1/2-x,1/2-y,-z
1/2+x,1/2-y,z
loop_
_atom_site_type_symbol
_atom_site_label
_atom_site_fract_x
_atom_site_fract_y
_atom_site_fract_z
Si Si1 0.713517 0.500000 0.551307
Si Si2 0.986819 0.500000 0.166697
Si Si3 0.145679 0.797375 0.750195
Si Si4 0.097102 0.000000 0.285746
Si Si5 0.500000 0.500000 0.000000
Si Si6 0.000000 0.230519 0.500000
O O1 0.917408 0.500000 0.319843
O O2 0.679711 0.367772 0.636513
O O3 0.567993 0.500000 0.619568
O O4 0.900753 0.637604 0.211841
O O5 0.206053 0.500000 0.943742
O O6 0.332885 0.817392 0.622583
O O7 0.990597 0.880619 0.942379
O O8 0.076030 0.131519 0.360915
#
# Coordination Sequence:
#
# PCOD9218079 Si02
#       6
#     4   4   8   4   2   4
#     4  11  25  47  64 104 142 177 224 290 332 405
#     4  12  23  44  74  97 134 188 224 280 331 415
#     4  11  24  45  70  99 144 174 230 282 342 396
#     4  11  24  41  71 102 133 178 240 269 343 402
#     4  10  24  42  62 104 130 176 218 286 332 398
#     4  11  22  43  70 100 132 184 224 284 338 406
#
# _framework density 21.245087000000002
#
# number of rings (size 3 to 8) (size 9 to 14) (size 15 to 20)
#    0.000    0.923    3.077    3.692    0.000    5.538 
#   11.077    0.000    0.000    0.000    0.000    0.000 
#    0.000    0.000    0.000    0.000    0.000    0.000 
#
# Total GULP energy -72443.476207 kJ/mol
# GULP energy per Si atom -5572.575093 kJ/mol
# Density = 2.119673 g / cm^3
# Si number density = 21.245087 Si / 1000 Ang^3
#
#
#
# Elastic Constant Matrix: (Units=GPa)
#
#
# Indices 1 2 3 4 5 6 
#
# 1 119.7895 32.4860 37.4250 -0.0001 12.9480 0.0000
# 2 32.4860 144.7351 17.2902 -0.0003 13.7718 0.0003
# 3 37.4250 17.2902 122.3579 -0.0006 22.1391 0.0006
# 4 -0.0001 -0.0003 -0.0006 -25.0452 0.0002 42.0784
# 5 12.9480 13.7718 22.1391 0.0002 43.0634 -0.0001
# 6 0.0000 0.0003 0.0006 42.0784 -0.0001 -6.5715
#
#
#
# Elastic Compliance Matrix: (Units=1/GPa)
#
#
# Indices 1 2 3 4 5 6 
#
# 1 0.009738 -0.001782 -0.002536 0.000000 -0.001054 0.000000
# 2 -0.001782 0.007500 -0.000196 0.000000 -0.001762 0.000000
# 3 -0.002536 -0.000196 0.009732 0.000000 -0.004178 0.000000
# 4 0.000000 0.000000 0.000000 0.004092 0.000000 0.026201
# 5 -0.001054 -0.001762 -0.004178 0.000000 0.026250 0.000000
# 6 0.000000 0.000000 0.000000 0.026201 0.000000 0.015595
#
#
# Mechanical properties :
#
#
# Convention : Reuss Voigt Hill
#
# Bulk Modulus (GPa) = 55.73577 62.36500 59.05038
# Shear Modulus (GPa) = 56.87305 22.26807 39.57056
#
# Velocity S-wave (km/s) = 5.17958 3.24103 4.32044
# Velocity P-wave (km/s) = 7.87797 6.58972 7.26247
#
# Compressibility (1/GPa) = 0.01794180
#
# Stress axis : x y z
#
# Youngs Moduli (GPa) = 102.69561 133.32824 102.75359
#
# Poissons Ratio (x) = 0.23764 0.26056
# Poissons Ratio (y) = 0.18304 0.02013
# Poissons Ratio (z) = 0.26041 0.02612
#
# Static dielectric constant tensor:
#      x y z
#    x 1.731000 0.000000 0.001030 
#    y 0.000000 1.768220 0.000000 
#    z 0.001030 0.000000 1.841480 
# 
# From -- ./inp_files/212301.got.cif
#   From: 2010.05.17/outbox.cif.g08.bks.cpg/sg12_107_cif.got.tgz:212301.got - 2010.06.03 13:09:07.
