data_PCOD9218783
_publ_section_title
;
Structure prediction by ZEFSAII (Michael W. Deem and Ramdas Pophale) SiO2 
 PCOD9218783
Probable space group: C 2/M
;
_chemical_formula_sum "Si O2"
_cell_formula_units_Z 52
_cell_length_a 11.521450
_cell_length_b 19.808804
_cell_length_c 10.523867
_cell_angle_alpha 90.000000
_cell_angle_beta 107.718738
_cell_angle_gamma 90.000000
_cell_volume 2287.883980
_symmetry_space_group_name_H-M "C 2/M"
_symmetry_group_IT_number 12
_symmetry_cell_setting 'monoclinic'
loop_
_space_group_symop_operation_xyz
x,y,z
-x,y,-z
-x,-y,-z
x,-y,z
1/2+x,1/2+y,z
1/2-x,1/2+y,-z
1/2-x,1/2-y,-z
1/2+x,1/2-y,z
loop_
_atom_site_type_symbol
_atom_site_label
_atom_site_fract_x
_atom_site_fract_y
_atom_site_fract_z
Si Si1 0.699062 0.635713 0.821267
Si Si2 0.518453 0.721889 0.159410
Si Si3 0.819969 0.000000 0.550564
Si Si4 0.104143 0.000000 0.704363
Si Si5 0.584310 0.871637 0.264056
Si Si6 0.245639 0.368348 0.688530
Si Si7 0.359490 0.923224 0.080540
Si Si8 0.500000 0.857202 0.500000
O O1 0.604575 0.693296 0.819515
O O2 0.627009 0.566006 0.794459
O O3 0.773676 0.636343 0.715616
O O4 0.803172 0.629283 0.962126
O O5 0.536091 0.796579 0.219115
O O6 0.635432 0.676837 0.241257
O O7 0.500000 0.720889 0.000000
O O8 0.773484 0.068262 0.604414
O O9 0.809646 0.000000 0.393171
O O10 0.964809 0.000000 0.618788
O O11 0.504947 0.918225 0.145203
O O12 0.546921 0.895388 0.391187
O O13 0.199912 0.401386 0.805122
O O14 0.129425 0.326352 0.592003
O O15 0.326476 0.000000 0.038083
#
# Coordination Sequence:
#
# PCOD9218783 Si02
#       8
#     8   8   4   4   8   8   8   4
#     4  12  24  43  71 104 138 180 223 291 349 400
#     4  12  26  45  73 104 140 180 228 285 347 412
#     4  11  22  42  63 101 140 183 236 275 340 410
#     4  11  24  39  64 103 141 177 231 289 340 399
#     4  11  28  46  68 101 138 185 231 281 340 412
#     4  11  23  44  70  99 140 184 230 279 339 414
#     4  11  23  42  72 103 139 177 227 284 349 409
#     4  10  26  51  64  96 136 189 234 274 336 406
#
# _framework density 22.728427
#
# number of rings (size 3 to 8) (size 9 to 14) (size 15 to 20)
#    0.000    0.769    4.615    2.308    5.385    2.769 
#    4.154    2.308    0.000    0.000    0.000    0.000 
#    0.000    0.000    0.000    0.000    0.000    0.000 
#
# Total GULP energy -145140.945375 kJ/mol
# GULP energy per Si atom -5582.344053 kJ/mol
# Density = 2.267670 g / cm^3
# Si number density = 22.728427 Si / 1000 Ang^3
#
#
#
# Elastic Constant Matrix: (Units=GPa)
#
#
# Indices 1 2 3 4 5 6 
#
# 1 122.4575 16.5912 26.6617 0.0000 3.0699 0.0000
# 2 16.5912 95.3293 7.0134 0.0000 7.5605 0.0000
# 3 26.6617 7.0134 81.0513 0.0000 6.0027 0.0000
# 4 0.0000 0.0000 0.0000 11.7095 0.0000 5.5259
# 5 3.0699 7.5605 6.0027 0.0000 41.3166 0.0000
# 6 0.0000 0.0000 0.0000 5.5259 0.0000 24.0080
#
#
#
# Elastic Compliance Matrix: (Units=1/GPa)
#
#
# Indices 1 2 3 4 5 6 
#
# 1 0.008966 -0.001352 -0.002832 0.000000 -0.000007 0.000000
# 2 -0.001352 0.010898 -0.000362 0.000000 -0.001841 0.000000
# 3 -0.002832 -0.000362 0.013425 0.000000 -0.001674 0.000000
# 4 0.000000 0.000000 0.000000 0.095807 0.000000 -0.022052
# 5 -0.000007 -0.001841 -0.001674 0.000000 0.024784 0.000000
# 6 0.000000 0.000000 0.000000 -0.022052 0.000000 0.046728
#
#
# Mechanical properties :
#
#
# Convention : Reuss Voigt Hill
#
# Bulk Modulus (GPa) = 41.32633 44.37452 42.85043
# Shear Modulus (GPa) = 22.96054 31.97827 27.46940
#
# Velocity S-wave (km/s) = 3.18183 3.75503 3.48025
# Velocity P-wave (km/s) = 5.63213 6.19407 5.91977
#
# Compressibility (1/GPa) = 0.02419765
#
# Stress axis : x y z
#
# Youngs Moduli (GPa) = 111.53305 91.76138 74.48961
#
# Poissons Ratio (x) = 0.12402 0.21094
# Poissons Ratio (y) = 0.15074 0.02697
# Poissons Ratio (z) = 0.31584 0.03322
#
# Static dielectric constant tensor:
#      x y z
#    x 1.880880 0.000000 -0.008860 
#    y 0.000000 1.779450 0.000000 
#    z -0.008860 0.000000 1.900470 
# 
# From -- ./inp_files/133383.got.cif
#   From: 2010.05.17/outbox.cif.g08.bks.cpg/sg12_67_cif.got.tgz:133383.got - 2010.06.03 13:09:07.
