data_PCOD9218874
_publ_section_title
;
Structure prediction by ZEFSAII (Michael W. Deem and Ramdas Pophale) SiO2 
 PCOD9218874
Probable space group: C 2/M
;
_chemical_formula_sum "Si O2"
_cell_formula_units_Z 40
_cell_length_a 14.055800
_cell_length_b 13.716893
_cell_length_c 9.685273
_cell_angle_alpha 90.000000
_cell_angle_beta 108.970540
_cell_angle_gamma 90.000000
_cell_volume 1765.916145
_symmetry_space_group_name_H-M "C 2/M"
_symmetry_group_IT_number 12
_symmetry_cell_setting 'monoclinic'
loop_
_space_group_symop_operation_xyz
x,y,z
-x,y,-z
-x,-y,-z
x,-y,z
1/2+x,1/2+y,z
1/2-x,1/2+y,-z
1/2-x,1/2-y,-z
1/2+x,1/2-y,z
loop_
_atom_site_type_symbol
_atom_site_label
_atom_site_fract_x
_atom_site_fract_y
_atom_site_fract_z
Si Si1 0.790875 0.813493 0.709453
Si Si2 0.505554 0.612729 0.835236
Si Si3 0.338659 0.000000 0.397929
Si Si4 0.720173 0.385266 0.988152
Si Si5 0.328517 0.891993 0.771463
Si Si6 0.990264 0.500000 0.725186
O O1 0.725559 0.901492 0.618715
O O2 0.776387 0.699311 0.673486
O O3 0.908812 0.831517 0.735271
O O4 0.773632 0.828744 0.866402
O O5 0.494255 0.500000 0.788467
O O6 0.618844 0.645849 0.857989
O O7 0.500000 0.617012 0.000000
O O8 0.421278 0.000000 0.555801
O O9 0.397303 0.000000 0.277516
O O10 0.703157 0.500000 0.015066
O O11 0.812568 0.379056 0.927430
O O12 0.445960 0.907652 0.788465
O O13 0.283653 0.000000 0.719252
#
# Coordination Sequence:
#
# PCOD9218874 Si02
#       6
#     8   8   4   8   8   4
#     4  11  18  32  61  89 106 143 201 228 266 342
#     4   8  14  26  48  81 112 132 168 226 273 318
#     4  11  22  39  65  82 102 147 208 246 265 335
#     4   9  16  32  56  84 119 145 175 227 288 337
#     4   9  21  38  54  78 122 156 176 225 295 344
#     4   9  24  45  52  78 117 155 185 235 307 317
#
# _framework density 22.651129999999998
#
# number of rings (size 3 to 8) (size 9 to 14) (size 15 to 20)
#    0.600    2.000    2.000    1.800    0.000    2.400 
#    0.000    4.000    0.000    2.400    0.000    0.000 
#    0.000    0.000    0.000    0.000    0.000    0.000 
#
# Total GULP energy -111443.329328 kJ/mol
# GULP energy per Si atom -5572.166466 kJ/mol
# Density = 2.259958 g / cm^3
# Si number density = 22.651130 Si / 1000 Ang^3
#
#
#
# Elastic Constant Matrix: (Units=GPa)
#
#
# Indices 1 2 3 4 5 6 
#
# 1 101.5529 21.4715 35.1381 0.0000 -6.2145 0.0000
# 2 21.4715 166.1553 20.2740 0.0000 12.3805 0.0000
# 3 35.1381 20.2740 32.0675 0.0000 2.4811 0.0000
# 4 0.0000 0.0000 0.0000 15.9630 0.0000 2.5453
# 5 -6.2145 12.3805 2.4811 0.0000 32.5863 0.0000
# 6 0.0000 0.0000 0.0000 2.5453 0.0000 -0.7235
#
#
#
# Elastic Compliance Matrix: (Units=1/GPa)
#
#
# Indices 1 2 3 4 5 6 
#
# 1 0.016514 -0.000247 -0.018298 0.000000 0.004636 0.000000
# 2 -0.000247 0.006682 -0.003777 0.000000 -0.002298 0.000000
# 3 -0.018298 -0.003777 0.054100 0.000000 -0.006174 0.000000
# 4 0.000000 0.000000 0.000000 0.040133 0.000000 0.141184
# 5 0.004636 -0.002298 -0.006174 0.000000 0.032915 0.000000
# 6 0.000000 0.000000 0.000000 0.141184 0.000000 -0.885458
#
#
# Mechanical properties :
#
#
# Convention : Reuss Voigt Hill
#
# Bulk Modulus (GPa) = 30.62465 50.39366 40.50916
# Shear Modulus (GPa) = -7.35744 24.42463 8.53359
#
# Velocity S-wave (km/s) = -1.80422 3.28730 1.94309
# Velocity P-wave (km/s) = 3.03467 6.05843 4.79133
#
# Compressibility (1/GPa) = 0.03265343
#
# Stress axis : x y z
#
# Youngs Moduli (GPa) = 60.55332 149.64628 18.48423
#
# Poissons Ratio (x) = 0.03693 0.33823
# Poissons Ratio (y) = 0.01494 0.06981
# Poissons Ratio (z) = 1.10803 0.56515
#
# Static dielectric constant tensor:
#      x y z
#    x 1.897060 0.000000 -0.029970 
#    y 0.000000 1.895910 0.000000 
#    z -0.029970 0.000000 1.867650 
# 
# From -- ./inp_files/142157.got.cif
#   From: 2010.05.17/outbox.cif.g08.bks.cpg/sg12_72_cif.got.tgz:142157.got - 2010.06.03 13:09:07.
