data_PCOD9218226
_publ_section_title
;
Structure prediction by ZEFSAII (Michael W. Deem and Ramdas Pophale) SiO2 
 PCOD9218226
Probable space group: C 2/M
;
_chemical_formula_sum "Si O2"
_cell_formula_units_Z 36
_cell_length_a 13.438510
_cell_length_b 24.539748
_cell_length_c 6.273550
_cell_angle_alpha 90.000000
_cell_angle_beta 56.001967
_cell_angle_gamma 90.000000
_cell_volume 1715.216125
_symmetry_space_group_name_H-M "C 2/M"
_symmetry_group_IT_number 12
_symmetry_cell_setting 'monoclinic'
loop_
_space_group_symop_operation_xyz
x,y,z
-x,y,-z
-x,-y,-z
x,-y,z
1/2+x,1/2+y,z
1/2-x,1/2+y,-z
1/2-x,1/2-y,-z
1/2+x,1/2-y,z
loop_
_atom_site_type_symbol
_atom_site_label
_atom_site_fract_x
_atom_site_fract_y
_atom_site_fract_z
Si Si1 0.884565 0.116827 0.531290
Si Si2 0.146511 0.500000 0.379958
Si Si3 0.000000 0.643141 0.000000
Si Si4 0.716073 0.188912 0.475797
Si Si5 0.104240 0.000000 0.687248
Si Si6 0.176892 0.385307 0.128559
O O1 0.828051 0.150740 0.406109
O O2 0.915400 0.056319 0.414674
O O3 0.000000 0.143513 0.500000
O O4 0.785629 0.116623 0.834048
O O5 0.248191 0.500000 0.451285
O O6 0.184521 0.441883 0.240883
O O7 0.000000 0.500000 0.500000
O O8 0.058025 0.610786 0.125480
O O9 0.894262 0.676332 0.235118
O O10 0.750000 0.250000 0.500000
O O11 0.678820 0.166976 0.284889
O O12 0.000000 0.000000 0.000000
#
# Coordination Sequence:
#
# PCOD9218226 Si02
#       6
#     8   4   4   8   4   8
#     4  11  25  42  68 100 135 188 237 286 356 435
#     4  12  23  38  73  99 134 183 228 292 351 430
#     4  10  24  43  68  98 136 179 230 290 356 428
#     4  11  25  44  69  98 137 182 234 297 357 423
#     4  12  24  45  70 103 149 195 234 303 367 436
#     4  11  24  44  67 100 140 179 230 292 356 424
#
# _framework density 20.988606999999998
#
# number of rings (size 3 to 8) (size 9 to 14) (size 15 to 20)
#    0.000    0.889    2.222    4.333    3.111    7.556 
#    0.000    0.000    0.000    0.000    0.000    0.000 
#    0.000    0.000    0.000    0.000    0.000    0.000 
#
# Total GULP energy -100233.349365 kJ/mol
# GULP energy per Si atom -5568.519409 kJ/mol
# Density = 2.094084 g / cm^3
# Si number density = 20.988607 Si / 1000 Ang^3
#
#
#
# Elastic Constant Matrix: (Units=GPa)
#
#
# Indices 1 2 3 4 5 6 
#
# 1 120.6646 4.5205 3.5216 0.0000 12.0468 0.0000
# 2 4.5205 111.2942 26.1783 0.0000 18.4703 0.0000
# 3 3.5216 26.1783 68.1650 0.0000 8.2198 0.0000
# 4 0.0000 0.0000 0.0000 1.6341 0.0000 -7.3657
# 5 12.0468 18.4703 8.2198 0.0000 37.3074 0.0000
# 6 0.0000 0.0000 0.0000 -7.3657 0.0000 3.1386
#
#
#
# Elastic Compliance Matrix: (Units=1/GPa)
#
#
# Indices 1 2 3 4 5 6 
#
# 1 0.008567 0.000157 -0.000164 0.000000 -0.002808 0.000000
# 2 0.000157 0.010553 -0.003518 0.000000 -0.004500 0.000000
# 3 -0.000164 -0.003518 0.016245 0.000000 -0.001784 0.000000
# 4 0.000000 0.000000 0.000000 -0.063892 0.000000 -0.149939
# 5 -0.002808 -0.004500 -0.001784 0.000000 0.030332 0.000000
# 6 0.000000 0.000000 0.000000 -0.149939 0.000000 -0.033264
#
#
# Mechanical properties :
#
#
# Convention : Reuss Voigt Hill
#
# Bulk Modulus (GPa) = 35.31915 40.95162 38.13539
# Shear Modulus (GPa) = -334.02316 26.14291 -153.94013
#
# Velocity S-wave (km/s) = -12.62895 3.53310 -8.57344
# Velocity P-wave (km/s) = 13.99249 6.01643 8.93287
#
# Compressibility (1/GPa) = 0.02831325
#
# Stress axis : x y z
#
# Youngs Moduli (GPa) = 116.73158 94.75751 61.55691
#
# Poissons Ratio (x) = -0.01484 0.01011
# Poissons Ratio (y) = -0.01828 0.21658
# Poissons Ratio (z) = 0.01916 0.33339
#
# Static dielectric constant tensor:
#      x y z
#    x 1.930740 0.000000 -0.030580 
#    y 0.000000 1.735940 0.000000 
#    z -0.030580 0.000000 1.781780 
# 
# From -- ./inp_files/7533.got.cif
#   From: 2010.05.17/outbox.cif.g08.bks.cpg/sg12_4_cif.got.tgz:7533.got - 2010.06.03 13:09:07.
