data_PCOD9218386
_publ_section_title
;
Structure prediction by ZEFSAII (Michael W. Deem and Ramdas Pophale) SiO2 
 PCOD9218386
Probable space group: C 2/M
;
_chemical_formula_sum "Si O2"
_cell_formula_units_Z 48
_cell_length_a 19.259696
_cell_length_b 22.743424
_cell_length_c 5.275668
_cell_angle_alpha 90.000000
_cell_angle_beta 115.916207
_cell_angle_gamma 90.000000
_cell_volume 2078.510027
_symmetry_space_group_name_H-M "C 2/M"
_symmetry_group_IT_number 12
_symmetry_cell_setting 'monoclinic'
loop_
_space_group_symop_operation_xyz
x,y,z
-x,y,-z
-x,-y,-z
x,-y,z
1/2+x,1/2+y,z
1/2-x,1/2+y,-z
1/2-x,1/2-y,-z
1/2+x,1/2-y,z
loop_
_atom_site_type_symbol
_atom_site_label
_atom_site_fract_x
_atom_site_fract_y
_atom_site_fract_z
Si Si1 0.171531 0.774260 0.479934
Si Si2 0.929842 0.152321 0.048792
Si Si3 0.218866 0.430961 0.476301
Si Si4 0.409903 0.837733 0.825200
Si Si5 0.917936 0.266641 0.311716
Si Si6 0.680581 0.569319 0.855978
O O1 0.250000 0.750000 0.500000
O O2 0.110549 0.716819 0.404091
O O3 0.158433 0.780020 0.753881
O O4 0.133814 0.823829 0.253189
O O5 0.961738 0.213117 0.216754
O O6 0.894573 0.106333 0.189091
O O7 0.000000 0.125115 0.000000
O O8 0.200673 0.500000 0.416129
O O9 0.142625 0.391418 0.341473
O O10 0.261442 0.423425 0.812404
O O11 0.274668 0.413863 0.330335
O O12 0.500000 0.850250 0.000000
O O13 0.380367 0.811072 0.043365
O O14 0.000000 0.301080 0.500000
O O15 0.662089 0.500000 0.805720
#
# Coordination Sequence:
#
# PCOD9218386 Si02
#       6
#     8   8   8   8   8   8
#     4  11  23  37  57  89 125 164 207 253 314 372
#     4  11  23  37  61  91 124 167 208 259 311 376
#     4  10  24  45  67  93 126 164 211 266 317 369
#     4  11  23  37  61  91 124 167 208 259 311 376
#     4  11  21  39  59  88 132 165 201 259 315 375
#     4  10  24  45  67  93 126 164 211 266 317 369
#
# _framework density 23.093464999999998
#
# number of rings (size 3 to 8) (size 9 to 14) (size 15 to 20)
#    0.000    1.333    3.333    2.000    9.333    2.000 
#    0.000    0.000    0.000    7.000    0.000    0.000 
#    0.000    0.000    0.000    0.000    0.000    0.000 
#
# Total GULP energy -133815.271993 kJ/mol
# GULP energy per Si atom -5575.636333 kJ/mol
# Density = 2.304090 g / cm^3
# Si number density = 23.093465 Si / 1000 Ang^3
#
#
#
# Elastic Constant Matrix: (Units=GPa)
#
#
# Indices 1 2 3 4 5 6 
#
# 1 140.4324 33.9638 19.6498 0.0000 -8.3641 0.0000
# 2 33.9638 85.3155 32.6051 0.0000 12.2179 0.0000
# 3 19.6498 32.6051 94.3254 0.0000 -17.9248 0.0000
# 4 0.0000 0.0000 0.0000 32.9177 0.0000 -1.4726
# 5 -8.3641 12.2179 -17.9248 0.0000 32.2134 0.0000
# 6 0.0000 0.0000 0.0000 -1.4726 0.0000 34.6543
#
#
#
# Elastic Compliance Matrix: (Units=1/GPa)
#
#
# Indices 1 2 3 4 5 6 
#
# 1 0.008263 -0.003998 0.000399 0.000000 0.003884 0.000000
# 2 -0.003998 0.017992 -0.007694 0.000000 -0.012144 0.000000
# 3 0.000399 -0.007694 0.015379 0.000000 0.011579 0.000000
# 4 0.000000 0.000000 0.000000 0.030437 0.000000 0.001293
# 5 0.003884 -0.012144 0.011579 0.000000 0.043100 0.000000
# 6 0.000000 0.000000 0.000000 0.001293 0.000000 0.028911
#
#
# Mechanical properties :
#
#
# Convention : Reuss Voigt Hill
#
# Bulk Modulus (GPa) = 52.50169 54.72339 53.61254
# Shear Modulus (GPa) = 28.89859 35.54738 32.22299
#
# Velocity S-wave (km/s) = 3.54132 3.92763 3.73946
# Velocity P-wave (km/s) = 6.28530 6.65705 6.47384
#
# Compressibility (1/GPa) = 0.01904701
#
# Stress axis : x y z
#
# Youngs Moduli (GPa) = 121.01612 55.57906 65.02577
#
# Poissons Ratio (x) = 0.22221 -0.02592
# Poissons Ratio (y) = 0.48384 0.50032
# Poissons Ratio (z) = -0.04824 0.42763
#
# Static dielectric constant tensor:
#      x y z
#    x 2.039600 0.000000 -0.138520 
#    y 0.000000 1.889600 0.000000 
#    z -0.138520 0.000000 2.282960 
# 
# From -- ./inp_files/16587.got.cif
#   From: 2010.05.17/outbox.cif.g08.bks.cpg/sg12_9_cif.got.tgz:16587.got - 2010.06.03 13:09:07.
