data_PCOD9218130
_publ_section_title
;
Structure prediction by ZEFSAII (Michael W. Deem and Ramdas Pophale) SiO2 
 PCOD9218130
Probable space group: C 2/M
;
_chemical_formula_sum "Si O2"
_cell_formula_units_Z 58
_cell_length_a 26.949601
_cell_length_b 21.495697
_cell_length_c 9.908140
_cell_angle_alpha 90.000000
_cell_angle_beta 30.236552
_cell_angle_gamma 90.000000
_cell_volume 2890.393017
_symmetry_space_group_name_H-M "C 2/M"
_symmetry_group_IT_number 12
_symmetry_cell_setting 'monoclinic'
loop_
_space_group_symop_operation_xyz
x,y,z
-x,y,-z
-x,-y,-z
x,-y,z
1/2+x,1/2+y,z
1/2-x,1/2+y,-z
1/2-x,1/2-y,-z
1/2+x,1/2-y,z
loop_
_atom_site_type_symbol
_atom_site_label
_atom_site_fract_x
_atom_site_fract_y
_atom_site_fract_z
Si Si1 0.710063 0.380495 0.317713
Si Si2 0.346613 0.246682 0.444537
Si Si3 0.326780 0.344119 0.094594
Si Si4 0.112523 0.072708 0.286579
Si Si5 0.937987 0.735591 0.939961
Si Si6 0.567416 0.122319 0.230210
Si Si7 0.394997 0.572009 0.184351
Si Si8 0.500000 0.000000 0.500000
O O1 0.703188 0.309687 0.385066
O O2 0.630282 0.398337 0.391968
O O3 0.684318 0.421192 0.509506
O O4 0.818572 0.390814 0.001544
O O5 0.278375 0.187956 0.635706
O O6 0.450717 0.244178 0.274934
O O7 0.369823 0.248190 0.230775
O O8 0.361612 0.386927 0.137214
O O9 0.327725 0.386059 0.960008
O O10 0.403200 0.286171 0.912155
O O11 0.000000 0.075373 0.500000
O O12 0.142088 0.000000 0.220074
O O13 0.928198 0.665662 0.909906
O O14 0.500000 0.157565 0.500000
O O15 0.515349 0.055591 0.350608
O O16 0.407323 0.500000 0.115220
O O17 0.500000 0.594082 0.000000
#
# Coordination Sequence:
#
# PCOD9218130 Si02
#       8
#     8   8   8   8   8   8   8   2
#     4  12  23  43  69  97 130 179 223 274 331 398
#     4  11  24  40  67  97 131 171 220 272 344 397
#     4  12  23  41  65  95 134 171 216 274 332 396
#     4  11  26  43  62  95 137 174 213 267 339 409
#     4  11  22  43  67  95 135 169 214 284 330 393
#     4  10  24  42  67  94 127 173 230 275 321 381
#     4  11  23  39  67 100 131 175 225 270 330 408
#     4   8  24  44  64  90 128 176 230 276 310 380
#
# _framework density 20.066476000000002
#
# number of rings (size 3 to 8) (size 9 to 14) (size 15 to 20)
#    0.414    0.552    2.759    4.552    3.862    4.414 
#    0.000    0.000    1.517    0.828    0.000    0.000 
#    0.000    0.000    0.000    0.000    0.000    0.000 
#
# Total GULP energy -161723.421613 kJ/mol
# GULP energy per Si atom -5576.669711 kJ/mol
# Density = 2.002080 g / cm^3
# Si number density = 20.066476 Si / 1000 Ang^3
#
#
#
# Elastic Constant Matrix: (Units=GPa)
#
#
# Indices 1 2 3 4 5 6 
#
# 1 29.7637 19.8967 4.6934 0.0000 13.9509 0.0000
# 2 19.8967 115.7390 23.5425 0.0000 20.2406 0.0000
# 3 4.6934 23.5425 64.6568 0.0000 -9.3741 0.0000
# 4 0.0000 0.0000 0.0000 24.2501 0.0000 6.8587
# 5 13.9509 20.2406 -9.3741 0.0000 27.9840 0.0000
# 6 0.0000 0.0000 0.0000 6.8587 0.0000 29.5376
#
#
#
# Elastic Compliance Matrix: (Units=1/GPa)
#
#
# Indices 1 2 3 4 5 6 
#
# 1 0.047461 -0.002859 -0.005817 0.000000 -0.023542 0.000000
# 2 -0.002859 0.011779 -0.005371 0.000000 -0.008894 0.000000
# 3 -0.005817 -0.005371 0.019789 0.000000 0.013414 0.000000
# 4 0.000000 0.000000 0.000000 0.044136 0.000000 -0.010248
# 5 -0.023542 -0.008894 0.013414 0.000000 0.058398 0.000000
# 6 0.000000 0.000000 0.000000 -0.010248 0.000000 0.036235
#
#
# Mechanical properties :
#
#
# Convention : Reuss Voigt Hill
#
# Bulk Modulus (GPa) = 19.63282 34.04718 26.84000
# Shear Modulus (GPa) = 19.02081 27.15614 23.08848
#
# Velocity S-wave (km/s) = 3.08212 3.68273 3.39573
# Velocity P-wave (km/s) = 4.74037 5.92346 5.36463
#
# Compressibility (1/GPa) = 0.05093513
#
# Stress axis : x y z
#
# Youngs Moduli (GPa) = 21.07001 84.89325 50.53304
#
# Poissons Ratio (x) = 0.24268 0.29397
# Poissons Ratio (y) = 0.06023 0.27142
# Poissons Ratio (z) = 0.12257 0.45597
#
# Static dielectric constant tensor:
#      x y z
#    x 1.718040 0.000000 -0.010140 
#    y 0.000000 1.685820 0.000000 
#    z -0.010140 0.000000 1.761520 
# 
# From -- ./inp_files/106901.got.cif
#   From: 2010.05.17/outbox.cif.g08.bks.cpg/sg12_54_cif.got.tgz:106901.got - 2010.06.03 13:09:07.
