data_PCOD9218653
_publ_section_title
;
Structure prediction by ZEFSAII (Michael W. Deem and Ramdas Pophale) SiO2 
 PCOD9218653
Probable space group: C 2/M
;
_chemical_formula_sum "Si O2"
_cell_formula_units_Z 28
_cell_length_a 6.550414
_cell_length_b 17.824986
_cell_length_c 12.084790
_cell_angle_alpha 90.000000
_cell_angle_beta 114.670887
_cell_angle_gamma 90.000000
_cell_volume 1282.234109
_symmetry_space_group_name_H-M "C 2/M"
_symmetry_group_IT_number 12
_symmetry_cell_setting 'monoclinic'
loop_
_space_group_symop_operation_xyz
x,y,z
-x,y,-z
-x,-y,-z
x,-y,z
1/2+x,1/2+y,z
1/2-x,1/2+y,-z
1/2-x,1/2-y,-z
1/2+x,1/2-y,z
loop_
_atom_site_type_symbol
_atom_site_label
_atom_site_fract_x
_atom_site_fract_y
_atom_site_fract_z
Si Si1 0.000000 0.338204 0.500000
Si Si2 0.529022 0.414414 0.334711
Si Si3 0.889256 0.310424 0.715681
Si Si4 0.631329 0.341635 0.143396
O O1 0.777369 0.387202 0.426958
O O2 0.947065 0.293010 0.600244
O O3 0.492545 0.500000 0.358529
O O4 0.331876 0.360942 0.333421
O O5 0.527727 0.402820 0.201780
O O6 0.878642 0.237039 0.790252
O O7 0.103826 0.356167 0.810122
O O8 0.500000 0.334670 0.000000
#
# Coordination Sequence:
#
# PCOD9218653 Si02
#       4
#     4   8   8   8
#     4  10  25  44  68  96 139 170 224 270 333 398
#     4  11  25  44  67  99 136 176 217 272 337 393
#     4  11  23  41  70  99 128 176 222 271 326 389
#     4  11  24  44  70  97 135 174 224 272 328 393
#
# _framework density 21.836884999999999
#
# number of rings (size 3 to 8) (size 9 to 14) (size 15 to 20)
#    0.000    1.143    2.857    2.143    0.000   12.000 
#    0.000    1.429    0.000    0.000    0.000    0.000 
#    0.000    0.000    0.000    0.000    0.000    0.000 
#
# Total GULP energy -78291.090365 kJ/mol
# GULP energy per Si atom -5592.220740 kJ/mol
# Density = 2.178718 g / cm^3
# Si number density = 21.836885 Si / 1000 Ang^3
#
#
#
# Elastic Constant Matrix: (Units=GPa)
#
#
# Indices 1 2 3 4 5 6 
#
# 1 137.9734 44.0823 68.1853 0.0000 21.9349 0.0000
# 2 44.0823 96.4037 46.8836 0.0000 3.4307 0.0000
# 3 68.1853 46.8836 191.8488 0.0000 1.0861 0.0000
# 4 0.0000 0.0000 0.0000 7.5997 0.0000 -3.6183
# 5 21.9349 3.4307 1.0861 0.0000 31.0094 0.0000
# 6 0.0000 0.0000 0.0000 -3.6183 0.0000 16.2395
#
#
#
# Elastic Compliance Matrix: (Units=1/GPa)
#
#
# Indices 1 2 3 4 5 6 
#
# 1 0.010959 -0.003266 -0.003056 0.000000 -0.007284 0.000000
# 2 -0.003266 0.012790 -0.001970 0.000000 0.000964 0.000000
# 3 -0.003056 -0.001970 0.006768 0.000000 0.002142 0.000000
# 4 0.000000 0.000000 0.000000 0.147200 0.000000 0.032798
# 5 -0.007284 0.000964 0.002142 0.000000 0.037219 0.000000
# 6 0.000000 0.000000 0.000000 0.032798 0.000000 0.068886
#
#
# Mechanical properties :
#
#
# Convention : Reuss Voigt Hill
#
# Bulk Modulus (GPa) = 71.77005 82.72536 77.24770
# Shear Modulus (GPa) = 16.39066 28.77469 22.58268
#
# Velocity S-wave (km/s) = 2.74267 3.63397 3.21931
# Velocity P-wave (km/s) = 6.55496 7.45474 7.01928
#
# Compressibility (1/GPa) = 0.01393339
#
# Stress axis : x y z
#
# Youngs Moduli (GPa) = 91.24607 78.18334 147.75756
#
# Poissons Ratio (x) = 0.25535 0.45150
# Poissons Ratio (y) = 0.29802 0.29113
# Poissons Ratio (z) = 0.27882 0.15405
#
# Static dielectric constant tensor:
#      x y z
#    x 1.876850 0.000000 0.000490 
#    y 0.000000 1.762080 0.000000 
#    z 0.000490 0.000000 1.790140 
# 
# From -- ./inp_files/114578.got.cif
#   From: 2010.05.17/outbox.cif.g08.bks.cpg/sg12_58_cif.got.tgz:114578.got - 2010.06.03 13:09:07.
