data_PCOD9218330
_publ_section_title
;
Structure prediction by ZEFSAII (Michael W. Deem and Ramdas Pophale) SiO2 
 PCOD9218330
Probable space group: C 2/M
;
_chemical_formula_sum "Si O2"
_cell_formula_units_Z 32
_cell_length_a 18.463696
_cell_length_b 11.373315
_cell_length_c 15.195907
_cell_angle_alpha 90.000000
_cell_angle_beta 152.073709
_cell_angle_gamma 90.000000
_cell_volume 1494.476957
_symmetry_space_group_name_H-M "C 2/M"
_symmetry_group_IT_number 12
_symmetry_cell_setting 'monoclinic'
loop_
_space_group_symop_operation_xyz
x,y,z
-x,y,-z
-x,-y,-z
x,-y,z
1/2+x,1/2+y,z
1/2-x,1/2+y,-z
1/2-x,1/2-y,-z
1/2+x,1/2-y,z
loop_
_atom_site_type_symbol
_atom_site_label
_atom_site_fract_x
_atom_site_fract_y
_atom_site_fract_z
Si Si1 0.599914 0.000000 0.697008
Si Si2 0.974000 0.000000 0.075061
Si Si3 0.575646 0.783675 0.798324
Si Si4 0.635977 0.255619 0.293642
Si Si5 0.894973 0.861123 0.471702
O O1 0.500000 0.000000 0.500000
O O2 0.555048 0.887055 0.706301
O O3 0.787994 0.000000 0.890398
O O4 0.062214 0.116382 0.202560
O O5 0.000000 0.000000 0.000000
O O6 0.504767 0.818995 0.816871
O O7 0.496587 0.671525 0.666196
O O8 0.750000 0.750000 0.000000
O O9 0.750000 0.250000 0.500000
O O10 0.734311 0.209383 0.316332
O O11 0.000000 0.828075 0.500000
O O12 0.863416 0.000000 0.433391
#
# Coordination Sequence:
#
# PCOD9218330 Si02
#       5
#     4   4   8   8   8
#     4  12  28  46  74 110 145 192 240 293 361 428
#     4  12  28  46  70 110 150 183 242 306 347 428
#     4  11  24  42  71 101 142 181 236 295 352 424
#     4  10  25  42  71 101 142 184 236 287 364 416
#     4  10  24  44  69  96 138 184 232 285 358 427
#
# _framework density 21.412172999999999
#
# number of rings (size 3 to 8) (size 9 to 14) (size 15 to 20)
#    0.000    1.250    2.500    0.750   21.000    0.000 
#    0.000    0.625    0.000    3.750    0.000    0.000 
#    0.000    0.000    0.000    0.000    0.000    0.000 
#
# Total GULP energy -89232.355030 kJ/mol
# GULP energy per Si atom -5577.022189 kJ/mol
# Density = 2.136344 g / cm^3
# Si number density = 21.412173 Si / 1000 Ang^3
#
#
#
# Elastic Constant Matrix: (Units=GPa)
#
#
# Indices 1 2 3 4 5 6 
#
# 1 199.5025 69.2725 48.8027 0.0000 30.2562 0.0000
# 2 69.2725 117.4423 44.3337 0.0000 1.9684 0.0000
# 3 48.8027 44.3337 93.0804 0.0000 14.7765 0.0000
# 4 0.0000 0.0000 0.0000 27.1624 0.0000 -8.5176
# 5 30.2562 1.9684 14.7765 0.0000 46.4304 0.0000
# 6 0.0000 0.0000 0.0000 -8.5176 0.0000 28.0096
#
#
#
# Elastic Compliance Matrix: (Units=1/GPa)
#
#
# Indices 1 2 3 4 5 6 
#
# 1 0.007260 -0.003687 -0.001395 0.000000 -0.004131 0.000000
# 2 -0.003687 0.012317 -0.004457 0.000000 0.003299 0.000000
# 3 -0.001395 -0.004457 0.014138 0.000000 -0.003401 0.000000
# 4 0.000000 0.000000 0.000000 0.040696 0.000000 0.012376
# 5 -0.004131 0.003299 -0.003401 0.000000 0.025172 0.000000
# 6 0.000000 0.000000 0.000000 0.012376 0.000000 0.039465
#
#
# Mechanical properties :
#
#
# Convention : Reuss Voigt Hill
#
# Bulk Modulus (GPa) = 68.31879 81.64921 74.98400
# Shear Modulus (GPa) = 30.67398 36.82822 33.75110
#
# Velocity S-wave (km/s) = 3.78901 4.15175 3.97452
# Velocity P-wave (km/s) = 7.14968 7.82289 7.49385
#
# Compressibility (1/GPa) = 0.01463726
#
# Stress axis : x y z
#
# Youngs Moduli (GPa) = 137.73590 81.19145 70.73338
#
# Poissons Ratio (x) = 0.29932 0.09867
# Poissons Ratio (y) = 0.50778 0.31526
# Poissons Ratio (z) = 0.19213 0.36188
#
# Static dielectric constant tensor:
#      x y z
#    x 1.896650 0.000000 0.018690 
#    y 0.000000 1.634100 0.000000 
#    z 0.018690 0.000000 1.781070 
# 
# From -- ./inp_files/110619.got.cif
#   From: 2010.05.17/outbox.cif.g08.bks.cpg/sg12_56_cif.got.tgz:110619.got - 2010.06.03 13:09:07.
