data_PCOD9218887
_publ_section_title
;
Structure prediction by ZEFSAII (Michael W. Deem and Ramdas Pophale) SiO2 
 PCOD9218887
Probable space group: C 2/M
;
_chemical_formula_sum "Si O2"
_cell_formula_units_Z 48
_cell_length_a 10.277184
_cell_length_b 29.827801
_cell_length_c 19.357528
_cell_angle_alpha 90.000000
_cell_angle_beta 151.655386
_cell_angle_gamma 90.000000
_cell_volume 2817.292122
_symmetry_space_group_name_H-M "C 2/M"
_symmetry_group_IT_number 12
_symmetry_cell_setting 'monoclinic'
loop_
_space_group_symop_operation_xyz
x,y,z
-x,y,-z
-x,-y,-z
x,-y,z
1/2+x,1/2+y,z
1/2-x,1/2+y,-z
1/2-x,1/2-y,-z
1/2+x,1/2-y,z
loop_
_atom_site_type_symbol
_atom_site_label
_atom_site_fract_x
_atom_site_fract_y
_atom_site_fract_z
Si Si1 0.746389 0.053069 0.711626
Si Si2 0.105650 0.947789 0.370698
Si Si3 0.855768 0.788515 0.331006
Si Si4 0.732020 0.879016 0.829792
Si Si5 0.801491 0.111102 0.339746
Si Si6 0.458033 0.217266 0.682252
O O1 0.901142 0.066446 0.712927
O O2 0.422156 0.056365 0.542612
O O3 0.796553 0.087157 0.797414
O O4 0.801983 0.000000 0.752258
O O5 0.921864 0.922481 0.340069
O O6 0.035484 0.000000 0.338888
O O7 0.789466 0.840928 0.295820
O O8 0.636225 0.771247 0.284315
O O9 0.165362 0.787089 0.506414
O O10 0.867771 0.756698 0.270729
O O11 0.493731 0.900100 0.766579
O O12 0.607284 0.830867 0.748192
O O13 0.000000 0.870908 0.000000
O O14 0.000000 0.114756 0.500000
#
# Coordination Sequence:
#
# PCOD9218887 Si02
#       6
#     8   8   8   8   8   8
#     4   9  18  34  54  81 111 139 177 223 269 315
#     4   9  18  32  56  84 108 135 178 232 269 304
#     4   9  16  30  52  74 100 127 172 222 258 300
#     4  11  22  36  53  78 113 146 176 216 268 323
#     4  11  18  34  54  80 108 137 182 224 259 311
#     4   9  17  31  49  75 100 132 170 215 262 307
#
# _framework density 17.037635999999999
#
# number of rings (size 3 to 8) (size 9 to 14) (size 15 to 20)
#    0.000    2.333    5.000    1.000    0.000    2.667 
#    0.000    7.500    0.000    2.000    0.000    0.000 
#    0.000    0.000    0.000    0.000    0.000    0.000 
#
# Total GULP energy -133640.549539 kJ/mol
# GULP energy per Si atom -5568.356231 kJ/mol
# Density = 1.699886 g / cm^3
# Si number density = 17.037636 Si / 1000 Ang^3
#
#
#
# Elastic Constant Matrix: (Units=GPa)
#
#
# Indices 1 2 3 4 5 6 
#
# 1 139.0103 89.0172 31.2504 0.0001 -3.4669 0.0000
# 2 89.0172 79.2910 23.0068 0.0000 -10.4908 -0.0001
# 3 31.2504 23.0068 34.9161 0.0000 1.4210 0.0001
# 4 0.0001 0.0000 0.0000 6.0902 0.0001 0.9692
# 5 -3.4669 -10.4908 1.4210 0.0001 10.0255 0.0000
# 6 0.0000 -0.0001 0.0001 0.9692 0.0000 41.9166
#
#
#
# Elastic Compliance Matrix: (Units=1/GPa)
#
#
# Indices 1 2 3 4 5 6 
#
# 1 0.032228 -0.039783 -0.001399 0.000000 -0.030286 0.000000
# 2 -0.039783 0.068704 -0.012100 -0.000001 0.059851 0.000000
# 3 -0.001399 -0.012100 0.038622 0.000000 -0.018619 0.000000
# 4 0.000000 -0.000001 0.000000 0.164803 -0.000002 -0.003811
# 5 -0.030286 0.059851 -0.018619 -0.000002 0.154540 0.000000
# 6 0.000000 0.000000 0.000000 -0.003811 0.000000 0.023945
#
#
# Mechanical properties :
#
#
# Convention : Reuss Voigt Hill
#
# Bulk Modulus (GPa) = 30.31021 59.97404 45.14213
# Shear Modulus (GPa) = 8.32773 18.93602 13.63187
#
# Velocity S-wave (km/s) = 2.21325 3.33742 2.83168
# Velocity P-wave (km/s) = 4.93559 7.08015 6.10281
#
# Compressibility (1/GPa) = 0.03299218
#
# Stress axis : x y z
#
# Youngs Moduli (GPa) = 31.02857 14.55514 25.89171
#
# Poissons Ratio (x) = 0.57905 0.03621
# Poissons Ratio (y) = 1.23441 0.31329
# Poissons Ratio (z) = 0.04340 0.17612
#
# Static dielectric constant tensor:
#      x y z
#    x 1.589610 0.000000 -0.000810 
#    y 0.000000 1.573300 0.000000 
#    z -0.000810 0.000000 1.568250 
# 
# From -- ./inp_files/260414.got.cif
#   From: 2010.05.17/outbox.cif.g08.bks.cpg/sg12_131_cif.got.tgz:260414.got - 2010.06.03 13:09:07.
