data_PCOD9218745
_publ_section_title
;
Structure prediction by ZEFSAII (Michael W. Deem and Ramdas Pophale) SiO2 
 PCOD9218745
Probable space group: C 2/M
;
_chemical_formula_sum "Si O2"
_cell_formula_units_Z 58
_cell_length_a 18.751015
_cell_length_b 27.148614
_cell_length_c 5.545703
_cell_angle_alpha 90.000000
_cell_angle_beta 111.038176
_cell_angle_gamma 90.000000
_cell_volume 2634.933141
_symmetry_space_group_name_H-M "C 2/M"
_symmetry_group_IT_number 12
_symmetry_cell_setting 'monoclinic'
loop_
_space_group_symop_operation_xyz
x,y,z
-x,y,-z
-x,-y,-z
x,-y,z
1/2+x,1/2+y,z
1/2-x,1/2+y,-z
1/2-x,1/2-y,-z
1/2+x,1/2-y,z
loop_
_atom_site_type_symbol
_atom_site_label
_atom_site_fract_x
_atom_site_fract_y
_atom_site_fract_z
Si Si1 0.000000 0.500000 0.000000
Si Si2 0.206767 0.107744 0.604763
Si Si3 0.422766 0.663363 0.804953
Si Si4 0.071447 0.737580 0.436271
Si Si5 0.930947 0.589761 0.231412
Si Si6 0.738295 0.940975 0.829083
Si Si7 0.358250 0.169935 0.807004
Si Si8 0.167253 0.229844 0.963804
O O1 0.956174 0.542875 0.105135
O O2 0.123694 0.130332 0.443560
O O3 0.228872 0.076307 0.391067
O O4 0.272353 0.150155 0.696810
O O5 0.218646 0.080183 0.877493
O O6 0.455861 0.715689 0.752342
O O7 0.500000 0.637930 0.000000
O O8 0.356672 0.681294 0.917585
O O9 0.111695 0.686176 0.415612
O O10 0.130084 0.769099 0.661947
O O11 0.000000 0.721239 0.500000
O O12 0.850081 0.577262 0.263081
O O13 0.000000 0.599115 0.500000
O O14 0.910637 0.633020 0.018838
O O15 0.739525 0.000000 0.842273
O O16 0.365826 0.223974 0.929820
O O17 0.250000 0.250000 0.000000
#
# Coordination Sequence:
#
# PCOD9218745 Si02
#       8
#     2   8   8   8   8   8   8   8
#     4  12  26  44  64  98 132 188 240 318 354 416
#     4  11  26  45  75 104 135 183 236 291 360 419
#     4  11  24  44  67 105 137 179 236 290 355 428
#     4  11  23  41  63  93 139 186 233 286 351 406
#     4  11  27  43  66  96 140 186 243 297 362 415
#     4  11  26  49  74 102 140 180 234 294 359 437
#     4  10  26  43  60  98 137 188 242 291 340 420
#     4  11  23  40  68  93 138 187 230 290 341 411
#
# _framework density 22.011944
#
# number of rings (size 3 to 8) (size 9 to 14) (size 15 to 20)
#    0.000    1.103    2.069    2.276   13.517    3.862 
#    0.000    0.000    0.000    2.483    0.000    0.000 
#    0.000    0.000    0.000    0.000    0.000    0.000 
#
# Total GULP energy -161449.529119 kJ/mol
# GULP energy per Si atom -5567.225142 kJ/mol
# Density = 2.196184 g / cm^3
# Si number density = 22.011944 Si / 1000 Ang^3
#
#
#
# Elastic Constant Matrix: (Units=GPa)
#
#
# Indices 1 2 3 4 5 6 
#
# 1 34.2665 6.3039 8.3807 0.0000 14.7791 0.0000
# 2 6.3039 91.6265 29.1530 0.0000 2.4569 0.0000
# 3 8.3807 29.1530 126.4133 0.0000 34.7889 0.0000
# 4 0.0000 0.0000 0.0000 27.5029 0.0000 -13.3909
# 5 14.7791 2.4569 34.7889 0.0000 35.7398 0.0000
# 6 0.0000 0.0000 0.0000 -13.3909 0.0000 24.7254
#
#
#
# Elastic Compliance Matrix: (Units=1/GPa)
#
#
# Indices 1 2 3 4 5 6 
#
# 1 0.036797 -0.003087 0.003280 0.000000 -0.018197 0.000000
# 2 -0.003087 0.012204 -0.003729 0.000000 0.004068 0.000000
# 3 0.003280 -0.003729 0.012096 0.000000 -0.012874 0.000000
# 4 0.000000 0.000000 0.000000 0.049381 0.000000 0.026744
# 5 -0.018197 0.004068 -0.012874 0.000000 0.047757 0.000000
# 6 0.000000 0.000000 0.000000 0.026744 0.000000 0.054929
#
#
# Mechanical properties :
#
#
# Convention : Reuss Voigt Hill
#
# Bulk Modulus (GPa) = 18.51007 37.77571 28.14289
# Shear Modulus (GPa) = 20.98683 31.49153 26.23918
#
# Velocity S-wave (km/s) = 3.09111 3.78651 3.45634
# Velocity P-wave (km/s) = 4.60080 6.02624 5.36110
#
# Compressibility (1/GPa) = 0.05402464
#
# Stress axis : x y z
#
# Youngs Moduli (GPa) = 27.17603 81.94224 82.67107
#
# Poissons Ratio (x) = 0.25299 -0.27119
# Poissons Ratio (y) = 0.08390 0.30829
# Poissons Ratio (z) = -0.08915 0.30557
#
# Static dielectric constant tensor:
#      x y z
#    x -3.160070 0.000000 2.452590 
#    y 0.000000 1.778140 0.000000 
#    z 2.452590 0.000000 0.781770 
# 
# From -- ./inp_files/22479.got.cif
#   From: 2010.05.17/outbox.cif.g08.bks.cpg/sg12_12_cif.got.tgz:22479.got - 2010.06.03 13:09:07.
