data_PCOD9218866
_publ_section_title
;
Structure prediction by ZEFSAII (Michael W. Deem and Ramdas Pophale) SiO2 
 PCOD9218866
Probable space group: C 2/M
;
_chemical_formula_sum "Si O2"
_cell_formula_units_Z 48
_cell_length_a 10.587342
_cell_length_b 27.206966
_cell_length_c 7.841166
_cell_angle_alpha 90.000000
_cell_angle_beta 73.411204
_cell_angle_gamma 90.000000
_cell_volume 2164.635273
_symmetry_space_group_name_H-M "C 2/M"
_symmetry_group_IT_number 12
_symmetry_cell_setting 'monoclinic'
loop_
_space_group_symop_operation_xyz
x,y,z
-x,y,-z
-x,-y,-z
x,-y,z
1/2+x,1/2+y,z
1/2-x,1/2+y,-z
1/2-x,1/2-y,-z
1/2+x,1/2-y,z
loop_
_atom_site_type_symbol
_atom_site_label
_atom_site_fract_x
_atom_site_fract_y
_atom_site_fract_z
Si Si1 0.084448 0.298662 0.137968
Si Si2 0.189156 0.848674 0.788918
Si Si3 0.065236 0.944684 0.742327
Si Si4 0.672995 0.408245 0.330489
Si Si5 0.898196 0.370074 0.415889
Si Si6 0.447477 0.301104 0.703399
O O1 0.981046 0.325803 0.303911
O O2 0.126258 0.245180 0.189520
O O3 0.217144 0.331305 0.094761
O O4 0.000000 0.294947 0.000000
O O5 0.128093 0.902648 0.834783
O O6 0.283334 0.850335 0.585014
O O7 0.067825 0.814125 0.784012
O O8 0.123252 0.930171 0.532090
O O9 0.907988 0.939091 0.776382
O O10 0.099152 0.000000 0.775110
O O11 0.828715 0.402626 0.297491
O O12 0.623858 0.352403 0.312808
O O13 0.000000 0.398238 0.500000
O O14 0.500000 0.283884 0.500000
#
# Coordination Sequence:
#
# PCOD9218866 Si02
#       6
#     8   8   8   8   8   8
#     4  11  25  35  47  72 110 152 187 216 256 303
#     4   9  19  36  53  81 106 136 184 212 262 326
#     4   9  15  29  57  87 109 125 158 228 283 309
#     4   9  15  28  49  81 109 130 166 207 262 325
#     4   9  17  33  51  70 102 143 178 214 252 307
#     4  11  18  32  55  74 106 143 176 215 258 314
#
# _framework density 22.174637000000001
#
# number of rings (size 3 to 8) (size 9 to 14) (size 15 to 20)
#    0.000    2.333    5.000    2.500    2.333    2.000 
#    0.000    0.000    0.000   42.000    0.000    1.167 
#    0.000    0.000    0.000    0.000    0.000    0.000 
#
# Total GULP energy -133884.221149 kJ/mol
# GULP energy per Si atom -5578.509215 kJ/mol
# Density = 2.212417 g / cm^3
# Si number density = 22.174637 Si / 1000 Ang^3
#
#
#
# Elastic Constant Matrix: (Units=GPa)
#
#
# Indices 1 2 3 4 5 6 
#
# 1 102.0979 48.9539 14.0883 0.0000 27.5451 0.0000
# 2 48.9539 131.9163 26.4602 0.0000 18.6864 0.0000
# 3 14.0883 26.4602 76.2249 0.0000 9.3122 0.0000
# 4 0.0000 0.0000 0.0000 1.0693 0.0000 1.4012
# 5 27.5451 18.6864 9.3122 0.0000 34.5441 0.0000
# 6 0.0000 0.0000 0.0000 1.4012 0.0000 10.3608
#
#
#
# Elastic Compliance Matrix: (Units=1/GPa)
#
#
# Indices 1 2 3 4 5 6 
#
# 1 0.014163 -0.003935 -0.000136 0.000000 -0.009128 0.000000
# 2 -0.003935 0.009745 -0.002476 0.000000 -0.001466 0.000000
# 3 -0.000136 -0.002476 0.014298 0.000000 -0.002406 0.000000
# 4 0.000000 0.000000 0.000000 1.136597 0.000000 -0.153709
# 5 -0.009128 -0.001466 -0.002406 0.000000 0.037668 0.000000
# 6 0.000000 0.000000 0.000000 -0.153709 0.000000 0.117305
#
#
# Mechanical properties :
#
#
# Convention : Reuss Voigt Hill
#
# Bulk Modulus (GPa) = 39.82568 54.36043 47.09306
# Shear Modulus (GPa) = 3.70030 23.91061 13.80545
#
# Velocity S-wave (km/s) = 1.29319 3.28729 2.49786
# Velocity P-wave (km/s) = 4.49764 6.24310 5.44082
#
# Compressibility (1/GPa) = 0.02510942
#
# Stress axis : x y z
#
# Youngs Moduli (GPa) = 70.60699 102.61227 69.94039
#
# Poissons Ratio (x) = 0.40383 0.00954
# Poissons Ratio (y) = 0.27787 0.17321
# Poissons Ratio (z) = 0.00963 0.25412
#
# Static dielectric constant tensor:
#      x y z
#    x 1.864250 0.000000 0.015900 
#    y 0.000000 1.770110 0.000000 
#    z 0.015900 0.000000 1.894940 
# 
# From -- ./inp_files/50701.got.cif
#   From: 2010.05.17/outbox.cif.g08.bks.cpg/sg12_26_cif.got.tgz:50701.got - 2010.06.03 13:09:07.
