data_PCOD9218476
_publ_section_title
;
Structure prediction by ZEFSAII (Michael W. Deem and Ramdas Pophale) SiO2 
 PCOD9218476
Probable space group: C 2/M
;
_chemical_formula_sum "Si O2"
_cell_formula_units_Z 40
_cell_length_a 9.094165
_cell_length_b 28.600668
_cell_length_c 8.267254
_cell_angle_alpha 90.000000
_cell_angle_beta 59.766059
_cell_angle_gamma 90.000000
_cell_volume 1857.814305
_symmetry_space_group_name_H-M "C 2/M"
_symmetry_group_IT_number 12
_symmetry_cell_setting 'monoclinic'
loop_
_space_group_symop_operation_xyz
x,y,z
-x,y,-z
-x,-y,-z
x,-y,z
1/2+x,1/2+y,z
1/2-x,1/2+y,-z
1/2-x,1/2-y,-z
1/2+x,1/2-y,z
loop_
_atom_site_type_symbol
_atom_site_label
_atom_site_fract_x
_atom_site_fract_y
_atom_site_fract_z
Si Si1 0.315889 0.403031 0.922281
Si Si2 0.500000 0.729763 0.500000
Si Si3 0.653378 0.187261 0.623284
Si Si4 0.500000 0.851563 0.000000
Si Si5 0.203345 0.500000 0.856751
Si Si6 0.796036 0.105195 0.315484
Si Si7 0.811595 0.500000 0.523530
O O1 0.168433 0.381582 0.896856
O O2 0.297077 0.456983 0.889542
O O3 0.502822 0.385413 0.775620
O O4 0.271954 0.393444 0.134532
O O5 0.422835 0.766040 0.413817
O O6 0.331499 0.698332 0.617865
O O7 0.692768 0.144527 0.475164
O O8 0.506598 0.176122 0.832204
O O9 0.210451 0.500000 0.658451
O O10 0.000000 0.500000 0.000000
O O11 0.761223 0.051058 0.383856
O O12 0.000000 0.500000 0.500000
#
# Coordination Sequence:
#
# PCOD9218476 Si02
#       7
#     8   4   8   4   4   8   4
#     4  11  24  41  66  96 136 183 227 280 332 393
#     4  10  24  46  70  96 128 178 222 280 348 400
#     4  11  24  44  70  98 135 172 224 282 338 409
#     4  12  24  39  68 102 130 178 222 277 342 404
#     4  12  23  40  59  95 139 176 236 277 315 394
#     4  11  25  45  67 100 139 179 227 279 338 397
#     4  12  27  40  69 102 136 188 226 271 337 401
#
# _framework density 21.530676
#
# number of rings (size 3 to 8) (size 9 to 14) (size 15 to 20)
#    0.000    0.800    1.000    6.000    4.200    5.600 
#    0.000    8.000    0.000    0.000    0.000    0.000 
#    0.000    0.000    0.000    0.000    0.000    0.000 
#
# Total GULP energy -111525.513851 kJ/mol
# GULP energy per Si atom -5576.275693 kJ/mol
# Density = 2.148167 g / cm^3
# Si number density = 21.530676 Si / 1000 Ang^3
#
#
#
# Elastic Constant Matrix: (Units=GPa)
#
#
# Indices 1 2 3 4 5 6 
#
# 1 92.8459 9.1565 -2.4732 0.0000 -1.3845 0.0000
# 2 9.1565 97.5592 33.6148 0.0000 -0.2803 0.0000
# 3 -2.4732 33.6148 87.7095 0.0000 0.2295 0.0000
# 4 0.0000 0.0000 0.0000 30.5110 0.0000 2.3440
# 5 -1.3845 -0.2803 0.2295 0.0000 18.9185 0.0000
# 6 0.0000 0.0000 0.0000 2.3440 0.0000 44.6418
#
#
#
# Elastic Compliance Matrix: (Units=1/GPa)
#
#
# Indices 1 2 3 4 5 6 
#
# 1 0.010932 -0.001301 0.000805 0.000000 0.000771 0.000000
# 2 -0.001301 0.011966 -0.004623 0.000000 0.000138 0.000000
# 3 0.000805 -0.004623 0.013196 0.000000 -0.000170 0.000000
# 4 0.000000 0.000000 0.000000 0.032908 0.000000 -0.001728
# 5 0.000771 0.000138 -0.000170 0.000000 0.052919 0.000000
# 6 0.000000 0.000000 0.000000 -0.001728 0.000000 0.022491
#
#
# Mechanical properties :
#
#
# Convention : Reuss Voigt Hill
#
# Bulk Modulus (GPa) = 38.67683 39.85675 39.26679
# Shear Modulus (GPa) = 30.62452 34.66870 32.64661
#
# Velocity S-wave (km/s) = 3.77552 4.01708 3.89817
# Velocity P-wave (km/s) = 6.08347 6.32991 6.20791
#
# Compressibility (1/GPa) = 0.02585527
#
# Stress axis : x y z
#
# Youngs Moduli (GPa) = 91.47631 83.57324 75.77979
#
# Poissons Ratio (x) = 0.10874 -0.06099
# Poissons Ratio (y) = 0.11902 0.35032
# Poissons Ratio (z) = -0.07363 0.38635
#
# Static dielectric constant tensor:
#      x y z
#    x 1.843550 0.000000 -0.012100 
#    y 0.000000 1.868950 0.000000 
#    z -0.012100 0.000000 1.795170 
# 
# From -- ./inp_files/41508.got.cif
#   From: 2010.05.17/outbox.cif.g08.bks.cpg/sg12_21_cif.got.tgz:41508.got - 2010.06.03 13:09:07.
