data_PCOD9218109
_publ_section_title
;
Structure prediction by ZEFSAII (Michael W. Deem and Ramdas Pophale) SiO2 
 PCOD9218109
Probable space group: C 2/M
;
_chemical_formula_sum "Si O2"
_cell_formula_units_Z 52
_cell_length_a 21.879799
_cell_length_b 19.361400
_cell_length_c 5.382419
_cell_angle_alpha 90.000000
_cell_angle_beta 97.063239
_cell_angle_gamma 90.000000
_cell_volume 2262.815649
_symmetry_space_group_name_H-M "C 2/M"
_symmetry_group_IT_number 12
_symmetry_cell_setting 'monoclinic'
loop_
_space_group_symop_operation_xyz
x,y,z
-x,y,-z
-x,-y,-z
x,-y,z
1/2+x,1/2+y,z
1/2-x,1/2+y,-z
1/2-x,1/2-y,-z
1/2+x,1/2-y,z
loop_
_atom_site_type_symbol
_atom_site_label
_atom_site_fract_x
_atom_site_fract_y
_atom_site_fract_z
Si Si1 0.214798 0.897475 0.887139
Si Si2 0.065489 0.835971 0.466282
Si Si3 0.413631 0.578919 0.014251
Si Si4 0.262387 0.000000 0.558992
Si Si5 0.332412 0.899118 0.253329
Si Si6 0.026345 0.580363 0.764458
Si Si7 0.688871 0.258181 0.634194
O O1 0.160763 0.920730 0.040903
O O2 0.207220 0.816221 0.844473
O O3 0.213879 0.939336 0.631096
O O4 0.280096 0.920098 0.030614
O O5 0.075425 0.885668 0.711580
O O6 0.126260 0.788215 0.479398
O O7 0.000000 0.800518 0.500000
O O8 0.060863 0.878470 0.206934
O O9 0.434227 0.500000 0.024412
O O10 0.311158 0.060351 0.486975
O O11 0.400359 0.918226 0.204830
O O12 0.327610 0.817201 0.277322
O O13 0.005235 0.500000 0.754228
O O14 0.000000 0.612530 0.500000
O O15 0.000000 0.613675 0.000000
O O16 0.750000 0.250000 0.500000
#
# Coordination Sequence:
#
# PCOD9218109 Si02
#       7
#     8   8   8   4   8   8   8
#     4  11  25  41  68 105 140 177 224 292 355 415
#     4  11  26  46  68 101 144 188 237 291 348 421
#     4  11  24  42  73 104 142 184 235 290 352 417
#     4  12  24  40  70 105 139 169 238 286 360 414
#     4  12  25  42  71 100 138 182 230 291 357 422
#     4  10  24  42  65  96 136 178 230 286 345 414
#     4  11  24  46  70 101 141 184 234 286 354 423
#
# _framework density 22.980219999999999
#
# number of rings (size 3 to 8) (size 9 to 14) (size 15 to 20)
#    0.000    0.923    3.077    2.769    4.308    3.692 
#    0.000    3.077    0.000    0.000    0.000    0.000 
#    0.000    0.000    0.000    0.000    0.000    0.000 
#
# Total GULP energy -144853.225933 kJ/mol
# GULP energy per Si atom -5571.277921 kJ/mol
# Density = 2.292792 g / cm^3
# Si number density = 22.980220 Si / 1000 Ang^3
#
#
#
# Elastic Constant Matrix: (Units=GPa)
#
#
# Indices 1 2 3 4 5 6 
#
# 1 149.3605 6.4725 51.4302 0.0000 -20.0994 0.0000
# 2 6.4725 131.0738 11.6457 0.0000 -10.6567 0.0000
# 3 51.4302 11.6457 92.9328 0.0000 -21.9812 0.0000
# 4 0.0000 0.0000 0.0000 7.7263 0.0000 -17.2234
# 5 -20.0994 -10.6567 -21.9812 0.0000 43.4697 0.0000
# 6 0.0000 0.0000 0.0000 -17.2234 0.0000 27.3720
#
#
#
# Elastic Compliance Matrix: (Units=1/GPa)
#
#
# Indices 1 2 3 4 5 6 
#
# 1 0.008387 0.000106 -0.004238 0.000000 0.001761 0.000000
# 2 0.000106 0.007815 -0.000651 0.000000 0.001636 0.000000
# 3 -0.004238 -0.000651 0.014410 0.000000 0.005167 0.000000
# 4 0.000000 0.000000 0.000000 -0.321412 0.000000 -0.202243
# 5 0.001761 0.001636 0.005167 0.000000 0.026833 0.000000
# 6 0.000000 0.000000 0.000000 -0.202243 0.000000 -0.090725
#
#
# Mechanical properties :
#
#
# Convention : Reuss Voigt Hill
#
# Bulk Modulus (GPa) = 47.51849 56.94045 52.22947
# Shear Modulus (GPa) = -14.78805 35.96818 10.59006
#
# Velocity S-wave (km/s) = -2.53951 3.96053 2.14903
# Velocity P-wave (km/s) = 3.48197 6.76359 5.37914
#
# Compressibility (1/GPa) = 0.02104444
#
# Stress axis : x y z
#
# Youngs Moduli (GPa) = 119.23292 127.96104 69.39762
#
# Poissons Ratio (x) = -0.01351 0.29412
# Poissons Ratio (y) = -0.01259 0.04517
# Poissons Ratio (z) = 0.50534 0.08329
#
# Static dielectric constant tensor:
#      x y z
#    x 1.889050 0.000000 0.066510 
#    y 0.000000 1.823580 0.000000 
#    z 0.066510 0.000000 1.969750 
# 
# From -- ./inp_files/21211.got.cif
#   From: 2010.05.17/outbox.cif.g08.bks.cpg/sg12_11_cif.got.tgz:21211.got - 2010.06.03 13:09:07.
