data_PCOD9218078
_publ_section_title
;
Structure prediction by ZEFSAII (Michael W. Deem and Ramdas Pophale) SiO2 
 PCOD9218078
Probable space group: C 2/M
;
_chemical_formula_sum "Si O2"
_cell_formula_units_Z 52
_cell_length_a 17.906982
_cell_length_b 18.942124
_cell_length_c 7.954616
_cell_angle_alpha 90.000000
_cell_angle_beta 95.431967
_cell_angle_gamma 90.000000
_cell_volume 2686.059415
_symmetry_space_group_name_H-M "C 2/M"
_symmetry_group_IT_number 12
_symmetry_cell_setting 'monoclinic'
loop_
_space_group_symop_operation_xyz
x,y,z
-x,y,-z
-x,-y,-z
x,-y,z
1/2+x,1/2+y,z
1/2-x,1/2+y,-z
1/2-x,1/2-y,-z
1/2+x,1/2-y,z
loop_
_atom_site_type_symbol
_atom_site_label
_atom_site_fract_x
_atom_site_fract_y
_atom_site_fract_z
Si Si1 0.532205 0.277281 0.319196
Si Si2 0.726949 0.500000 0.234576
Si Si3 0.113231 0.150068 0.831463
Si Si4 0.324876 0.000000 0.587234
Si Si5 0.809001 0.000000 0.169161
Si Si6 0.426303 0.865703 0.583390
Si Si7 0.671388 0.651769 0.216139
Si Si8 0.807319 0.270081 0.364150
O O1 0.500000 0.276810 0.500000
O O2 0.472786 0.325298 0.207837
O O3 0.544678 0.194265 0.278375
O O4 0.613525 0.312112 0.329801
O O5 0.795949 0.500000 0.384461
O O6 0.681068 0.570438 0.263150
O O7 0.731087 0.500000 0.027559
O O8 0.160351 0.202410 0.722712
O O9 0.138693 0.069551 0.803233
O O10 0.135661 0.162601 0.027663
O O11 0.375652 0.069275 0.631033
O O12 0.253882 0.000000 0.698245
O O13 0.500000 0.891396 0.500000
O O14 0.372628 0.820193 0.448272
O O15 0.753808 0.684967 0.231152
O O16 0.750000 0.250000 0.500000
#
# Coordination Sequence:
#
# PCOD9218078 Si02
#       8
#     8   4   8   4   4   8   8   8
#     4  11  22  40  63  91 131 165 214 266 309 393
#     4  10  24  42  62 102 132 159 228 272 314 397
#     4  11  23  42  61  93 133 168 208 272 328 380
#     4  12  23  42  74  91 129 184 208 267 343 376
#     4  10  26  42  66 102 131 167 222 271 322 393
#     4  11  22  40  65  95 130 165 222 266 318 393
#     4  11  23  39  63  93 127 172 211 267 329 378
#     4  12  20  37  65  91 122 166 220 268 308 385
#
# _framework density 19.359214999999999
#
# number of rings (size 3 to 8) (size 9 to 14) (size 15 to 20)
#    0.000    0.923    6.154    2.077    2.154    0.615 
#    0.000    3.077    0.000    0.923    0.000    0.000 
#    0.000    0.000    0.000    0.000    0.000    0.000 
#
# Total GULP energy -144985.946867 kJ/mol
# GULP energy per Si atom -5576.382572 kJ/mol
# Density = 1.931515 g / cm^3
# Si number density = 19.359215 Si / 1000 Ang^3
#
#
#
# Elastic Constant Matrix: (Units=GPa)
#
#
# Indices 1 2 3 4 5 6 
#
# 1 123.1207 49.8319 33.8919 0.0000 11.1364 0.0000
# 2 49.8319 137.4848 35.5600 0.0000 -3.0701 0.0000
# 3 33.8919 35.5600 44.9006 0.0000 7.3842 0.0000
# 4 0.0000 0.0000 0.0000 26.1732 0.0000 5.7820
# 5 11.1364 -3.0701 7.3842 0.0000 30.7004 0.0000
# 6 0.0000 0.0000 0.0000 5.7820 0.0000 39.1624
#
#
#
# Elastic Compliance Matrix: (Units=1/GPa)
#
#
# Indices 1 2 3 4 5 6 
#
# 1 0.011016 -0.002549 -0.005828 0.000000 -0.002849 0.000000
# 2 -0.002549 0.009969 -0.006546 0.000000 0.003496 0.000000
# 3 -0.005828 -0.006546 0.032916 0.000000 -0.006458 0.000000
# 4 0.000000 0.000000 0.000000 0.039495 0.000000 -0.005831
# 5 -0.002849 0.003496 -0.006458 0.000000 0.035509 0.000000
# 6 0.000000 0.000000 0.000000 -0.005831 0.000000 0.026396
#
#
# Mechanical properties :
#
#
# Convention : Reuss Voigt Hill
#
# Bulk Modulus (GPa) = 41.56981 60.45263 51.01122
# Shear Modulus (GPa) = 25.88479 31.62201 28.75340
#
# Velocity S-wave (km/s) = 3.66058 4.04596 3.85808
# Velocity P-wave (km/s) = 6.27582 7.28842 6.80099
#
# Compressibility (1/GPa) = 0.02405592
#
# Stress axis : x y z
#
# Youngs Moduli (GPa) = 90.77963 100.31593 30.38018
#
# Poissons Ratio (x) = 0.25571 0.17704
# Poissons Ratio (y) = 0.23140 0.19886
# Poissons Ratio (z) = 0.52903 0.65663
#
# Static dielectric constant tensor:
#      x y z
#    x 1.677450 0.000000 0.031850 
#    y 0.000000 1.700720 0.000000 
#    z 0.031850 0.000000 1.714510 
# 
# From -- ./inp_files/75339.got.cif
#   From: 2010.05.17/outbox.cif.g08.bks.cpg/sg12_38_cif.got.tgz:75339.got - 2010.06.03 13:09:07.
