data_PCOD9218271
_publ_section_title
;
Structure prediction by ZEFSAII (Michael W. Deem and Ramdas Pophale) SiO2 
 PCOD9218271
Probable space group: C 2/M
;
_chemical_formula_sum "Si O2"
_cell_formula_units_Z 48
_cell_length_a 18.513865
_cell_length_b 18.059007
_cell_length_c 14.691828
_cell_angle_alpha 90.000000
_cell_angle_beta 149.842362
_cell_angle_gamma 90.000000
_cell_volume 2467.742435
_symmetry_space_group_name_H-M "C 2/M"
_symmetry_group_IT_number 12
_symmetry_cell_setting 'monoclinic'
loop_
_space_group_symop_operation_xyz
x,y,z
-x,y,-z
-x,-y,-z
x,-y,z
1/2+x,1/2+y,z
1/2-x,1/2+y,-z
1/2-x,1/2-y,-z
1/2+x,1/2-y,z
loop_
_atom_site_type_symbol
_atom_site_label
_atom_site_fract_x
_atom_site_fract_y
_atom_site_fract_z
Si Si1 0.629686 0.587279 0.070484
Si Si2 0.542223 0.911994 0.796943
Si Si3 0.827859 0.830551 0.076176
Si Si4 0.886842 0.657203 0.455742
Si Si5 0.911987 0.821711 0.498781
Si Si6 0.876107 0.410861 0.795008
O O1 0.626628 0.500000 0.039924
O O2 0.767023 0.605284 0.282229
O O3 0.500000 0.601193 0.000000
O O4 0.638035 0.639595 0.989397
O O5 0.471955 0.879663 0.630157
O O6 0.439534 0.887897 0.766921
O O7 0.542983 0.000000 0.794310
O O8 0.705306 0.884387 0.982959
O O9 0.971842 0.830390 0.293553
O O10 0.750000 0.750000 0.000000
O O11 0.839969 0.740228 0.429480
O O12 0.000000 0.669802 0.500000
O O13 0.780630 0.878492 0.358364
O O14 0.000000 0.828805 0.500000
O O15 0.867778 0.500000 0.789557
O O16 0.000000 0.386802 0.000000
#
# Coordination Sequence:
#
# PCOD9218271 Si02
#       6
#     8   8   8   8   8   8
#     4  11  26  44  67 100 139 178 221 278 340 407
#     4  11  23  40  67  93 127 176 220 272 330 398
#     4  12  23  43  66  97 138 174 224 279 334 406
#     4  11  22  42  65  96 130 170 220 267 329 404
#     4  11  24  42  68  97 132 175 221 280 343 397
#     4  10  24  44  64  93 129 172 227 276 330 399
#
# _framework density 19.450977000000002
#
# number of rings (size 3 to 8) (size 9 to 14) (size 15 to 20)
#    0.000    1.000    3.333    3.000    2.333    5.000 
#    0.000    0.000    0.000    0.000    0.000    0.000 
#    0.000    0.000    0.000    0.000    0.000    0.000 
#
# Total GULP energy -133994.563733 kJ/mol
# GULP energy per Si atom -5583.106822 kJ/mol
# Density = 1.940671 g / cm^3
# Si number density = 19.450977 Si / 1000 Ang^3
#
#
#
# Elastic Constant Matrix: (Units=GPa)
#
#
# Indices 1 2 3 4 5 6 
#
# 1 106.7551 58.9127 50.5770 0.0000 2.2493 0.0000
# 2 58.9127 67.8342 33.5329 0.0000 -1.9204 0.0000
# 3 50.5770 33.5329 124.0080 0.0000 -6.0594 0.0000
# 4 0.0000 0.0000 0.0000 27.1281 0.0000 -19.2787
# 5 2.2493 -1.9204 -6.0594 0.0000 32.5260 0.0000
# 6 0.0000 0.0000 0.0000 -19.2787 0.0000 37.2443
#
#
#
# Elastic Compliance Matrix: (Units=1/GPa)
#
#
# Indices 1 2 3 4 5 6 
#
# 1 0.019783 -0.015242 -0.004095 0.000000 -0.003031 0.000000
# 2 -0.015242 0.028761 -0.001439 0.000000 0.002484 0.000000
# 3 -0.004095 -0.001439 0.010226 0.000000 0.002103 0.000000
# 4 0.000000 0.000000 0.000000 0.058313 0.000000 0.030185
# 5 -0.003031 0.002484 0.002103 0.000000 0.031493 0.000000
# 6 0.000000 0.000000 0.000000 0.030185 0.000000 0.042474
#
#
# Mechanical properties :
#
#
# Convention : Reuss Voigt Hill
#
# Bulk Modulus (GPa) = 58.08210 64.96028 61.52119
# Shear Modulus (GPa) = 20.97827 29.75133 25.36480
#
# Velocity S-wave (km/s) = 3.28765 3.91519 3.61506
# Velocity P-wave (km/s) = 6.65861 7.34219 7.00874
#
# Compressibility (1/GPa) = 0.01721701
#
# Stress axis : x y z
#
# Youngs Moduli (GPa) = 50.54955 34.76884 97.78964
#
# Poissons Ratio (x) = 0.52996 0.40043
# Poissons Ratio (y) = 0.77050 0.14075
# Poissons Ratio (z) = 0.20699 0.05004
#
# Static dielectric constant tensor:
#      x y z
#    x 1.732290 0.000000 0.045820 
#    y 0.000000 1.699150 0.000000 
#    z 0.045820 0.000000 1.680820 
# 
# From -- ./inp_files/226738.got.cif
#   From: 2010.05.17/outbox.cif.g08.bks.cpg/sg12_114_cif.got.tgz:226738.got - 2010.06.03 13:09:07.
