data_PCOD9218807
_publ_section_title
;
Structure prediction by ZEFSAII (Michael W. Deem and Ramdas Pophale) SiO2 
 PCOD9218807
Probable space group: C 2/M
;
_chemical_formula_sum "Si O2"
_cell_formula_units_Z 58
_cell_length_a 14.219031
_cell_length_b 19.907580
_cell_length_c 16.497156
_cell_angle_alpha 90.000000
_cell_angle_beta 39.468902
_cell_angle_gamma 90.000000
_cell_volume 2968.396900
_symmetry_space_group_name_H-M "C 2/M"
_symmetry_group_IT_number 12
_symmetry_cell_setting 'monoclinic'
loop_
_space_group_symop_operation_xyz
x,y,z
-x,y,-z
-x,-y,-z
x,-y,z
1/2+x,1/2+y,z
1/2-x,1/2+y,-z
1/2-x,1/2-y,-z
1/2+x,1/2-y,z
loop_
_atom_site_type_symbol
_atom_site_label
_atom_site_fract_x
_atom_site_fract_y
_atom_site_fract_z
Si Si1 0.761665 0.104828 0.780204
Si Si2 0.583058 0.607268 0.614069
Si Si3 0.420979 0.751514 0.466700
Si Si4 0.154900 0.576255 0.675316
Si Si5 0.069372 0.309030 0.212875
Si Si6 0.828225 0.241584 0.127819
Si Si7 0.119616 0.804689 0.731374
Si Si8 0.500000 0.000000 0.000000
O O1 0.746338 0.100684 0.692917
O O2 0.744098 0.184060 0.815099
O O3 0.922165 0.077818 0.700872
O O4 0.629439 0.059258 0.902924
O O5 0.574569 0.677772 0.572174
O O6 0.732397 0.576739 0.476244
O O7 0.591138 0.625420 0.704188
O O8 0.500000 0.754471 0.500000
O O9 0.500197 0.797831 0.348324
O O10 0.253519 0.772583 0.591314
O O11 0.106584 0.500000 0.723265
O O12 0.011495 0.623985 0.763729
O O13 0.242764 0.299887 0.115002
O O14 0.014528 0.247287 0.193620
O O15 0.827250 0.198976 0.211927
O O16 0.000000 0.253645 0.000000
#
# Coordination Sequence:
#
# PCOD9218807 Si02
#       8
#     8   8   8   8   8   8   8   2
#     4  12  23  41  59  89 128 173 207 244 305 359
#     4  11  21  35  61  94 121 154 202 254 317 369
#     4  11  16  31  60  88 121 153 182 257 326 365
#     4  12  24  39  62  93 129 163 202 252 312 387
#     4  11  21  36  59  91 119 157 200 256 318 361
#     4  12  24  39  61  88 123 161 214 264 294 362
#     4  11  19  35  59  91 123 153 194 263 325 356
#     4  12  28  44  54  80 144 182 206 230 292 388
#
# _framework density 19.539166999999999
#
# number of rings (size 3 to 8) (size 9 to 14) (size 15 to 20)
#    0.000    0.552    9.655    2.069    0.966    1.103 
#    2.483    0.000    0.000    4.138    0.000    0.000 
#    0.000    0.000    0.000    0.000    0.000    0.000 
#
# Total GULP energy -161567.966342 kJ/mol
# GULP energy per Si atom -5571.309184 kJ/mol
# Density = 1.949469 g / cm^3
# Si number density = 19.539167 Si / 1000 Ang^3
#
#
#
# Elastic Constant Matrix: (Units=GPa)
#
#
# Indices 1 2 3 4 5 6 
#
# 1 106.4323 29.1562 10.2377 -0.0004 -21.5367 0.0001
# 2 29.1562 76.4499 5.1263 -0.0006 -7.2565 0.0003
# 3 10.2377 5.1263 42.2721 -0.0008 -17.5247 0.0008
# 4 -0.0004 -0.0006 -0.0008 21.0989 0.0006 1.4108
# 5 -21.5367 -7.2565 -17.5247 0.0006 26.2290 -0.0004
# 6 0.0001 0.0003 0.0008 1.4108 -0.0004 4.6191
#
#
#
# Elastic Compliance Matrix: (Units=1/GPa)
#
#
# Indices 1 2 3 4 5 6 
#
# 1 0.012356 -0.003857 0.001714 0.000000 0.010224 0.000001
# 2 -0.003857 0.014638 -0.000657 0.000000 0.000444 -0.000001
# 3 0.001714 -0.000657 0.032958 0.000001 0.023246 -0.000004
# 4 0.000000 0.000000 0.000001 0.048384 -0.000001 -0.014777
# 5 0.010224 0.000444 0.023246 -0.000001 0.062175 0.000001
# 6 0.000001 -0.000001 -0.000004 -0.014777 0.000001 0.221006
#
#
# Mechanical properties :
#
#
# Convention : Reuss Voigt Hill
#
# Bulk Modulus (GPa) = 18.39893 34.91054 26.65473
# Shear Modulus (GPa) = 12.04141 22.43167 17.23654
#
# Velocity S-wave (km/s) = 2.48517 3.39194 2.97333
# Velocity P-wave (km/s) = 4.20377 5.76595 5.04568
#
# Compressibility (1/GPa) = 0.05435100
#
# Stress axis : x y z
#
# Youngs Moduli (GPa) = 80.93166 68.31748 30.34174
#
# Poissons Ratio (x) = 0.26349 -0.05199
# Poissons Ratio (y) = 0.31214 0.01994
# Poissons Ratio (z) = -0.13868 0.04489
#
# Static dielectric constant tensor:
#      x y z
#    x 1.746020 0.000000 -0.006050 
#    y 0.000000 1.683450 0.000000 
#    z -0.006050 0.000000 1.750670 
# 
# From -- ./inp_files/272078.got.cif
#   From: 2010.05.17/outbox.cif.g08.bks.cpg/sg12_137_cif.got.tgz:272078.got - 2010.06.03 13:09:07.
