data_PCOD9218315
_publ_section_title
;
Structure prediction by ZEFSAII (Michael W. Deem and Ramdas Pophale) SiO2 
 PCOD9218315
Probable space group: C 2/M
;
_chemical_formula_sum "Si O2"
_cell_formula_units_Z 38
_cell_length_a 16.689775
_cell_length_b 14.488462
_cell_length_c 11.183281
_cell_angle_alpha 90.000000
_cell_angle_beta 141.848785
_cell_angle_gamma 90.000000
_cell_volume 1670.502226
_symmetry_space_group_name_H-M "C 2/M"
_symmetry_group_IT_number 12
_symmetry_cell_setting 'monoclinic'
loop_
_space_group_symop_operation_xyz
x,y,z
-x,y,-z
-x,-y,-z
x,-y,z
1/2+x,1/2+y,z
1/2-x,1/2+y,-z
1/2-x,1/2-y,-z
1/2+x,1/2-y,z
loop_
_atom_site_type_symbol
_atom_site_label
_atom_site_fract_x
_atom_site_fract_y
_atom_site_fract_z
Si Si1 0.400219 0.607608 0.119455
Si Si2 0.000000 0.000000 0.000000
Si Si3 0.177574 0.175350 0.225471
Si Si4 0.500000 0.163007 0.000000
Si Si5 0.460903 0.246916 0.590176
Si Si6 0.135309 0.399368 0.926717
O O1 0.415477 0.500000 0.091163
O O2 0.524932 0.657124 0.321046
O O3 0.338780 0.666570 0.938689
O O4 0.289987 0.607072 0.092646
O O5 0.898733 0.082934 0.831131
O O6 0.324777 0.193298 0.432935
O O7 0.100746 0.265831 0.178545
O O8 0.419277 0.108388 0.003573
O O9 0.500000 0.264802 0.500000
O O10 0.567670 0.179961 0.772484
O O11 0.099455 0.500000 0.834313
#
# Coordination Sequence:
#
# PCOD9218315 Si02
#       6
#     8   2   8   4   8   8
#     4  11  23  46  73 102 141 190 235 292 352 417
#     4  10  24  44  68 104 140 184 226 304 350 410
#     4  11  23  43  72  98 142 188 235 291 358 414
#     4  11  23  45  63  94 144 186 226 288 358 418
#     4  12  24  41  73 107 137 182 246 292 347 424
#     4  11  24  41  69 101 141 187 235 293 354 414
#
# _framework density 22.74765
#
# number of rings (size 3 to 8) (size 9 to 14) (size 15 to 20)
#    0.000    0.842    5.263    2.211    1.474    1.684 
#    0.000    2.105    0.000    0.000    0.000    0.000 
#    0.000    0.000    0.000    0.000    0.000    0.000 
#
# Total GULP energy -105974.108978 kJ/mol
# GULP energy per Si atom -5577.584683 kJ/mol
# Density = 2.269588 g / cm^3
# Si number density = 22.747650 Si / 1000 Ang^3
#
#
#
# Elastic Constant Matrix: (Units=GPa)
#
#
# Indices 1 2 3 4 5 6 
#
# 1 102.1378 18.7425 26.2280 0.0000 0.8658 0.0000
# 2 18.7425 128.7587 52.9537 0.0000 5.8212 0.0000
# 3 26.2280 52.9537 102.7035 0.0000 16.1870 0.0000
# 4 0.0000 0.0000 0.0000 29.2504 0.0000 2.2456
# 5 0.8658 5.8212 16.1870 0.0000 42.2125 0.0000
# 6 0.0000 0.0000 0.0000 2.2456 0.0000 41.8003
#
#
#
# Elastic Compliance Matrix: (Units=1/GPa)
#
#
# Indices 1 2 3 4 5 6 
#
# 1 0.010535 -0.000521 -0.002553 0.000000 0.000835 0.000000
# 2 -0.000521 0.009898 -0.005063 0.000000 0.000587 0.000000
# 3 -0.002553 -0.005063 0.013709 0.000000 -0.004507 0.000000
# 4 0.000000 0.000000 0.000000 0.034329 0.000000 -0.001844
# 5 0.000835 0.000587 -0.004507 0.000000 0.025320 0.000000
# 6 0.000000 0.000000 0.000000 -0.001844 0.000000 0.024022
#
#
# Mechanical properties :
#
#
# Convention : Reuss Voigt Hill
#
# Bulk Modulus (GPa) = 55.96640 58.82759 57.39700
# Shear Modulus (GPa) = 35.70314 38.36437 37.03375
#
# Velocity S-wave (km/s) = 3.96603 4.11118 4.03926
# Velocity P-wave (km/s) = 6.75493 6.96081 6.85864
#
# Compressibility (1/GPa) = 0.01786786
#
# Stress axis : x y z
#
# Youngs Moduli (GPa) = 94.92259 101.03128 72.94254
#
# Poissons Ratio (x) = 0.05266 0.18624
# Poissons Ratio (y) = 0.04947 0.36929
# Poissons Ratio (z) = 0.24236 0.51150
#
# Static dielectric constant tensor:
#      x y z
#    x 1.857240 0.000000 0.014550 
#    y 0.000000 1.851210 0.000000 
#    z 0.014550 0.000000 1.779170 
# 
# From -- ./inp_files/156364.got.cif
#   From: 2010.05.17/outbox.cif.g08.bks.cpg/sg12_79_cif.got.tgz:156364.got - 2010.06.03 13:09:07.
