data_PCOD9218410
_publ_section_title
;
Structure prediction by ZEFSAII (Michael W. Deem and Ramdas Pophale) SiO2 
 PCOD9218410
Probable space group: C 2/M
;
_chemical_formula_sum "Si O2"
_cell_formula_units_Z 58
_cell_length_a 9.339281
_cell_length_b 19.903655
_cell_length_c 17.120408
_cell_angle_alpha 90.000000
_cell_angle_beta 109.344285
_cell_angle_gamma 90.000000
_cell_volume 3002.777146
_symmetry_space_group_name_H-M "C 2/M"
_symmetry_group_IT_number 12
_symmetry_cell_setting 'monoclinic'
loop_
_space_group_symop_operation_xyz
x,y,z
-x,y,-z
-x,-y,-z
x,-y,z
1/2+x,1/2+y,z
1/2-x,1/2+y,-z
1/2-x,1/2-y,-z
1/2+x,1/2-y,z
loop_
_atom_site_type_symbol
_atom_site_label
_atom_site_fract_x
_atom_site_fract_y
_atom_site_fract_z
Si Si1 0.586101 0.241378 0.937239
Si Si2 0.522928 0.894230 0.150253
Si Si3 0.919588 0.817807 0.786374
Si Si4 0.159726 0.424228 0.730780
Si Si5 0.319494 0.309797 0.459210
Si Si6 0.000000 0.500000 0.000000
Si Si7 0.412417 0.076673 0.565508
Si Si8 0.790039 0.810457 0.267446
O O1 0.563177 0.176489 0.879875
O O2 0.524651 0.306898 0.881435
O O3 0.500000 0.226230 0.000000
O O4 0.750000 0.250000 0.000000
O O5 0.424169 0.926406 0.201378
O O6 0.524617 0.940794 0.073660
O O7 0.689068 0.871665 0.213264
O O8 0.815207 0.883073 0.762087
O O9 0.799055 0.757091 0.772373
O O10 0.039815 0.811804 0.736962
O O11 0.190495 0.500000 0.708639
O O12 0.033505 0.393678 0.649403
O O13 0.500000 0.310580 0.500000
O O14 0.250000 0.250000 0.500000
O O15 0.234984 0.377815 0.469375
O O16 0.288794 0.306672 0.360797
O O17 0.500000 0.074908 0.500000
O O18 0.375003 0.000000 0.582671
#
# Coordination Sequence:
#
# PCOD9218410 Si02
#       8
#     8   8   8   8   8   2   8   8
#     4  11  21  38  62  89 122 162 215 271 332 398
#     4  11  22  43  68  95 131 175 224 280 343 408
#     4  11  24  40  66  95 130 177 226 276 345 414
#     4  11  23  44  67  94 135 185 224 276 348 410
#     4  12  26  41  69 105 138 177 230 289 337 408
#     4  12  24  40  76 102 132 176 242 278 336 428
#     4  10  24  45  69  94 133 183 229 271 339 416
#     4  11  24  44  65  98 136 176 223 288 348 398
#
# _framework density 19.315453000000002
#
# number of rings (size 3 to 8) (size 9 to 14) (size 15 to 20)
#    0.000    0.966    2.759    5.379    5.793    0.276 
#    1.241    0.000    0.000    2.069    0.000    0.000 
#    0.000    0.000    0.000    0.000    0.000    0.000 
#
# Total GULP energy -161535.269452 kJ/mol
# GULP energy per Si atom -5570.181705 kJ/mol
# Density = 1.927149 g / cm^3
# Si number density = 19.315453 Si / 1000 Ang^3
#
#
#
# Elastic Constant Matrix: (Units=GPa)
#
#
# Indices 1 2 3 4 5 6 
#
# 1 128.9185 60.3910 34.2337 0.0000 17.4736 0.0000
# 2 60.3910 89.5906 29.0920 0.0000 16.6481 0.0000
# 3 34.2337 29.0920 114.9355 0.0000 4.3597 0.0000
# 4 0.0000 0.0000 0.0000 24.6130 0.0000 7.5742
# 5 17.4736 16.6481 4.3597 0.0000 36.3779 0.0000
# 6 0.0000 0.0000 0.0000 7.5742 0.0000 41.8516
#
#
#
# Elastic Compliance Matrix: (Units=1/GPa)
#
#
# Indices 1 2 3 4 5 6 
#
# 1 0.011771 -0.006977 -0.001654 0.000000 -0.002263 0.000000
# 2 -0.006977 0.017371 -0.002154 0.000000 -0.004340 0.000000
# 3 -0.001654 -0.002154 0.009715 0.000000 0.000616 0.000000
# 4 0.000000 0.000000 0.000000 0.043025 0.000000 -0.007787
# 5 -0.002263 -0.004340 0.000616 0.000000 0.030489 0.000000
# 6 0.000000 0.000000 0.000000 -0.007787 0.000000 0.025303
#
#
# Mechanical properties :
#
#
# Convention : Reuss Voigt Hill
#
# Bulk Modulus (GPa) = 57.84859 64.54199 61.19529
# Shear Modulus (GPa) = 30.30174 34.55035 32.42604
#
# Velocity S-wave (km/s) = 3.96508 4.23394 4.10171
# Velocity P-wave (km/s) = 7.13981 7.57555 7.36090
#
# Compressibility (1/GPa) = 0.01728651
#
# Stress axis : x y z
#
# Youngs Moduli (GPa) = 84.95343 57.56742 102.93231
#
# Poissons Ratio (x) = 0.40165 0.17027
# Poissons Ratio (y) = 0.59272 0.22173
# Poissons Ratio (z) = 0.14053 0.12401
#
# Static dielectric constant tensor:
#      x y z
#    x 1.654960 0.000000 -0.001000 
#    y 0.000000 1.676800 0.000000 
#    z -0.001000 0.000000 1.724430 
# 
# From -- ./inp_files/258208.got.cif
#   From: 2010.05.17/outbox.cif.g08.bks.cpg/sg12_130_cif.got.tgz:258208.got - 2010.06.03 13:09:07.
