data_PCOD9218470
_publ_section_title
;
Structure prediction by ZEFSAII (Michael W. Deem and Ramdas Pophale) SiO2 
 PCOD9218470
Probable space group: C 2/M
;
_chemical_formula_sum "Si O2"
_cell_formula_units_Z 42
_cell_length_a 12.600034
_cell_length_b 18.985590
_cell_length_c 9.086073
_cell_angle_alpha 90.000000
_cell_angle_beta 127.051989
_cell_angle_gamma 90.000000
_cell_volume 1734.696171
_symmetry_space_group_name_H-M "C 2/M"
_symmetry_group_IT_number 12
_symmetry_cell_setting 'monoclinic'
loop_
_space_group_symop_operation_xyz
x,y,z
-x,y,-z
-x,-y,-z
x,-y,z
1/2+x,1/2+y,z
1/2-x,1/2+y,-z
1/2-x,1/2-y,-z
1/2+x,1/2-y,z
loop_
_atom_site_type_symbol
_atom_site_label
_atom_site_fract_x
_atom_site_fract_y
_atom_site_fract_z
Si Si1 0.778705 0.651852 0.594397
Si Si2 0.309103 0.000000 0.704087
Si Si3 0.629045 0.000000 0.911472
Si Si4 0.041304 0.852613 0.193956
Si Si5 0.328315 0.724225 0.208369
Si Si6 0.000000 0.000000 0.000000
Si Si7 0.557971 0.128627 0.691394
O O1 0.747179 0.569684 0.589267
O O2 0.681792 0.673180 0.379843
O O3 0.748928 0.687659 0.724541
O O4 0.935470 0.652288 0.691243
O O5 0.468205 0.000000 0.798040
O O6 0.303727 0.000000 0.875503
O O7 0.656725 0.927050 0.850057
O O8 0.938927 0.828233 0.234761
O O9 0.000000 0.819004 0.000000
O O10 0.035908 0.935686 0.149633
O O11 0.381470 0.798709 0.310783
O O12 0.250000 0.750000 0.000000
O O13 0.500000 0.090018 0.500000
#
# Coordination Sequence:
#
# PCOD9218470 Si02
#       7
#     8   4   4   8   8   2   8
#     4  11  24  45  70 100 141 178 232 287 345 413
#     4   9  19  39  69  97 131 180 218 284 348 397
#     4   9  19  42  66 101 133 170 233 284 342 408
#     4  10  24  46  70 101 136 182 230 281 342 409
#     4  12  28  44  69 102 137 189 229 283 349 414
#     4   8  22  42  72 100 138 178 230 280 336 416
#     4  11  25  42  71 100 137 180 227 287 348 411
#
# _framework density 24.211732999999999
#
# number of rings (size 3 to 8) (size 9 to 14) (size 15 to 20)
#    0.571    0.952    0.000    3.714    5.333    3.810 
#    0.000    4.762    0.000    0.000    0.000    0.000 
#    0.000    0.000    0.000    0.000    0.000    0.000 
#
# Total GULP energy -117144.565862 kJ/mol
# GULP energy per Si atom -5578.312660 kJ/mol
# Density = 2.415663 g / cm^3
# Si number density = 24.211733 Si / 1000 Ang^3
#
#
#
# Elastic Constant Matrix: (Units=GPa)
#
#
# Indices 1 2 3 4 5 6 
#
# 1 105.8361 48.7158 18.6551 0.0000 -29.3500 0.0000
# 2 48.7158 73.5137 -13.0198 0.0000 -15.5346 0.0000
# 3 18.6551 -13.0198 90.1031 0.0000 -7.8809 0.0000
# 4 0.0000 0.0000 0.0000 -22.3093 0.0000 96.4530
# 5 -29.3500 -15.5346 -7.8809 0.0000 32.9111 0.0000
# 6 0.0000 0.0000 0.0000 96.4530 0.0000 -157.6225
#
#
#
# Elastic Compliance Matrix: (Units=1/GPa)
#
#
# Indices 1 2 3 4 5 6 
#
# 1 0.017756 -0.010446 -0.004322 0.000000 0.009868 0.000000
# 2 -0.010446 0.022018 0.005555 0.000000 0.002407 0.000000
# 3 -0.004322 0.005555 0.012960 0.000000 0.001871 0.000000
# 4 0.000000 0.000000 0.000000 0.027239 0.000000 0.016668
# 5 0.009868 0.002407 0.001871 0.000000 0.040770 0.000000
# 6 0.000000 0.000000 0.000000 0.016668 0.000000 0.003855
#
#
# Mechanical properties :
#
#
# Convention : Reuss Voigt Hill
#
# Bulk Modulus (GPa) = 29.15008 42.01725 35.58367
# Shear Modulus (GPa) = 32.37092 -15.06404 8.65344
#
# Velocity S-wave (km/s) = 3.66046 -2.49706 1.89257
# Velocity P-wave (km/s) = 5.47093 3.01298 4.41640
#
# Compressibility (1/GPa) = 0.03430522
#
# Stress axis : x y z
#
# Youngs Moduli (GPa) = 56.32035 45.41754 77.16274
#
# Poissons Ratio (x) = 0.47445 0.33354
# Poissons Ratio (y) = 0.58834 -0.42863
# Poissons Ratio (z) = 0.24344 -0.25229
#
# Static dielectric constant tensor:
#      x y z
#    x 1.884790 0.000000 -0.136810 
#    y 0.000000 1.924400 0.000000 
#    z -0.136810 0.000000 1.510730 
# 
# From -- ./inp_files/61870.got.cif
#   From: 2010.05.17/outbox.cif.g08.bks.cpg/sg12_31_cif.got.tgz:61870.got - 2010.06.03 13:09:07.
