data_PCOD9218281
_publ_section_title
;
Structure prediction by ZEFSAII (Michael W. Deem and Ramdas Pophale) SiO2 
 PCOD9218281
Probable space group: C 2/M
;
_chemical_formula_sum "Si O2"
_cell_formula_units_Z 40
_cell_length_a 7.518804
_cell_length_b 19.594876
_cell_length_c 13.869066
_cell_angle_alpha 90.000000
_cell_angle_beta 101.541847
_cell_angle_gamma 90.000000
_cell_volume 2002.011419
_symmetry_space_group_name_H-M "C 2/M"
_symmetry_group_IT_number 12
_symmetry_cell_setting 'monoclinic'
loop_
_space_group_symop_operation_xyz
x,y,z
-x,y,-z
-x,-y,-z
x,-y,z
1/2+x,1/2+y,z
1/2-x,1/2+y,-z
1/2-x,1/2-y,-z
1/2+x,1/2-y,z
loop_
_atom_site_type_symbol
_atom_site_label
_atom_site_fract_x
_atom_site_fract_y
_atom_site_fract_z
Si Si1 0.118883 0.324843 0.109001
Si Si2 0.939421 0.071674 0.602952
Si Si3 0.321737 0.196541 0.429357
Si Si4 0.049671 0.080047 0.816846
Si Si5 0.212235 0.686740 0.792671
O O1 0.280069 0.380314 0.119536
O O2 0.208830 0.251148 0.140016
O O3 0.973755 0.338478 0.178711
O O4 0.000000 0.322929 0.000000
O O5 0.818127 0.136604 0.594933
O O6 0.000000 0.068768 0.500000
O O7 0.084001 0.078680 0.704307
O O8 0.841496 0.000000 0.614610
O O9 0.500000 0.169114 0.500000
O O10 0.250000 0.250000 0.500000
O O11 0.340198 0.217202 0.319430
O O12 0.866780 0.126802 0.809496
O O13 0.029900 0.000000 0.844976
#
# Coordination Sequence:
#
# PCOD9218281 Si02
#       5
#     8   8   8   8   8
#     4  12  25  42  70  96 125 169 224 269 323 384
#     4   9  20  38  59  84 123 167 197 240 313 376
#     4  11  23  35  59  93 127 156 205 256 306 370
#     4  10  24  44  65  95 134 167 212 271 324 385
#     4  11  24  42  67  95 130 174 211 266 328 384
#
# _framework density 19.979906
#
# number of rings (size 3 to 8) (size 9 to 14) (size 15 to 20)
#    0.000    1.400    2.000    2.400    8.400    1.600 
#    0.000    1.000    0.000    0.000    0.000    0.000 
#    0.000    0.000    0.000    0.000    0.000    0.000 
#
# Total GULP energy -111424.662366 kJ/mol
# GULP energy per Si atom -5571.233118 kJ/mol
# Density = 1.993443 g / cm^3
# Si number density = 19.979906 Si / 1000 Ang^3
#
#
#
# Elastic Constant Matrix: (Units=GPa)
#
#
# Indices 1 2 3 4 5 6 
#
# 1 63.8361 21.2658 -2.6073 0.0000 5.6622 0.0000
# 2 21.2658 117.0238 17.6406 0.0000 17.7266 0.0000
# 3 -2.6073 17.6406 65.7276 0.0000 17.8498 0.0000
# 4 0.0000 0.0000 0.0000 26.8207 0.0000 12.2603
# 5 5.6622 17.7266 17.8498 0.0000 34.4357 0.0000
# 6 0.0000 0.0000 0.0000 12.2603 0.0000 13.9428
#
#
#
# Elastic Compliance Matrix: (Units=1/GPa)
#
#
# Indices 1 2 3 4 5 6 
#
# 1 0.016975 -0.003053 0.002123 0.000000 -0.002320 0.000000
# 2 -0.003053 0.009927 -0.001785 0.000000 -0.003683 0.000000
# 3 0.002123 -0.001785 0.018182 0.000000 -0.008855 0.000000
# 4 0.000000 0.000000 0.000000 0.062345 0.000000 -0.054822
# 5 -0.002320 -0.003683 -0.008855 0.000000 0.035907 0.000000
# 6 0.000000 0.000000 0.000000 -0.054822 0.000000 0.119929
#
#
# Mechanical properties :
#
#
# Convention : Reuss Voigt Hill
#
# Bulk Modulus (GPa) = 25.21901 35.46511 30.34206
# Shear Modulus (GPa) = 17.73593 29.05906 23.39750
#
# Velocity S-wave (km/s) = 2.98264 3.81782 3.42578
# Velocity P-wave (km/s) = 4.95087 6.10108 5.55582
#
# Compressibility (1/GPa) = 0.03965262
#
# Stress axis : x y z
#
# Youngs Moduli (GPa) = 58.91115 100.73436 54.99816
#
# Poissons Ratio (x) = 0.30757 -0.11675
# Poissons Ratio (y) = 0.17987 0.09819
# Poissons Ratio (z) = -0.12506 0.17984
#
# Static dielectric constant tensor:
#      x y z
#    x 1.826940 0.000000 -0.091350 
#    y 0.000000 1.737330 0.000000 
#    z -0.091350 0.000000 1.905540 
# 
# From -- ./inp_files/195101.got.cif
#   From: 2010.05.17/outbox.cif.g08.bks.cpg/sg12_98_cif.got.tgz:195101.got - 2010.06.03 13:09:07.
