data_PCOD9218739
_publ_section_title
;
Structure prediction by ZEFSAII (Michael W. Deem and Ramdas Pophale) SiO2 
 PCOD9218739
Probable space group: C 2/M
;
_chemical_formula_sum "Si O2"
_cell_formula_units_Z 56
_cell_length_a 17.206132
_cell_length_b 28.135855
_cell_length_c 8.772531
_cell_angle_alpha 90.000000
_cell_angle_beta 40.329367
_cell_angle_gamma 90.000000
_cell_volume 2748.487524
_symmetry_space_group_name_H-M "C 2/M"
_symmetry_group_IT_number 12
_symmetry_cell_setting 'monoclinic'
loop_
_space_group_symop_operation_xyz
x,y,z
-x,y,-z
-x,-y,-z
x,-y,z
1/2+x,1/2+y,z
1/2-x,1/2+y,-z
1/2-x,1/2-y,-z
1/2+x,1/2-y,z
loop_
_atom_site_type_symbol
_atom_site_label
_atom_site_fract_x
_atom_site_fract_y
_atom_site_fract_z
Si Si1 0.384459 0.074935 0.750120
Si Si2 0.976147 0.816754 0.855923
Si Si3 0.323564 0.500000 0.896714
Si Si4 0.829842 0.105060 0.449415
Si Si5 0.599700 0.135316 0.982957
Si Si6 0.905973 0.000000 0.420827
Si Si7 0.773590 0.349517 0.696484
Si Si8 0.015606 0.715680 0.658435
O O1 0.500000 0.051295 0.500000
O O2 0.420214 0.094221 0.862388
O O3 0.353483 0.119370 0.688992
O O4 0.263945 0.044226 0.940460
O O5 0.051169 0.863571 0.700430
O O6 0.014803 0.770054 0.709273
O O7 0.000000 0.808189 0.000000
O O8 0.835358 0.826200 0.049091
O O9 0.363321 0.500000 0.660791
O O10 0.448513 0.500000 0.801795
O O11 0.783244 0.117865 0.350190
O O12 0.856369 0.049216 0.425843
O O13 0.728215 0.124351 0.716435
O O14 0.582106 0.184964 0.100197
O O15 0.500000 0.133570 0.000000
O O16 0.857740 0.309791 0.495363
O O17 0.000000 0.712683 0.500000
#
# Coordination Sequence:
#
# PCOD9218739 Si02
#       8
#     8   8   4   8   8   4   8   8
#     4  12  22  44  66  98 135 173 224 281 343 398
#     4  10  26  42  65  99 133 178 227 274 334 406
#     4  11  25  41  69  97 136 176 224 282 336 397
#     4  11  24  45  70  99 135 176 227 280 334 401
#     4  12  22  41  69  96 132 178 218 278 337 399
#     4  11  24  47  69 103 133 180 229 276 338 397
#     4  11  23  44  67  96 138 173 222 281 337 404
#     4  12  24  42  65  97 134 181 222 278 339 396
#
# _framework density 20.374842000000001
#
# number of rings (size 3 to 8) (size 9 to 14) (size 15 to 20)
#    0.000    0.714    5.714    1.500    2.000    3.429 
#    2.571    6.786    0.000    0.000    0.000    0.000 
#    0.000    0.000    0.000    0.000    0.000    0.000 
#
# Total GULP energy -156507.854061 kJ/mol
# GULP energy per Si atom -5589.566216 kJ/mol
# Density = 2.032847 g / cm^3
# Si number density = 20.374842 Si / 1000 Ang^3
#
#
#
# Elastic Constant Matrix: (Units=GPa)
#
#
# Indices 1 2 3 4 5 6 
#
# 1 66.4230 42.3013 35.4836 0.0000 -3.5032 0.0000
# 2 42.3013 159.4258 58.7969 0.0000 -8.2231 0.0000
# 3 35.4836 58.7969 111.9318 0.0000 -13.3405 0.0000
# 4 0.0000 0.0000 0.0000 72.1387 0.0000 23.7281
# 5 -3.5032 -8.2231 -13.3405 0.0000 31.0667 0.0000
# 6 0.0000 0.0000 0.0000 23.7281 0.0000 26.4763
#
#
#
# Elastic Compliance Matrix: (Units=1/GPa)
#
#
# Indices 1 2 3 4 5 6 
#
# 1 0.019690 -0.003631 -0.004410 0.000000 -0.000635 0.000000
# 2 -0.003631 0.008452 -0.003237 0.000000 0.000438 0.000000
# 3 -0.004410 -0.003237 0.012511 0.000000 0.004018 0.000000
# 4 0.000000 0.000000 0.000000 0.019657 0.000000 -0.017616
# 5 -0.000635 0.000438 0.004018 0.000000 0.033959 0.000000
# 6 0.000000 0.000000 0.000000 -0.017616 0.000000 0.053557
#
#
# Mechanical properties :
#
#
# Convention : Reuss Voigt Hill
#
# Bulk Modulus (GPa) = 55.25517 67.88269 61.56893
# Shear Modulus (GPa) = 28.34244 39.34958 33.84601
#
# Velocity S-wave (km/s) = 3.73373 4.39940 4.08016
# Velocity P-wave (km/s) = 6.76504 7.69387 7.24436
#
# Compressibility (1/GPa) = 0.01809785
#
# Stress axis : x y z
#
# Youngs Moduli (GPa) = 50.78791 118.31351 79.92760
#
# Poissons Ratio (x) = 0.42954 0.35251
# Poissons Ratio (y) = 0.18439 0.25870
# Poissons Ratio (z) = 0.22400 0.38295
#
# Static dielectric constant tensor:
#      x y z
#    x 1.715890 0.000000 -0.009900 
#    y 0.000000 1.703840 0.000000 
#    z -0.009900 0.000000 1.737280 
# 
# From -- ./inp_files/80044.got.cif
#   From: 2010.05.17/outbox.cif.g08.bks.cpg/sg12_41_cif.got.tgz:80044.got - 2010.06.03 13:09:07.
