data_PCOD9218143
_publ_section_title
;
Structure prediction by ZEFSAII (Michael W. Deem and Ramdas Pophale) SiO2 
 PCOD9218143
Probable space group: C 2/M
;
_chemical_formula_sum "Si O2"
_cell_formula_units_Z 40
_cell_length_a 23.888376
_cell_length_b 8.185126
_cell_length_c 17.870236
_cell_angle_alpha 90.000000
_cell_angle_beta 29.172863
_cell_angle_gamma 90.000000
_cell_volume 1703.212905
_symmetry_space_group_name_H-M "C 2/M"
_symmetry_group_IT_number 12
_symmetry_cell_setting 'monoclinic'
loop_
_space_group_symop_operation_xyz
x,y,z
-x,y,-z
-x,-y,-z
x,-y,z
1/2+x,1/2+y,z
1/2-x,1/2+y,-z
1/2-x,1/2-y,-z
1/2+x,1/2-y,z
loop_
_atom_site_type_symbol
_atom_site_label
_atom_site_fract_x
_atom_site_fract_y
_atom_site_fract_z
Si Si1 0.767153 0.182400 0.120459
Si Si2 0.643316 0.695031 0.675764
Si Si3 0.992419 0.239685 0.593148
Si Si4 0.440856 0.810032 0.809599
Si Si5 0.754946 0.192224 0.694892
O O1 0.629262 0.170907 0.276483
O O2 0.795308 0.272900 0.164838
O O3 0.815646 0.000000 0.064062
O O4 0.819069 0.278758 0.990304
O O5 0.633778 0.500000 0.686399
O O6 0.750000 0.750000 0.500000
O O7 0.532243 0.774198 0.767931
O O8 0.671529 0.756298 0.726039
O O9 0.125019 0.293432 0.449006
O O10 0.000000 0.162097 0.500000
O O11 0.967789 0.190387 0.708362
O O12 0.451667 0.000000 0.772695
O O13 0.785628 0.000000 0.651881
#
# Coordination Sequence:
#
# PCOD9218143 Si02
#       5
#     8   8   8   8   8
#     4  11  25  44  67  99 140 181 226 277 338 402
#     4  12  25  43  70 101 136 175 223 277 336 400
#     4  10  24  42  69  99 137 177 227 275 338 395
#     4  12  25  43  69  99 137 180 227 278 337 401
#     4  11  24  44  71 102 136 177 228 279 335 399
#
# _framework density 23.485026000000001
#
# number of rings (size 3 to 8) (size 9 to 14) (size 15 to 20)
#    0.000    0.800    2.000    4.800    0.000   14.000 
#    0.000    4.000    0.000    0.000    0.000    0.000 
#    0.000    0.000    0.000    0.000    0.000    0.000 
#
# Total GULP energy -111454.191332 kJ/mol
# GULP energy per Si atom -5572.709567 kJ/mol
# Density = 2.343157 g / cm^3
# Si number density = 23.485026 Si / 1000 Ang^3
#
#
#
# Elastic Constant Matrix: (Units=GPa)
#
#
# Indices 1 2 3 4 5 6 
#
# 1 206.4200 41.0845 49.7680 -0.0004 26.1881 -0.0002
# 2 41.0845 113.0817 25.8900 0.0003 -4.4078 -0.0001
# 3 49.7680 25.8900 105.7100 0.0000 20.9376 0.0001
# 4 -0.0004 0.0003 0.0000 -1.0315 0.0000 7.0208
# 5 26.1881 -4.4078 20.9376 0.0000 38.7521 0.0002
# 6 -0.0002 -0.0001 0.0001 7.0208 0.0002 -16.5786
#
#
#
# Elastic Compliance Matrix: (Units=1/GPa)
#
#
# Indices 1 2 3 4 5 6 
#
# 1 0.006076 -0.001949 -0.001709 0.000002 -0.003405 0.000001
# 2 -0.001949 0.010230 -0.002328 -0.000002 0.003739 -0.000001
# 3 -0.001709 -0.002328 0.011936 0.000000 -0.005559 0.000000
# 4 0.000002 -0.000002 0.000000 0.514996 -0.000003 0.218094
# 5 -0.003405 0.003739 -0.005559 -0.000003 0.031535 -0.000001
# 6 0.000001 -0.000001 0.000000 0.218094 -0.000001 0.032041
#
#
# Mechanical properties :
#
#
# Convention : Reuss Voigt Hill
#
# Bulk Modulus (GPa) = 61.46608 73.18854 67.32731
# Shear Modulus (GPa) = 8.01012 24.79302 16.40157
#
# Velocity S-wave (km/s) = 1.84882 3.25267 2.64556
# Velocity P-wave (km/s) = 5.54858 6.73335 6.16948
#
# Compressibility (1/GPa) = 0.01626914
#
# Stress axis : x y z
#
# Youngs Moduli (GPa) = 164.57050 97.75048 83.78211
#
# Poissons Ratio (x) = 0.19052 0.14319
# Poissons Ratio (y) = 0.32076 0.19508
# Poissons Ratio (z) = 0.28126 0.22760
#
# Static dielectric constant tensor:
#      x y z
#    x 1.869790 0.000000 -0.006650 
#    y 0.000000 2.024870 0.000020 
#    z -0.006650 0.000020 1.904110 
# 
# From -- ./inp_files/288593.got.cif
#   From: 2010.05.17/outbox.cif.g08.bks.cpg/sg12_145_cif.got.tgz:288593.got - 2010.06.03 13:09:07.
