data_PCOD9218513
_publ_section_title
;
Structure prediction by ZEFSAII (Michael W. Deem and Ramdas Pophale) SiO2 
 PCOD9218513
Probable space group: C 2/M
;
_chemical_formula_sum "Si O2"
_cell_formula_units_Z 44
_cell_length_a 18.519791
_cell_length_b 19.466564
_cell_length_c 5.714972
_cell_angle_alpha 90.000000
_cell_angle_beta 91.030516
_cell_angle_gamma 90.000000
_cell_volume 2060.009584
_symmetry_space_group_name_H-M "C 2/M"
_symmetry_group_IT_number 12
_symmetry_cell_setting 'monoclinic'
loop_
_space_group_symop_operation_xyz
x,y,z
-x,y,-z
-x,-y,-z
x,-y,z
1/2+x,1/2+y,z
1/2-x,1/2+y,-z
1/2-x,1/2-y,-z
1/2+x,1/2-y,z
loop_
_atom_site_type_symbol
_atom_site_label
_atom_site_fract_x
_atom_site_fract_y
_atom_site_fract_z
Si Si1 0.273711 0.000000 0.008588
Si Si2 0.190592 0.650933 0.918809
Si Si3 0.690764 0.500000 0.507883
Si Si4 0.928517 0.723581 0.379415
Si Si5 0.689913 0.269414 0.304920
Si Si6 0.000000 0.820031 0.000000
Si Si7 0.565256 0.578014 0.330526
O O1 0.226983 0.000000 0.764667
O O2 0.315136 0.927551 0.005409
O O3 0.236217 0.000000 0.266884
O O4 0.129339 0.670126 0.725946
O O5 0.271332 0.667703 0.826075
O O6 0.181589 0.706114 0.125311
O O7 0.638495 0.566558 0.480174
O O8 0.884974 0.771366 0.559858
O O9 0.000000 0.691928 0.500000
O O10 0.958620 0.771767 0.177816
O O11 0.750000 0.250000 0.500000
O O12 0.940858 0.870034 0.881214
O O13 0.500000 0.595359 0.500000
O O14 0.552457 0.500000 0.239614
#
# Coordination Sequence:
#
# PCOD9218513 Si02
#       7
#     4   8   4   8   8   4   8
#     4  12  28  46  73 105 135 193 238 300 361 426
#     4  10  24  47  69 100 140 181 239 298 356 428
#     4  10  27  43  66 104 140 185 241 280 349 440
#     4  11  24  43  67 105 135 182 239 297 356 429
#     4   9  21  44  69  97 140 180 230 295 357 418
#     4  12  23  38  68  99 136 188 232 286 362 429
#     4   9  22  42  58  93 144 188 225 288 340 427
#
# _framework density 21.359124000000001
#
# number of rings (size 3 to 8) (size 9 to 14) (size 15 to 20)
#    0.545    1.273    0.000    1.909    7.636    7.273 
#    6.545    0.455    0.000    3.818    0.000    0.000 
#    0.000    0.000    0.000    0.000    0.000    0.000 
#
# Total GULP energy -122812.578864 kJ/mol
# GULP energy per Si atom -5582.389948 kJ/mol
# Density = 2.131051 g / cm^3
# Si number density = 21.359124 Si / 1000 Ang^3
#
#
#
# Elastic Constant Matrix: (Units=GPa)
#
#
# Indices 1 2 3 4 5 6 
#
# 1 124.3459 40.9690 52.6227 0.0000 13.8781 0.0000
# 2 40.9690 119.0959 37.0459 0.0000 18.4227 0.0000
# 3 52.6227 37.0459 101.9167 0.0000 5.4563 0.0000
# 4 0.0000 0.0000 0.0000 21.8662 0.0000 13.2462
# 5 13.8781 18.4227 5.4563 0.0000 54.1854 0.0000
# 6 0.0000 0.0000 0.0000 13.2462 0.0000 26.9785
#
#
#
# Elastic Compliance Matrix: (Units=1/GPa)
#
#
# Indices 1 2 3 4 5 6 
#
# 1 0.010927 -0.002006 -0.004826 0.000000 -0.001631 0.000000
# 2 -0.002006 0.010307 -0.002565 0.000000 -0.002732 0.000000
# 3 -0.004826 -0.002565 0.013194 0.000000 0.000779 0.000000
# 4 0.000000 0.000000 0.000000 0.065094 0.000000 -0.031961
# 5 -0.001631 -0.002732 0.000779 0.000000 0.019723 0.000000
# 6 0.000000 0.000000 0.000000 -0.031961 0.000000 0.052759
#
#
# Mechanical properties :
#
#
# Convention : Reuss Voigt Hill
#
# Bulk Modulus (GPa) = 63.95375 67.40374 65.67875
# Shear Modulus (GPa) = 25.50911 34.92075 30.21493
#
# Velocity S-wave (km/s) = 3.45961 4.04782 3.76522
# Velocity P-wave (km/s) = 6.77980 7.31248 7.05117
#
# Compressibility (1/GPa) = 0.01563630
#
# Stress axis : x y z
#
# Youngs Moduli (GPa) = 91.51557 97.02204 75.79154
#
# Poissons Ratio (x) = 0.19458 0.36575
# Poissons Ratio (y) = 0.18354 0.19438
# Poissons Ratio (z) = 0.44162 0.24883
#
# Static dielectric constant tensor:
#      x y z
#    x 1.832610 0.000000 0.012350 
#    y 0.000000 1.788620 0.000000 
#    z 0.012350 0.000000 1.823000 
# 
# From -- ./inp_files/16105.got.cif
#   From: 2010.05.17/outbox.cif.g08.bks.cpg/sg12_9_cif.got.tgz:16105.got - 2010.06.03 13:09:07.
