data_PCOD9218685
_publ_section_title
;
Structure prediction by ZEFSAII (Michael W. Deem and Ramdas Pophale) SiO2 
 PCOD9218685
Probable space group: C 2/M
;
_chemical_formula_sum "Si O2"
_cell_formula_units_Z 34
_cell_length_a 14.803837
_cell_length_b 7.822693
_cell_length_c 15.598749
_cell_angle_alpha 90.000000
_cell_angle_beta 47.773153
_cell_angle_gamma 90.000000
_cell_volume 1337.640511
_symmetry_space_group_name_H-M "C 2/M"
_symmetry_group_IT_number 12
_symmetry_cell_setting 'monoclinic'
loop_
_space_group_symop_operation_xyz
x,y,z
-x,y,-z
-x,-y,-z
x,-y,z
1/2+x,1/2+y,z
1/2-x,1/2+y,-z
1/2-x,1/2-y,-z
1/2+x,1/2-y,z
loop_
_atom_site_type_symbol
_atom_site_label
_atom_site_fract_x
_atom_site_fract_y
_atom_site_fract_z
Si Si1 0.539270 0.807745 0.238932
Si Si2 0.000000 0.500000 0.000000
Si Si3 0.094708 0.802894 0.509564
Si Si4 0.827907 0.189341 0.277815
Si Si5 0.303422 0.703240 0.096635
O O1 0.470632 0.707516 0.357882
O O2 0.441116 0.809403 0.225712
O O3 0.675760 0.748762 0.132051
O O4 0.554968 0.000000 0.261785
O O5 0.093575 0.346578 0.976675
O O6 0.222007 0.708221 0.415400
O O7 0.000000 0.734186 0.500000
O O8 0.121535 0.000000 0.470960
O O9 0.773498 0.215749 0.218453
O O10 0.880210 0.000000 0.247108
O O11 0.335613 0.500000 0.059633
#
# Coordination Sequence:
#
# PCOD9218685 Si02
#       5
#     8   2   8   8   8
#     4  11  23  40  65  94 136 172 217 265 321 391
#     4  12  26  44  84  88 132 162 226 288 344 392
#     4  11  22  35  60  96 134 178 222 255 310 396
#     4  11  23  40  65  94 136 172 217 265 321 391
#     4  10  25  46  70  99 128 173 217 275 340 396
#
# _framework density 25.417891000000001
#
# number of rings (size 3 to 8) (size 9 to 14) (size 15 to 20)
#    0.000    1.176    2.353    3.176    6.588    0.941 
#    0.000    1.176    0.000    0.000    0.000    0.000 
#    0.000    0.000    0.000    0.000    0.000    0.000 
#
# Total GULP energy -94867.161019 kJ/mol
# GULP energy per Si atom -5580.421236 kJ/mol
# Density = 2.536004 g / cm^3
# Si number density = 25.417891 Si / 1000 Ang^3
#
#
#
# Elastic Constant Matrix: (Units=GPa)
#
#
# Indices 1 2 3 4 5 6 
#
# 1 112.5071 25.9432 25.3268 0.0000 -53.7817 0.0000
# 2 25.9432 113.5529 25.6978 0.0000 -32.8493 0.0000
# 3 25.3268 25.6978 116.4303 0.0000 -19.1472 0.0000
# 4 0.0000 0.0000 0.0000 6.2182 0.0000 -10.5923
# 5 -53.7817 -32.8493 -19.1472 0.0000 47.6183 0.0000
# 6 0.0000 0.0000 0.0000 -10.5923 0.0000 27.6049
#
#
#
# Elastic Compliance Matrix: (Units=1/GPa)
#
#
# Indices 1 2 3 4 5 6 
#
# 1 0.019945 0.002582 -0.000976 0.000000 0.023915 0.000000
# 2 0.002582 0.011513 -0.001410 0.000000 0.010292 0.000000
# 3 -0.000976 -0.001410 0.009392 0.000000 0.001702 0.000000
# 4 0.000000 0.000000 0.000000 0.464285 0.000000 0.178151
# 5 0.023915 0.010292 0.001702 0.000000 0.055795 0.000000
# 6 0.000000 0.000000 0.000000 0.178151 0.000000 0.104584
#
#
# Mechanical properties :
#
#
# Convention : Reuss Voigt Hill
#
# Bulk Modulus (GPa) = 24.24653 55.15842 39.70247
# Shear Modulus (GPa) = 7.36519 33.98980 20.67750
#
# Velocity S-wave (km/s) = 1.70409 3.66080 2.85529
# Velocity P-wave (km/s) = 3.66494 6.29415 5.15015
#
# Compressibility (1/GPa) = 0.04124301
#
# Stress axis : x y z
#
# Youngs Moduli (GPa) = 50.13851 86.85917 106.47141
#
# Poissons Ratio (x) = -0.22431 0.10387
# Poissons Ratio (y) = -0.12948 0.15016
# Poissons Ratio (z) = 0.04891 0.12250
#
# Static dielectric constant tensor:
#      x y z
#    x 2.035230 0.000000 0.034640 
#    y 0.000000 1.896650 0.000000 
#    z 0.034640 0.000000 2.005260 
# 
# From -- ./inp_files/151264.got.cif
#   From: 2010.05.17/outbox.cif.g08.bks.cpg/sg12_76_cif.got.tgz:151264.got - 2010.06.03 13:09:07.
