data_PCOD9218158
_publ_section_title
;
Structure prediction by ZEFSAII (Michael W. Deem and Ramdas Pophale) SiO2 
 PCOD9218158
Probable space group: C 2/M
;
_chemical_formula_sum "Si O2"
_cell_formula_units_Z 26
_cell_length_a 9.511743
_cell_length_b 15.997199
_cell_length_c 14.040352
_cell_angle_alpha 90.000000
_cell_angle_beta 152.237078
_cell_angle_gamma 90.000000
_cell_volume 995.164057
_symmetry_space_group_name_H-M "C 2/M"
_symmetry_group_IT_number 12
_symmetry_cell_setting 'monoclinic'
loop_
_space_group_symop_operation_xyz
x,y,z
-x,y,-z
-x,-y,-z
x,-y,z
1/2+x,1/2+y,z
1/2-x,1/2+y,-z
1/2-x,1/2-y,-z
1/2+x,1/2-y,z
loop_
_atom_site_type_symbol
_atom_site_label
_atom_site_fract_x
_atom_site_fract_y
_atom_site_fract_z
Si Si1 0.794227 0.404281 0.506468
Si Si2 0.500000 0.000000 0.000000
Si Si3 0.088684 0.358762 0.213810
Si Si4 0.395573 0.670891 0.794995
O O1 0.707029 0.500000 0.433426
O O2 0.621617 0.345609 0.328810
O O3 0.756251 0.384148 0.593988
O O4 0.145217 0.389280 0.689791
O O5 0.591096 0.927373 0.133613
O O6 0.185063 0.267118 0.236180
O O7 0.733346 0.347512 0.028435
#
# Coordination Sequence:
#
# PCOD9218158 Si02
#       4
#     8   2   8   8
#     4  11  23  44  71 105 129 174 226 285 329 393
#     4  12  28  44  64 100 134 182 228 266 334 408
#     4  11  25  45  65  96 140 179 220 273 335 401
#     4  10  24  42  72  96 133 175 227 275 336 394
#
# _framework density 26.126345000000001
#
# number of rings (size 3 to 8) (size 9 to 14) (size 15 to 20)
#    0.000    1.231    1.538    3.692   12.923    1.231 
#    0.000    1.538    0.000    0.000    0.000    0.000 
#    0.000    0.000    0.000    0.000    0.000    0.000 
#
# Total GULP energy -72745.877437 kJ/mol
# GULP energy per Si atom -5595.836726 kJ/mol
# Density = 2.606688 g / cm^3
# Si number density = 26.126345 Si / 1000 Ang^3
#
#
#
# Elastic Constant Matrix: (Units=GPa)
#
#
# Indices 1 2 3 4 5 6 
#
# 1 122.0646 40.3717 27.4349 0.0004 -29.1628 -0.0065
# 2 40.3717 215.9829 31.6684 0.0103 -35.4651 -0.0019
# 3 27.4349 31.6684 104.8943 0.0124 -54.3255 0.0007
# 4 0.0004 0.0103 0.0124 27.8252 0.0027 -8.3486
# 5 -29.1628 -35.4651 -54.3255 0.0027 67.5195 -0.0060
# 6 -0.0065 -0.0019 0.0007 -8.3486 -0.0060 22.1207
#
#
#
# Elastic Compliance Matrix: (Units=1/GPa)
#
#
# Indices 1 2 3 4 5 6 
#
# 1 0.009427 -0.001188 -0.000551 0.000001 0.003004 0.000004
# 2 -0.001188 0.005221 -0.000190 -0.000002 0.002076 0.000000
# 3 -0.000551 -0.000190 0.016390 -0.000009 0.012849 0.000000
# 4 0.000001 -0.000002 -0.000009 0.040528 -0.000008 0.015296
# 5 0.003004 0.002076 0.012849 -0.000008 0.027537 0.000005
# 6 0.000004 0.000000 0.000000 0.015296 0.000005 0.050979
#
#
# Mechanical properties :
#
#
# Convention : Reuss Voigt Hill
#
# Bulk Modulus (GPa) = 36.79329 71.32130 54.05729
# Shear Modulus (GPa) = 30.67499 46.39088 38.53293
#
# Velocity S-wave (km/s) = 3.43023 4.21840 3.84457
# Velocity P-wave (km/s) = 5.45913 7.14734 6.35950
#
# Compressibility (1/GPa) = 0.02717887
#
# Stress axis : x y z
#
# Youngs Moduli (GPa) = 106.07937 191.53956 61.01460
#
# Poissons Ratio (x) = 0.22754 0.03362
# Poissons Ratio (y) = 0.12602 0.01161
# Poissons Ratio (z) = 0.05844 0.03645
#
# Static dielectric constant tensor:
#      x y z
#    x 2.126640 -0.000010 0.092910 
#    y -0.000010 1.910580 -0.000010 
#    z 0.092910 -0.000010 2.054280 
# 
# From -- ./inp_files/204762.got.cif
#   From: 2010.05.17/outbox.cif.g08.bks.cpg/sg12_103_cif.got.tgz:204762.got - 2010.06.03 13:09:07.
