data_PCOD9218860
_publ_section_title
;
Structure prediction by ZEFSAII (Michael W. Deem and Ramdas Pophale) SiO2 
 PCOD9218860
Probable space group: C 2/M
;
_chemical_formula_sum "Si O2"
_cell_formula_units_Z 48
_cell_length_a 16.794107
_cell_length_b 31.220949
_cell_length_c 9.887585
_cell_angle_alpha 90.000000
_cell_angle_beta 27.871915
_cell_angle_gamma 90.000000
_cell_volume 2423.659820
_symmetry_space_group_name_H-M "C 2/M"
_symmetry_group_IT_number 12
_symmetry_cell_setting 'monoclinic'
loop_
_space_group_symop_operation_xyz
x,y,z
-x,y,-z
-x,-y,-z
x,-y,z
1/2+x,1/2+y,z
1/2-x,1/2+y,-z
1/2-x,1/2-y,-z
1/2+x,1/2-y,z
loop_
_atom_site_type_symbol
_atom_site_label
_atom_site_fract_x
_atom_site_fract_y
_atom_site_fract_z
Si Si1 0.563356 0.128956 0.264550
Si Si2 0.549596 0.048291 0.702362
Si Si3 0.202523 0.290793 0.907614
Si Si4 0.285335 0.547731 0.606514
Si Si5 0.441588 0.380978 0.740582
Si Si6 0.974386 0.209030 0.748839
O O1 0.500000 0.149744 0.500000
O O2 0.442655 0.090019 0.402527
O O3 0.598815 0.165815 0.099530
O O4 0.745669 0.107138 0.020164
O O5 0.698024 0.050381 0.591049
O O6 0.552575 0.000000 0.637605
O O7 0.371492 0.052620 0.052948
O O8 0.329409 0.290257 0.590827
O O9 0.338844 0.287099 0.827173
O O10 0.078994 0.249985 0.085102
O O11 0.356120 0.500000 0.519172
O O12 0.429890 0.582446 0.410133
O O13 0.500000 0.367519 0.500000
O O14 0.447315 0.340118 0.831473
#
# Coordination Sequence:
#
# PCOD9218860 Si02
#       6
#     8   8   8   8   8   8
#     4  11  22  32  49  78 108 135 166 211 257 295
#     4   9  18  35  54  76 103 132 169 206 253 310
#     4   9  17  27  44  70 101 133 164 202 251 297
#     4   9  18  33  57  78  97 132 171 210 252 303
#     4  11  18  32  50  79 105 127 172 216 249 288
#     4   9  16  27  44  70 103 131 162 207 248 296
#
# _framework density 19.804759000000001
#
# number of rings (size 3 to 8) (size 9 to 14) (size 15 to 20)
#    0.000    2.333    5.000    1.000    7.000    1.333 
#    0.000    0.833    0.000    3.000    0.000    0.000 
#    0.000    0.000    0.000    0.000    0.000    0.000 
#
# Total GULP energy -133615.591567 kJ/mol
# GULP energy per Si atom -5567.316315 kJ/mol
# Density = 1.975968 g / cm^3
# Si number density = 19.804759 Si / 1000 Ang^3
#
#
#
# Elastic Constant Matrix: (Units=GPa)
#
#
# Indices 1 2 3 4 5 6 
#
# 1 11.6980 35.2808 12.0735 0.0000 -5.5820 0.0000
# 2 35.2808 149.2433 25.3906 0.0000 -16.7901 0.0000
# 3 12.0735 25.3906 39.3653 0.0000 -6.5048 0.0000
# 4 0.0000 0.0000 0.0000 13.6847 0.0000 31.2608
# 5 -5.5820 -16.7901 -6.5048 0.0000 14.2060 0.0000
# 6 0.0000 0.0000 0.0000 31.2608 0.0000 -50.4844
#
#
#
# Elastic Compliance Matrix: (Units=1/GPa)
#
#
# Indices 1 2 3 4 5 6 
#
# 1 0.449377 -0.089487 -0.074005 0.000000 0.036923 0.000000
# 2 -0.089487 0.026099 0.010709 0.000000 0.000588 0.000000
# 3 -0.074005 0.010709 0.041630 0.000000 0.002640 0.000000
# 4 0.000000 0.000000 0.000000 0.030265 0.000000 0.018740
# 5 0.036923 0.000588 0.002640 0.000000 0.086805 0.000000
# 6 0.000000 0.000000 0.000000 0.018740 0.000000 -0.008204
#
#
# Mechanical properties :
#
#
# Convention : Reuss Voigt Hill
#
# Bulk Modulus (GPa) = 4.72726 38.42182 21.57454
# Shear Modulus (GPa) = 4.98977 3.98537 4.48757
#
# Velocity S-wave (km/s) = 1.58901 1.42010 1.50692
# Velocity P-wave (km/s) = 2.39973 4.70440 3.73430
#
# Compressibility (1/GPa) = 0.21153901
#
# Stress axis : x y z
#
# Youngs Moduli (GPa) = 2.22531 38.31523 24.02140
#
# Poissons Ratio (x) = 3.42873 1.77771
# Poissons Ratio (y) = 0.19914 -0.25725
# Poissons Ratio (z) = 0.16468 -0.41033
#
# Static dielectric constant tensor:
#      x y z
#    x 1.732760 0.000000 0.040790 
#    y 0.000000 1.741510 0.000000 
#    z 0.040790 0.000000 1.714630 
# 
# From -- ./inp_files/170807.got.cif
#   From: 2010.05.17/outbox.cif.g08.bks.cpg/sg12_86_cif.got.tgz:170807.got - 2010.06.03 13:09:07.
