data_PCOD9218333
_publ_section_title
;
Structure prediction by ZEFSAII (Michael W. Deem and Ramdas Pophale) SiO2 
 PCOD9218333
Probable space group: C 2/M
;
_chemical_formula_sum "Si O2"
_cell_formula_units_Z 56
_cell_length_a 19.876138
_cell_length_b 16.367761
_cell_length_c 19.891398
_cell_angle_alpha 90.000000
_cell_angle_beta 21.037071
_cell_angle_gamma 90.000000
_cell_volume 2322.988463
_symmetry_space_group_name_H-M "C 2/M"
_symmetry_group_IT_number 12
_symmetry_cell_setting 'monoclinic'
loop_
_space_group_symop_operation_xyz
x,y,z
-x,y,-z
-x,-y,-z
x,-y,z
1/2+x,1/2+y,z
1/2-x,1/2+y,-z
1/2-x,1/2-y,-z
1/2+x,1/2-y,z
loop_
_atom_site_type_symbol
_atom_site_label
_atom_site_fract_x
_atom_site_fract_y
_atom_site_fract_z
Si Si1 0.988962 0.836059 0.150379
Si Si2 0.256897 0.173222 0.096023
Si Si3 0.721263 0.591381 0.270632
Si Si4 0.214551 0.268859 0.309213
Si Si5 0.858003 0.832334 0.416975
Si Si6 0.204993 0.591234 0.205008
Si Si7 0.471732 0.094013 0.772790
O O1 0.791914 0.809437 0.303630
O O2 0.957301 0.859308 0.256029
O O3 0.127553 0.758264 0.007306
O O4 0.088424 0.909190 0.019846
O O5 0.265133 0.110068 0.150751
O O6 0.031832 0.185761 0.302936
O O7 0.341902 0.140383 0.946924
O O8 0.500000 0.587775 0.500000
O O9 0.792949 0.500000 0.221466
O O10 0.802071 0.677145 0.225037
O O11 0.230971 0.340511 0.238106
O O12 0.000000 0.250279 0.500000
O O13 0.750000 0.750000 0.500000
O O14 0.687601 0.891826 0.593366
O O15 0.151355 0.500000 0.278612
O O16 0.070967 0.614622 0.266017
O O17 0.424038 0.000000 0.822601
#
# Coordination Sequence:
#
# PCOD9218333 Si02
#       7
#     8   8   8   8   8   8   8
#     4  12  24  43  70 104 138 186 241 289 359 426
#     4  12  24  45  72 103 144 187 236 298 359 430
#     4  10  24  44  70 101 137 181 229 285 352 422
#     4  11  25  43  69  99 140 184 240 295 350 421
#     4  12  25  41  73 103 140 187 238 294 359 425
#     4  11  24  45  70 100 142 186 237 293 354 424
#     4  11  25  44  70 107 142 186 240 296 360 431
#
# _framework density 24.106878999999999
#
# number of rings (size 3 to 8) (size 9 to 14) (size 15 to 20)
#    0.000    0.714    4.286    3.000    4.000    3.143 
#    0.000    3.571    0.000    0.000    0.000    0.000 
#    0.000    0.000    0.000    0.000    0.000    0.000 
#
# Total GULP energy -156121.046050 kJ/mol
# GULP energy per Si atom -5575.751645 kJ/mol
# Density = 2.405201 g / cm^3
# Si number density = 24.106879 Si / 1000 Ang^3
#
#
#
# Elastic Constant Matrix: (Units=GPa)
#
#
# Indices 1 2 3 4 5 6 
#
# 1 45.8178 16.3308 18.9413 -0.0016 -4.3744 0.0053
# 2 16.3308 135.2519 14.8590 -0.0201 12.5120 0.0165
# 3 18.9413 14.8590 98.1637 -0.0091 -13.9451 0.0159
# 4 -0.0016 -0.0201 -0.0091 16.6302 0.0033 -9.4546
# 5 -4.3744 12.5120 -13.9451 0.0033 37.9179 -0.0063
# 6 0.0053 0.0165 0.0159 -9.4546 -0.0063 -9.0239
#
#
#
# Elastic Compliance Matrix: (Units=1/GPa)
#
#
# Indices 1 2 3 4 5 6 
#
# 1 0.024686 -0.002749 -0.004024 -0.000002 0.002275 0.000003
# 2 -0.002749 0.008177 -0.001198 0.000011 -0.003456 0.000002
# 3 -0.004024 -0.001198 0.011749 0.000007 0.004252 0.000006
# 4 -0.000002 0.000011 0.000007 0.037684 -0.000011 -0.039483
# 5 0.002275 -0.003456 0.004252 -0.000011 0.029339 -0.000006
# 6 0.000003 0.000002 0.000006 -0.039483 -0.000006 -0.069449
#
#
# Mechanical properties :
#
#
# Convention : Reuss Voigt Hill
#
# Bulk Modulus (GPa) = 34.88046 42.16617 38.52331
# Shear Modulus (GPa) = 73.87075 24.37834 49.12455
#
# Velocity S-wave (km/s) = 5.54162 3.18348 4.51908
# Velocity P-wave (km/s) = 7.44624 5.57154 6.57604
#
# Compressibility (1/GPa) = 0.02866935
#
# Stress axis : x y z
#
# Youngs Moduli (GPa) = 40.50849 122.29569 85.11401
#
# Poissons Ratio (x) = 0.33620 0.34250
# Poissons Ratio (y) = 0.11136 0.10199
# Poissons Ratio (z) = 0.16301 0.14654
#
# Static dielectric constant tensor:
#      x y z
#    x 1.966020 0.000030 -0.019420 
#    y 0.000030 2.123210 -0.000050 
#    z -0.019420 -0.000050 1.950690 
# 
# From -- ./inp_files/322624.got.cif
#   From: 2010.05.17/outbox.cif.g08.bks.cpg/sg12_162_cif.got.tgz:322624.got - 2010.06.03 13:09:07.
