data_PCOD9218430
_publ_section_title
;
Structure prediction by ZEFSAII (Michael W. Deem and Ramdas Pophale) SiO2 
 PCOD9218430
Probable space group: C 2/M
;
_chemical_formula_sum "Si O2"
_cell_formula_units_Z 32
_cell_length_a 13.764982
_cell_length_b 18.455613
_cell_length_c 5.449113
_cell_angle_alpha 90.000000
_cell_angle_beta 101.796034
_cell_angle_gamma 90.000000
_cell_volume 1355.064838
_symmetry_space_group_name_H-M "C 2/M"
_symmetry_group_IT_number 12
_symmetry_cell_setting 'monoclinic'
loop_
_space_group_symop_operation_xyz
x,y,z
-x,y,-z
-x,-y,-z
x,-y,z
1/2+x,1/2+y,z
1/2-x,1/2+y,-z
1/2-x,1/2-y,-z
1/2+x,1/2-y,z
loop_
_atom_site_type_symbol
_atom_site_label
_atom_site_fract_x
_atom_site_fract_y
_atom_site_fract_z
Si Si1 0.694480 0.312270 0.122100
Si Si2 0.938367 0.294957 0.717547
Si Si3 0.095966 0.918576 0.718505
Si Si4 0.701621 0.082261 0.492082
O O1 0.641259 0.270144 0.315868
O O2 0.772684 0.371658 0.253069
O O3 0.750000 0.250000 0.000000
O O4 0.613208 0.356309 0.925214
O O5 0.880481 0.371092 0.688926
O O6 0.000000 0.290382 0.500000
O O7 0.000000 0.289138 0.000000
O O8 0.195698 0.918667 0.606556
O O9 0.000000 0.907209 0.500000
O O10 0.087596 0.000000 0.824660
O O11 0.671959 0.000000 0.527076
#
# Coordination Sequence:
#
# PCOD9218430 Si02
#       4
#     8   8   8   8
#     4  12  25  45  76 108 151 200 252 317 380 448
#     4  12  29  48  77 115 154 202 255 315 381 452
#     4  10  24  45  73 109 148 197 251 312 386 455
#     4  11  26  48  73 106 151 199 252 314 381 456
#
# _framework density 23.615106000000001
#
# number of rings (size 3 to 8) (size 9 to 14) (size 15 to 20)
#    0.000    0.750    2.500    3.000    7.000    1.000 
#    0.000    3.750    0.000    2.250    0.000    0.000 
#    0.000    0.000    0.000    0.000    0.000    0.000 
#
# Total GULP energy -89731.162409 kJ/mol
# GULP energy per Si atom -5608.197651 kJ/mol
# Density = 2.356136 g / cm^3
# Si number density = 23.615106 Si / 1000 Ang^3
#
#
#
# Elastic Constant Matrix: (Units=GPa)
#
#
# Indices 1 2 3 4 5 6 
#
# 1 87.4536 43.6486 36.6113 0.0000 -12.9243 0.0000
# 2 43.6486 226.5268 63.6432 0.0000 9.4850 0.0000
# 3 36.6113 63.6432 97.6599 0.0000 9.8094 0.0000
# 4 0.0000 0.0000 0.0000 36.9372 0.0000 10.5690
# 5 -12.9243 9.4850 9.8094 0.0000 41.6766 0.0000
# 6 0.0000 0.0000 0.0000 10.5690 0.0000 17.6755
#
#
#
# Elastic Compliance Matrix: (Units=1/GPa)
#
#
# Indices 1 2 3 4 5 6 
#
# 1 0.015490 -0.001764 -0.005305 0.000000 0.006454 0.000000
# 2 -0.001764 0.005612 -0.002880 0.000000 -0.001146 0.000000
# 3 -0.005305 -0.002880 0.014549 0.000000 -0.004414 0.000000
# 4 0.000000 0.000000 0.000000 0.032661 0.000000 -0.019530
# 5 0.006454 -0.001146 -0.004414 0.000000 0.027296 0.000000
# 6 0.000000 0.000000 0.000000 -0.019530 0.000000 0.068253
#
#
# Mechanical properties :
#
#
# Convention : Reuss Voigt Hill
#
# Bulk Modulus (GPa) = 63.49094 77.71626 70.60360
# Shear Modulus (GPa) = 26.45339 37.10700 31.78020
#
# Velocity S-wave (km/s) = 3.35055 3.96829 3.67244
# Velocity P-wave (km/s) = 6.47398 7.34694 6.92423
#
# Compressibility (1/GPa) = 0.01575028
#
# Stress axis : x y z
#
# Youngs Moduli (GPa) = 64.55735 178.19799 68.73290
#
# Poissons Ratio (x) = 0.31441 0.36466
# Poissons Ratio (y) = 0.11390 0.19798
# Poissons Ratio (z) = 0.34251 0.51330
#
# Static dielectric constant tensor:
#      x y z
#    x 1.892050 0.000000 0.002220 
#    y 0.000000 1.864670 0.000000 
#    z 0.002220 0.000000 1.931390 
# 
# From -- ./inp_files/10149.got.cif
#   From: 2010.05.17/outbox.cif.g08.bks.cpg/sg12_6_cif.got.tgz:10149.got - 2010.06.03 13:09:07.
