data_PCOD9218923
_publ_section_title
;
Structure prediction by ZEFSAII (Michael W. Deem and Ramdas Pophale) SiO2 
 PCOD9218923
Probable space group: C 2/M
;
_chemical_formula_sum "Si O2"
_cell_formula_units_Z 40
_cell_length_a 12.807199
_cell_length_b 15.473641
_cell_length_c 15.622017
_cell_angle_alpha 90.000000
_cell_angle_beta 148.552377
_cell_angle_gamma 90.000000
_cell_volume 1615.177865
_symmetry_space_group_name_H-M "C 2/M"
_symmetry_group_IT_number 12
_symmetry_cell_setting 'monoclinic'
loop_
_space_group_symop_operation_xyz
x,y,z
-x,y,-z
-x,-y,-z
x,-y,z
1/2+x,1/2+y,z
1/2-x,1/2+y,-z
1/2-x,1/2-y,-z
1/2+x,1/2-y,z
loop_
_atom_site_type_symbol
_atom_site_label
_atom_site_fract_x
_atom_site_fract_y
_atom_site_fract_z
Si Si1 0.406941 0.124855 0.528291
Si Si2 0.891756 0.406379 0.702354
Si Si3 0.053059 0.739245 0.135800
Si Si4 0.547875 0.401561 0.821866
Si Si5 0.519252 0.315643 0.626329
O O1 0.500000 0.110098 0.500000
O O2 0.489412 0.089835 0.675937
O O3 0.186736 0.089413 0.363558
O O4 0.400690 0.225742 0.548468
O O5 0.899534 0.500000 0.749555
O O6 0.006638 0.336285 0.839930
O O7 0.654406 0.382564 0.524316
O O8 0.969320 0.829542 0.114849
O O9 0.293272 0.719165 0.298707
O O10 0.000000 0.734188 0.000000
O O11 0.625534 0.500000 0.891720
O O12 0.615074 0.354857 0.780304
#
# Coordination Sequence:
#
# PCOD9218923 Si02
#       5
#     8   8   8   8   8
#     4  11  18  37  68 100 126 165 214 276 325 388
#     4  11  23  41  67 100 134 170 219 274 334 395
#     4  12  26  44  67  94 135 179 225 268 325 392
#     4  11  23  41  67 100 135 171 222 276 329 390
#     4  11  20  42  70  94 127 175 212 274 335 392
#
# _framework density 24.765073000000001
#
# number of rings (size 3 to 8) (size 9 to 14) (size 15 to 20)
#    0.000    0.800    6.000    4.200    0.000    5.600 
#    0.000    0.000    0.000    0.000    0.000    0.000 
#    0.000    0.000    0.000    0.000    0.000    0.000 
#
# Total GULP energy -111405.701092 kJ/mol
# GULP energy per Si atom -5570.285055 kJ/mol
# Density = 2.470871 g / cm^3
# Si number density = 24.765073 Si / 1000 Ang^3
#
#
#
# Elastic Constant Matrix: (Units=GPa)
#
#
# Indices 1 2 3 4 5 6 
#
# 1 138.4706 59.7808 36.0580 0.0010 -22.2461 0.0002
# 2 59.7808 204.0932 40.1326 -0.0007 -19.7429 0.0013
# 3 36.0580 40.1326 84.0085 -0.0004 -31.4035 0.0014
# 4 0.0010 -0.0007 -0.0004 -9.3031 0.0008 9.0683
# 5 -22.2461 -19.7429 -31.4035 0.0008 54.8404 0.0008
# 6 0.0002 0.0013 0.0014 9.0683 0.0008 19.4652
#
#
#
# Elastic Compliance Matrix: (Units=1/GPa)
#
#
# Indices 1 2 3 4 5 6 
#
# 1 0.008942 -0.002017 -0.002278 0.000001 0.001597 0.000000
# 2 -0.002017 0.005878 -0.001854 -0.000001 0.000236 0.000000
# 3 -0.002278 -0.001854 0.016759 -0.000001 0.008006 -0.000001
# 4 0.000001 -0.000001 -0.000001 -0.073922 0.000000 0.034438
# 5 0.001597 0.000236 0.008006 0.000000 0.023552 -0.000002
# 6 0.000000 0.000000 -0.000001 0.034438 -0.000002 0.035330
#
#
# Mechanical properties :
#
#
# Convention : Reuss Voigt Hill
#
# Bulk Modulus (GPa) = 51.86041 77.61276 64.73659
# Shear Modulus (GPa) = 141.78945 32.37391 87.08168
#
# Velocity S-wave (km/s) = 7.57483 3.61950 5.93628
# Velocity P-wave (km/s) = 9.87373 6.99109 8.55470
#
# Compressibility (1/GPa) = 0.01928253
#
# Stress axis : x y z
#
# Youngs Moduli (GPa) = 111.82987 170.12854 59.66776
#
# Poissons Ratio (x) = 0.34313 0.13590
# Poissons Ratio (y) = 0.22555 0.11062
# Poissons Ratio (z) = 0.25471 0.31542
#
# Static dielectric constant tensor:
#      x y z
#    x 2.186600 0.000000 0.012690 
#    y 0.000000 2.042300 0.000000 
#    z 0.012690 0.000000 2.022200 
# 
# From -- ./inp_files/270796.got.cif
#   From: 2010.05.17/outbox.cif.g08.bks.cpg/sg12_136_cif.got.tgz:270796.got - 2010.06.03 13:09:07.
