data_PCOD9218274
_publ_section_title
;
Structure prediction by ZEFSAII (Michael W. Deem and Ramdas Pophale) SiO2 
 PCOD9218274
Probable space group: C 2/M
;
_chemical_formula_sum "Si O2"
_cell_formula_units_Z 60
_cell_length_a 23.367941
_cell_length_b 8.962361
_cell_length_c 14.743217
_cell_angle_alpha 90.000000
_cell_angle_beta 102.008160
_cell_angle_gamma 90.000000
_cell_volume 3020.135170
_symmetry_space_group_name_H-M "C 2/M"
_symmetry_group_IT_number 12
_symmetry_cell_setting 'monoclinic'
loop_
_space_group_symop_operation_xyz
x,y,z
-x,y,-z
-x,-y,-z
x,-y,z
1/2+x,1/2+y,z
1/2-x,1/2+y,-z
1/2-x,1/2-y,-z
1/2+x,1/2-y,z
loop_
_atom_site_type_symbol
_atom_site_label
_atom_site_fract_x
_atom_site_fract_y
_atom_site_fract_z
Si Si1 0.348360 0.823874 0.818024
Si Si2 0.730430 0.500000 0.530897
Si Si3 0.074893 0.328597 0.472676
Si Si4 0.108958 0.320691 0.831178
Si Si5 0.316130 0.760851 0.613544
Si Si6 0.268352 0.324533 0.101139
Si Si7 0.457852 0.320578 0.359654
Si Si8 0.430727 0.324263 0.992902
O O1 0.342656 0.737904 0.721399
O O2 0.286902 0.814299 0.850685
O O3 0.361024 0.000000 0.805362
O O4 0.396744 0.751439 0.898614
O O5 0.705813 0.625046 0.452241
O O6 0.761591 0.371423 0.604105
O O7 0.061495 0.500000 0.492071
O O8 0.132673 0.329909 0.431671
O O9 0.080719 0.231974 0.566405
O O10 0.021251 0.252041 0.401119
O O11 0.106617 0.500000 0.826437
O O12 0.175196 0.261520 0.842930
O O13 0.069607 0.247285 0.739839
O O14 0.087364 0.260974 0.921453
O O15 0.282201 0.500000 0.092455
O O16 0.250000 0.250000 0.000000
O O17 0.461391 0.500000 0.357705
O O18 0.415310 0.500000 0.995270
O O19 0.500000 0.313210 0.000000
#
# Coordination Sequence:
#
# PCOD9218274 Si02
#       8
#     8   4   8   8   8   8   8   8
#     4  11  24  44  69 101 132 177 224 268 345 403
#     4  10  24  44  64  96 134 172 222 268 332 394
#     4  11  22  43  69  97 134 169 218 277 337 399
#     4  12  25  45  69  98 134 178 223 276 334 393
#     4  11  24  45  69  97 137 175 221 282 335 398
#     4  11  23  42  67  95 134 173 218 273 327 395
#     4  11  25  43  67  99 130 174 222 274 332 402
#     4  11  26  45  68 101 138 174 227 284 332 403
#
# _framework density 19.866661000000001
#
# number of rings (size 3 to 8) (size 9 to 14) (size 15 to 20)
#    0.000    0.933    2.667    4.400    4.667    3.733 
#    2.400    0.000    0.000    0.000    0.000    0.000 
#    0.000    0.000    0.000    0.000    0.000    0.000 
#
# Total GULP energy -167154.689680 kJ/mol
# GULP energy per Si atom -5571.822989 kJ/mol
# Density = 1.982144 g / cm^3
# Si number density = 19.866661 Si / 1000 Ang^3
#
#
#
# Elastic Constant Matrix: (Units=GPa)
#
#
# Indices 1 2 3 4 5 6 
#
# 1 32.7737 21.6789 11.6854 0.0000 6.3323 0.0000
# 2 21.6789 125.9870 30.9041 0.0000 17.4009 0.0000
# 3 11.6854 30.9041 148.2657 0.0000 27.3557 0.0000
# 4 0.0000 0.0000 0.0000 34.7304 0.0000 27.6515
# 5 6.3323 17.4009 27.3557 0.0000 24.2800 0.0000
# 6 0.0000 0.0000 0.0000 27.6515 0.0000 26.8923
#
#
#
# Elastic Compliance Matrix: (Units=1/GPa)
#
#
# Indices 1 2 3 4 5 6 
#
# 1 0.035132 -0.005219 -0.000859 0.000000 -0.004454 0.000000
# 2 -0.005219 0.009670 -0.000728 0.000000 -0.004749 0.000000
# 3 -0.000859 -0.000728 0.008618 0.000000 -0.008964 0.000000
# 4 0.000000 0.000000 0.000000 0.158774 0.000000 -0.163257
# 5 -0.004454 -0.004749 -0.008964 0.000000 0.055850 0.000000
# 6 0.000000 0.000000 0.000000 -0.163257 0.000000 0.205051
#
#
# Mechanical properties :
#
#
# Convention : Reuss Voigt Hill
#
# Bulk Modulus (GPa) = 25.12163 48.39593 36.75878
# Shear Modulus (GPa) = 10.00046 33.36440 21.68243
#
# Velocity S-wave (km/s) = 2.24605 4.10251 3.30722
# Velocity P-wave (km/s) = 4.40441 6.84501 5.75556
#
# Compressibility (1/GPa) = 0.03980633
#
# Stress axis : x y z
#
# Youngs Moduli (GPa) = 28.46446 103.41388 116.03650
#
# Poissons Ratio (x) = 0.53974 0.09970
# Poissons Ratio (y) = 0.14856 0.08448
# Poissons Ratio (z) = 0.02446 0.07529
#
# Static dielectric constant tensor:
#      x y z
#    x 1.719360 0.000000 -0.004010 
#    y 0.000000 1.686530 0.000000 
#    z -0.004010 0.000000 1.667270 
# 
# From -- ./inp_files/238821.got.cif
#   From: 2010.05.17/outbox.cif.g08.bks.cpg/sg12_120_cif.got.tgz:238821.got - 2010.06.03 13:09:07.
