data_PCOD9218857
_publ_section_title
;
Structure prediction by ZEFSAII (Michael W. Deem and Ramdas Pophale) SiO2 
 PCOD9218857
Probable space group: C 2/M
;
_chemical_formula_sum "Si O2"
_cell_formula_units_Z 64
_cell_length_a 8.174001
_cell_length_b 20.654407
_cell_length_c 20.076491
_cell_angle_alpha 90.000000
_cell_angle_beta 59.445687
_cell_angle_gamma 90.000000
_cell_volume 2918.857210
_symmetry_space_group_name_H-M "C 2/M"
_symmetry_group_IT_number 12
_symmetry_cell_setting 'monoclinic'
loop_
_space_group_symop_operation_xyz
x,y,z
-x,y,-z
-x,-y,-z
x,-y,z
1/2+x,1/2+y,z
1/2-x,1/2+y,-z
1/2-x,1/2-y,-z
1/2+x,1/2-y,z
loop_
_atom_site_type_symbol
_atom_site_label
_atom_site_fract_x
_atom_site_fract_y
_atom_site_fract_z
Si Si1 0.247421 0.925796 0.789120
Si Si2 0.866892 0.623716 0.229904
Si Si3 0.514268 0.671825 0.073456
Si Si4 0.436640 0.423155 0.615286
Si Si5 0.701385 0.192716 0.877687
Si Si6 0.330352 0.153764 0.647384
Si Si7 0.690310 0.078370 0.534503
Si Si8 0.522215 0.249345 0.714480
O O1 0.460965 0.916921 0.774087
O O2 0.116828 0.875687 0.856114
O O3 0.249674 0.902396 0.712287
O O4 0.188254 0.000000 0.807544
O O5 0.666241 0.596732 0.295991
O O6 0.886345 0.634521 0.147185
O O7 0.879516 0.694921 0.259973
O O8 0.432347 0.744825 0.092737
O O9 0.719116 0.674036 0.066549
O O10 0.500000 0.651027 0.000000
O O11 0.444825 0.500000 0.611598
O O12 0.651110 0.403535 0.553081
O O13 0.295170 0.405518 0.583304
O O14 0.882448 0.214875 0.795213
O O15 0.498411 0.119336 0.572526
O O16 0.424739 0.206123 0.678412
O O17 0.163193 0.198343 0.653398
O O18 0.655122 0.000000 0.539669
#
# Coordination Sequence:
#
# PCOD9218857 Si02
#       8
#     8   8   8   8   8   8   8   8
#     4  11  21  37  59  85 115 153 196 238 284 342
#     4  11  19  33  60  84 117 148 193 241 283 336
#     4  12  24  40  63  91 119 150 186 234 295 356
#     4   9  17  30  51  82 113 149 195 246 286 326
#     4  12  20  40  61  88 118 149 188 237 291 344
#     4  11  19  33  57  82 113 153 193 235 286 339
#     4   9  17  30  53  81 112 150 197 243 286 335
#     4  11  18  31  55  79 113 143 180 236 283 326
#
# _framework density 21.926390000000001
#
# number of rings (size 3 to 8) (size 9 to 14) (size 15 to 20)
#    0.000    1.250    8.750    1.875    0.000    0.250 
#    0.000    1.875    2.750    0.750    0.000    1.750 
#    0.000    0.000    0.000    0.000    0.000    0.000 
#
# Total GULP energy -178853.858744 kJ/mol
# GULP energy per Si atom -5589.183086 kJ/mol
# Density = 2.187648 g / cm^3
# Si number density = 21.926390 Si / 1000 Ang^3
#
#
#
# Elastic Constant Matrix: (Units=GPa)
#
#
# Indices 1 2 3 4 5 6 
#
# 1 33.4912 6.3829 -13.3269 0.0000 5.6173 0.0000
# 2 6.3829 35.1115 8.1629 0.0000 7.4301 0.0000
# 3 -13.3269 8.1629 49.3891 0.0000 4.7740 0.0000
# 4 0.0000 0.0000 0.0000 12.9976 0.0000 6.8182
# 5 5.6173 7.4301 4.7740 0.0000 24.8080 0.0000
# 6 0.0000 0.0000 0.0000 6.8182 0.0000 4.1369
#
#
#
# Elastic Compliance Matrix: (Units=1/GPa)
#
#
# Indices 1 2 3 4 5 6 
#
# 1 0.037692 -0.007906 0.012302 0.000000 -0.008534 0.000000
# 2 -0.007906 0.032957 -0.006928 0.000000 -0.006747 0.000000
# 3 0.012302 -0.006928 0.025250 0.000000 -0.005570 0.000000
# 4 0.000000 0.000000 0.000000 0.568122 0.000000 -0.936354
# 5 -0.008534 -0.006747 -0.005570 0.000000 0.045335 0.000000
# 6 0.000000 0.000000 0.000000 -0.936354 0.000000 1.784986
#
#
# Mechanical properties :
#
#
# Convention : Reuss Voigt Hill
#
# Bulk Modulus (GPa) = 11.00898 13.38108 12.19503
# Shear Modulus (GPa) = 1.97653 16.17335 9.07494
#
# Velocity S-wave (km/s) = 0.95047 2.71886 2.03662
# Velocity P-wave (km/s) = 2.49726 3.99653 3.33231
#
# Compressibility (1/GPa) = 0.09083493
#
# Stress axis : x y z
#
# Youngs Moduli (GPa) = 26.53076 30.34302 39.60335
#
# Poissons Ratio (x) = 0.23990 -0.48721
# Poissons Ratio (y) = 0.20976 0.27438
# Poissons Ratio (z) = -0.32639 0.21022
#
# Static dielectric constant tensor:
#      x y z
#    x 1.939510 0.000000 0.029740 
#    y 0.000000 1.761810 0.000000 
#    z 0.029740 0.000000 1.828560 
# 
# From -- ./inp_files/301691.got.cif
#   From: 2010.05.17/outbox.cif.g08.bks.cpg/sg12_151_cif.got.tgz:301691.got - 2010.06.03 13:09:07.
