data_PCOD9218487
_publ_section_title
;
Structure prediction by ZEFSAII (Michael W. Deem and Ramdas Pophale) SiO2 
 PCOD9218487
Probable space group: C 2/M
;
_chemical_formula_sum "Si O2"
_cell_formula_units_Z 24
_cell_length_a 11.280926
_cell_length_b 18.750489
_cell_length_c 10.488560
_cell_angle_alpha 90.000000
_cell_angle_beta 155.347378
_cell_angle_gamma 90.000000
_cell_volume 925.400512
_symmetry_space_group_name_H-M "C 2/M"
_symmetry_group_IT_number 12
_symmetry_cell_setting 'monoclinic'
loop_
_space_group_symop_operation_xyz
x,y,z
-x,y,-z
-x,-y,-z
x,-y,z
1/2+x,1/2+y,z
1/2-x,1/2+y,-z
1/2-x,1/2-y,-z
1/2+x,1/2-y,z
loop_
_atom_site_type_symbol
_atom_site_label
_atom_site_fract_x
_atom_site_fract_y
_atom_site_fract_z
Si Si1 0.190236 0.131771 0.026350
Si Si2 0.500000 0.753261 0.500000
Si Si3 0.000000 0.000000 0.500000
Si Si4 0.000000 0.000000 0.000000
Si Si5 0.207860 0.630925 0.367249
O O1 0.314611 0.198126 0.224219
O O2 0.381048 0.122442 0.085968
O O3 0.872323 0.137953 0.662696
O O4 0.187273 0.062333 0.110542
O O5 0.288958 0.701370 0.370274
O O6 0.821809 0.062421 0.404270
#
# Coordination Sequence:
#
# PCOD9218487 Si02
#       5
#     8   4   2   2   8
#     4  12  26  46  70 104 142 187 237 294 352 422
#     4  11  26  46  74 107 146 188 236 295 360 424
#     4  10  24  46  72 104 140 188 234 288 352 420
#     4  12  28  46  72 100 140 188 238 290 352 418
#     4  11  26  45  73 106 143 185 237 292 354 424
#
# _framework density 25.934715000000001
#
# number of rings (size 3 to 8) (size 9 to 14) (size 15 to 20)
#    0.000    0.667    0.000    6.000    0.000   16.667 
#    0.000    0.000    0.000    0.000    0.000    0.000 
#    0.000    0.000    0.000    0.000    0.000    0.000 
#
# Total GULP energy -66917.273998 kJ/mol
# GULP energy per Si atom -5576.439500 kJ/mol
# Density = 2.587569 g / cm^3
# Si number density = 25.934715 Si / 1000 Ang^3
#
#
#
# Elastic Constant Matrix: (Units=GPa)
#
#
# Indices 1 2 3 4 5 6 
#
# 1 128.5490 81.9325 1.7401 0.0025 17.2749 0.0016
# 2 81.9325 251.9647 20.0731 -0.0011 2.0531 -0.0005
# 3 1.7401 20.0731 83.8457 0.0117 -8.7729 0.0148
# 4 0.0025 -0.0011 0.0117 8.4137 0.0040 71.0018
# 5 17.2749 2.0531 -8.7729 0.0040 43.0273 0.0041
# 6 0.0016 -0.0005 0.0148 71.0018 0.0041 107.7873
#
#
#
# Elastic Compliance Matrix: (Units=1/GPa)
#
#
# Indices 1 2 3 4 5 6 
#
# 1 0.010474 -0.003387 0.000174 0.000000 -0.004008 0.000000
# 2 -0.003387 0.005148 -0.001068 0.000000 0.000896 0.000000
# 3 0.000174 -0.001068 0.012442 0.000001 0.002518 -0.000002
# 4 0.000000 0.000000 0.000001 -0.026071 0.000001 0.017174
# 5 -0.004008 0.000896 0.002518 0.000001 0.025321 -0.000002
# 6 0.000000 0.000000 -0.000002 0.017174 -0.000002 -0.002035
#
#
# Mechanical properties :
#
#
# Convention : Reuss Voigt Hill
#
# Bulk Modulus (GPa) = 51.27735 74.65010 62.96372
# Shear Modulus (GPa) = 123.93804 55.88659 89.91232
#
# Velocity S-wave (km/s) = 6.92042 4.64712 5.89440
# Velocity P-wave (km/s) = 9.14718 7.59214 8.40570
#
# Compressibility (1/GPa) = 0.01950179
#
# Stress axis : x y z
#
# Youngs Moduli (GPa) = 95.47203 194.24859 80.37111
#
# Poissons Ratio (x) = 0.65795 -0.01400
# Poissons Ratio (y) = 0.32338 0.08587
# Poissons Ratio (z) = -0.01663 0.20753
#
# Static dielectric constant tensor:
#      x y z
#    x 2.038600 0.000000 -0.049620 
#    y 0.000000 1.902870 0.000000 
#    z -0.049620 0.000000 2.034910 
# 
# From -- ./inp_files/131544.got.cif
#   From: 2010.05.17/outbox.cif.g08.bks.cpg/sg12_66_cif.got.tgz:131544.got - 2010.06.03 13:09:07.
