data_PCOD9218836
_publ_section_title
;
Structure prediction by ZEFSAII (Michael W. Deem and Ramdas Pophale) SiO2 
 PCOD9218836
Probable space group: C 2/M
;
_chemical_formula_sum "Si O2"
_cell_formula_units_Z 56
_cell_length_a 9.222609
_cell_length_b 17.232556
_cell_length_c 21.276398
_cell_angle_alpha 90.000000
_cell_angle_beta 58.352955
_cell_angle_gamma 90.000000
_cell_volume 2878.607162
_symmetry_space_group_name_H-M "C 2/M"
_symmetry_group_IT_number 12
_symmetry_cell_setting 'monoclinic'
loop_
_space_group_symop_operation_xyz
x,y,z
-x,y,-z
-x,-y,-z
x,-y,z
1/2+x,1/2+y,z
1/2-x,1/2+y,-z
1/2-x,1/2-y,-z
1/2+x,1/2-y,z
loop_
_atom_site_type_symbol
_atom_site_label
_atom_site_fract_x
_atom_site_fract_y
_atom_site_fract_z
Si Si1 0.303673 0.086930 0.562090
Si Si2 0.441273 0.717308 0.947721
Si Si3 0.666826 0.195666 0.338940
Si Si4 0.196029 0.089746 0.268869
Si Si5 0.708343 0.302948 0.143983
Si Si6 0.015827 0.837388 0.567079
Si Si7 0.521987 0.185938 0.747641
O O1 0.500000 0.084422 0.500000
O O2 0.283026 0.117464 0.637446
O O3 0.210079 0.150469 0.541279
O O4 0.234053 0.000000 0.568608
O O5 0.403057 0.671068 0.891533
O O6 0.588386 0.784477 0.907335
O O7 0.500000 0.677510 0.000000
O O8 0.250000 0.750000 0.000000
O O9 0.559487 0.251431 0.409802
O O10 0.549039 0.179990 0.306181
O O11 0.831713 0.247044 0.283844
O O12 0.171911 0.142613 0.212333
O O13 0.081814 0.117052 0.354355
O O14 0.387518 0.109444 0.248143
O O15 0.169432 0.000000 0.261688
O O16 0.631107 0.217956 0.176116
O O17 0.000000 0.867136 0.500000
#
# Coordination Sequence:
#
# PCOD9218836 Si02
#       7
#     8   8   8   8   8   8   8
#     4  11  25  39  53  78 110 145 190 252 323 371
#     4   9  19  32  61 103 123 154 202 245 284 346
#     4  11  21  38  59  83 109 149 206 255 308 361
#     4  11  24  38  60  91 122 161 208 251 311 366
#     4  11  17  37  62  89 128 159 199 249 286 354
#     4  11  24  41  63  81 114 162 215 261 307 365
#     4  11  20  36  62  88 112 156 202 250 293 350
#
# _framework density 19.453852000000001
#
# number of rings (size 3 to 8) (size 9 to 14) (size 15 to 20)
#    0.000    1.286    5.714    0.857    4.000    2.857 
#    0.000    0.000    0.000    6.857    0.000    0.000 
#    0.000    0.000    0.000    0.000    0.000    0.000 
#
# Total GULP energy -156005.487023 kJ/mol
# GULP energy per Si atom -5571.624537 kJ/mol
# Density = 1.940957 g / cm^3
# Si number density = 19.453852 Si / 1000 Ang^3
#
#
#
# Elastic Constant Matrix: (Units=GPa)
#
#
# Indices 1 2 3 4 5 6 
#
# 1 136.3109 10.0213 44.9526 0.0000 26.1622 0.0000
# 2 10.0213 32.5063 19.5561 0.0000 -0.2959 0.0000
# 3 44.9526 19.5561 91.5326 0.0000 16.6704 0.0000
# 4 0.0000 0.0000 0.0000 8.1452 0.0000 0.6960
# 5 26.1622 -0.2959 16.6704 0.0000 51.6130 0.0000
# 6 0.0000 0.0000 0.0000 0.6960 0.0000 27.3800
#
#
#
# Elastic Compliance Matrix: (Units=1/GPa)
#
#
# Indices 1 2 3 4 5 6 
#
# 1 0.009306 -0.000613 -0.003803 0.000000 -0.003492 0.000000
# 2 -0.000613 0.035727 -0.007890 0.000000 0.003064 0.000000
# 3 -0.003803 -0.007890 0.015019 0.000000 -0.002968 0.000000
# 4 0.000000 0.000000 0.000000 0.123040 0.000000 -0.003128
# 5 -0.003492 0.003064 -0.002968 0.000000 0.022121 0.000000
# 6 0.000000 0.000000 0.000000 -0.003128 0.000000 0.036603
#
#
# Mechanical properties :
#
#
# Convention : Reuss Voigt Hill
#
# Bulk Modulus (GPa) = 28.21696 45.48997 36.85347
# Shear Modulus (GPa) = 17.97004 29.81562 23.89283
#
# Velocity S-wave (km/s) = 3.04258 3.91913 3.50834
# Velocity P-wave (km/s) = 5.18451 6.62675 5.94949
#
# Compressibility (1/GPa) = 0.03543968
#
# Stress axis : x y z
#
# Youngs Moduli (GPa) = 107.46133 27.99013 66.58105
#
# Poissons Ratio (x) = 0.01715 0.25322
# Poissons Ratio (y) = 0.06582 0.52534
# Poissons Ratio (z) = 0.40870 0.22085
#
# Static dielectric constant tensor:
#      x y z
#    x 1.735700 0.000000 0.009670 
#    y 0.000000 1.640480 0.000000 
#    z 0.009670 0.000000 1.800770 
# 
# From -- ./inp_files/300697.got.cif
#   From: 2010.05.17/outbox.cif.g08.bks.cpg/sg12_151_cif.got.tgz:300697.got - 2010.06.03 13:09:07.
