data_PCOD9218122
_publ_section_title
;
Structure prediction by ZEFSAII (Michael W. Deem and Ramdas Pophale) SiO2 
 PCOD9218122
Probable space group: C 2/M
;
_chemical_formula_sum "Si O2"
_cell_formula_units_Z 28
_cell_length_a 18.007650
_cell_length_b 16.508617
_cell_length_c 5.095632
_cell_angle_alpha 90.000000
_cell_angle_beta 48.325688
_cell_angle_gamma 90.000000
_cell_volume 1131.486530
_symmetry_space_group_name_H-M "C 2/M"
_symmetry_group_IT_number 12
_symmetry_cell_setting 'monoclinic'
loop_
_space_group_symop_operation_xyz
x,y,z
-x,y,-z
-x,-y,-z
x,-y,z
1/2+x,1/2+y,z
1/2-x,1/2+y,-z
1/2-x,1/2-y,-z
1/2+x,1/2-y,z
loop_
_atom_site_type_symbol
_atom_site_label
_atom_site_fract_x
_atom_site_fract_y
_atom_site_fract_z
Si Si1 0.116699 0.331390 0.669111
Si Si2 0.104589 0.905260 0.137108
Si Si3 0.071024 0.500000 0.582118
Si Si4 0.705919 0.664654 0.380497
O O1 0.126925 0.415352 0.487593
O O2 0.181021 0.338885 0.784841
O O3 0.167849 0.255233 0.407559
O O4 0.000000 0.317190 0.000000
O O5 0.178611 0.892116 0.205046
O O6 0.000000 0.874578 0.500000
O O7 0.093797 0.000000 0.098579
O O8 0.142169 0.861156 0.788428
O O9 0.000000 0.500000 0.500000
O O10 0.000000 0.500000 0.000000
#
# Coordination Sequence:
#
# PCOD9218122 Si02
#       4
#     8   8   4   8
#     4  10  24  45  69 103 141 182 232 285 345 415
#     4  11  24  43  69 101 138 181 230 290 344 411
#     4  10  24  42  66  98 135 182 223 278 340 404
#     4  11  25  43  71 101 135 186 229 288 346 410
#
# _framework density 24.746207999999999
#
# number of rings (size 3 to 8) (size 9 to 14) (size 15 to 20)
#    0.000    1.429    0.000    3.429    4.000   17.143 
#    0.000    0.000    0.000    0.000    0.000    0.000 
#    0.000    0.000    0.000    0.000    0.000    0.000 
#
# Total GULP energy -78467.554814 kJ/mol
# GULP energy per Si atom -5604.825344 kJ/mol
# Density = 2.468988 g / cm^3
# Si number density = 24.746208 Si / 1000 Ang^3
#
#
#
# Elastic Constant Matrix: (Units=GPa)
#
#
# Indices 1 2 3 4 5 6 
#
# 1 140.3501 50.3342 70.1695 0.0000 -21.5365 0.0000
# 2 50.3342 125.9651 26.8676 0.0000 -0.5447 0.0000
# 3 70.1695 26.8676 156.2011 0.0000 -12.5248 0.0000
# 4 0.0000 0.0000 0.0000 -5.5552 0.0000 -0.3636
# 5 -21.5365 -0.5447 -12.5248 0.0000 58.1360 0.0000
# 6 0.0000 0.0000 0.0000 -0.3636 0.0000 44.2876
#
#
#
# Elastic Compliance Matrix: (Units=1/GPa)
#
#
# Indices 1 2 3 4 5 6 
#
# 1 0.010865 -0.003467 -0.004034 0.000000 0.003123 0.000000
# 2 -0.003467 0.009351 -0.000149 0.000000 -0.001229 0.000000
# 3 -0.004034 -0.000149 0.008263 0.000000 0.000284 0.000000
# 4 0.000000 0.000000 0.000000 -0.179916 0.000000 -0.001477
# 5 0.003123 -0.001229 0.000284 0.000000 0.018408 0.000000
# 6 0.000000 0.000000 0.000000 -0.001477 0.000000 0.022568
#
#
# Mechanical properties :
#
#
# Convention : Reuss Voigt Hill
#
# Bulk Modulus (GPa) = 75.89051 79.69542 77.79296
# Shear Modulus (GPa) = -55.08479 37.71670 -8.68405
#
# Velocity S-wave (km/s) = -4.72316 3.90826 -1.87533
# Velocity P-wave (km/s) = 0.99490 7.25541 5.17836
#
# Compressibility (1/GPa) = 0.01317688
#
# Stress axis : x y z
#
# Youngs Moduli (GPa) = 92.04224 106.94286 121.02793
#
# Poissons Ratio (x) = 0.37082 0.48820
# Poissons Ratio (y) = 0.31915 0.01807
# Poissons Ratio (z) = 0.37128 0.01596
#
# Static dielectric constant tensor:
#      x y z
#    x 1.917060 0.000000 -0.050180 
#    y 0.000000 2.029760 0.000000 
#    z -0.050180 0.000000 1.970010 
# 
# From -- ./inp_files/20075.got.cif
#   From: 2010.05.17/outbox.cif.g08.bks.cpg/sg12_11_cif.got.tgz:20075.got - 2010.06.03 13:09:07.
