data_PCOD9218930
_publ_section_title
;
Structure prediction by ZEFSAII (Michael W. Deem and Ramdas Pophale) SiO2 
 PCOD9218930
Probable space group: C 2/M
;
_chemical_formula_sum "Si O2"
_cell_formula_units_Z 36
_cell_length_a 11.896989
_cell_length_b 15.082555
_cell_length_c 9.368419
_cell_angle_alpha 90.000000
_cell_angle_beta 124.408353
_cell_angle_gamma 90.000000
_cell_volume 1386.911076
_symmetry_space_group_name_H-M "C 2/M"
_symmetry_group_IT_number 12
_symmetry_cell_setting 'monoclinic'
loop_
_space_group_symop_operation_xyz
x,y,z
-x,y,-z
-x,-y,-z
x,-y,z
1/2+x,1/2+y,z
1/2-x,1/2+y,-z
1/2-x,1/2-y,-z
1/2+x,1/2-y,z
loop_
_atom_site_type_symbol
_atom_site_label
_atom_site_fract_x
_atom_site_fract_y
_atom_site_fract_z
Si Si1 0.433074 0.632325 0.255559
Si Si2 0.146223 0.654086 0.175963
Si Si3 0.989740 0.659918 0.329126
Si Si4 0.142443 0.000000 0.351057
Si Si5 0.807596 0.137587 0.865590
O O1 0.286434 0.613353 0.220683
O O2 0.473393 0.734062 0.308468
O O3 0.561884 0.575535 0.387556
O O4 0.409132 0.615185 0.067801
O O5 0.167422 0.759830 0.161287
O O6 0.114654 0.633232 0.318969
O O7 0.000000 0.630463 0.000000
O O8 0.842182 0.628138 0.171806
O O9 0.000000 0.632612 0.500000
O O10 0.190669 0.923493 0.270195
#
# Coordination Sequence:
#
# PCOD9218930 Si02
#       5
#     8   8   8   4   8
#     4  11  21  36  64  93 123 160 200 258 303 358
#     4  11  18  38  65  88 121 157 208 256 294 352
#     4  11  23  39  64  93 122 162 211 250 301 361
#     4  12  23  40  63  97 123 158 205 252 312 373
#     4  11  20  36  66  93 123 160 202 255 303 360
#
# _framework density 25.956962999999998
#
# number of rings (size 3 to 8) (size 9 to 14) (size 15 to 20)
#    0.000    0.889    6.667    3.333    0.000    3.556 
#    0.000    2.778    0.000    0.000    0.000    0.000 
#    0.000    0.000    0.000    0.000    0.000    0.000 
#
# Total GULP energy -100255.674933 kJ/mol
# GULP energy per Si atom -5569.759719 kJ/mol
# Density = 2.589788 g / cm^3
# Si number density = 25.956963 Si / 1000 Ang^3
#
#
#
# Elastic Constant Matrix: (Units=GPa)
#
#
# Indices 1 2 3 4 5 6 
#
# 1 181.6055 2.4785 21.8798 0.0000 -40.2213 0.0000
# 2 2.4785 36.2402 -10.2779 0.0000 7.8308 0.0000
# 3 21.8798 -10.2779 113.2584 0.0000 -16.5496 0.0000
# 4 0.0000 0.0000 0.0000 -29.6752 0.0000 -25.3265
# 5 -40.2213 7.8308 -16.5496 0.0000 45.6865 0.0000
# 6 0.0000 0.0000 0.0000 -25.3265 0.0000 -0.1404
#
#
#
# Elastic Compliance Matrix: (Units=1/GPa)
#
#
# Indices 1 2 3 4 5 6 
#
# 1 0.007000 -0.002011 -0.000617 0.000000 0.006284 0.000000
# 2 -0.002011 0.029663 0.002195 0.000000 -0.006060 0.000000
# 3 -0.000617 0.002195 0.009517 0.000000 0.002528 0.000000
# 4 0.000000 0.000000 0.000000 0.000220 0.000000 -0.039742
# 5 0.006284 -0.006060 0.002528 0.000000 0.029375 0.000000
# 6 0.000000 0.000000 0.000000 -0.039742 0.000000 0.046566
#
#
# Mechanical properties :
#
#
# Convention : Reuss Voigt Hill
#
# Bulk Modulus (GPa) = 22.06824 39.91834 30.99329
# Shear Modulus (GPa) = 36.14988 24.30911 30.22950
#
# Velocity S-wave (km/s) = 3.73592 3.06357 3.41633
# Velocity P-wave (km/s) = 5.20862 5.28451 5.24670
#
# Compressibility (1/GPa) = 0.04531398
#
# Stress axis : x y z
#
# Youngs Moduli (GPa) = 142.85858 33.71187 105.07371
#
# Poissons Ratio (x) = 0.06781 0.06479
# Poissons Ratio (y) = 0.28735 -0.23063
# Poissons Ratio (z) = 0.08808 -0.07399
#
# Static dielectric constant tensor:
#      x y z
#    x 2.069020 0.000000 0.013740 
#    y 0.000000 2.413990 0.000000 
#    z 0.013740 0.000000 2.143200 
# 
# From -- ./inp_files/46793.got.cif
#   From: 2010.05.17/outbox.cif.g08.bks.cpg/sg12_24_cif.got.tgz:46793.got - 2010.06.03 13:09:07.
