data_PCOD9218178
_publ_section_title
;
Structure prediction by ZEFSAII (Michael W. Deem and Ramdas Pophale) SiO2 
 PCOD9218178
Probable space group: C 2/M
;
_chemical_formula_sum "Si O2"
_cell_formula_units_Z 40
_cell_length_a 12.853795
_cell_length_b 24.885523
_cell_length_c 5.029292
_cell_angle_alpha 90.000000
_cell_angle_beta 83.314261
_cell_angle_gamma 90.000000
_cell_volume 1597.796828
_symmetry_space_group_name_H-M "C 2/M"
_symmetry_group_IT_number 12
_symmetry_cell_setting 'monoclinic'
loop_
_space_group_symop_operation_xyz
x,y,z
-x,y,-z
-x,-y,-z
x,-y,z
1/2+x,1/2+y,z
1/2-x,1/2+y,-z
1/2-x,1/2-y,-z
1/2+x,1/2-y,z
loop_
_atom_site_type_symbol
_atom_site_label
_atom_site_fract_x
_atom_site_fract_y
_atom_site_fract_z
Si Si1 0.576798 0.442831 0.723804
Si Si2 0.375967 0.665363 0.094635
Si Si3 0.575077 0.226354 0.725450
Si Si4 0.616530 0.062661 0.352839
Si Si5 0.697690 0.121941 0.799194
O O1 0.500000 0.443146 0.500000
O O2 0.635557 0.500000 0.717797
O O3 0.634752 0.386429 0.715907
O O4 0.500000 0.442632 0.000000
O O5 0.350302 0.722803 0.229983
O O6 0.306812 0.647994 0.864916
O O7 0.500000 0.670165 0.000000
O O8 0.500000 0.238783 0.500000
O O9 0.500000 0.217751 0.000000
O O10 0.637049 0.171250 0.679247
O O11 0.500000 0.074188 0.500000
O O12 0.645068 0.099163 0.088302
O O13 0.619488 0.000000 0.273620
O O14 0.689861 0.074486 0.587150
#
# Coordination Sequence:
#
# PCOD9218178 Si02
#       5
#     8   8   8   8   8
#     4   9  18  34  55  78 111 159 209 253 300 360
#     4  10  24  43  63  96 138 181 222 270 326 394
#     4  11  23  42  68  96 131 173 224 281 338 395
#     4  11  25  46  72 102 135 171 219 282 344 399
#     4  12  24  42  70 101 134 175 225 275 336 403
#
# _framework density 25.034469999999999
#
# number of rings (size 3 to 8) (size 9 to 14) (size 15 to 20)
#    0.000    1.400    0.000    5.400    0.000    9.600 
#    0.000   11.000    0.000    0.000    0.000    0.000 
#    0.000    0.000    0.000    0.000    0.000    0.000 
#
# Total GULP energy -111903.347692 kJ/mol
# GULP energy per Si atom -5595.167385 kJ/mol
# Density = 2.497749 g / cm^3
# Si number density = 25.034470 Si / 1000 Ang^3
#
#
#
# Elastic Constant Matrix: (Units=GPa)
#
#
# Indices 1 2 3 4 5 6 
#
# 1 86.4208 2.8466 19.4440 0.0000 1.5550 0.0000
# 2 2.8466 174.8404 9.6711 0.0000 6.4954 0.0000
# 3 19.4440 9.6711 141.1924 0.0000 3.3152 0.0000
# 4 0.0000 0.0000 0.0000 41.9176 0.0000 11.5914
# 5 1.5550 6.4954 3.3152 0.0000 39.6310 0.0000
# 6 0.0000 0.0000 0.0000 11.5914 0.0000 18.8393
#
#
#
# Elastic Compliance Matrix: (Units=1/GPa)
#
#
# Indices 1 2 3 4 5 6 
#
# 1 0.011947 -0.000092 -0.001631 0.000000 -0.000317 0.000000
# 2 -0.000092 0.005775 -0.000361 0.000000 -0.000913 0.000000
# 3 -0.001631 -0.000361 0.007343 0.000000 -0.000491 0.000000
# 4 0.000000 0.000000 0.000000 0.028748 0.000000 -0.017688
# 5 -0.000317 -0.000913 -0.000491 0.000000 0.025436 0.000000
# 6 0.000000 0.000000 0.000000 -0.017688 0.000000 0.063964
#
#
# Mechanical properties :
#
#
# Convention : Reuss Voigt Hill
#
# Bulk Modulus (GPa) = 47.85887 51.81968 49.83927
# Shear Modulus (GPa) = 32.39428 44.77702 38.58565
#
# Velocity S-wave (km/s) = 3.60111 4.23379 3.93020
# Velocity P-wave (km/s) = 6.03733 6.68163 6.36763
#
# Compressibility (1/GPa) = 0.02089477
#
# Stress axis : x y z
#
# Youngs Moduli (GPa) = 83.70227 173.16313 136.17490
#
# Poissons Ratio (x) = 0.01602 0.22217
# Poissons Ratio (y) = 0.00774 0.04921
# Poissons Ratio (z) = 0.13656 0.06258
#
# Static dielectric constant tensor:
#      x y z
#    x 2.027970 0.000000 -0.029770 
#    y 0.000000 2.007240 0.000000 
#    z -0.029770 0.000000 1.906840 
# 
# From -- ./inp_files/11698.got.cif
#   From: 2010.05.17/outbox.cif.g08.bks.cpg/sg12_6_cif.got.tgz:11698.got - 2010.06.03 13:09:07.
