data_PCOD9218802
_publ_section_title
;
Structure prediction by ZEFSAII (Michael W. Deem and Ramdas Pophale) SiO2 
 PCOD9218802
Probable space group: C 2/M
;
_chemical_formula_sum "Si O2"
_cell_formula_units_Z 42
_cell_length_a 10.691733
_cell_length_b 22.205005
_cell_length_c 9.572018
_cell_angle_alpha 90.000000
_cell_angle_beta 123.858485
_cell_angle_gamma 90.000000
_cell_volume 1887.114696
_symmetry_space_group_name_H-M "C 2/M"
_symmetry_group_IT_number 12
_symmetry_cell_setting 'monoclinic'
loop_
_space_group_symop_operation_xyz
x,y,z
-x,y,-z
-x,-y,-z
x,-y,z
1/2+x,1/2+y,z
1/2-x,1/2+y,-z
1/2-x,1/2-y,-z
1/2+x,1/2-y,z
loop_
_atom_site_type_symbol
_atom_site_label
_atom_site_fract_x
_atom_site_fract_y
_atom_site_fract_z
Si Si1 0.768658 0.866742 0.419033
Si Si2 0.820928 0.000000 0.374664
Si Si3 0.500000 0.500000 0.000000
Si Si4 0.464203 0.197202 0.323313
Si Si5 0.356245 0.000000 0.007343
Si Si6 0.433189 0.327889 0.238168
Si Si7 0.272083 0.601709 0.892429
O O1 0.757966 0.939053 0.402500
O O2 0.611555 0.836078 0.357694
O O3 0.826525 0.845482 0.302583
O O4 0.899748 0.847670 0.609001
O O5 0.000000 0.000000 0.500000
O O6 0.785711 0.000000 0.186844
O O7 0.623365 0.552993 0.117761
O O8 0.500000 0.221107 0.500000
O O9 0.428299 0.256314 0.211875
O O10 0.327309 0.150349 0.249359
O O11 0.500000 0.000000 0.000000
O O12 0.342692 0.059397 0.091030
O O13 0.373921 0.362578 0.066999
#
# Coordination Sequence:
#
# PCOD9218802 Si02
#       7
#     8   4   2   8   4   8   8
#     4  11  23  42  70 102 135 175 227 289 338 394
#     4  12  19  40  68 102 121 164 226 281 333 390
#     4  10  28  48  70  98 146 174 224 288 348 422
#     4  12  27  44  65 102 145 179 227 282 342 409
#     4  11  21  39  65  94 134 156 220 290 322 387
#     4  11  23  44  73  99 133 181 232 277 339 402
#     4  11  25  45  69 100 129 187 224 274 350 405
#
# _framework density 22.256198999999999
#
# number of rings (size 3 to 8) (size 9 to 14) (size 15 to 20)
#    0.000    0.762    5.714    2.286    2.667    1.524 
#    0.000    2.381    0.000    0.000    0.000    0.000 
#    0.000    0.000    0.000    0.000    0.000    0.000 
#
# Total GULP energy -117270.352972 kJ/mol
# GULP energy per Si atom -5584.302522 kJ/mol
# Density = 2.220554 g / cm^3
# Si number density = 22.256199 Si / 1000 Ang^3
#
#
#
# Elastic Constant Matrix: (Units=GPa)
#
#
# Indices 1 2 3 4 5 6 
#
# 1 76.8999 36.9867 -1.9615 0.0000 20.3661 0.0000
# 2 36.9867 187.4328 11.6902 0.0000 14.2252 0.0000
# 3 -1.9615 11.6902 60.1846 0.0000 6.4849 0.0000
# 4 0.0000 0.0000 0.0000 25.9177 0.0000 -8.3257
# 5 20.3661 14.2252 6.4849 0.0000 18.3987 0.0000
# 6 0.0000 0.0000 0.0000 -8.3257 0.0000 5.4867
#
#
#
# Elastic Compliance Matrix: (Units=1/GPa)
#
#
# Indices 1 2 3 4 5 6 
#
# 1 0.019967 -0.002534 0.003444 0.000000 -0.021356 0.000000
# 2 -0.002534 0.006014 -0.001094 0.000000 -0.001460 0.000000
# 3 0.003444 -0.001094 0.017941 0.000000 -0.009291 0.000000
# 4 0.000000 0.000000 0.000000 0.075279 0.000000 0.114231
# 5 -0.021356 -0.001460 -0.009291 0.000000 0.082395 0.000000
# 6 0.000000 0.000000 0.000000 0.114231 0.000000 0.355595
#
#
# Mechanical properties :
#
#
# Convention : Reuss Voigt Hill
#
# Bulk Modulus (GPa) = 22.95939 46.43869 34.69904
# Shear Modulus (GPa) = 8.74009 28.48074 18.61042
#
# Velocity S-wave (km/s) = 1.98383 3.58114 2.89483
# Velocity P-wave (km/s) = 3.94788 6.16524 5.17668
#
# Compressibility (1/GPa) = 0.04355516
#
# Stress axis : x y z
#
# Youngs Moduli (GPa) = 50.08365 166.27120 55.73745
#
# Poissons Ratio (x) = 0.42134 -0.19196
# Poissons Ratio (y) = 0.12691 0.06095
# Poissons Ratio (z) = -0.17249 0.18182
#
# Static dielectric constant tensor:
#      x y z
#    x 1.793160 0.000000 -0.003710 
#    y 0.000000 1.786410 0.000000 
#    z -0.003710 0.000000 1.801640 
# 
# From -- ./inp_files/49216.got.cif
#   From: 2010.05.17/outbox.cif.g08.bks.cpg/sg12_25_cif.got.tgz:49216.got - 2010.06.03 13:09:07.
