data_PCOD9218336
_publ_section_title
;
Structure prediction by ZEFSAII (Michael W. Deem and Ramdas Pophale) SiO2 
 PCOD9218336
Probable space group: C 2/M
;
_chemical_formula_sum "Si O2"
_cell_formula_units_Z 38
_cell_length_a 14.531435
_cell_length_b 14.627867
_cell_length_c 20.810725
_cell_angle_alpha 90.000000
_cell_angle_beta 20.429834
_cell_angle_gamma 90.000000
_cell_volume 1544.105096
_symmetry_space_group_name_H-M "C 2/M"
_symmetry_group_IT_number 12
_symmetry_cell_setting 'monoclinic'
loop_
_space_group_symop_operation_xyz
x,y,z
-x,y,-z
-x,-y,-z
x,-y,z
1/2+x,1/2+y,z
1/2-x,1/2+y,-z
1/2-x,1/2-y,-z
1/2+x,1/2-y,z
loop_
_atom_site_type_symbol
_atom_site_label
_atom_site_fract_x
_atom_site_fract_y
_atom_site_fract_z
Si Si1 0.875949 0.500000 0.003316
Si Si2 0.180911 0.801494 0.942344
Si Si3 0.500000 0.000000 0.500000
Si Si4 0.911160 0.000000 0.945563
Si Si5 0.246945 0.664057 0.575889
Si Si6 0.819919 0.668955 0.234734
Si Si7 0.813171 0.000000 0.433375
O O1 0.753407 0.500000 0.012198
O O2 0.622827 0.500000 0.214093
O O3 0.057047 0.589290 0.888436
O O4 0.487321 0.774774 0.734481
O O5 0.163270 0.909427 0.966423
O O6 0.000000 0.778834 0.000000
O O7 0.028292 0.750578 0.099197
O O8 0.784093 0.000000 0.275002
O O9 0.658877 0.000000 0.466831
O O10 0.540228 0.704832 0.391217
O O11 0.210208 0.629854 0.673541
O O12 0.250420 0.587289 0.519242
#
# Coordination Sequence:
#
# PCOD9218336 Si02
#       7
#     4   8   2   4   8   8   4
#     4  11  24  44  77 106 151 187 247 318 377 437
#     4  12  26  46  76 106 151 199 258 313 375 452
#     4  10  24  44  70 116 152 198 252 312 384 448
#     4  11  23  45  72 102 146 201 245 309 379 449
#     4  11  24  46  75 107 149 201 252 307 383 445
#     4  11  26  47  74 112 154 199 251 318 372 454
#     4  11  24  44  78 112 152 195 257 315 379 459
#
# _framework density 24.609722999999999
#
# number of rings (size 3 to 8) (size 9 to 14) (size 15 to 20)
#    0.000    0.842    2.105    4.105    2.947    5.053 
#    3.789    0.000    0.000    0.000    0.000    0.000 
#    0.000    0.000    0.000    0.000    0.000    0.000 
#
# Total GULP energy -106078.214616 kJ/mol
# GULP energy per Si atom -5583.063927 kJ/mol
# Density = 2.455371 g / cm^3
# Si number density = 24.609723 Si / 1000 Ang^3
#
#
#
# Elastic Constant Matrix: (Units=GPa)
#
#
# Indices 1 2 3 4 5 6 
#
# 1 177.1015 6.1292 59.4087 -0.0495 -13.0268 0.0311
# 2 6.1292 74.1389 29.6507 -0.0941 2.5507 0.0797
# 3 59.4087 29.6507 208.2641 -0.1215 -35.7633 -0.1862
# 4 -0.0495 -0.0941 -0.1215 25.9786 0.0365 7.1499
# 5 -13.0268 2.5507 -35.7633 0.0365 64.1642 0.0264
# 6 0.0311 0.0797 -0.1862 7.1499 0.0264 24.4441
#
#
#
# Elastic Compliance Matrix: (Units=1/GPa)
#
#
# Indices 1 2 3 4 5 6 
#
# 1 0.006252 0.000178 -0.001760 0.000011 0.000281 -0.000025
# 2 0.000178 0.014517 -0.002444 0.000067 -0.001903 -0.000084
# 3 -0.001760 -0.002444 0.006201 -0.000003 0.003196 0.000055
# 4 0.000011 0.000067 -0.000003 0.041864 -0.000021 -0.012245
# 5 0.000281 -0.001903 0.003196 -0.000021 0.017499 0.000017
# 6 -0.000025 -0.000084 0.000055 -0.012245 0.000017 0.044492
#
#
# Mechanical properties :
#
#
# Convention : Reuss Voigt Hill
#
# Bulk Modulus (GPa) = 52.86898 72.20909 62.53903
# Shear Modulus (GPa) = 34.43941 47.20512 40.82226
#
# Velocity S-wave (km/s) = 3.74494 4.38442 4.07724
# Velocity P-wave (km/s) = 6.34264 7.41864 6.90164
#
# Compressibility (1/GPa) = 0.01891468
#
# Stress axis : x y z
#
# Youngs Moduli (GPa) = 159.96121 68.88602 161.27549
#
# Poissons Ratio (x) = -0.01223 0.28390
# Poissons Ratio (y) = -0.02840 0.39421
# Poissons Ratio (z) = 0.28158 0.16838
#
# Static dielectric constant tensor:
#      x y z
#    x 1.962310 0.000040 -0.000480 
#    y 0.000040 1.953990 0.000130 
#    z -0.000480 0.000130 1.957960 
# 
# From -- ./inp_files/311636.got.cif
#   From: 2010.05.17/outbox.cif.g08.bks.cpg/sg12_156_cif.got.tgz:311636.got - 2010.06.03 13:09:07.
