data_PCOD9218157
_publ_section_title
;
Structure prediction by ZEFSAII (Michael W. Deem and Ramdas Pophale) SiO2 
 PCOD9218157
Probable space group: C 2/M
;
_chemical_formula_sum "Si O2"
_cell_formula_units_Z 42
_cell_length_a 14.265128
_cell_length_b 18.157142
_cell_length_c 8.415408
_cell_angle_alpha 90.000000
_cell_angle_beta 59.693528
_cell_angle_gamma 90.000000
_cell_volume 1881.826047
_symmetry_space_group_name_H-M "C 2/M"
_symmetry_group_IT_number 12
_symmetry_cell_setting 'monoclinic'
loop_
_space_group_symop_operation_xyz
x,y,z
-x,y,-z
-x,-y,-z
x,-y,z
1/2+x,1/2+y,z
1/2-x,1/2+y,-z
1/2-x,1/2-y,-z
1/2+x,1/2-y,z
loop_
_atom_site_type_symbol
_atom_site_label
_atom_site_fract_x
_atom_site_fract_y
_atom_site_fract_z
Si Si1 0.731852 0.770824 0.197917
Si Si2 0.418539 0.646912 0.701484
Si Si3 0.937409 0.258141 0.205922
Si Si4 0.660569 0.500000 0.695628
Si Si5 0.000000 0.500000 0.500000
Si Si6 0.842239 0.618936 0.519020
Si Si7 0.600501 0.500000 0.114826
O O1 0.668325 0.698773 0.311456
O O2 0.841548 0.784943 0.199297
O O3 0.664516 0.842444 0.300659
O O4 0.750000 0.750000 0.000000
O O5 0.500000 0.617594 0.500000
O O6 0.485168 0.702350 0.762263
O O7 0.367126 0.577296 0.833302
O O8 0.877347 0.317036 0.368280
O O9 0.000000 0.292523 0.000000
O O10 0.732184 0.571229 0.582995
O O11 0.532610 0.500000 0.761881
O O12 0.650238 0.500000 0.896309
O O13 0.939167 0.562589 0.445931
#
# Coordination Sequence:
#
# PCOD9218157 Si02
#       7
#     8   8   8   4   2   8   4
#     4  12  24  41  73 103 136 178 234 290 349 410
#     4  12  25  44  68 102 139 184 224 289 347 412
#     4  12  26  44  73 105 140 180 240 296 347 411
#     4  10  24  42  72  92 138 184 224 277 353 408
#     4  10  24  42  74  90 140 192 230 278 358 412
#     4  11  23  46  69 101 134 188 233 285 342 422
#     4  11  25  44  65 104 141 176 227 280 345 433
#
# _framework density 22.318747999999999
#
# number of rings (size 3 to 8) (size 9 to 14) (size 15 to 20)
#    0.000    0.571    3.810    4.286    5.333    0.000 
#    0.000    1.905    0.000    0.000    0.000    0.000 
#    0.000    0.000    0.000    0.000    0.000    0.000 
#
# Total GULP energy -116974.683970 kJ/mol
# GULP energy per Si atom -5570.223046 kJ/mol
# Density = 2.226795 g / cm^3
# Si number density = 22.318748 Si / 1000 Ang^3
#
#
#
# Elastic Constant Matrix: (Units=GPa)
#
#
# Indices 1 2 3 4 5 6 
#
# 1 67.5181 12.9188 -3.1398 0.0000 -1.5695 0.0000
# 2 12.9188 120.4839 38.4621 0.0000 2.3637 0.0000
# 3 -3.1398 38.4621 110.0440 0.0000 5.1005 0.0000
# 4 0.0000 0.0000 0.0000 16.9390 0.0000 -2.5747
# 5 -1.5695 2.3637 5.1005 0.0000 24.3318 0.0000
# 6 0.0000 0.0000 0.0000 -2.5747 0.0000 29.7912
#
#
#
# Elastic Compliance Matrix: (Units=1/GPa)
#
#
# Indices 1 2 3 4 5 6 
#
# 1 0.015267 -0.002004 0.001092 0.000000 0.000951 0.000000
# 2 -0.002004 0.009607 -0.003399 0.000000 -0.000350 0.000000
# 3 0.001092 -0.003399 0.010389 0.000000 -0.001777 0.000000
# 4 0.000000 0.000000 0.000000 0.059821 0.000000 0.005170
# 5 0.000951 -0.000350 -0.001777 0.000000 0.041566 0.000000
# 6 0.000000 0.000000 0.000000 0.005170 0.000000 0.034014
#
#
# Mechanical properties :
#
#
# Convention : Reuss Voigt Hill
#
# Bulk Modulus (GPa) = 37.53639 43.83648 40.68643
# Shear Modulus (GPa) = 26.57230 30.86604 28.71917
#
# Velocity S-wave (km/s) = 3.45422 3.72286 3.59105
# Velocity P-wave (km/s) = 5.72396 6.17765 5.95512
#
# Compressibility (1/GPa) = 0.02664082
#
# Stress axis : x y z
#
# Youngs Moduli (GPa) = 65.49980 104.09532 96.25873
#
# Poissons Ratio (x) = 0.20864 -0.10512
# Poissons Ratio (y) = 0.13128 0.32715
# Poissons Ratio (z) = -0.07153 0.35378
#
# Static dielectric constant tensor:
#      x y z
#    x 1.882390 0.000000 -0.060400 
#    y 0.000000 1.770510 0.000000 
#    z -0.060400 0.000000 1.915370 
# 
# From -- ./inp_files/61661.got.cif
#   From: 2010.05.17/outbox.cif.g08.bks.cpg/sg12_31_cif.got.tgz:61661.got - 2010.06.03 13:09:07.
