data_PCOD9218767
_publ_section_title
;
Structure prediction by ZEFSAII (Michael W. Deem and Ramdas Pophale) SiO2 
 PCOD9218767
Probable space group: C 2/M
;
_chemical_formula_sum "Si O2"
_cell_formula_units_Z 40
_cell_length_a 8.742879
_cell_length_b 23.471574
_cell_length_c 8.646787
_cell_angle_alpha 90.000000
_cell_angle_beta 84.989392
_cell_angle_gamma 90.000000
_cell_volume 1767.618861
_symmetry_space_group_name_H-M "C 2/M"
_symmetry_group_IT_number 12
_symmetry_cell_setting 'monoclinic'
loop_
_space_group_symop_operation_xyz
x,y,z
-x,y,-z
-x,-y,-z
x,-y,z
1/2+x,1/2+y,z
1/2-x,1/2+y,-z
1/2-x,1/2-y,-z
1/2+x,1/2-y,z
loop_
_atom_site_type_symbol
_atom_site_label
_atom_site_fract_x
_atom_site_fract_y
_atom_site_fract_z
Si Si1 0.658404 0.611230 0.273424
Si Si2 0.409443 0.689808 0.168992
Si Si3 0.252081 0.000000 0.422700
Si Si4 0.662196 0.113710 0.056459
Si Si5 0.400634 0.000000 0.741595
Si Si6 0.864513 0.709301 0.396126
O O1 0.498368 0.643986 0.267383
O O2 0.660478 0.554921 0.373770
O O3 0.776640 0.654960 0.340900
O O4 0.723701 0.599041 0.095574
O O5 0.242693 0.663895 0.146621
O O6 0.414358 0.750388 0.250770
O O7 0.500000 0.693756 0.000000
O O8 0.295044 0.000000 0.598644
O O9 0.419810 0.000000 0.322948
O O10 0.633062 0.057011 0.158427
O O11 0.500000 0.132020 0.000000
O O12 0.750000 0.750000 0.500000
O O13 0.000000 0.693047 0.500000
#
# Coordination Sequence:
#
# PCOD9218767 Si02
#       6
#     8   8   4   8   4   8
#     4  11  25  46  69 102 143 184 228 292 344 425
#     4  10  26  48  68 106 142 183 236 286 354 423
#     4  11  25  43  70 104 143 176 236 287 366 403
#     4  11  23  41  72  96 136 184 236 285 344 412
#     4  11  24  42  65 108 136 181 237 296 339 427
#     4  12  27  46  73 102 145 185 232 289 351 418
#
# _framework density 22.629313
#
# number of rings (size 3 to 8) (size 9 to 14) (size 15 to 20)
#    0.000    1.000    4.000    0.900    8.400    4.800 
#    0.000    4.000    0.000    0.000    0.000    0.000 
#    0.000    0.000    0.000    0.000    0.000    0.000 
#
# Total GULP energy -112133.462443 kJ/mol
# GULP energy per Si atom -5606.673122 kJ/mol
# Density = 2.257781 g / cm^3
# Si number density = 22.629313 Si / 1000 Ang^3
#
#
#
# Elastic Constant Matrix: (Units=GPa)
#
#
# Indices 1 2 3 4 5 6 
#
# 1 98.6915 54.4531 41.9413 0.0000 35.9945 0.0000
# 2 54.4531 159.9448 71.0718 0.0000 28.3635 0.0000
# 3 41.9413 71.0718 98.5545 0.0000 27.4162 0.0000
# 4 0.0000 0.0000 0.0000 -15.8645 0.0000 -45.3339
# 5 35.9945 28.3635 27.4162 0.0000 42.8070 0.0000
# 6 0.0000 0.0000 0.0000 -45.3339 0.0000 -76.4179
#
#
#
# Elastic Compliance Matrix: (Units=1/GPa)
#
#
# Indices 1 2 3 4 5 6 
#
# 1 0.016423 -0.002814 -0.001992 0.000000 -0.010669 0.000000
# 2 -0.002814 0.009864 -0.005787 0.000000 -0.000463 0.000000
# 3 -0.001992 -0.005787 0.016591 0.000000 -0.005117 0.000000
# 4 0.000000 0.000000 0.000000 0.090668 0.000000 -0.053788
# 5 -0.010669 -0.000463 -0.005117 0.000000 0.035916 0.000000
# 6 0.000000 0.000000 0.000000 -0.053788 0.000000 0.018823
#
#
# Mechanical properties :
#
#
# Convention : Reuss Voigt Hill
#
# Bulk Modulus (GPa) = 46.09935 76.90259 61.50097
# Shear Modulus (GPa) = 23.07342 2.75324 12.91333
#
# Velocity S-wave (km/s) = 3.19662 1.10422 2.39141
# Velocity P-wave (km/s) = 5.83440 5.97354 5.90438
#
# Compressibility (1/GPa) = 0.02169228
#
# Stress axis : x y z
#
# Youngs Moduli (GPa) = 60.89054 101.38181 60.27491
#
# Poissons Ratio (x) = 0.28531 0.12004
# Poissons Ratio (y) = 0.17136 0.34879
# Poissons Ratio (z) = 0.12127 0.58666
#
# Static dielectric constant tensor:
#      x y z
#    x 1.826900 0.000000 -0.026140 
#    y 0.000000 1.805020 0.000000 
#    z -0.026140 0.000000 1.853160 
# 
# From -- ./inp_files/39368.got.cif
#   From: 2010.05.17/outbox.cif.g08.bks.cpg/sg12_20_cif.got.tgz:39368.got - 2010.06.03 13:09:07.
