data_PCOD9218711
_publ_section_title
;
Structure prediction by ZEFSAII (Michael W. Deem and Ramdas Pophale) SiO2 
 PCOD9218711
Probable space group: C 2/M
;
_chemical_formula_sum "Si O2"
_cell_formula_units_Z 40
_cell_length_a 5.590393
_cell_length_b 27.701204
_cell_length_c 11.318574
_cell_angle_alpha 90.000000
_cell_angle_beta 68.468538
_cell_angle_gamma 90.000000
_cell_volume 1630.484172
_symmetry_space_group_name_H-M "C 2/M"
_symmetry_group_IT_number 12
_symmetry_cell_setting 'monoclinic'
loop_
_space_group_symop_operation_xyz
x,y,z
-x,y,-z
-x,-y,-z
x,-y,z
1/2+x,1/2+y,z
1/2-x,1/2+y,-z
1/2-x,1/2-y,-z
1/2+x,1/2-y,z
loop_
_atom_site_type_symbol
_atom_site_label
_atom_site_fract_x
_atom_site_fract_y
_atom_site_fract_z
Si Si1 0.672352 0.631982 0.267072
Si Si2 0.485311 0.553284 0.142883
Si Si3 0.935959 0.275725 0.151250
Si Si4 0.436206 0.055494 0.373983
Si Si5 0.714218 0.306268 0.552701
O O1 0.654226 0.596850 0.159409
O O2 0.891709 0.671886 0.213016
O O3 0.736996 0.594208 0.359008
O O4 0.417322 0.665953 0.313878
O O5 0.577186 0.500000 0.165838
O O6 0.199594 0.559189 0.249628
O O7 0.500000 0.553874 0.000000
O O8 0.659401 0.247985 0.192072
O O9 0.000000 0.278367 0.000000
O O10 0.500000 0.063533 0.500000
O O11 0.342496 0.000000 0.380882
O O12 0.500000 0.323011 0.500000
O O13 0.750000 0.250000 0.500000
O O14 0.000000 0.324705 0.500000
#
# Coordination Sequence:
#
# PCOD9218711 Si02
#       5
#     8   8   8   8   8
#     4  12  27  41  83 107 153 205 271 314 409 475
#     4  10  25  47  74 113 159 203 264 336 404 479
#     4  10  26  47  71 108 155 205 261 329 392 469
#     4  10  25  49  76 113 159 205 262 331 402 481
#     4  10  26  46  69 105 152 198 253 320 387 457
#
# _framework density 24.532589000000002
#
# number of rings (size 3 to 8) (size 9 to 14) (size 15 to 20)
#    0.000    1.600    0.000    0.600   16.800    0.800 
#    0.000    6.000    0.000    1.800    0.000    0.000 
#    0.000    0.000    0.000    0.000    0.000    0.000 
#
# Total GULP energy -111614.587804 kJ/mol
# GULP energy per Si atom -5580.729390 kJ/mol
# Density = 2.447675 g / cm^3
# Si number density = 24.532589 Si / 1000 Ang^3
#
#
#
# Elastic Constant Matrix: (Units=GPa)
#
#
# Indices 1 2 3 4 5 6 
#
# 1 114.6295 67.8727 31.5125 0.0000 10.0647 0.0000
# 2 67.8727 223.9957 63.6362 0.0000 -0.2758 0.0000
# 3 31.5125 63.6362 103.3685 0.0000 5.5649 0.0000
# 4 0.0000 0.0000 0.0000 -20.7931 0.0000 4.3635
# 5 10.0647 -0.2758 5.5649 0.0000 28.7919 0.0000
# 6 0.0000 0.0000 0.0000 4.3635 0.0000 42.0139
#
#
#
# Elastic Compliance Matrix: (Units=1/GPa)
#
#
# Indices 1 2 3 4 5 6 
#
# 1 0.011206 -0.003013 -0.001363 0.000000 -0.003683 0.000000
# 2 -0.003013 0.006235 -0.003011 0.000000 0.001695 0.000000
# 3 -0.001363 -0.003011 0.012045 0.000000 -0.001880 0.000000
# 4 0.000000 0.000000 0.000000 -0.047067 0.000000 0.004888
# 5 -0.003683 0.001695 -0.001880 0.000000 0.036399 0.000000
# 6 0.000000 0.000000 0.000000 0.004888 0.000000 0.023294
#
#
# Mechanical properties :
#
#
# Convention : Reuss Voigt Hill
#
# Bulk Modulus (GPa) = 67.97562 85.33740 76.65651
# Shear Modulus (GPa) = 80.92147 28.60073 54.76110
#
# Velocity S-wave (km/s) = 5.74951 3.41812 4.72972
# Velocity P-wave (km/s) = 8.47610 7.10204 7.81931
#
# Compressibility (1/GPa) = 0.01471116
#
# Stress axis : x y z
#
# Youngs Moduli (GPa) = 89.24066 160.39114 83.02461
#
# Poissons Ratio (x) = 0.48321 0.11318
# Poissons Ratio (y) = 0.26885 0.24999
# Poissons Ratio (z) = 0.12165 0.48295
#
# Static dielectric constant tensor:
#      x y z
#    x 1.946270 0.000000 -0.005880 
#    y 0.000000 1.950380 0.000000 
#    z -0.005880 0.000000 2.058600 
# 
# From -- ./inp_files/115445.got.cif
#   From: 2010.05.17/outbox.cif.g08.bks.cpg/sg12_58_cif.got.tgz:115445.got - 2010.06.03 13:09:07.
