data_PCOD9218920
_publ_section_title
;
Structure prediction by ZEFSAII (Michael W. Deem and Ramdas Pophale) SiO2 
 PCOD9218920
Probable space group: C 2/M
;
_chemical_formula_sum "Si O2"
_cell_formula_units_Z 64
_cell_length_a 29.336193
_cell_length_b 15.542170
_cell_length_c 16.844001
_cell_angle_alpha 90.000000
_cell_angle_beta 159.847403
_cell_angle_gamma 90.000000
_cell_volume 2645.922750
_symmetry_space_group_name_H-M "C 2/M"
_symmetry_group_IT_number 12
_symmetry_cell_setting 'monoclinic'
loop_
_space_group_symop_operation_xyz
x,y,z
-x,y,-z
-x,-y,-z
x,-y,z
1/2+x,1/2+y,z
1/2-x,1/2+y,-z
1/2-x,1/2-y,-z
1/2+x,1/2-y,z
loop_
_atom_site_type_symbol
_atom_site_label
_atom_site_fract_x
_atom_site_fract_y
_atom_site_fract_z
Si Si1 0.295764 0.593800 0.340780
Si Si2 0.803818 0.161663 0.177149
Si Si3 0.483197 0.176326 0.284105
Si Si4 0.296618 0.394097 0.511128
Si Si5 0.830809 0.604665 0.531703
Si Si6 0.364872 0.143017 0.313333
Si Si7 0.585715 0.375036 0.805160
Si Si8 0.065761 0.902554 0.020346
O O1 0.232594 0.500000 0.225509
O O2 0.301119 0.642152 0.266237
O O3 0.245526 0.634163 0.341003
O O4 0.451788 0.582283 0.612420
O O5 0.842717 0.262595 0.236267
O O6 0.894440 0.118401 0.258099
O O7 0.654016 0.134943 0.910834
O O8 0.535244 0.142829 0.285187
O O9 0.597125 0.158690 0.533741
O O10 0.443083 0.275829 0.219225
O O11 0.299956 0.500000 0.515525
O O12 0.206148 0.370453 0.438556
O O13 0.447199 0.362752 0.774780
O O14 0.834573 0.500000 0.534550
O O15 0.708701 0.634821 0.275525
O O16 0.500000 0.103890 0.500000
O O17 0.223950 0.098977 0.070570
O O18 0.087955 0.000000 0.026388
O O19 0.000000 0.909935 0.000000
#
# Coordination Sequence:
#
# PCOD9218920 Si02
#       8
#     8   8   8   8   8   8   8   8
#     4  11  23  38  60  88 119 156 202 244 284 343
#     4  11  21  38  59  83 116 152 201 238 287 351
#     4  11  21  35  61  89 113 152 200 241 290 357
#     4   8  16  33  53  79 115 155 195 235 284 347
#     4   9  18  33  55  84 119 154 191 237 294 347
#     4  11  18  37  62  85 110 150 196 243 287 350
#     4  11  22  37  60  88 115 153 197 243 293 348
#     4   7  11  24  48  75 107 146 185 228 278 334
#
# _framework density 24.188158000000001
#
# number of rings (size 3 to 8) (size 9 to 14) (size 15 to 20)
#    0.000    2.125    3.750    2.625    1.750    1.500 
#    0.000    1.250    0.000    3.000    0.000    0.000 
#    0.000    0.000    0.000    0.000    0.000    0.000 
#
# Total GULP energy -178466.155416 kJ/mol
# GULP energy per Si atom -5577.067357 kJ/mol
# Density = 2.413310 g / cm^3
# Si number density = 24.188158 Si / 1000 Ang^3
#
#
#
# Elastic Constant Matrix: (Units=GPa)
#
#
# Indices 1 2 3 4 5 6 
#
# 1 173.7275 23.9216 35.1779 0.0000 4.2871 0.0000
# 2 23.9216 31.5883 -2.0440 0.0000 0.4258 0.0000
# 3 35.1779 -2.0440 63.8905 0.0000 -3.8102 0.0000
# 4 0.0000 0.0000 0.0000 1.7182 0.0000 7.1935
# 5 4.2871 0.4258 -3.8102 0.0000 38.6024 0.0000
# 6 0.0000 0.0000 0.0000 7.1935 0.0000 25.6785
#
#
#
# Elastic Compliance Matrix: (Units=1/GPa)
#
#
# Indices 1 2 3 4 5 6 
#
# 1 0.007492 -0.005941 -0.004387 0.000000 -0.001200 0.000000
# 2 -0.005941 0.036437 0.004479 0.000000 0.000700 0.000000
# 3 -0.004387 0.004479 0.018344 0.000000 0.002248 0.000000
# 4 0.000000 0.000000 0.000000 -3.367191 0.000000 0.943271
# 5 -0.001200 0.000700 0.002248 0.000000 0.026253 0.000000
# 6 0.000000 0.000000 0.000000 0.943271 0.000000 -0.225301
#
#
# Mechanical properties :
#
#
# Convention : Reuss Voigt Hill
#
# Bulk Modulus (GPa) = 19.77265 42.59082 31.18173
# Shear Modulus (GPa) = -1.43868 27.34321 12.95226
#
# Velocity S-wave (km/s) = -0.77206 3.36585 2.31655
# Velocity P-wave (km/s) = 2.71983 5.72290 4.48046
#
# Compressibility (1/GPa) = 0.05057491
#
# Stress axis : x y z
#
# Youngs Moduli (GPa) = 133.47356 27.44456 54.51231
#
# Poissons Ratio (x) = 0.16306 0.23913
# Poissons Ratio (y) = 0.79302 -0.24415
# Poissons Ratio (z) = 0.58552 -0.12292
#
# Static dielectric constant tensor:
#      x y z
#    x 1.942820 0.000000 -0.055970 
#    y 0.000000 1.932410 0.000000 
#    z -0.055970 0.000000 1.989030 
# 
# From -- ./inp_files/297087.got.cif
#   From: 2010.05.17/outbox.cif.g08.bks.cpg/sg12_149_cif.got.tgz:297087.got - 2010.06.03 13:09:07.
