data_PCOD9218031
_publ_section_title
;
Structure prediction by ZEFSAII (Michael W. Deem and Ramdas Pophale) SiO2 
 PCOD9218031
Probable space group: C 2/M
;
_chemical_formula_sum "Si O2"
_cell_formula_units_Z 42
_cell_length_a 8.686770
_cell_length_b 15.251886
_cell_length_c 16.535737
_cell_angle_alpha 90.000000
_cell_angle_beta 119.057548
_cell_angle_gamma 90.000000
_cell_volume 1915.060986
_symmetry_space_group_name_H-M "C 2/M"
_symmetry_group_IT_number 12
_symmetry_cell_setting 'monoclinic'
loop_
_space_group_symop_operation_xyz
x,y,z
-x,y,-z
-x,-y,-z
x,-y,z
1/2+x,1/2+y,z
1/2-x,1/2+y,-z
1/2-x,1/2-y,-z
1/2+x,1/2-y,z
loop_
_atom_site_type_symbol
_atom_site_label
_atom_site_fract_x
_atom_site_fract_y
_atom_site_fract_z
Si Si1 0.545785 0.500000 0.262638
Si Si2 0.597674 0.823313 0.338194
Si Si3 0.000000 0.000000 0.500000
Si Si4 0.000000 0.704550 0.000000
Si Si5 0.623021 0.500000 0.108160
Si Si6 0.034151 0.500000 0.605120
Si Si7 0.333701 0.828542 0.124951
Si Si8 0.013218 0.854833 0.628381
O O1 0.506486 0.500000 0.158409
O O2 0.756771 0.500000 0.326354
O O3 0.477191 0.411983 0.287405
O O4 0.467723 0.801877 0.229774
O O5 0.789946 0.836648 0.350963
O O6 0.587235 0.736130 0.389438
O O7 0.541444 0.912213 0.370627
O O8 0.931383 0.923350 0.544690
O O9 0.934872 0.657240 0.065449
O O10 0.170604 0.762535 0.068647
O O11 0.745599 0.416152 0.135283
O O12 0.500000 0.500000 0.000000
O O13 0.000000 0.500000 0.500000
#
# Coordination Sequence:
#
# PCOD9218031 Si02
#       8
#     4   8   2   4   4   4   8   8
#     4  11  25  48  68 103 144 188 231 304 351 430
#     4  12  25  46  73 106 144 190 240 296 360 435
#     4  10  26  50  68 102 142 174 244 298 354 432
#     4  10  24  40  74 100 142 182 234 300 344 426
#     4  12  25  41  68  98 144 184 234 286 360 420
#     4  12  27  44  74 107 142 183 239 300 360 422
#     4  11  23  44  66 105 140 184 235 292 353 425
#     4  11  27  45  75 102 142 188 238 299 366 423
#
# _framework density 21.931415000000001
#
# number of rings (size 3 to 8) (size 9 to 14) (size 15 to 20)
#    0.000    0.762    2.857    3.429    9.333    2.667 
#    0.000    0.000    0.000    0.000    0.000    0.000 
#    0.000    0.000    0.000    0.000    0.000    0.000 
#
# Total GULP energy -117227.825576 kJ/mol
# GULP energy per Si atom -5582.277408 kJ/mol
# Density = 2.188150 g / cm^3
# Si number density = 21.931415 Si / 1000 Ang^3
#
#
#
# Elastic Constant Matrix: (Units=GPa)
#
#
# Indices 1 2 3 4 5 6 
#
# 1 149.6865 62.8898 34.4711 0.0000 -16.6015 0.0000
# 2 62.8898 172.3133 32.5838 0.0000 -26.9381 0.0000
# 3 34.4711 32.5838 124.2916 0.0000 -17.9598 0.0000
# 4 0.0000 0.0000 0.0000 26.2378 0.0000 -27.8680
# 5 -16.6015 -26.9381 -17.9598 0.0000 53.7739 0.0000
# 6 0.0000 0.0000 0.0000 -27.8680 0.0000 48.4359
#
#
#
# Elastic Compliance Matrix: (Units=1/GPa)
#
#
# Indices 1 2 3 4 5 6 
#
# 1 0.008195 -0.002595 -0.001486 0.000000 0.000733 0.000000
# 2 -0.002595 0.007310 -0.000823 0.000000 0.002586 0.000000
# 3 -0.001486 -0.000823 0.008981 0.000000 0.002128 0.000000
# 4 0.000000 0.000000 0.000000 0.098004 0.000000 0.056387
# 5 0.000733 0.002586 0.002128 0.000000 0.020829 0.000000
# 6 0.000000 0.000000 0.000000 0.056387 0.000000 0.053089
#
#
# Mechanical properties :
#
#
# Convention : Reuss Voigt Hill
#
# Bulk Modulus (GPa) = 68.13332 78.46452 73.29892
# Shear Modulus (GPa) = 23.68438 46.77930 35.23184
#
# Velocity S-wave (km/s) = 3.28979 4.62343 4.01241
# Velocity P-wave (km/s) = 6.75013 8.02224 7.41352
#
# Compressibility (1/GPa) = 0.01467711
#
# Stress axis : x y z
#
# Youngs Moduli (GPa) = 122.03193 136.79051 111.34429
#
# Poissons Ratio (x) = 0.35498 0.16550
# Poissons Ratio (y) = 0.31668 0.09164
# Poissons Ratio (z) = 0.18139 0.11259
#
# Static dielectric constant tensor:
#      x y z
#    x 1.778820 0.000000 0.011550 
#    y 0.000000 1.773430 0.000000 
#    z 0.011550 0.000000 1.909260 
# 
# From -- ./inp_files/255557.got.cif
#   From: 2010.05.17/outbox.cif.g08.bks.cpg/sg12_128_cif.got.tgz:255557.got - 2010.06.03 13:09:07.
