data_PCOD9218820
_publ_section_title
;
Structure prediction by ZEFSAII (Michael W. Deem and Ramdas Pophale) SiO2 
 PCOD9218820
Probable space group: C 2/M
;
_chemical_formula_sum "Si O2"
_cell_formula_units_Z 60
_cell_length_a 8.524366
_cell_length_b 17.949523
_cell_length_c 21.315044
_cell_angle_alpha 90.000000
_cell_angle_beta 85.116853
_cell_angle_gamma 90.000000
_cell_volume 3249.541150
_symmetry_space_group_name_H-M "C 2/M"
_symmetry_group_IT_number 12
_symmetry_cell_setting 'monoclinic'
loop_
_space_group_symop_operation_xyz
x,y,z
-x,y,-z
-x,-y,-z
x,-y,z
1/2+x,1/2+y,z
1/2-x,1/2+y,-z
1/2-x,1/2-y,-z
1/2+x,1/2-y,z
loop_
_atom_site_type_symbol
_atom_site_label
_atom_site_fract_x
_atom_site_fract_y
_atom_site_fract_z
Si Si1 0.500000 0.317871 0.500000
Si Si2 0.677723 0.310809 0.682155
Si Si3 0.638627 0.702992 0.956538
Si Si4 0.237782 0.414163 0.547154
Si Si5 0.617458 0.586157 0.316987
Si Si6 0.914966 0.712941 0.867721
Si Si7 0.508027 0.802813 0.397282
Si Si8 0.290055 0.195765 0.215262
O O1 0.350826 0.371278 0.494310
O O2 0.445300 0.262140 0.556050
O O3 0.554046 0.376868 0.681279
O O4 0.609139 0.241292 0.644663
O O5 0.693960 0.275575 0.750201
O O6 0.845167 0.330321 0.647444
O O7 0.769452 0.668695 0.904700
O O8 0.532980 0.757467 0.917332
O O9 0.500000 0.660451 0.000000
O O10 0.750000 0.750000 0.000000
O O11 0.215396 0.500000 0.530934
O O12 0.323932 0.410973 0.612651
O O13 0.079796 0.368264 0.563681
O O14 0.618912 0.500000 0.298065
O O15 0.722784 0.636337 0.266778
O O16 0.834237 0.783906 0.835379
O O17 0.037200 0.674366 0.815963
#
# Coordination Sequence:
#
# PCOD9218820 Si02
#       8
#     4   8   8   8   8   8   8   8
#     4  12  21  38  63  78 102 136 178 228 265 336
#     4  12  20  37  57  78 106 140 177 222 267 338
#     4   8  14  26  40  70 120 149 169 218 274 308
#     4  11  24  40  57  80 107 137 174 222 282 329
#     4  11  23  38  55  78 109 144 176 223 281 328
#     4   9  17  24  48  79 102 147 184 217 262 310
#     4  12  22  36  60  81  99 136 182 217 271 330
#     4  11  17  31  52  77 104 139 182 223 259 322
#
# _framework density 18.464144999999998
#
# number of rings (size 3 to 8) (size 9 to 14) (size 15 to 20)
#    0.000    1.333    6.667    0.600    0.000    0.533 
#    0.000    0.333    0.000    0.000    0.000    0.000 
#    0.000   67.200    0.000    0.000    0.000    0.000 
#
# Total GULP energy -167180.450326 kJ/mol
# GULP energy per Si atom -5572.681678 kJ/mol
# Density = 1.842212 g / cm^3
# Si number density = 18.464145 Si / 1000 Ang^3
#
#
#
# Elastic Constant Matrix: (Units=GPa)
#
#
# Indices 1 2 3 4 5 6 
#
# 1 97.5478 19.2508 21.9681 0.0000 -33.5598 0.0000
# 2 19.2508 78.2640 2.9041 0.0000 -4.8039 0.0000
# 3 21.9681 2.9041 49.9288 0.0000 -13.3651 0.0000
# 4 0.0000 0.0000 0.0000 -0.6513 0.0000 1.9087
# 5 -33.5598 -4.8039 -13.3651 0.0000 55.9901 0.0000
# 6 0.0000 0.0000 0.0000 1.9087 0.0000 16.9485
#
#
#
# Elastic Compliance Matrix: (Units=1/GPa)
#
#
# Indices 1 2 3 4 5 6 
#
# 1 0.014278 -0.002909 -0.004154 0.000000 0.007317 0.000000
# 2 -0.002909 0.013448 0.000363 0.000000 -0.000503 0.000000
# 3 -0.004154 0.000363 0.022623 0.000000 0.002941 0.000000
# 4 0.000000 0.000000 0.000000 -1.154400 0.000000 0.130005
# 5 0.007317 -0.000503 0.002941 0.000000 0.022905 0.000000
# 6 0.000000 0.000000 0.000000 0.130005 0.000000 0.044362
#
#
# Mechanical properties :
#
#
# Convention : Reuss Voigt Hill
#
# Bulk Modulus (GPa) = 27.06450 34.88740 30.97595
# Shear Modulus (GPa) = -4.94527 26.56530 10.81002
#
# Velocity S-wave (km/s) = -1.63833 3.79720 2.42225
# Velocity P-wave (km/s) = 3.33330 6.17743 4.96344
#
# Compressibility (1/GPa) = 0.03694876
#
# Stress axis : x y z
#
# Youngs Moduli (GPa) = 70.03624 74.35826 44.20355
#
# Poissons Ratio (x) = 0.21629 0.18364
# Poissons Ratio (y) = 0.20372 -0.01604
# Poissons Ratio (z) = 0.29096 -0.02699
#
# Static dielectric constant tensor:
#      x y z
#    x 1.682680 0.000000 0.004960 
#    y 0.000000 1.585240 0.000000 
#    z 0.004960 0.000000 1.751460 
# 
# From -- ./inp_files/300756.got.cif
#   From: 2010.05.17/outbox.cif.g08.bks.cpg/sg12_151_cif.got.tgz:300756.got - 2010.06.03 13:09:07.
