data_PCOD9218946
_publ_section_title
;
Structure prediction by ZEFSAII (Michael W. Deem and Ramdas Pophale) SiO2 
 PCOD9218946
Probable space group: C 2/M
;
_chemical_formula_sum "Si O2"
_cell_formula_units_Z 56
_cell_length_a 22.706141
_cell_length_b 21.261193
_cell_length_c 9.166973
_cell_angle_alpha 90.000000
_cell_angle_beta 132.887233
_cell_angle_gamma 90.000000
_cell_volume 3242.499228
_symmetry_space_group_name_H-M "C 2/M"
_symmetry_group_IT_number 12
_symmetry_cell_setting 'monoclinic'
loop_
_space_group_symop_operation_xyz
x,y,z
-x,y,-z
-x,-y,-z
x,-y,z
1/2+x,1/2+y,z
1/2-x,1/2+y,-z
1/2-x,1/2-y,-z
1/2+x,1/2-y,z
loop_
_atom_site_type_symbol
_atom_site_label
_atom_site_fract_x
_atom_site_fract_y
_atom_site_fract_z
Si Si1 0.527829 0.571362 0.209674
Si Si2 0.428548 0.789045 0.493779
Si Si3 0.620911 0.628598 0.921012
Si Si4 0.294437 0.186239 0.722337
Si Si5 0.457621 0.246452 0.075264
Si Si6 0.858319 0.147864 0.377850
Si Si7 0.729413 0.830343 0.647164
O O1 0.558395 0.500000 0.252676
O O2 0.443590 0.575894 0.151219
O O3 0.589856 0.613679 0.407698
O O4 0.500000 0.591213 0.000000
O O5 0.500000 0.803239 0.500000
O O6 0.472876 0.788780 0.722347
O O7 0.395678 0.717854 0.420593
O O8 0.348325 0.830222 0.378422
O O9 0.576636 0.695438 0.886760
O O10 0.638720 0.622061 0.780605
O O11 0.699134 0.631146 0.156233
O O12 0.233653 0.149942 0.724816
O O13 0.289455 0.155310 0.553548
O O14 0.259102 0.257798 0.675833
O O15 0.385635 0.198438 0.921728
O O16 0.500000 0.270439 0.000000
#
# Coordination Sequence:
#
# PCOD9218946 Si02
#       7
#     8   8   8   8   8   8   8
#     4  11  23  38  56  73  92 125 166 206 247 294
#     4  11  19  29  46  70 101 132 167 200 238 283
#     4  11  21  32  49  69  98 129 161 204 247 288
#     4   9  19  30  44  66  94 131 168 198 234 285
#     4  11  19  30  48  69  98 136 170 199 234 284
#     4  11  21  33  48  70  97 129 163 203 248 286
#     4   9  19  30  44  66  95 133 165 198 236 285
#
# _framework density 17.270627999999999
#
# number of rings (size 3 to 8) (size 9 to 14) (size 15 to 20)
#    0.000    1.571    4.286    1.714    4.000    2.857 
#    0.000    0.000    0.000    0.000    0.000    0.000 
#    0.000    2.286    0.000    0.143    0.000    0.000 
#
# Total GULP energy -155874.962152 kJ/mol
# GULP energy per Si atom -5566.962934 kJ/mol
# Density = 1.723132 g / cm^3
# Si number density = 17.270628 Si / 1000 Ang^3
#
#
#
# Elastic Constant Matrix: (Units=GPa)
#
#
# Indices 1 2 3 4 5 6 
#
# 1 71.0389 6.7994 -3.6299 0.0000 -3.7038 0.0000
# 2 6.7994 15.5764 1.4241 0.0000 -2.2262 0.0000
# 3 -3.6299 1.4241 38.8786 0.0000 -2.7293 0.0000
# 4 0.0000 0.0000 0.0000 4.9374 0.0000 5.6933
# 5 -3.7038 -2.2262 -2.7293 0.0000 37.5082 0.0000
# 6 0.0000 0.0000 0.0000 5.6933 0.0000 7.0162
#
#
#
# Elastic Compliance Matrix: (Units=1/GPa)
#
#
# Indices 1 2 3 4 5 6 
#
# 1 0.014846 -0.006464 0.001708 0.000000 0.001207 0.000000
# 2 -0.006464 0.067737 -0.002862 0.000000 0.003174 0.000000
# 3 0.001708 -0.002862 0.026119 0.000000 0.001899 0.000000
# 4 0.000000 0.000000 0.000000 3.148067 0.000000 -2.554489
# 5 0.001207 0.003174 0.001899 0.000000 0.027107 0.000000
# 6 0.000000 0.000000 0.000000 -2.554489 0.000000 2.215360
#
#
# Mechanical properties :
#
#
# Convention : Reuss Voigt Hill
#
# Bulk Modulus (GPa) = 10.69929 14.96457 12.83193
# Shear Modulus (GPa) = 0.90161 17.95239 9.42700
#
# Velocity S-wave (km/s) = 0.72331 3.22759 2.33886
# Velocity P-wave (km/s) = 2.62795 4.75114 3.83923
#
# Compressibility (1/GPa) = 0.09346411
#
# Stress axis : x y z
#
# Youngs Moduli (GPa) = 67.35972 14.76305 38.28681
#
# Poissons Ratio (x) = 0.09543 -0.06538
# Poissons Ratio (y) = 0.43542 0.10957
# Poissons Ratio (z) = -0.11502 0.04225
#
# Static dielectric constant tensor:
#      x y z
#    x 1.451200 0.000000 -0.046380 
#    y 0.000000 1.605660 0.000000 
#    z -0.046380 0.000000 1.605340 
# 
# From -- ./inp_files/78442.got.cif
#   From: 2010.05.17/outbox.cif.g08.bks.cpg/sg12_40_cif.got.tgz:78442.got - 2010.06.03 13:09:07.
