data_PCOD9218554
_publ_section_title
;
Structure prediction by ZEFSAII (Michael W. Deem and Ramdas Pophale) SiO2 
 PCOD9218554
Probable space group: C 2/M
;
_chemical_formula_sum "Si O2"
_cell_formula_units_Z 44
_cell_length_a 18.792343
_cell_length_b 8.767067
_cell_length_c 15.661822
_cell_angle_alpha 90.000000
_cell_angle_beta 51.881150
_cell_angle_gamma 90.000000
_cell_volume 2030.038821
_symmetry_space_group_name_H-M "C 2/M"
_symmetry_group_IT_number 12
_symmetry_cell_setting 'monoclinic'
loop_
_space_group_symop_operation_xyz
x,y,z
-x,y,-z
-x,-y,-z
x,-y,z
1/2+x,1/2+y,z
1/2-x,1/2+y,-z
1/2-x,1/2-y,-z
1/2+x,1/2-y,z
loop_
_atom_site_type_symbol
_atom_site_label
_atom_site_fract_x
_atom_site_fract_y
_atom_site_fract_z
Si Si1 0.152969 0.825014 0.584719
Si Si2 0.096536 0.171614 0.823561
Si Si3 0.599339 0.826655 0.463714
Si Si4 0.376790 0.000000 0.818301
Si Si5 0.206346 0.500000 0.942445
Si Si6 0.501790 0.000000 0.113543
Si Si7 0.715455 0.238500 0.228669
O O1 0.250000 0.750000 0.500000
O O2 0.124173 0.820917 0.703788
O O3 0.091473 0.732840 0.565114
O O4 0.155797 0.000000 0.555475
O O5 0.044736 0.335562 0.872673
O O6 0.187812 0.172161 0.812488
O O7 0.053094 0.000000 0.868347
O O8 0.500000 0.829422 0.500000
O O9 0.664661 0.724974 0.355394
O O10 0.637538 0.000000 0.434135
O O11 0.467894 0.000000 0.807534
O O12 0.356597 0.862442 0.769677
O O13 0.299624 0.000000 0.950453
O O14 0.100310 0.500000 0.996339
O O15 0.256148 0.361038 0.861881
#
# Coordination Sequence:
#
# PCOD9218554 Si02
#       7
#     8   8   8   4   4   4   8
#     4  11  24  40  64 100 139 181 228 273 342 414
#     4  11  24  44  71 108 144 190 232 292 352 430
#     4  11  25  41  67 101 139 184 227 281 342 418
#     4  10  24  48  69 103 131 186 235 297 356 418
#     4  10  27  46  73 101 135 183 243 297 361 424
#     4  10  27  48  73 104 143 182 240 300 365 403
#     4  12  22  46  72  99 140 182 241 288 355 431
#
# _framework density 21.674462999999999
#
# number of rings (size 3 to 8) (size 9 to 14) (size 15 to 20)
#    0.545    0.545    3.636    1.636    6.364    1.818 
#    3.273    0.909    0.000    0.000    0.000    0.000 
#    0.000    0.000    0.000    0.000    0.000    0.000 
#
# Total GULP energy -122620.413504 kJ/mol
# GULP energy per Si atom -5573.655159 kJ/mol
# Density = 2.162513 g / cm^3
# Si number density = 21.674463 Si / 1000 Ang^3
#
#
#
# Elastic Constant Matrix: (Units=GPa)
#
#
# Indices 1 2 3 4 5 6 
#
# 1 104.3313 37.0789 -3.2257 -0.0001 20.3721 0.0000
# 2 37.0789 87.9024 16.2550 -0.0002 -6.5571 -0.0002
# 3 -3.2257 16.2550 78.2717 0.0001 14.5016 0.0000
# 4 -0.0001 -0.0002 0.0001 -88.8816 0.0000 -78.6019
# 5 20.3721 -6.5571 14.5016 0.0000 46.1113 0.0000
# 6 0.0000 -0.0002 0.0000 -78.6019 0.0000 -44.2102
#
#
#
# Elastic Compliance Matrix: (Units=1/GPa)
#
#
# Indices 1 2 3 4 5 6 
#
# 1 0.013833 -0.007111 0.003575 0.000000 -0.008247 0.000000
# 2 -0.007111 0.015789 -0.004853 0.000000 0.006913 0.000000
# 3 0.003575 -0.004853 0.015240 0.000000 -0.007062 0.000000
# 4 0.000000 0.000000 0.000000 0.019660 0.000000 -0.034953
# 5 -0.008247 0.006913 -0.007062 0.000000 0.028534 0.000000
# 6 0.000000 0.000000 0.000000 -0.034953 0.000000 0.039524
#
#
# Mechanical properties :
#
#
# Convention : Reuss Voigt Hill
#
# Bulk Modulus (GPa) = 35.60870 41.19132 38.40001
# Shear Modulus (GPa) = 31.50208 -2.70296 14.39956
#
# Velocity S-wave (km/s) = 3.81651 -1.11793 2.58031
# Velocity P-wave (km/s) = 5.99045 4.16886 5.16067
#
# Compressibility (1/GPa) = 0.02808302
#
# Stress axis : x y z
#
# Youngs Moduli (GPa) = 72.29075 63.33519 65.61859
#
# Poissons Ratio (x) = 0.45039 -0.23458
# Poissons Ratio (y) = 0.51408 0.31844
# Poissons Ratio (z) = -0.25843 0.30736
#
# Static dielectric constant tensor:
#      x y z
#    x 1.824440 0.000000 0.017720 
#    y 0.000000 1.719010 0.000000 
#    z 0.017720 0.000000 1.759410 
# 
# From -- ./inp_files/221475.got.cif
#   From: 2010.05.17/outbox.cif.g08.bks.cpg/sg12_111_cif.got.tgz:221475.got - 2010.06.03 13:09:07.
