data_PCOD9218944
_publ_section_title
;
Structure prediction by ZEFSAII (Michael W. Deem and Ramdas Pophale) SiO2 
 PCOD9218944
Probable space group: C 2/M
;
_chemical_formula_sum "Si O2"
_cell_formula_units_Z 56
_cell_length_a 19.123119
_cell_length_b 22.917020
_cell_length_c 11.503246
_cell_angle_alpha 90.000000
_cell_angle_beta 40.167837
_cell_angle_gamma 90.000000
_cell_volume 3251.744424
_symmetry_space_group_name_H-M "C 2/M"
_symmetry_group_IT_number 12
_symmetry_cell_setting 'monoclinic'
loop_
_space_group_symop_operation_xyz
x,y,z
-x,y,-z
-x,-y,-z
x,-y,z
1/2+x,1/2+y,z
1/2-x,1/2+y,-z
1/2-x,1/2-y,-z
1/2+x,1/2-y,z
loop_
_atom_site_type_symbol
_atom_site_label
_atom_site_fract_x
_atom_site_fract_y
_atom_site_fract_z
Si Si1 0.368689 0.934466 0.673002
Si Si2 0.788265 0.247170 0.248225
Si Si3 0.094910 0.656611 0.782809
Si Si4 0.083273 0.848796 0.784648
Si Si5 0.618276 0.807470 0.299970
Si Si6 0.462714 0.253407 0.821162
Si Si7 0.724562 0.932428 0.470312
O O1 0.500000 0.937008 0.500000
O O2 0.337436 0.873617 0.778119
O O3 0.317693 0.926692 0.609211
O O4 0.334969 0.000000 0.758483
O O5 0.803866 0.310001 0.285751
O O6 0.826838 0.198602 0.289779
O O7 0.681396 0.227027 0.319971
O O8 0.879120 0.245459 0.033213
O O9 0.139854 0.600954 0.660036
O O10 0.046391 0.702172 0.750155
O O11 0.000000 0.646701 0.000000
O O12 0.155300 0.905232 0.669995
O O13 0.021174 0.816302 0.757703
O O14 0.000000 0.856946 0.000000
O O15 0.500000 0.817526 0.500000
O O16 0.602653 0.766445 0.208483
O O17 0.726462 0.000000 0.496738
#
# Coordination Sequence:
#
# PCOD9218944 Si02
#       7
#     8   8   8   8   8   8   8
#     4   9  18  31  45  70 107 136 166 204 247 303
#     4   9  18  33  49  72 104 134 160 210 263 302
#     4   9  19  34  51  73 103 133 165 210 258 300
#     4   9  19  35  52  74 105 133 166 215 259 298
#     4  11  19  27  48  79 101 131 169 204 251 311
#     4   9  19  32  50  74 102 134 164 206 264 303
#     4  11  21  33  54  76  99 141 176 205 251 300
#
# _framework density 17.221526000000001
#
# number of rings (size 3 to 8) (size 9 to 14) (size 15 to 20)
#    0.000    2.429    1.429    3.857    2.000    1.714 
#    0.000    0.000    0.000    0.857    0.000    2.000 
#    0.000    0.000    0.000    0.000    0.000    0.000 
#
# Total GULP energy -155889.107512 kJ/mol
# GULP energy per Si atom -5567.468125 kJ/mol
# Density = 1.718233 g / cm^3
# Si number density = 17.221526 Si / 1000 Ang^3
#
#
#
# Elastic Constant Matrix: (Units=GPa)
#
#
# Indices 1 2 3 4 5 6 
#
# 1 81.1556 42.9725 10.8833 -0.0002 -5.1986 0.0001
# 2 42.9725 107.9294 30.6279 0.0000 -13.3240 0.0000
# 3 10.8833 30.6279 39.2767 -0.0001 -7.8477 0.0001
# 4 -0.0002 0.0000 -0.0001 -1.8024 0.0001 18.6966
# 5 -5.1986 -13.3240 -7.8477 0.0001 15.1378 -0.0001
# 6 0.0001 0.0000 0.0001 18.6966 -0.0001 7.9640
#
#
#
# Elastic Compliance Matrix: (Units=1/GPa)
#
#
# Indices 1 2 3 4 5 6 
#
# 1 0.015628 -0.006405 0.000681 0.000000 0.000082 0.000000
# 2 -0.006405 0.015091 -0.008677 0.000000 0.006585 0.000000
# 3 0.000681 -0.008677 0.034090 0.000000 0.010269 0.000000
# 4 0.000000 0.000000 0.000000 -0.021884 0.000000 0.051376
# 5 0.000082 0.006585 0.010269 0.000000 0.077207 0.000000
# 6 0.000000 0.000000 0.000000 0.051376 0.000000 0.004953
#
#
# Mechanical properties :
#
#
# Convention : Reuss Voigt Hill
#
# Bulk Modulus (GPa) = 27.77383 44.14767 35.96075
# Shear Modulus (GPa) = 30.14050 13.85173 21.99612
#
# Velocity S-wave (km/s) = 4.18804 2.83914 3.57773
# Velocity P-wave (km/s) = 6.28877 6.03643 6.16389
#
# Compressibility (1/GPa) = 0.03600512
#
# Stress axis : x y z
#
# Youngs Moduli (GPa) = 63.98934 66.26510 29.33403
#
# Poissons Ratio (x) = 0.42445 -0.01997
# Poissons Ratio (y) = 0.40987 0.25454
# Poissons Ratio (z) = -0.04357 0.57501
#
# Static dielectric constant tensor:
#      x y z
#    x 2.226320 0.000000 0.019170 
#    y 0.000000 1.620940 0.000000 
#    z 0.019170 0.000000 1.612460 
# 
# From -- ./inp_files/159184.got.cif
#   From: 2010.05.17/outbox.cif.g08.bks.cpg/sg12_80_cif.got.tgz:159184.got - 2010.06.03 13:09:07.
