data_PCOD9218986
_publ_section_title
;
Structure prediction by ZEFSAII (Michael W. Deem and Ramdas Pophale) SiO2 
 PCOD9218986
Probable space group: C 2/M
;
_chemical_formula_sum "Si O2"
_cell_formula_units_Z 48
_cell_length_a 11.394915
_cell_length_b 22.145051
_cell_length_c 10.685592
_cell_angle_alpha 90.000000
_cell_angle_beta 125.904432
_cell_angle_gamma 90.000000
_cell_volume 2184.084250
_symmetry_space_group_name_H-M "C 2/M"
_symmetry_group_IT_number 12
_symmetry_cell_setting 'monoclinic'
loop_
_space_group_symop_operation_xyz
x,y,z
-x,y,-z
-x,-y,-z
x,-y,z
1/2+x,1/2+y,z
1/2-x,1/2+y,-z
1/2-x,1/2-y,-z
1/2+x,1/2-y,z
loop_
_atom_site_type_symbol
_atom_site_label
_atom_site_fract_x
_atom_site_fract_y
_atom_site_fract_z
Si Si1 0.541210 0.859584 0.169028
Si Si2 0.152774 0.133044 0.533551
Si Si3 0.366973 0.633836 0.763552
Si Si4 0.899954 0.570088 0.310719
Si Si5 0.352351 0.241889 0.374128
Si Si6 0.589199 0.729052 0.864619
O O1 0.704543 0.882211 0.298586
O O2 0.451502 0.889331 0.226148
O O3 0.512377 0.786917 0.165971
O O4 0.500000 0.874104 0.000000
O O5 0.148022 0.111683 0.388806
O O6 0.171562 0.206103 0.540206
O O7 0.000000 0.117520 0.500000
O O8 0.271456 0.585161 0.777759
O O9 0.269176 0.693549 0.718603
O O10 0.525972 0.665495 0.877343
O O11 0.917911 0.500000 0.289837
O O12 0.000000 0.579127 0.500000
O O13 0.500000 0.208172 0.500000
O O14 0.389638 0.277388 0.270649
O O15 0.750000 0.750000 0.000000
#
# Coordination Sequence:
#
# PCOD9218986 Si02
#       6
#     8   8   8   8   8   8
#     4  12  25  42  67 103 148 184 228 300 367 431
#     4  11  21  36  61 103 137 181 232 277 358 434
#     4  12  21  38  67  94 141 182 233 293 347 418
#     4  11  25  47  75 103 133 188 257 302 344 419
#     4  11  19  33  56  92 132 172 219 269 344 427
#     4  12  25  37  57 102 148 181 222 285 362 430
#
# _framework density 21.977176
#
# number of rings (size 3 to 8) (size 9 to 14) (size 15 to 20)
#    0.000    0.500    8.333    3.000    0.000    0.333 
#    0.000    0.000    0.000    4.000    0.000    0.000 
#    0.000    0.000    0.000    0.000    0.000    0.000 
#
# Total GULP energy -133811.751669 kJ/mol
# GULP energy per Si atom -5575.489653 kJ/mol
# Density = 2.192715 g / cm^3
# Si number density = 21.977176 Si / 1000 Ang^3
#
#
#
# Elastic Constant Matrix: (Units=GPa)
#
#
# Indices 1 2 3 4 5 6 
#
# 1 116.2076 5.5360 51.0185 0.0000 -2.8411 0.0000
# 2 5.5360 55.4038 8.5624 0.0000 -9.4052 0.0000
# 3 51.0185 8.5624 105.7337 0.0000 8.4318 0.0000
# 4 0.0000 0.0000 0.0000 10.7268 0.0000 3.5821
# 5 -2.8411 -9.4052 8.4318 0.0000 51.1245 0.0000
# 6 0.0000 0.0000 0.0000 3.5821 0.0000 15.1435
#
#
#
# Elastic Compliance Matrix: (Units=1/GPa)
#
#
# Indices 1 2 3 4 5 6 
#
# 1 0.011032 -0.000005 -0.005443 0.000000 0.001510 0.000000
# 2 -0.000005 0.018978 -0.001837 0.000000 0.003794 0.000000
# 3 -0.005443 -0.001837 0.012448 0.000000 -0.002693 0.000000
# 4 0.000000 0.000000 0.000000 0.101220 0.000000 -0.023943
# 5 0.001510 0.003794 -0.002693 0.000000 0.020786 0.000000
# 6 0.000000 0.000000 0.000000 -0.023943 0.000000 0.071699
#
#
# Mechanical properties :
#
#
# Convention : Reuss Voigt Hill
#
# Bulk Modulus (GPa) = 35.85846 45.28657 40.57251
# Shear Modulus (GPa) = 19.22862 29.54750 24.38806
#
# Velocity S-wave (km/s) = 2.96114 3.67067 3.33483
# Velocity P-wave (km/s) = 5.29554 6.21418 5.77316
#
# Compressibility (1/GPa) = 0.02788742
#
# Stress axis : x y z
#
# Youngs Moduli (GPa) = 90.64391 52.69327 80.33572
#
# Poissons Ratio (x) = 0.00025 0.43729
# Poissons Ratio (y) = 0.00043 0.14758
# Poissons Ratio (z) = 0.49340 0.09680
#
# Static dielectric constant tensor:
#      x y z
#    x 1.871610 0.000000 0.044900 
#    y 0.000000 1.773010 0.000000 
#    z 0.044900 0.000000 1.975030 
# 
# From -- ./inp_files/135560.got.cif
#   From: 2010.05.17/outbox.cif.g08.bks.cpg/sg12_68_cif.got.tgz:135560.got - 2010.06.03 13:09:07.
