data_PCOD9218164
_publ_section_title
;
Structure prediction by ZEFSAII (Michael W. Deem and Ramdas Pophale) SiO2 
 PCOD9218164
Probable space group: C 2/M
;
_chemical_formula_sum "Si O2"
_cell_formula_units_Z 46
_cell_length_a 8.877983
_cell_length_b 15.285830
_cell_length_c 27.588599
_cell_angle_alpha 90.000000
_cell_angle_beta 143.777454
_cell_angle_gamma 90.000000
_cell_volume 2212.401756
_symmetry_space_group_name_H-M "C 2/M"
_symmetry_group_IT_number 12
_symmetry_cell_setting 'monoclinic'
loop_
_space_group_symop_operation_xyz
x,y,z
-x,y,-z
-x,-y,-z
x,-y,z
1/2+x,1/2+y,z
1/2-x,1/2+y,-z
1/2-x,1/2-y,-z
1/2+x,1/2-y,z
loop_
_atom_site_type_symbol
_atom_site_label
_atom_site_fract_x
_atom_site_fract_y
_atom_site_fract_z
Si Si1 0.998269 0.597357 0.248579
Si Si2 0.000000 0.256504 0.500000
Si Si3 0.301122 0.854274 0.871727
Si Si4 0.272690 0.100783 0.297216
Si Si5 0.962684 0.782082 0.383867
Si Si6 0.500000 0.000000 0.000000
Si Si7 0.260442 0.834234 0.094634
O O1 0.107862 0.500000 0.278441
O O2 0.854107 0.612195 0.261879
O O3 0.810813 0.606545 0.154655
O O4 0.222885 0.667038 0.300910
O O5 0.014202 0.201611 0.552901
O O6 0.266104 0.307627 0.567979
O O7 0.400372 0.924432 0.935851
O O8 0.507914 0.841714 0.882954
O O9 0.261622 0.763385 0.889838
O O10 0.030069 0.883241 0.779101
O O11 0.415456 0.178483 0.362733
O O12 0.331491 0.000000 0.326290
O O13 0.000000 0.857632 0.000000
#
# Coordination Sequence:
#
# PCOD9218164 Si02
#       7
#     8   4   8   8   8   2   8
#     4  11  26  44  70 103 140 187 234 286 344 415
#     4  10  24  42  76 100 138 176 226 278 362 416
#     4  12  26  44  68 100 136 185 233 286 342 404
#     4  11  24  44  71 100 137 187 230 277 347 419
#     4  11  22  47  69 105 136 182 221 289 344 427
#     4  12  28  44  70 100 146 172 242 300 336 394
#     4  12  27  44  70  99 140 187 235 286 341 399
#
# _framework density 20.791885000000001
#
# number of rings (size 3 to 8) (size 9 to 14) (size 15 to 20)
#    0.000    0.696    5.217    1.565    6.087    0.348 
#    0.000    5.217    0.000    0.000    0.000    0.000 
#    0.000    0.000    0.000    0.000    0.000    0.000 
#
# Total GULP energy -128329.914385 kJ/mol
# GULP energy per Si atom -5579.561495 kJ/mol
# Density = 2.074456 g / cm^3
# Si number density = 20.791885 Si / 1000 Ang^3
#
#
#
# Elastic Constant Matrix: (Units=GPa)
#
#
# Indices 1 2 3 4 5 6 
#
# 1 98.2921 39.1712 30.0986 0.0000 17.4222 -0.0001
# 2 39.1712 97.6028 34.9744 0.0000 2.1181 0.0000
# 3 30.0986 34.9744 92.6617 0.0001 0.8013 -0.0002
# 4 0.0000 0.0000 0.0001 -12.8214 -0.0001 -3.1534
# 5 17.4222 2.1181 0.8013 -0.0001 35.4791 0.0000
# 6 -0.0001 0.0000 -0.0002 -3.1534 0.0000 10.2183
#
#
#
# Elastic Compliance Matrix: (Units=1/GPa)
#
#
# Indices 1 2 3 4 5 6 
#
# 1 0.013965 -0.004461 -0.002796 0.000000 -0.006528 0.000000
# 2 -0.004461 0.013286 -0.003579 0.000000 0.001478 0.000000
# 3 -0.002796 -0.003579 0.013040 0.000000 0.001292 0.000000
# 4 0.000000 0.000000 0.000000 -0.072493 0.000000 -0.022371
# 5 -0.006528 0.001478 0.001292 0.000000 0.031274 0.000000
# 6 0.000000 0.000000 0.000000 -0.022371 0.000000 0.090959
#
#
# Mechanical properties :
#
#
# Convention : Reuss Voigt Hill
#
# Bulk Modulus (GPa) = 53.70619 55.22723 54.46671
# Shear Modulus (GPa) = 42.40576 18.86271 30.63424
#
# Velocity S-wave (km/s) = 4.52102 3.01527 3.84262
# Velocity P-wave (km/s) = 7.28967 6.22431 6.77795
#
# Compressibility (1/GPa) = 0.01861983
#
# Stress axis : x y z
#
# Youngs Moduli (GPa) = 71.60871 75.26620 76.68944
#
# Poissons Ratio (x) = 0.33576 0.21441
# Poissons Ratio (y) = 0.31945 0.27443
# Poissons Ratio (z) = 0.20021 0.26934
#
# Static dielectric constant tensor:
#      x y z
#    x 1.755970 0.000000 0.015940 
#    y 0.000000 1.742010 0.000000 
#    z 0.015940 0.000000 1.725690 
# 
# From -- ./inp_files/356382.got.cif
#   From: 2010.05.17/outbox.cif.g08.bks.cpg/sg12_179_cif.got.tgz:356382.got - 2010.06.03 13:09:07.
