data_PCOD9218727
_publ_section_title
;
Structure prediction by ZEFSAII (Michael W. Deem and Ramdas Pophale) SiO2 
 PCOD9218727
Probable space group: C 2/M
;
_chemical_formula_sum "Si O2"
_cell_formula_units_Z 32
_cell_length_a 5.917623
_cell_length_b 29.451564
_cell_length_c 9.904950
_cell_angle_alpha 90.000000
_cell_angle_beta 121.551265
_cell_angle_gamma 90.000000
_cell_volume 1471.076873
_symmetry_space_group_name_H-M "C 2/M"
_symmetry_group_IT_number 12
_symmetry_cell_setting 'monoclinic'
loop_
_space_group_symop_operation_xyz
x,y,z
-x,y,-z
-x,-y,-z
x,-y,z
1/2+x,1/2+y,z
1/2-x,1/2+y,-z
1/2-x,1/2-y,-z
1/2+x,1/2-y,z
loop_
_atom_site_type_symbol
_atom_site_label
_atom_site_fract_x
_atom_site_fract_y
_atom_site_fract_z
Si Si1 0.486153 0.306812 0.156810
Si Si2 0.826236 0.447055 0.084474
Si Si3 0.915943 0.626328 0.328935
Si Si4 0.734597 0.212227 0.326549
O O1 0.618272 0.354713 0.231894
O O2 0.624294 0.262831 0.270076
O O3 0.230387 0.306236 0.170898
O O4 0.500000 0.300671 0.000000
O O5 0.866580 0.500000 0.133336
O O6 0.949743 0.411207 0.226830
O O7 0.500000 0.440560 0.000000
O O8 0.000000 0.440662 0.000000
O O9 0.000000 0.608466 0.500000
O O10 0.068874 0.673668 0.350692
O O11 0.000000 0.215088 0.500000
#
# Coordination Sequence:
#
# PCOD9218727 Si02
#       4
#     8   8   8   8
#     4  12  25  39  60  92 129 182 234 283 335 397
#     4  10  25  50  78 106 137 175 224 286 349 412
#     4  12  26  41  66  95 134 182 223 281 346 408
#     4  12  24  41  60  89 137 181 229 281 337 405
#
# _framework density 21.752770999999999
#
# number of rings (size 3 to 8) (size 9 to 14) (size 15 to 20)
#    0.000    0.500    5.000    3.000    7.000    0.500 
#    0.000    0.000    0.000    5.250    0.000    0.000 
#    0.000    0.000    0.000    0.000    0.000    0.000 
#
# Total GULP energy -89100.894189 kJ/mol
# GULP energy per Si atom -5568.805887 kJ/mol
# Density = 2.170326 g / cm^3
# Si number density = 21.752771 Si / 1000 Ang^3
#
#
#
# Elastic Constant Matrix: (Units=GPa)
#
#
# Indices 1 2 3 4 5 6 
#
# 1 56.5094 14.9255 39.6503 0.0000 -23.3380 0.0000
# 2 14.9255 121.0485 62.7119 0.0000 -9.8856 0.0000
# 3 39.6503 62.7119 126.5956 0.0000 -27.2355 0.0000
# 4 0.0000 0.0000 0.0000 12.7962 0.0000 -2.0009
# 5 -23.3380 -9.8856 -27.2355 0.0000 36.3979 0.0000
# 6 0.0000 0.0000 0.0000 -2.0009 0.0000 30.4076
#
#
#
# Elastic Compliance Matrix: (Units=1/GPa)
#
#
# Indices 1 2 3 4 5 6 
#
# 1 0.027165 0.000900 -0.006143 0.000000 0.013066 0.000000
# 2 0.000900 0.011196 -0.006019 0.000000 -0.000886 0.000000
# 3 -0.006143 -0.006019 0.013832 0.000000 0.004777 0.000000
# 4 0.000000 0.000000 0.000000 0.078961 0.000000 0.005196
# 5 0.013066 -0.000886 0.004777 0.000000 0.039186 0.000000
# 6 0.000000 0.000000 0.000000 0.005196 0.000000 0.033228
#
#
# Mechanical properties :
#
#
# Convention : Reuss Voigt Hill
#
# Bulk Modulus (GPa) = 33.70419 59.85877 46.78148
# Shear Modulus (GPa) = 21.18816 28.37804 24.78310
#
# Velocity S-wave (km/s) = 3.12435 3.61580 3.37903
# Velocity P-wave (km/s) = 5.34259 6.70892 6.06436
#
# Compressibility (1/GPa) = 0.02966990
#
# Stress axis : x y z
#
# Youngs Moduli (GPa) = 36.81231 89.31832 72.29435
#
# Poissons Ratio (x) = -0.08040 0.44411
# Poissons Ratio (y) = -0.03314 0.43511
# Poissons Ratio (z) = 0.22614 0.53757
#
# Static dielectric constant tensor:
#      x y z
#    x 2.230770 0.000000 -0.037770 
#    y 0.000000 1.717440 0.000000 
#    z -0.037770 0.000000 1.822870 
# 
# From -- ./inp_files/34498.got.cif
#   From: 2010.05.17/outbox.cif.g08.bks.cpg/sg12_18_cif.got.tgz:34498.got - 2010.06.03 13:09:07.
