data_PCOD9218059
_publ_section_title
;
Structure prediction by ZEFSAII (Michael W. Deem and Ramdas Pophale) SiO2 
 PCOD9218059
Probable space group: C 2/M
;
_chemical_formula_sum "Si O2"
_cell_formula_units_Z 32
_cell_length_a 11.911479
_cell_length_b 26.188779
_cell_length_c 5.063628
_cell_angle_alpha 90.000000
_cell_angle_beta 105.217203
_cell_angle_gamma 90.000000
_cell_volume 1524.200222
_symmetry_space_group_name_H-M "C 2/M"
_symmetry_group_IT_number 12
_symmetry_cell_setting 'monoclinic'
loop_
_space_group_symop_operation_xyz
x,y,z
-x,y,-z
-x,-y,-z
x,-y,z
1/2+x,1/2+y,z
1/2-x,1/2+y,-z
1/2-x,1/2-y,-z
1/2+x,1/2-y,z
loop_
_atom_site_type_symbol
_atom_site_label
_atom_site_fract_x
_atom_site_fract_y
_atom_site_fract_z
Si Si1 0.316343 0.891337 0.054237
Si Si2 0.646965 0.169339 0.409204
Si Si3 0.000000 0.749185 0.000000
Si Si4 0.381838 0.331618 0.280535
Si Si5 0.916061 0.500000 0.199880
O O1 0.363550 0.851675 0.303018
O O2 0.339987 0.948665 0.149600
O O3 0.373194 0.877813 0.806643
O O4 0.181285 0.876283 0.924401
O O5 0.781585 0.183324 0.428425
O O6 0.568065 0.214699 0.253834
O O7 0.087955 0.784988 0.892556
O O8 0.500000 0.346514 0.500000
O O9 0.000000 0.500000 0.500000
O O10 0.000000 0.500000 0.000000
#
# Coordination Sequence:
#
# PCOD9218059 Si02
#       5
#     8   8   4   8   4
#     4  10  25  45  64 100 138 169 227 284 339 401
#     4  10  25  41  66  98 142 174 224 283 331 408
#     4  12  24  40  68 100 140 190 228 274 348 394
#     4  10  24  41  67  95 142 183 232 276 331 405
#     4  12  26  46  79 103 131 178 219 287 354 409
#
# _framework density 20.994617999999999
#
# number of rings (size 3 to 8) (size 9 to 14) (size 15 to 20)
#    1.500    0.000    0.000    3.750    8.750    2.000 
#    0.000    0.625    0.000    2.250    0.000    0.000 
#    0.000    0.000    0.000    0.000    0.000    0.000 
#
# Total GULP energy -89433.413724 kJ/mol
# GULP energy per Si atom -5589.588358 kJ/mol
# Density = 2.094683 g / cm^3
# Si number density = 20.994618 Si / 1000 Ang^3
#
#
#
# Elastic Constant Matrix: (Units=GPa)
#
#
# Indices 1 2 3 4 5 6 
#
# 1 105.2212 62.0991 47.3227 0.0000 23.6936 0.0000
# 2 62.0991 148.6992 57.9036 0.0000 35.5596 0.0000
# 3 47.3227 57.9036 149.8566 0.0000 24.0966 0.0000
# 4 0.0000 0.0000 0.0000 25.5879 0.0000 -6.2794
# 5 23.6936 35.5596 24.0966 0.0000 49.1367 0.0000
# 6 0.0000 0.0000 0.0000 -6.2794 0.0000 4.6012
#
#
#
# Elastic Compliance Matrix: (Units=1/GPa)
#
#
# Indices 1 2 3 4 5 6 
#
# 1 0.013540 -0.004203 -0.002270 0.000000 -0.002374 0.000000
# 2 -0.004203 0.010305 -0.001934 0.000000 -0.004483 0.000000
# 3 -0.002270 -0.001934 0.008398 0.000000 -0.001624 0.000000
# 4 0.000000 0.000000 0.000000 0.058761 0.000000 0.080194
# 5 -0.002374 -0.004483 -0.001624 0.000000 0.025537 0.000000
# 6 0.000000 0.000000 0.000000 0.080194 0.000000 0.326778
#
#
# Mechanical properties :
#
#
# Convention : Reuss Voigt Hill
#
# Bulk Modulus (GPa) = 64.80863 82.04754 73.42809
# Shear Modulus (GPa) = 10.74631 31.62859 21.18745
#
# Velocity S-wave (km/s) = 2.26489 3.88559 3.18021
# Velocity P-wave (km/s) = 6.14620 7.70036 6.96675
#
# Compressibility (1/GPa) = 0.01543004
#
# Stress axis : x y z
#
# Youngs Moduli (GPa) = 73.85718 97.03893 119.07154
#
# Poissons Ratio (x) = 0.40782 0.27029
# Poissons Ratio (y) = 0.31040 0.23027
# Poissons Ratio (z) = 0.16765 0.18766
#
# Static dielectric constant tensor:
#      x y z
#    x 1.793790 0.000000 0.002020 
#    y 0.000000 1.722050 0.000000 
#    z 0.002020 0.000000 1.772020 
# 
# From -- ./inp_files/11177.got.cif
#   From: 2010.05.17/outbox.cif.g08.bks.cpg/sg12_6_cif.got.tgz:11177.got - 2010.06.03 13:09:07.
