data_PCOD9218736
_publ_section_title
;
Structure prediction by ZEFSAII (Michael W. Deem and Ramdas Pophale) SiO2 
 PCOD9218736
Probable space group: C 2/M
;
_chemical_formula_sum "Si O2"
_cell_formula_units_Z 36
_cell_length_a 9.361570
_cell_length_b 16.316192
_cell_length_c 11.400758
_cell_angle_alpha 90.000000
_cell_angle_beta 71.684555
_cell_angle_gamma 90.000000
_cell_volume 1653.192286
_symmetry_space_group_name_H-M "C 2/M"
_symmetry_group_IT_number 12
_symmetry_cell_setting 'monoclinic'
loop_
_space_group_symop_operation_xyz
x,y,z
-x,y,-z
-x,-y,-z
x,-y,z
1/2+x,1/2+y,z
1/2-x,1/2+y,-z
1/2-x,1/2-y,-z
1/2+x,1/2-y,z
loop_
_atom_site_type_symbol
_atom_site_label
_atom_site_fract_x
_atom_site_fract_y
_atom_site_fract_z
Si Si1 0.273050 0.844737 0.523831
Si Si2 0.283210 0.140967 0.929771
Si Si3 0.937551 0.000000 0.383391
Si Si4 0.610649 0.500000 0.088799
Si Si5 0.031996 0.408818 0.329764
Si Si6 0.000000 0.232046 0.000000
O O1 0.250000 0.750000 0.500000
O O2 0.149264 0.911959 0.592970
O O3 0.359144 0.884512 0.389379
O O4 0.380984 0.846505 0.609264
O O5 0.388786 0.092874 0.814334
O O6 0.395656 0.211497 0.945835
O O7 0.131250 0.176896 0.908034
O O8 0.215300 0.080611 0.045481
O O9 0.000000 0.000000 0.500000
O O10 0.030961 0.000000 0.236268
O O11 0.500000 0.500000 0.000000
O O12 0.053090 0.500000 0.371741
#
# Coordination Sequence:
#
# PCOD9218736 Si02
#       6
#     8   8   4   4   8   4
#     4  11  25  43  67 100 138 191 239 289 359 431
#     4  11  24  44  71 103 136 191 236 300 370 427
#     4  12  28  46  68 108 152 182 235 311 364 426
#     4  12  24  46  76 104 140 196 247 291 368 452
#     4  11  22  45  72  93 135 189 245 293 352 436
#     4  10  26  42  62 106 146 172 234 304 360 430
#
# _framework density 21.776050999999999
#
# number of rings (size 3 to 8) (size 9 to 14) (size 15 to 20)
#    0.000    0.889    4.444    2.000    6.222    4.000 
#    0.000    0.000    0.000    0.000    0.000    0.000 
#    0.000    0.000    0.000    0.000    0.000    0.000 
#
# Total GULP energy -100206.680396 kJ/mol
# GULP energy per Si atom -5567.037800 kJ/mol
# Density = 2.172649 g / cm^3
# Si number density = 21.776051 Si / 1000 Ang^3
#
#
#
# Elastic Constant Matrix: (Units=GPa)
#
#
# Indices 1 2 3 4 5 6 
#
# 1 54.0838 22.8174 40.9843 0.0000 -17.7325 0.0000
# 2 22.8174 141.9022 55.5740 0.0000 -18.1359 0.0000
# 3 40.9843 55.5740 183.5047 0.0000 -48.0965 0.0000
# 4 0.0000 0.0000 0.0000 32.1574 0.0000 -15.4152
# 5 -17.7325 -18.1359 -48.0965 0.0000 31.8091 0.0000
# 6 0.0000 0.0000 0.0000 -15.4152 0.0000 96.5492
#
#
#
# Elastic Compliance Matrix: (Units=1/GPa)
#
#
# Indices 1 2 3 4 5 6 
#
# 1 0.023970 -0.001754 -0.002621 0.000000 0.008400 0.000000
# 2 -0.001754 0.008166 -0.001851 0.000000 0.000880 0.000000
# 3 -0.002621 -0.001851 0.009832 0.000000 0.012351 0.000000
# 4 0.000000 0.000000 0.000000 0.033674 0.000000 0.005376
# 5 0.008400 0.000880 0.012351 0.000000 0.055296 0.000000
# 6 0.000000 0.000000 0.000000 0.005376 0.000000 0.011216
#
#
# Mechanical properties :
#
#
# Convention : Reuss Voigt Hill
#
# Bulk Modulus (GPa) = 33.87875 68.69358 51.28617
# Shear Modulus (GPa) = 30.40511 49.44415 39.92463
#
# Velocity S-wave (km/s) = 3.74071 4.77022 4.28649
# Velocity P-wave (km/s) = 5.85225 7.87109 6.93552
#
# Compressibility (1/GPa) = 0.02951703
#
# Stress axis : x y z
#
# Youngs Moduli (GPa) = 41.71895 122.45183 101.70459
#
# Poissons Ratio (x) = 0.21483 0.26653
# Poissons Ratio (y) = 0.07319 0.18824
# Poissons Ratio (z) = 0.10933 0.22664
#
# Static dielectric constant tensor:
#      x y z
#    x 1.910290 0.000000 -0.033690 
#    y 0.000000 1.873840 0.000000 
#    z -0.033690 0.000000 1.824730 
# 
# From -- ./inp_files/118832.got.cif
#   From: 2010.05.17/outbox.cif.g08.bks.cpg/sg12_60_cif.got.tgz:118832.got - 2010.06.03 13:09:07.
