data_PCOD9218536
_publ_section_title
;
Structure prediction by ZEFSAII (Michael W. Deem and Ramdas Pophale) SiO2 
 PCOD9218536
Probable space group: C 2/M
;
_chemical_formula_sum "Si O2"
_cell_formula_units_Z 52
_cell_length_a 15.645305
_cell_length_b 28.769689
_cell_length_c 8.993758
_cell_angle_alpha 90.000000
_cell_angle_beta 144.579390
_cell_angle_gamma 90.000000
_cell_volume 2346.224432
_symmetry_space_group_name_H-M "C 2/M"
_symmetry_group_IT_number 12
_symmetry_cell_setting 'monoclinic'
loop_
_space_group_symop_operation_xyz
x,y,z
-x,y,-z
-x,-y,-z
x,-y,z
1/2+x,1/2+y,z
1/2-x,1/2+y,-z
1/2-x,1/2-y,-z
1/2+x,1/2-y,z
loop_
_atom_site_type_symbol
_atom_site_label
_atom_site_fract_x
_atom_site_fract_y
_atom_site_fract_z
Si Si1 0.353125 0.185981 0.710519
Si Si2 0.500000 0.281986 0.500000
Si Si3 0.282607 0.407055 0.518357
Si Si4 0.326253 0.000000 0.798157
Si Si5 0.673138 0.093873 0.703905
Si Si6 0.064957 0.841601 0.877906
Si Si7 0.732780 0.772641 0.695243
Si Si8 0.844213 0.500000 0.182854
O O1 0.309967 0.133981 0.689524
O O2 0.356285 0.192233 0.537926
O O3 0.245560 0.225134 0.619750
O O4 0.500000 0.197716 0.000000
O O5 0.514067 0.316780 0.657256
O O6 0.362079 0.246379 0.303433
O O7 0.256901 0.454581 0.389966
O O8 0.213101 0.412557 0.585547
O O9 0.443762 0.380708 0.755284
O O10 0.500000 0.000000 0.000000
O O11 0.338547 0.000000 0.995867
O O12 0.500000 0.100677 0.500000
O O13 0.726643 0.047042 0.860561
O O14 0.777059 0.133807 0.914430
O O15 0.115229 0.798630 0.054435
O O16 0.000000 0.500000 0.500000
#
# Coordination Sequence:
#
# PCOD9218536 Si02
#       8
#     8   4   8   4   8   8   8   4
#     4  11  24  41  71 102 143 193 260 309 385 454
#     4  12  26  46  70 107 152 207 262 326 398 464
#     4  12  26  49  77 116 154 207 256 327 391 465
#     4  12  26  49  84 117 166 201 265 321 395 472
#     4  11  25  46  78 105 151 202 260 317 394 467
#     4  12  27  46  74 107 158 195 264 320 397 464
#     4  11  25  44  70 100 150 199 253 318 389 454
#     4  10  24  47  74 111 149 197 251 317 383 465
#
# _framework density 22.163269
#
# number of rings (size 3 to 8) (size 9 to 14) (size 15 to 20)
#    0.000    0.615    3.077    4.615    5.385    1.846 
#    0.000    2.308    0.000    0.000    0.000    0.000 
#    0.000    0.000    0.000    0.000    0.000    0.000 
#
# Total GULP energy -144900.215356 kJ/mol
# GULP energy per Si atom -5573.085206 kJ/mol
# Density = 2.211282 g / cm^3
# Si number density = 22.163269 Si / 1000 Ang^3
#
#
#
# Elastic Constant Matrix: (Units=GPa)
#
#
# Indices 1 2 3 4 5 6 
#
# 1 116.5455 64.5153 68.6706 0.0000 5.0489 0.0000
# 2 64.5153 181.1453 49.1208 0.0000 -7.5764 0.0000
# 3 68.6706 49.1208 127.4157 0.0000 -16.0620 0.0000
# 4 0.0000 0.0000 0.0000 40.9873 0.0000 -6.0900
# 5 5.0489 -7.5764 -16.0620 0.0000 31.5530 0.0000
# 6 0.0000 0.0000 0.0000 -6.0900 0.0000 23.6405
#
#
#
# Elastic Compliance Matrix: (Units=1/GPa)
#
#
# Indices 1 2 3 4 5 6 
#
# 1 0.015638 -0.003731 -0.007927 0.000000 -0.007433 0.000000
# 2 -0.003731 0.007058 -0.000450 0.000000 0.002063 0.000000
# 3 -0.007927 -0.000450 0.013293 0.000000 0.007927 0.000000
# 4 0.000000 0.000000 0.000000 0.025369 0.000000 0.006535
# 5 -0.007433 0.002063 0.007927 0.000000 0.037413 0.000000
# 6 0.000000 0.000000 0.000000 0.006535 0.000000 0.043984
#
#
# Mechanical properties :
#
#
# Convention : Reuss Voigt Hill
#
# Bulk Modulus (GPa) = 84.93750 87.74665 86.34208
# Shear Modulus (GPa) = 29.25768 35.42280 32.34024
#
# Velocity S-wave (km/s) = 3.63726 4.00217 3.82407
# Velocity P-wave (km/s) = 7.48640 7.81239 7.65113
#
# Compressibility (1/GPa) = 0.01177336
#
# Stress axis : x y z
#
# Youngs Moduli (GPa) = 63.94490 141.69292 75.22539
#
# Poissons Ratio (x) = 0.52866 0.59631
# Poissons Ratio (y) = 0.23858 0.03385
# Poissons Ratio (z) = 0.50689 0.06376
#
# Static dielectric constant tensor:
#      x y z
#    x 2.008360 0.000000 0.071780 
#    y 0.000000 1.857030 0.000000 
#    z 0.071780 0.000000 1.923270 
# 
# From -- ./inp_files/68723.got.cif
#   From: 2010.05.17/outbox.cif.g08.bks.cpg/sg12_35_cif.got.tgz:68723.got - 2010.06.03 13:09:07.
