data_PCOD9218897
_publ_section_title
;
Structure prediction by ZEFSAII (Michael W. Deem and Ramdas Pophale) SiO2 
 PCOD9218897
Probable space group: C 2/M
;
_chemical_formula_sum "Si O2"
_cell_formula_units_Z 64
_cell_length_a 8.361654
_cell_length_b 13.563451
_cell_length_c 25.375791
_cell_angle_alpha 90.000000
_cell_angle_beta 73.048503
_cell_angle_gamma 90.000000
_cell_volume 2752.900601
_symmetry_space_group_name_H-M "C 2/M"
_symmetry_group_IT_number 12
_symmetry_cell_setting 'monoclinic'
loop_
_space_group_symop_operation_xyz
x,y,z
-x,y,-z
-x,-y,-z
x,-y,z
1/2+x,1/2+y,z
1/2-x,1/2+y,-z
1/2-x,1/2-y,-z
1/2+x,1/2-y,z
loop_
_atom_site_type_symbol
_atom_site_label
_atom_site_fract_x
_atom_site_fract_y
_atom_site_fract_z
Si Si1 0.873197 0.702182 0.558509
Si Si2 0.047141 0.611458 0.820243
Si Si3 0.775907 0.888294 0.225440
Si Si4 0.843883 0.707967 0.041516
Si Si5 0.237209 0.880549 0.293083
Si Si6 0.487625 0.698482 0.884147
Si Si7 0.949508 0.619569 0.664498
Si Si8 0.503053 0.617767 0.594169
O O1 0.688444 0.659921 0.568048
O O2 0.000000 0.675655 0.500000
O O3 0.939815 0.657278 0.606700
O O4 0.883775 0.820268 0.566573
O O5 0.075550 0.500000 0.835535
O O6 0.208242 0.649864 0.771267
O O7 0.988317 0.684831 0.870908
O O8 0.893542 0.609833 0.793390
O O9 0.918401 0.845381 0.174790
O O10 0.711805 0.843531 0.286556
O O11 0.827468 0.000000 0.232398
O O12 0.697753 0.657723 0.089575
O O13 0.910753 0.798936 0.071115
O O14 0.750000 0.750000 0.000000
O O15 0.000000 0.652606 0.000000
O O16 0.384164 0.851496 0.319723
O O17 0.064336 0.860070 0.339775
O O18 0.246192 0.000000 0.288565
O O19 0.944425 0.500000 0.664959
O O20 0.496036 0.500000 0.587182
#
# Coordination Sequence:
#
# PCOD9218897 Si02
#       8
#     8   8   8   8   8   8   8   8
#     4  12  26  45  68  97 130 175 233 279 330 405
#     4   9  18  34  59  91 127 157 198 253 311 379
#     4   9  19  36  60  92 125 158 206 257 317 391
#     4   9  20  36  58  84 121 163 205 247 301 365
#     4   8  17  37  62  90 125 165 200 250 327 396
#     4  11  18  35  62  89 113 161 205 248 313 366
#     4   9  19  39  65  93 129 170 210 270 337 396
#     4  11  25  45  68  96 132 172 221 279 337 399
#
# _framework density 23.248207000000001
#
# number of rings (size 3 to 8) (size 9 to 14) (size 15 to 20)
#    0.000    2.250    1.250    3.000    1.750    1.250 
#    2.250    2.500    0.000   15.000    0.000    0.000 
#    0.000    0.000    0.000    0.000    0.000    0.000 
#
# Total GULP energy -178659.482503 kJ/mol
# GULP energy per Si atom -5583.108828 kJ/mol
# Density = 2.319529 g / cm^3
# Si number density = 23.248207 Si / 1000 Ang^3
#
#
#
# Elastic Constant Matrix: (Units=GPa)
#
#
# Indices 1 2 3 4 5 6 
#
# 1 80.5358 25.0015 56.7977 0.0000 -32.9585 0.0000
# 2 25.0015 83.6027 34.9079 0.0000 -14.3490 0.0000
# 3 56.7977 34.9079 162.8256 0.0000 -45.6793 0.0000
# 4 0.0000 0.0000 0.0000 9.3833 0.0000 -1.7893
# 5 -32.9585 -14.3490 -45.6793 0.0000 56.7870 0.0000
# 6 0.0000 0.0000 0.0000 -1.7893 0.0000 19.6690
#
#
#
# Elastic Compliance Matrix: (Units=1/GPa)
#
#
# Indices 1 2 3 4 5 6 
#
# 1 0.019042 -0.002784 -0.004058 0.000000 0.007084 0.000000
# 2 -0.002784 0.013626 -0.001856 0.000000 0.000334 0.000000
# 3 -0.004058 -0.001856 0.009250 0.000000 0.004616 0.000000
# 4 0.000000 0.000000 0.000000 0.108454 0.000000 0.009866
# 5 0.007084 0.000334 0.004616 0.000000 0.025519 0.000000
# 6 0.000000 0.000000 0.000000 0.009866 0.000000 0.051739
#
#
# Mechanical properties :
#
#
# Convention : Reuss Voigt Hill
#
# Bulk Modulus (GPa) = 40.78115 62.26425 51.52270
# Shear Modulus (GPa) = 19.74705 31.18498 25.46601
#
# Velocity S-wave (km/s) = 2.91761 3.66648 3.31327
# Velocity P-wave (km/s) = 5.37863 6.69063 6.07018
#
# Compressibility (1/GPa) = 0.02452113
#
# Stress axis : x y z
#
# Youngs Moduli (GPa) = 52.51478 73.38673 108.10532
#
# Poissons Ratio (x) = 0.20433 0.43871
# Poissons Ratio (y) = 0.14622 0.20069
# Poissons Ratio (z) = 0.21311 0.13624
#
# Static dielectric constant tensor:
#      x y z
#    x 1.919870 0.000000 -0.019040 
#    y 0.000000 1.901440 0.000000 
#    z -0.019040 0.000000 1.921260 
# 
# From -- ./inp_files/356137.got.cif
#   From: 2010.05.17/outbox.cif.g08.bks.cpg/sg12_179_cif.got.tgz:356137.got - 2010.06.03 13:09:07.
