data_PCOD9218961
_publ_section_title
;
Structure prediction by ZEFSAII (Michael W. Deem and Ramdas Pophale) SiO2 
 PCOD9218961
Probable space group: C 2/M
;
_chemical_formula_sum "Si O2"
_cell_formula_units_Z 42
_cell_length_a 21.373162
_cell_length_b 13.946500
_cell_length_c 6.996933
_cell_angle_alpha 90.000000
_cell_angle_beta 102.408676
_cell_angle_gamma 90.000000
_cell_volume 2036.930076
_symmetry_space_group_name_H-M "C 2/M"
_symmetry_group_IT_number 12
_symmetry_cell_setting 'monoclinic'
loop_
_space_group_symop_operation_xyz
x,y,z
-x,y,-z
-x,-y,-z
x,-y,z
1/2+x,1/2+y,z
1/2-x,1/2+y,-z
1/2-x,1/2-y,-z
1/2+x,1/2-y,z
loop_
_atom_site_type_symbol
_atom_site_label
_atom_site_fract_x
_atom_site_fract_y
_atom_site_fract_z
Si Si1 0.929803 0.615263 0.004353
Si Si2 0.731426 0.612211 0.870461
Si Si3 0.161027 0.613218 0.730639
Si Si4 0.366359 0.394753 0.890904
Si Si5 0.674490 0.790871 0.336640
Si Si6 0.500000 0.500000 0.000000
O O1 0.929832 0.500000 0.997837
O O2 0.879656 0.651918 0.816942
O O3 0.902921 0.641388 0.194993
O O4 0.000000 0.651245 0.000000
O O5 0.731590 0.500000 0.813262
O O6 0.781675 0.624520 0.078416
O O7 0.663231 0.635977 0.922830
O O8 0.759131 0.675746 0.718169
O O9 0.157518 0.500000 0.679660
O O10 0.170686 0.673929 0.548843
O O11 0.336328 0.500000 0.831309
O O12 0.343216 0.318778 0.720586
O O13 0.441933 0.417466 0.950014
#
# Coordination Sequence:
#
# PCOD9218961 Si02
#       6
#     8   8   8   8   8   2
#     4   9  19  33  51  79 118 154 186 229 285 355
#     4   9  18  35  56  88 120 147 182 242 303 352
#     4   9  18  32  52  85 121 148 182 234 293 356
#     4   9  20  36  57  81 111 154 202 247 288 339
#     4  11  19  31  58  86 112 147 195 239 295 351
#     4   8  20  40  60  80 108 168 208 244 288 334
#
# _framework density 20.619264000000001
#
# number of rings (size 3 to 8) (size 9 to 14) (size 15 to 20)
#    0.571    2.095    0.000    3.429    1.333    1.524 
#    0.000    2.857    0.000    6.857    0.000   13.333 
#    0.000    0.000    0.000    0.000    0.000    0.000 
#
# Total GULP energy -116972.761734 kJ/mol
# GULP energy per Si atom -5570.131511 kJ/mol
# Density = 2.057233 g / cm^3
# Si number density = 20.619264 Si / 1000 Ang^3
#
#
#
# Elastic Constant Matrix: (Units=GPa)
#
#
# Indices 1 2 3 4 5 6 
#
# 1 135.8682 53.8495 58.7235 0.0000 -24.9063 0.0000
# 2 53.8495 89.1850 61.3634 0.0000 -20.7150 0.0000
# 3 58.7235 61.3634 111.2986 0.0000 -22.6256 0.0000
# 4 0.0000 0.0000 0.0000 14.9916 0.0000 22.3186
# 5 -24.9063 -20.7150 -22.6256 0.0000 17.0277 0.0000
# 6 0.0000 0.0000 0.0000 22.3186 0.0000 -194.0661
#
#
#
# Elastic Compliance Matrix: (Units=1/GPa)
#
#
# Indices 1 2 3 4 5 6 
#
# 1 0.011360 -0.002931 -0.002363 0.000000 0.009910 0.000000
# 2 -0.002931 0.020801 -0.007740 0.000000 0.010733 0.000000
# 3 -0.002363 -0.007740 0.016279 0.000000 0.008759 0.000000
# 4 0.000000 0.000000 0.000000 0.056953 0.000000 0.006550
# 5 0.009910 0.010733 0.008759 0.000000 0.097920 0.000000
# 6 0.000000 0.000000 0.000000 0.006550 0.000000 -0.004400
#
#
# Mechanical properties :
#
#
# Convention : Reuss Voigt Hill
#
# Bulk Modulus (GPa) = 44.69861 76.02494 60.36177
# Shear Modulus (GPa) = 21.51106 -21.58165 -0.03530
#
# Velocity S-wave (km/s) = 3.23344 -3.23874 -0.13098
# Velocity P-wave (km/s) = 5.97205 4.79217 5.41435
#
# Compressibility (1/GPa) = 0.02237206
#
# Stress axis : x y z
#
# Youngs Moduli (GPa) = 88.02986 48.07457 61.42704
#
# Poissons Ratio (x) = 0.14093 0.14514
# Poissons Ratio (y) = 0.25805 0.47543
# Poissons Ratio (z) = 0.20800 0.37209
#
# Static dielectric constant tensor:
#      x y z
#    x 1.764580 0.000000 -0.036920 
#    y 0.000000 1.771000 0.000000 
#    z -0.036920 0.000000 1.714690 
# 
# From -- ./inp_files/24266.got.cif
#   From: 2010.05.17/outbox.cif.g08.bks.cpg/sg12_13_cif.got.tgz:24266.got - 2010.06.03 13:09:07.
