data_PCOD9218228
_publ_section_title
;
Structure prediction by ZEFSAII (Michael W. Deem and Ramdas Pophale) SiO2 
 PCOD9218228
Probable space group: C 2/M
;
_chemical_formula_sum "Si O2"
_cell_formula_units_Z 56
_cell_length_a 18.086184
_cell_length_b 9.193887
_cell_length_c 16.199119
_cell_angle_alpha 90.000000
_cell_angle_beta 72.315879
_cell_angle_gamma 90.000000
_cell_volume 2566.341824
_symmetry_space_group_name_H-M "C 2/M"
_symmetry_group_IT_number 12
_symmetry_cell_setting 'monoclinic'
loop_
_space_group_symop_operation_xyz
x,y,z
-x,y,-z
-x,-y,-z
x,-y,z
1/2+x,1/2+y,z
1/2-x,1/2+y,-z
1/2-x,1/2-y,-z
1/2+x,1/2-y,z
loop_
_atom_site_type_symbol
_atom_site_label
_atom_site_fract_x
_atom_site_fract_y
_atom_site_fract_z
Si Si1 0.168562 0.330900 0.536991
Si Si2 0.883615 0.836747 0.102595
Si Si3 0.609947 0.830597 0.370172
Si Si4 0.030067 0.173978 0.666284
Si Si5 0.507880 0.162844 0.153946
Si Si6 0.730305 0.665335 0.213316
Si Si7 0.336441 0.719790 0.938816
O O1 0.177604 0.500000 0.558722
O O2 0.250000 0.250000 0.500000
O O3 0.128638 0.328807 0.460442
O O4 0.113407 0.242450 0.617251
O O5 0.955794 0.735920 0.101209
O O6 0.807609 0.756210 0.165181
O O7 0.891711 0.000000 0.134485
O O8 0.873306 0.851470 0.007664
O O9 0.532371 0.742331 0.375514
O O10 0.679324 0.752689 0.296732
O O11 0.601863 0.000000 0.346505
O O12 0.003775 0.233143 0.763896
O O13 0.030694 0.000000 0.662282
O O14 0.598888 0.159325 0.101293
O O15 0.480643 0.000000 0.181059
O O16 0.748091 0.500000 0.233971
O O17 0.680139 0.654402 0.145607
O O18 0.250000 0.750000 0.000000
#
# Coordination Sequence:
#
# PCOD9218228 Si02
#       7
#     8   8   8   8   8   8   8
#     4  11  26  47  73 105 143 183 228 281 341 408
#     4  11  25  43  66  96 139 183 229 286 347 408
#     4  11  24  44  71 102 139 181 227 279 341 407
#     4  12  26  45  72 104 140 182 231 284 343 411
#     4  12  26  45  70 100 138 184 233 286 346 411
#     4  11  23  41  68 101 137 180 231 283 340 408
#     4  10  24  43  69 100 135 177 232 286 347 404
#
# _framework density 21.820943
#
# number of rings (size 3 to 8) (size 9 to 14) (size 15 to 20)
#    0.000    0.857    1.429    4.714    2.000   12.000 
#    0.000    0.000    0.000    0.000    0.000    0.000 
#    0.000    0.000    0.000    0.000    0.000    0.000 
#
# Total GULP energy -156459.607010 kJ/mol
# GULP energy per Si atom -5587.843107 kJ/mol
# Density = 2.177128 g / cm^3
# Si number density = 21.820943 Si / 1000 Ang^3
#
#
#
# Elastic Constant Matrix: (Units=GPa)
#
#
# Indices 1 2 3 4 5 6 
#
# 1 103.1102 43.9053 18.3735 0.0000 -16.1814 0.0000
# 2 43.9053 204.5450 36.4586 0.0000 -18.5001 0.0000
# 3 18.3735 36.4586 74.9994 0.0000 -22.3469 0.0000
# 4 0.0000 0.0000 0.0000 10.7289 0.0000 -9.9675
# 5 -16.1814 -18.5001 -22.3469 0.0000 42.6841 0.0000
# 6 0.0000 0.0000 0.0000 -9.9675 0.0000 20.9298
#
#
#
# Elastic Compliance Matrix: (Units=1/GPa)
#
#
# Indices 1 2 3 4 5 6 
#
# 1 0.011154 -0.001970 -0.000912 0.000000 0.002897 0.000000
# 2 -0.001970 0.005747 -0.002123 0.000000 0.000633 0.000000
# 3 -0.000912 -0.002123 0.016838 0.000000 0.007550 0.000000
# 4 0.000000 0.000000 0.000000 0.167168 0.000000 0.079611
# 5 0.002897 0.000633 0.007550 0.000000 0.028753 0.000000
# 6 0.000000 0.000000 0.000000 0.079611 0.000000 0.085693
#
#
# Mechanical properties :
#
#
# Convention : Reuss Voigt Hill
#
# Bulk Modulus (GPa) = 42.13812 64.45883 53.29848
# Shear Modulus (GPa) = 15.00274 33.79636 24.39955
#
# Velocity S-wave (km/s) = 2.62494 3.93975 3.34753
# Velocity P-wave (km/s) = 5.34227 7.09222 6.27851
#
# Compressibility (1/GPa) = 0.02373148
#
# Stress axis : x y z
#
# Youngs Moduli (GPa) = 89.65201 173.99483 59.38857
#
# Poissons Ratio (x) = 0.34271 0.05415
# Poissons Ratio (y) = 0.17658 0.12607
# Poissons Ratio (z) = 0.08174 0.36935
#
# Static dielectric constant tensor:
#      x y z
#    x 1.811280 0.000000 0.001440 
#    y 0.000000 1.750970 0.000000 
#    z 0.001440 0.000000 1.808350 
# 
# From -- ./inp_files/275262.got.cif
#   From: 2010.05.17/outbox.cif.g08.bks.cpg/sg12_138_cif.got.tgz:275262.got - 2010.06.03 13:09:07.
