data_PCOD9218811
_publ_section_title
;
Structure prediction by ZEFSAII (Michael W. Deem and Ramdas Pophale) SiO2 
 PCOD9218811
Probable space group: C 2/M
;
_chemical_formula_sum "Si O2"
_cell_formula_units_Z 48
_cell_length_a 16.521764
_cell_length_b 13.869694
_cell_length_c 11.274568
_cell_angle_alpha 90.000000
_cell_angle_beta 97.396992
_cell_angle_gamma 90.000000
_cell_volume 2562.086859
_symmetry_space_group_name_H-M "C 2/M"
_symmetry_group_IT_number 12
_symmetry_cell_setting 'monoclinic'
loop_
_space_group_symop_operation_xyz
x,y,z
-x,y,-z
-x,-y,-z
x,-y,z
1/2+x,1/2+y,z
1/2-x,1/2+y,-z
1/2-x,1/2-y,-z
1/2+x,1/2-y,z
loop_
_atom_site_type_symbol
_atom_site_label
_atom_site_fract_x
_atom_site_fract_y
_atom_site_fract_z
Si Si1 0.108674 0.886931 0.648765
Si Si2 0.177392 0.889359 0.392144
Si Si3 0.946560 0.615789 0.874293
Si Si4 0.225213 0.610822 0.225271
Si Si5 0.043084 0.250738 0.339332
Si Si6 0.151748 0.609801 0.479607
O O1 0.140614 0.887664 0.519034
O O2 0.184008 0.848179 0.743156
O O3 0.029333 0.822265 0.647221
O O4 0.091208 0.000000 0.673248
O O5 0.120563 0.815025 0.313263
O O6 0.272480 0.861236 0.422689
O O7 0.173174 0.000000 0.349938
O O8 0.947560 0.500000 0.851083
O O9 0.850818 0.645670 0.867306
O O10 0.979796 0.674419 0.768039
O O11 0.000000 0.634341 0.000000
O O12 0.239025 0.500000 0.192356
O O13 0.188876 0.608494 0.352843
O O14 0.079589 0.314468 0.454292
O O15 0.127196 0.500000 0.503475
#
# Coordination Sequence:
#
# PCOD9218811 Si02
#       6
#     8   8   8   8   8   8
#     4   9  17  28  43  67  96 120 142 173 216 262
#     4   9  17  29  44  64  92 122 149 177 211 255
#     4   9  18  33  51  67  83 109 148 190 225 257
#     4   7  12  26  45  62  84 112 141 177 217 254
#     4  11  17  24  44  71  91 111 146 186 220 255
#     4   8  15  27  42  62  88 117 148 181 214 251
#
# _framework density 18.734729000000002
#
# number of rings (size 3 to 8) (size 9 to 14) (size 15 to 20)
#    0.000    3.167    0.000    5.000    0.000    1.333 
#    0.000    0.833    0.000   10.000    0.000   37.333 
#    0.000    0.000    0.000    0.000    0.000    0.000 
#
# Total GULP energy -133634.564093 kJ/mol
# GULP energy per Si atom -5568.106837 kJ/mol
# Density = 1.869209 g / cm^3
# Si number density = 18.734729 Si / 1000 Ang^3
#
#
#
# Elastic Constant Matrix: (Units=GPa)
#
#
# Indices 1 2 3 4 5 6 
#
# 1 101.7558 57.7824 27.8178 0.0000 36.5765 0.0000
# 2 57.7824 98.8252 31.5225 0.0000 18.1553 0.0000
# 3 27.8178 31.5225 51.4989 0.0000 27.1237 0.0000
# 4 0.0000 0.0000 0.0000 18.0293 0.0000 0.9819
# 5 36.5765 18.1553 27.1237 0.0000 27.2892 0.0000
# 6 0.0000 0.0000 0.0000 0.9819 0.0000 27.9442
#
#
#
# Elastic Compliance Matrix: (Units=1/GPa)
#
#
# Indices 1 2 3 4 5 6 
#
# 1 0.031816 -0.015292 0.019467 0.000000 -0.051819 0.000000
# 2 -0.015292 0.019953 -0.016278 0.000000 0.023402 0.000000
# 3 0.019467 -0.016278 0.056463 0.000000 -0.071383 0.000000
# 4 0.000000 0.000000 0.000000 0.055572 0.000000 -0.001953
# 5 -0.051819 0.023402 -0.071383 0.000000 0.161480 0.000000
# 6 0.000000 0.000000 0.000000 -0.001953 0.000000 0.035854
#
#
# Mechanical properties :
#
#
# Convention : Reuss Voigt Hill
#
# Bulk Modulus (GPa) = 11.90130 54.03614 32.96872
# Shear Modulus (GPa) = 12.09618 23.64967 17.87293
#
# Velocity S-wave (km/s) = 2.54373 3.55680 3.09204
# Velocity P-wave (km/s) = 3.87218 6.76559 5.51212
#
# Compressibility (1/GPa) = 0.08402447
#
# Stress axis : x y z
#
# Youngs Moduli (GPa) = 31.43086 50.11680 17.71075
#
# Poissons Ratio (x) = 0.76640 -0.34477
# Poissons Ratio (y) = 0.48065 0.28830
# Poissons Ratio (z) = -0.61186 0.81582
#
# Static dielectric constant tensor:
#      x y z
#    x 1.699960 0.000000 0.046970 
#    y 0.000000 1.694410 0.000000 
#    z 0.046970 0.000000 1.646760 
# 
# From -- ./inp_files/222594.got.cif
#   From: 2010.05.17/outbox.cif.g08.bks.cpg/sg12_112_cif.got.tgz:222594.got - 2010.06.03 13:09:07.
