data_PCOD9218004
_publ_section_title
;
Structure prediction by ZEFSAII (Michael W. Deem and Ramdas Pophale) SiO2 
 PCOD9218004
Probable space group: C 2/M
;
_chemical_formula_sum "Si O2"
_cell_formula_units_Z 40
_cell_length_a 8.288022
_cell_length_b 16.127569
_cell_length_c 12.136638
_cell_angle_alpha 90.000000
_cell_angle_beta 90.802631
_cell_angle_gamma 90.000000
_cell_volume 1622.092394
_symmetry_space_group_name_H-M "C 2/M"
_symmetry_group_IT_number 12
_symmetry_cell_setting 'monoclinic'
loop_
_space_group_symop_operation_xyz
x,y,z
-x,y,-z
-x,-y,-z
x,-y,z
1/2+x,1/2+y,z
1/2-x,1/2+y,-z
1/2-x,1/2-y,-z
1/2+x,1/2-y,z
loop_
_atom_site_type_symbol
_atom_site_label
_atom_site_fract_x
_atom_site_fract_y
_atom_site_fract_z
Si Si1 0.906796 0.828881 0.615426
Si Si2 0.500000 0.283006 0.000000
Si Si3 0.055497 0.000000 0.687791
Si Si4 0.944486 0.657570 0.315917
Si Si5 0.218245 0.641365 0.911266
Si Si6 0.619961 0.000000 0.399490
Si Si7 0.675772 0.500000 0.939040
O O1 0.964934 0.746329 0.682265
O O2 0.000000 0.824694 0.500000
O O3 0.711299 0.830940 0.605416
O O4 0.957090 0.915497 0.672578
O O5 0.406528 0.336274 0.909230
O O6 0.623385 0.223816 0.941247
O O7 0.143621 0.000000 0.808625
O O8 0.188597 0.000000 0.591369
O O9 0.860800 0.621137 0.204532
O O10 0.073360 0.587059 0.343852
O O11 0.220849 0.577265 0.012411
O O12 0.500000 0.000000 0.500000
O O13 0.500000 0.500000 0.000000
#
# Coordination Sequence:
#
# PCOD9218004 Si02
#       7
#     8   4   4   8   8   4   4
#     4  12  25  46  71 103 137 181 234 290 347 412
#     4  10  24  40  66  92 134 172 216 274 326 390
#     4  12  28  44  72 100 141 187 234 284 351 404
#     4  12  25  43  74 101 139 180 230 281 355 409
#     4  11  24  42  66  95 137 171 225 269 335 400
#     4  12  26  48  70 103 140 179 232 295 346 411
#     4  12  25  43  65  97 137 179 225 274 332 406
#
# _framework density 24.659504999999999
#
# number of rings (size 3 to 8) (size 9 to 14) (size 15 to 20)
#    0.000    0.400    1.000    7.500    8.400    0.400 
#    0.000    0.000    0.000    0.000    0.000    0.000 
#    0.000    0.000    0.000    0.000    0.000    0.000 
#
# Total GULP energy -111790.890466 kJ/mol
# GULP energy per Si atom -5589.544523 kJ/mol
# Density = 2.460338 g / cm^3
# Si number density = 24.659505 Si / 1000 Ang^3
#
#
#
# Elastic Constant Matrix: (Units=GPa)
#
#
# Indices 1 2 3 4 5 6 
#
# 1 74.8754 28.1866 -35.5919 0.0000 1.2048 0.0000
# 2 28.1866 190.8457 17.7247 0.0000 31.2345 0.0000
# 3 -35.5919 17.7247 59.1519 0.0000 6.9823 0.0000
# 4 0.0000 0.0000 0.0000 28.4664 0.0000 14.5422
# 5 1.2048 31.2345 6.9823 0.0000 33.1027 0.0000
# 6 0.0000 0.0000 0.0000 14.5422 0.0000 58.4548
#
#
#
# Elastic Compliance Matrix: (Units=1/GPa)
#
#
# Indices 1 2 3 4 5 6 
#
# 1 0.022072 -0.004709 0.014626 0.000000 0.000555 0.000000
# 2 -0.004709 0.007285 -0.004333 0.000000 -0.005789 0.000000
# 3 0.014626 -0.004333 0.027264 0.000000 -0.002194 0.000000
# 4 0.000000 0.000000 0.000000 0.040244 0.000000 -0.010012
# 5 0.000555 -0.005789 -0.002194 0.000000 0.036114 0.000000
# 6 0.000000 0.000000 0.000000 -0.010012 0.000000 0.019598
#
#
# Mechanical properties :
#
#
# Convention : Reuss Voigt Hill
#
# Bulk Modulus (GPa) = 14.75168 38.39020 26.57094
# Shear Modulus (GPa) = 30.48702 44.97502 37.73102
#
# Velocity S-wave (km/s) = 3.51995 4.27528 3.91587
# Velocity P-wave (km/s) = 4.74502 6.32239 5.58962
#
# Compressibility (1/GPa) = 0.06778887
#
# Stress axis : x y z
#
# Youngs Moduli (GPa) = 45.30652 137.26532 36.67874
#
# Poissons Ratio (x) = 0.64639 -0.53647
# Poissons Ratio (y) = 0.21335 0.15893
# Poissons Ratio (z) = -0.66267 0.59479
#
# Static dielectric constant tensor:
#      x y z
#    x 1.943250 0.000000 0.008800 
#    y 0.000000 1.939150 0.000000 
#    z 0.008800 0.000000 2.644760 
# 
# From -- ./inp_files/119190.got.cif
#   From: 2010.05.17/outbox.cif.g08.bks.cpg/sg12_60_cif.got.tgz:119190.got - 2010.06.03 13:09:07.
