data_PCOD9218026
_publ_section_title
;
Structure prediction by ZEFSAII (Michael W. Deem and Ramdas Pophale) SiO2 
 PCOD9218026
Probable space group: C 2/M
;
_chemical_formula_sum "Si O2"
_cell_formula_units_Z 36
_cell_length_a 18.261100
_cell_length_b 9.420190
_cell_length_c 18.848668
_cell_angle_alpha 90.000000
_cell_angle_beta 29.793397
_cell_angle_gamma 90.000000
_cell_volume 1611.066595
_symmetry_space_group_name_H-M "C 2/M"
_symmetry_group_IT_number 12
_symmetry_cell_setting 'monoclinic'
loop_
_space_group_symop_operation_xyz
x,y,z
-x,y,-z
-x,-y,-z
x,-y,z
1/2+x,1/2+y,z
1/2-x,1/2+y,-z
1/2-x,1/2-y,-z
1/2+x,1/2-y,z
loop_
_atom_site_type_symbol
_atom_site_label
_atom_site_fract_x
_atom_site_fract_y
_atom_site_fract_z
Si Si1 0.608231 0.839123 0.095631
Si Si2 0.729384 0.500000 0.553595
Si Si3 0.358814 0.662784 0.670000
Si Si4 0.580375 0.339687 0.856719
Si Si5 0.944047 0.263564 0.372012
O O1 0.520870 0.754036 0.109164
O O2 0.502225 0.842939 0.253055
O O3 0.645907 0.000000 0.042745
O O4 0.750000 0.750000 0.000000
O O5 0.832110 0.372836 0.502263
O O6 0.637145 0.623364 0.586914
O O7 0.500000 0.660923 0.500000
O O8 0.305646 0.500000 0.722237
O O9 0.232673 0.760817 0.743730
O O10 0.419310 0.722583 0.693281
O O11 0.596692 0.500000 0.812107
O O12 0.500000 0.350674 0.000000
#
# Coordination Sequence:
#
# PCOD9218026 Si02
#       5
#     8   4   8   8   8
#     4  12  27  45  72  99 132 176 228 280 332 400
#     4  10  24  40  70  96 138 178 222 280 334 392
#     4  11  26  43  67 101 141 178 222 275 336 400
#     4  11  27  47  70  99 136 176 224 278 338 406
#     4  11  24  43  68 100 137 175 232 274 334 396
#
# _framework density 22.345445999999999
#
# number of rings (size 3 to 8) (size 9 to 14) (size 15 to 20)
#    0.000    0.889    2.222    2.667   10.889    5.778 
#    0.000    0.000    0.000    0.000    0.000    0.000 
#    0.000    0.000    0.000    0.000    0.000    0.000 
#
# Total GULP energy -100299.161405 kJ/mol
# GULP energy per Si atom -5572.175634 kJ/mol
# Density = 2.229459 g / cm^3
# Si number density = 22.345446 Si / 1000 Ang^3
#
#
#
# Elastic Constant Matrix: (Units=GPa)
#
#
# Indices 1 2 3 4 5 6 
#
# 1 127.5984 70.3953 28.5620 0.0000 -39.3579 0.0000
# 2 70.3953 244.0345 48.0455 0.0000 -49.5114 0.0000
# 3 28.5620 48.0455 58.9235 0.0000 -23.5090 0.0000
# 4 0.0000 0.0000 0.0000 70.9304 0.0000 -1.6583
# 5 -39.3579 -49.5114 -23.5090 0.0000 52.7950 0.0000
# 6 0.0000 0.0000 0.0000 -1.6583 0.0000 32.2221
#
#
#
# Elastic Compliance Matrix: (Units=1/GPa)
#
#
# Indices 1 2 3 4 5 6 
#
# 1 0.010916 -0.001638 -0.001607 0.000000 0.005886 0.000000
# 2 -0.001638 0.005691 -0.002680 0.000000 0.002922 0.000000
# 3 -0.001607 -0.002680 0.022442 0.000000 0.006281 0.000000
# 4 0.000000 0.000000 0.000000 0.014115 0.000000 0.000726
# 5 0.005886 0.002922 0.006281 0.000000 0.028866 0.000000
# 6 0.000000 0.000000 0.000000 0.000726 0.000000 0.031072
#
#
# Mechanical properties :
#
#
# Convention : Reuss Voigt Hill
#
# Bulk Modulus (GPa) = 36.76867 80.50691 58.63779
# Shear Modulus (GPa) = 37.30785 50.09308 43.70046
#
# Velocity S-wave (km/s) = 4.09050 4.73986 4.42710
# Velocity P-wave (km/s) = 6.22896 8.12782 7.24091
#
# Compressibility (1/GPa) = 0.02719706
#
# Stress axis : x y z
#
# Youngs Moduli (GPa) = 91.60701 175.71756 44.55966
#
# Poissons Ratio (x) = 0.28789 0.07162
# Poissons Ratio (y) = 0.15009 0.11943
# Poissons Ratio (z) = 0.14724 0.47098
#
# Static dielectric constant tensor:
#      x y z
#    x 1.810680 0.000000 0.099260 
#    y 0.000000 1.792640 0.000000 
#    z 0.099260 0.000000 1.983430 
# 
# From -- ./inp_files/314621.got.cif
#   From: 2010.05.17/outbox.cif.g08.bks.cpg/sg12_158_cif.got.tgz:314621.got - 2010.06.03 13:09:07.
