data_PCOD9218378
_publ_section_title
;
Structure prediction by ZEFSAII (Michael W. Deem and Ramdas Pophale) SiO2 
 PCOD9218378
Probable space group: C 2/M
;
_chemical_formula_sum "Si O2"
_cell_formula_units_Z 48
_cell_length_a 10.451515
_cell_length_b 23.009745
_cell_length_c 10.118229
_cell_angle_alpha 90.000000
_cell_angle_beta 57.501243
_cell_angle_gamma 90.000000
_cell_volume 2052.252306
_symmetry_space_group_name_H-M "C 2/M"
_symmetry_group_IT_number 12
_symmetry_cell_setting 'monoclinic'
loop_
_space_group_symop_operation_xyz
x,y,z
-x,y,-z
-x,-y,-z
x,-y,z
1/2+x,1/2+y,z
1/2-x,1/2+y,-z
1/2-x,1/2-y,-z
1/2+x,1/2-y,z
loop_
_atom_site_type_symbol
_atom_site_label
_atom_site_fract_x
_atom_site_fract_y
_atom_site_fract_z
Si Si1 0.261788 0.649324 0.858957
Si Si2 0.143002 0.772441 0.833090
Si Si3 0.434618 0.302339 0.397956
Si Si4 0.359785 0.500000 0.176398
Si Si5 0.633528 0.500000 0.532318
Si Si6 0.821143 0.616028 0.797066
Si Si7 0.327151 0.113161 0.368119
O O1 0.211736 0.716669 0.867726
O O2 0.440266 0.651021 0.723489
O O3 0.175082 0.616702 0.790175
O O4 0.221999 0.625724 0.024290
O O5 0.088427 0.760348 0.713897
O O6 0.255357 0.826527 0.764308
O O7 0.000000 0.791343 0.000000
O O8 0.500000 0.277621 0.500000
O O9 0.280697 0.335176 0.520123
O O10 0.427047 0.500000 0.285783
O O11 0.258957 0.557656 0.209347
O O12 0.500000 0.500000 0.000000
O O13 0.500000 0.500000 0.500000
O O14 0.740069 0.555417 0.456201
O O15 0.998886 0.613873 0.320066
#
# Coordination Sequence:
#
# PCOD9218378 Si02
#       7
#     8   8   8   4   4   8   8
#     4  11  25  46  74 109 149 198 246 296 363 441
#     4  12  24  43  77 104 148 204 245 299 366 433
#     4  10  24  45  66 101 150 191 246 294 360 430
#     4  12  31  49  82 112 141 193 250 301 361 438
#     4  12  27  51  80 106 149 196 236 300 380 435
#     4  12  26  47  75 111 150 187 250 308 360 435
#     4  11  26  45  73 109 151 194 241 306 373 431
#
# _framework density 23.388936000000001
#
# number of rings (size 3 to 8) (size 9 to 14) (size 15 to 20)
#    0.000    0.667    1.667    5.500    7.000    6.000 
#    3.000    1.667    0.000    0.000    0.000    0.000 
#    0.000    0.000    0.000    0.000    0.000    0.000 
#
# Total GULP energy -134562.579767 kJ/mol
# GULP energy per Si atom -5606.774157 kJ/mol
# Density = 2.333570 g / cm^3
# Si number density = 23.388936 Si / 1000 Ang^3
#
#
#
# Elastic Constant Matrix: (Units=GPa)
#
#
# Indices 1 2 3 4 5 6 
#
# 1 164.6943 43.9479 76.6577 0.0000 -21.4584 0.0000
# 2 43.9479 89.9150 30.0180 0.0000 3.6062 0.0000
# 3 76.6577 30.0180 139.3907 0.0000 28.7616 0.0000
# 4 0.0000 0.0000 0.0000 -7.0701 0.0000 23.4277
# 5 -21.4584 3.6062 28.7616 0.0000 51.0337 0.0000
# 6 0.0000 0.0000 0.0000 23.4277 0.0000 15.9582
#
#
#
# Elastic Compliance Matrix: (Units=1/GPa)
#
#
# Indices 1 2 3 4 5 6 
#
# 1 0.011899 -0.003614 -0.007752 0.000000 0.009627 0.000000
# 2 -0.003614 0.013102 -0.000373 0.000000 -0.002235 0.000000
# 3 -0.007752 -0.000373 0.013788 0.000000 -0.011004 0.000000
# 4 0.000000 0.000000 0.000000 -0.024118 0.000000 0.035406
# 5 0.009627 -0.002235 -0.011004 0.000000 0.030002 0.000000
# 6 0.000000 0.000000 0.000000 0.035406 0.000000 0.010685
#
#
# Mechanical properties :
#
#
# Convention : Reuss Voigt Hill
#
# Bulk Modulus (GPa) = 65.31042 77.24967 71.28005
# Shear Modulus (GPa) = 59.56633 28.20945 43.88789
#
# Velocity S-wave (km/s) = 5.05203 3.47667 4.33649
# Velocity P-wave (km/s) = 7.87496 7.01543 7.45759
#
# Compressibility (1/GPa) = 0.01531149
#
# Stress axis : x y z
#
# Youngs Moduli (GPa) = 84.04249 76.32345 72.52666
#
# Poissons Ratio (x) = 0.27583 0.56222
# Poissons Ratio (y) = 0.30372 0.02704
# Poissons Ratio (z) = 0.65149 0.02846
#
# Static dielectric constant tensor:
#      x y z
#    x 1.907640 0.000000 0.025250 
#    y 0.000000 1.877770 0.000000 
#    z 0.025250 0.000000 1.892930 
# 
# From -- ./inp_files/51388.got.cif
#   From: 2010.05.17/outbox.cif.g08.bks.cpg/sg12_26_cif.got.tgz:51388.got - 2010.06.03 13:09:07.
