data_PCOD9218163
_publ_section_title
;
Structure prediction by ZEFSAII (Michael W. Deem and Ramdas Pophale) SiO2 
 PCOD9218163
Probable space group: C 2/M
;
_chemical_formula_sum "Si O2"
_cell_formula_units_Z 44
_cell_length_a 15.350067
_cell_length_b 9.372425
_cell_length_c 15.429280
_cell_angle_alpha 90.000000
_cell_angle_beta 120.720841
_cell_angle_gamma 90.000000
_cell_volume 1908.261625
_symmetry_space_group_name_H-M "C 2/M"
_symmetry_group_IT_number 12
_symmetry_cell_setting 'monoclinic'
loop_
_space_group_symop_operation_xyz
x,y,z
-x,y,-z
-x,-y,-z
x,-y,z
1/2+x,1/2+y,z
1/2-x,1/2+y,-z
1/2-x,1/2-y,-z
1/2+x,1/2-y,z
loop_
_atom_site_type_symbol
_atom_site_label
_atom_site_fract_x
_atom_site_fract_y
_atom_site_fract_z
Si Si1 0.882219 0.834179 0.300256
Si Si2 0.665772 0.828609 0.898457
Si Si3 0.326828 0.844631 0.729582
Si Si4 0.242224 0.500000 0.536748
Si Si5 0.014487 0.162183 0.109903
Si Si6 0.608734 0.236984 0.427587
O O1 0.838253 0.739796 0.199025
O O2 0.794217 0.837101 0.327287
O O3 0.991717 0.774483 0.381469
O O4 0.895706 0.000000 0.279167
O O5 0.560081 0.777369 0.886374
O O6 0.678473 0.000000 0.904261
O O7 0.750000 0.750000 0.000000
O O8 0.374830 0.713662 0.805864
O O9 0.373233 0.839777 0.657305
O O10 0.353423 0.000000 0.782620
O O11 0.324742 0.377425 0.550150
O O12 0.158803 0.624847 0.516927
O O13 0.995221 0.000000 0.130797
O O14 0.000000 0.163519 0.000000
#
# Coordination Sequence:
#
# PCOD9218163 Si02
#       6
#     8   8   8   4   8   8
#     4  11  24  43  69  99 136 181 224 274 338 401
#     4  12  25  41  64  96 136 180 227 278 328 392
#     4  11  24  42  68  99 134 179 226 273 335 405
#     4  10  24  42  74  94 138 168 224 280 348 408
#     4  11  24  41  63  96 136 178 226 277 328 391
#     4  11  22  46  67 104 129 180 216 284 343 403
#
# _framework density 23.057634
#
# number of rings (size 3 to 8) (size 9 to 14) (size 15 to 20)
#    0.000    0.909    3.636    3.273    2.545    5.091 
#    0.000    5.455    0.000    0.000    0.000    0.000 
#    0.000    0.000    0.000    0.000    0.000    0.000 
#
# Total GULP energy -122515.662294 kJ/mol
# GULP energy per Si atom -5568.893741 kJ/mol
# Density = 2.300515 g / cm^3
# Si number density = 23.057634 Si / 1000 Ang^3
#
#
#
# Elastic Constant Matrix: (Units=GPa)
#
#
# Indices 1 2 3 4 5 6 
#
# 1 107.3152 22.6715 13.6376 0.0000 25.3162 0.0000
# 2 22.6715 212.8105 41.4888 0.0000 12.2778 0.0000
# 3 13.6376 41.4888 46.3711 0.0000 10.5171 0.0000
# 4 0.0000 0.0000 0.0000 29.8158 0.0000 -3.0483
# 5 25.3162 12.2778 10.5171 0.0000 43.4350 0.0000
# 6 0.0000 0.0000 0.0000 -3.0483 0.0000 37.9845
#
#
#
# Elastic Compliance Matrix: (Units=1/GPa)
#
#
# Indices 1 2 3 4 5 6 
#
# 1 0.011011 -0.000559 -0.001395 0.000000 -0.005922 0.000000
# 2 -0.000559 0.005727 -0.004937 0.000000 -0.000097 0.000000
# 3 -0.001395 -0.004937 0.027396 0.000000 -0.004425 0.000000
# 4 0.000000 0.000000 0.000000 0.033817 0.000000 0.002714
# 5 -0.005922 -0.000097 -0.004425 0.000000 0.027573 0.000000
# 6 0.000000 0.000000 0.000000 0.002714 0.000000 0.026544
#
#
# Mechanical properties :
#
#
# Convention : Reuss Voigt Hill
#
# Bulk Modulus (GPa) = 32.94752 58.01029 45.47891
# Shear Modulus (GPa) = 32.05789 41.49368 36.77578
#
# Velocity S-wave (km/s) = 3.73277 4.24673 3.99802
# Velocity P-wave (km/s) = 5.73570 7.01853 6.40929
#
# Compressibility (1/GPa) = 0.03035130
#
# Stress axis : x y z
#
# Youngs Moduli (GPa) = 90.82040 174.61848 36.50124
#
# Poissons Ratio (x) = 0.09770 0.05090
# Poissons Ratio (y) = 0.05081 0.18021
# Poissons Ratio (z) = 0.12666 0.86213
#
# Static dielectric constant tensor:
#      x y z
#    x 1.891450 0.000000 -0.032320 
#    y 0.000000 1.830580 0.000000 
#    z -0.032320 0.000000 2.082060 
# 
# From -- ./inp_files/267815.got.cif
#   From: 2010.05.17/outbox.cif.g08.bks.cpg/sg12_134_cif.got.tgz:267815.got - 2010.06.03 13:09:07.
