data_PCOD9218191
_publ_section_title
;
Structure prediction by ZEFSAII (Michael W. Deem and Ramdas Pophale) SiO2 
 PCOD9218191
Probable space group: C 2/M
;
_chemical_formula_sum "Si O2"
_cell_formula_units_Z 40
_cell_length_a 16.344552
_cell_length_b 16.557590
_cell_length_c 9.020132
_cell_angle_alpha 90.000000
_cell_angle_beta 57.106467
_cell_angle_gamma 90.000000
_cell_volume 2049.733747
_symmetry_space_group_name_H-M "C 2/M"
_symmetry_group_IT_number 12
_symmetry_cell_setting 'monoclinic'
loop_
_space_group_symop_operation_xyz
x,y,z
-x,y,-z
-x,-y,-z
x,-y,z
1/2+x,1/2+y,z
1/2-x,1/2+y,-z
1/2-x,1/2-y,-z
1/2+x,1/2-y,z
loop_
_atom_site_type_symbol
_atom_site_label
_atom_site_fract_x
_atom_site_fract_y
_atom_site_fract_z
Si Si1 0.266031 0.000000 0.116071
Si Si2 0.940248 0.500000 0.728427
Si Si3 0.324403 0.000000 0.518247
Si Si4 0.910759 0.241165 0.334576
Si Si5 0.500000 0.634474 0.000000
Si Si6 0.240320 0.638520 0.636244
Si Si7 0.841578 0.000000 0.082326
Si Si8 0.000000 0.353954 0.500000
O O1 0.255912 0.919392 0.225196
O O2 0.373726 0.000000 0.936933
O O3 0.187395 0.000000 0.061740
O O4 0.924798 0.417349 0.649911
O O5 0.058250 0.500000 0.631392
O O6 0.285967 0.078792 0.471411
O O7 0.260123 0.000000 0.730622
O O8 0.981945 0.189132 0.162343
O O9 0.843412 0.293445 0.288381
O O10 0.840576 0.182743 0.498286
O O11 0.960298 0.299934 0.405669
O O12 0.406928 0.577009 0.063201
#
# Coordination Sequence:
#
# PCOD9218191 Si02
#       8
#     4   4   4   8   4   8   4   4
#     4  11  27  40  71  98 132 173 231 268 315 416
#     4  11  24  42  67  97 126 186 213 270 323 406
#     4  11  19  46  66  82 138 173 217 260 344 389
#     4  11  24  43  66  98 133 175 215 278 331 387
#     4  11  26  44  72  95 134 176 224 267 334 394
#     4  10  24  43  64  96 134 173 212 278 334 378
#     4  11  24  46  66 100 127 182 217 278 321 399
#     4  11  24  40  68  93 134 170 224 265 330 390
#
# _framework density 19.51473
#
# number of rings (size 3 to 8) (size 9 to 14) (size 15 to 20)
#    0.000    1.200    4.000    1.200    5.600    1.600 
#    0.000    3.000    0.000    0.000    0.000    0.000 
#    0.000    0.000    0.000    0.000    0.000    0.000 
#
# Total GULP energy -111568.963356 kJ/mol
# GULP energy per Si atom -5578.448168 kJ/mol
# Density = 1.947031 g / cm^3
# Si number density = 19.514730 Si / 1000 Ang^3
#
#
#
# Elastic Constant Matrix: (Units=GPa)
#
#
# Indices 1 2 3 4 5 6 
#
# 1 99.1146 49.6034 61.3541 0.0000 -0.5222 0.0000
# 2 49.6034 132.1192 73.8372 0.0000 -5.1437 0.0000
# 3 61.3541 73.8372 112.4720 0.0000 3.0515 0.0000
# 4 0.0000 0.0000 0.0000 23.1991 0.0000 7.1148
# 5 -0.5222 -5.1437 3.0515 0.0000 32.9801 0.0000
# 6 0.0000 0.0000 0.0000 7.1148 0.0000 30.5969
#
#
#
# Elastic Compliance Matrix: (Units=1/GPa)
#
#
# Indices 1 2 3 4 5 6 
#
# 1 0.015493 -0.001670 -0.007373 0.000000 0.000667 0.000000
# 2 -0.001670 0.012361 -0.007274 0.000000 0.002574 0.000000
# 3 -0.007373 -0.007274 0.017767 0.000000 -0.002895 0.000000
# 4 0.000000 0.000000 0.000000 0.046415 0.000000 -0.010793
# 5 0.000667 0.002574 -0.002895 0.000000 0.031001 0.000000
# 6 0.000000 0.000000 0.000000 -0.010793 0.000000 0.035193
#
#
# Mechanical properties :
#
#
# Convention : Reuss Voigt Hill
#
# Bulk Modulus (GPa) = 77.00092 79.25503 78.12797
# Shear Modulus (GPa) = 25.61561 27.94930 26.78245
#
# Velocity S-wave (km/s) = 3.62695 3.78857 3.70864
# Velocity P-wave (km/s) = 7.55534 7.73555 7.64598
#
# Compressibility (1/GPa) = 0.01298686
#
# Stress axis : x y z
#
# Youngs Moduli (GPa) = 64.54617 80.89722 56.28416
#
# Poissons Ratio (x) = 0.13511 0.41499
# Poissons Ratio (y) = 0.10780 0.40941
# Poissons Ratio (z) = 0.47590 0.58844
#
# Static dielectric constant tensor:
#      x y z
#    x 1.741200 0.000000 0.030380 
#    y 0.000000 1.696460 0.000000 
#    z 0.030380 0.000000 1.656540 
# 
# From -- ./inp_files/75036.got.cif
#   From: 2010.05.17/outbox.cif.g08.bks.cpg/sg12_38_cif.got.tgz:75036.got - 2010.06.03 13:09:07.
