data_PCOD9218785
_publ_section_title
;
Structure prediction by ZEFSAII (Michael W. Deem and Ramdas Pophale) SiO2 
 PCOD9218785
Probable space group: C 2/M
;
_chemical_formula_sum "Si O2"
_cell_formula_units_Z 46
_cell_length_a 19.751207
_cell_length_b 18.145317
_cell_length_c 16.287206
_cell_angle_alpha 90.000000
_cell_angle_beta 158.954343
_cell_angle_gamma 90.000000
_cell_volume 2096.208285
_symmetry_space_group_name_H-M "C 2/M"
_symmetry_group_IT_number 12
_symmetry_cell_setting 'monoclinic'
loop_
_space_group_symop_operation_xyz
x,y,z
-x,y,-z
-x,-y,-z
x,-y,z
1/2+x,1/2+y,z
1/2-x,1/2+y,-z
1/2-x,1/2-y,-z
1/2+x,1/2-y,z
loop_
_atom_site_type_symbol
_atom_site_label
_atom_site_fract_x
_atom_site_fract_y
_atom_site_fract_z
Si Si1 0.500000 0.000000 0.000000
Si Si2 0.510231 0.500000 0.110212
Si Si3 0.642460 0.342918 0.313303
Si Si4 0.942587 0.351650 0.236048
Si Si5 0.301618 0.367990 0.323720
Si Si6 0.500000 0.249734 0.000000
Si Si7 0.942101 0.186657 0.251009
Si Si8 0.586468 0.000000 0.689508
O O1 0.662273 0.063564 0.166063
O O2 0.609704 0.427330 0.253912
O O3 0.500000 0.500000 0.000000
O O4 0.307074 0.500000 0.921605
O O5 0.600710 0.298071 0.183439
O O6 0.500269 0.316303 0.221688
O O7 0.859814 0.339533 0.586079
O O8 0.957869 0.424305 0.310625
O O9 0.918951 0.271517 0.253542
O O10 0.757228 0.355768 0.969368
O O11 0.500000 0.374460 0.500000
O O12 0.384813 0.351596 0.508055
O O13 0.165651 0.299614 0.147479
O O14 0.500000 0.000000 0.500000
#
# Coordination Sequence:
#
# PCOD9218785 Si02
#       8
#     2   4   8   8   8   4   8   4
#     4  10  26  52  74 106 134 186 248 314 374 428
#     4  12  24  43  65 105 148 190 238 299 365 436
#     4  12  24  45  71 105 148 193 241 305 360 452
#     4  11  25  43  69 105 143 195 240 301 364 438
#     4  11  26  47  76 105 141 187 243 315 369 437
#     4  11  26  40  72 107 142 190 248 291 378 432
#     4  11  26  45  74 105 147 188 252 299 366 450
#     4  12  26  45  70 106 153 194 244 300 384 461
#
# _framework density 21.944383999999999
#
# number of rings (size 3 to 8) (size 9 to 14) (size 15 to 20)
#    0.000    0.696    4.348    2.348    4.870    3.478 
#    0.000    1.739    0.000    0.000    0.000    0.000 
#    0.000    0.000    0.000    0.000    0.000    0.000 
#
# Total GULP energy -128210.741619 kJ/mol
# GULP energy per Si atom -5574.380070 kJ/mol
# Density = 2.189444 g / cm^3
# Si number density = 21.944384 Si / 1000 Ang^3
#
#
#
# Elastic Constant Matrix: (Units=GPa)
#
#
# Indices 1 2 3 4 5 6 
#
# 1 69.2886 40.6791 24.3720 0.0000 19.3716 0.0000
# 2 40.6791 175.5544 50.0755 0.0000 4.8871 0.0000
# 3 24.3720 50.0755 146.9392 0.0001 43.6075 0.0000
# 4 0.0000 0.0000 0.0001 22.2398 0.0001 8.2118
# 5 19.3716 4.8871 43.6075 0.0001 40.9554 0.0000
# 6 0.0000 0.0000 0.0000 8.2118 0.0000 16.6668
#
#
#
# Elastic Compliance Matrix: (Units=1/GPa)
#
#
# Indices 1 2 3 4 5 6 
#
# 1 0.019495 -0.004617 0.001335 0.000000 -0.010091 0.000000
# 2 -0.004617 0.007548 -0.003198 0.000000 0.004688 0.000000
# 3 0.001335 -0.003198 0.011327 0.000000 -0.012311 0.000000
# 4 0.000000 0.000000 0.000000 0.054964 0.000000 -0.027081
# 5 -0.010091 0.004688 -0.012311 0.000000 0.041738 0.000000
# 6 0.000000 0.000000 0.000000 -0.027081 0.000000 0.073343
#
#
# Mechanical properties :
#
#
# Convention : Reuss Voigt Hill
#
# Bulk Modulus (GPa) = 39.35479 69.11504 54.23491
# Shear Modulus (GPa) = 21.75384 34.41611 28.08497
#
# Velocity S-wave (km/s) = 3.15193 3.96452 3.58135
# Velocity P-wave (km/s) = 5.58740 7.24710 6.47068
#
# Compressibility (1/GPa) = 0.02540987
#
# Stress axis : x y z
#
# Youngs Moduli (GPa) = 51.29568 132.49086 88.28227
#
# Poissons Ratio (x) = 0.61172 -0.11783
# Poissons Ratio (y) = 0.23684 0.28229
# Poissons Ratio (z) = -0.06847 0.42365
#
# Static dielectric constant tensor:
#      x y z
#    x 1.820100 0.000000 0.082330 
#    y 0.000000 1.714110 0.000000 
#    z 0.082330 0.000000 1.609770 
# 
# From -- ./inp_files/285494.got.cif
#   From: 2010.05.17/outbox.cif.g08.bks.cpg/sg12_143_cif.got.tgz:285494.got - 2010.06.03 13:09:07.
