data_PCOD9218922
_publ_section_title
;
Structure prediction by ZEFSAII (Michael W. Deem and Ramdas Pophale) SiO2 
 PCOD9218922
Probable space group: C 2/M
;
_chemical_formula_sum "Si O2"
_cell_formula_units_Z 40
_cell_length_a 16.610699
_cell_length_b 17.765601
_cell_length_c 11.234324
_cell_angle_alpha 90.000000
_cell_angle_beta 32.177249
_cell_angle_gamma 90.000000
_cell_volume 1765.497785
_symmetry_space_group_name_H-M "C 2/M"
_symmetry_group_IT_number 12
_symmetry_cell_setting 'monoclinic'
loop_
_space_group_symop_operation_xyz
x,y,z
-x,y,-z
-x,-y,-z
x,-y,z
1/2+x,1/2+y,z
1/2-x,1/2+y,-z
1/2-x,1/2-y,-z
1/2+x,1/2-y,z
loop_
_atom_site_type_symbol
_atom_site_label
_atom_site_fract_x
_atom_site_fract_y
_atom_site_fract_z
Si Si1 0.952401 0.143335 0.868647
Si Si2 0.705794 0.666844 0.187672
Si Si3 0.947167 0.690029 0.248540
Si Si4 0.343354 0.166374 0.644036
Si Si5 0.277601 0.584058 0.599631
O O1 0.027821 0.222480 0.813036
O O2 0.186906 0.123901 0.870452
O O3 0.089578 0.088777 0.664750
O O4 0.873334 0.157234 0.839351
O O5 0.674337 0.751763 0.271272
O O6 0.660644 0.610412 0.349507
O O7 0.885048 0.657360 0.947665
O O8 0.866513 0.681362 0.476365
O O9 0.848761 0.644956 0.277129
O O10 0.500000 0.132561 0.500000
O O11 0.216362 0.500000 0.681713
#
# Coordination Sequence:
#
# PCOD9218922 Si02
#       5
#     8   8   8   8   8
#     4  11  22  39  68 101 126 166 222 270 319 379
#     4  11  21  38  68 100 129 161 216 271 327 380
#     4  11  22  40  66  97 133 169 214 267 325 385
#     4  11  18  37  68 100 125 159 211 282 323 367
#     4  12  27  44  61  93 141 178 212 259 325 394
#
# _framework density 22.656500999999999
#
# number of rings (size 3 to 8) (size 9 to 14) (size 15 to 20)
#    0.000    0.800    6.000    3.000    0.000    4.000 
#    0.000    2.000    0.000    1.200    0.000    0.000 
#    0.000    0.000    0.000    0.000    0.000    0.000 
#
# Total GULP energy -111945.044563 kJ/mol
# GULP energy per Si atom -5597.252228 kJ/mol
# Density = 2.260493 g / cm^3
# Si number density = 22.656501 Si / 1000 Ang^3
#
#
#
# Elastic Constant Matrix: (Units=GPa)
#
#
# Indices 1 2 3 4 5 6 
#
# 1 96.2877 23.9036 24.7464 -0.0002 -11.7860 0.0002
# 2 23.9036 61.2842 11.9604 -0.0002 -12.9854 0.0001
# 3 24.7464 11.9604 163.6006 -0.0006 -1.4947 0.0004
# 4 -0.0002 -0.0002 -0.0006 2.0939 0.0003 4.8424
# 5 -11.7860 -12.9854 -1.4947 0.0003 40.6533 -0.0002
# 6 0.0002 0.0001 0.0004 4.8424 -0.0002 -0.4686
#
#
#
# Elastic Compliance Matrix: (Units=1/GPa)
#
#
# Indices 1 2 3 4 5 6 
#
# 1 0.012016 -0.003932 -0.001510 0.000000 0.002172 0.000000
# 2 -0.003932 0.019039 -0.000752 0.000000 0.004914 0.000000
# 3 -0.001510 -0.000752 0.006392 0.000000 -0.000443 0.000001
# 4 0.000000 0.000000 0.000000 0.019182 0.000001 0.198216
# 5 0.002172 0.004914 -0.000443 0.000001 0.026781 -0.000002
# 6 0.000000 0.000000 0.000001 0.198216 -0.000002 -0.085710
#
#
# Mechanical properties :
#
#
# Convention : Reuss Voigt Hill
#
# Bulk Modulus (GPa) = 39.90725 49.15480 44.53103
# Shear Modulus (GPa) = 271.14853 25.82652 148.48752
#
# Velocity S-wave (km/s) = 10.95161 3.37993 8.10437
# Velocity P-wave (km/s) = 13.32552 6.08068 10.35722
#
# Compressibility (1/GPa) = 0.02505810
#
# Stress axis : x y z
#
# Youngs Moduli (GPa) = 83.22529 52.52392 156.44961
#
# Poissons Ratio (x) = 0.20650 0.23627
# Poissons Ratio (y) = 0.32721 0.11770
# Poissons Ratio (z) = 0.12569 0.03951
#
# Static dielectric constant tensor:
#      x y z
#    x 1.834250 0.000000 -0.016390 
#    y 0.000000 1.776680 0.000000 
#    z -0.016390 0.000000 1.927880 
# 
# From -- ./inp_files/145268.got.cif
#   From: 2010.05.17/outbox.cif.g08.bks.cpg/sg12_73_cif.got.tgz:145268.got - 2010.06.03 13:09:07.
