data_PCOD9218034
_publ_section_title
;
Structure prediction by ZEFSAII (Michael W. Deem and Ramdas Pophale) SiO2 
 PCOD9218034
Probable space group: C 2/M
;
_chemical_formula_sum "Si O2"
_cell_formula_units_Z 24
_cell_length_a 16.661256
_cell_length_b 14.558558
_cell_length_c 9.069477
_cell_angle_alpha 90.000000
_cell_angle_beta 149.242958
_cell_angle_gamma 90.000000
_cell_volume 1125.040014
_symmetry_space_group_name_H-M "C 2/M"
_symmetry_group_IT_number 12
_symmetry_cell_setting 'monoclinic'
loop_
_space_group_symop_operation_xyz
x,y,z
-x,y,-z
-x,-y,-z
x,-y,z
1/2+x,1/2+y,z
1/2-x,1/2+y,-z
1/2-x,1/2-y,-z
1/2+x,1/2-y,z
loop_
_atom_site_type_symbol
_atom_site_label
_atom_site_fract_x
_atom_site_fract_y
_atom_site_fract_z
Si Si1 0.334421 0.000000 0.649999
Si Si2 0.102347 0.308682 0.308770
Si Si3 0.097811 0.814824 0.799136
Si Si4 0.016014 0.000000 0.843615
O O1 0.340427 0.090431 0.562157
O O2 0.174214 0.000000 0.493684
O O3 0.500000 0.000000 0.000000
O O4 0.250000 0.250000 0.500000
O O5 0.008692 0.258237 0.284863
O O6 0.000000 0.313641 0.000000
O O7 0.000000 0.843145 0.500000
O O8 0.096539 0.907698 0.900730
O O9 0.250000 0.750000 0.000000
O O10 0.000000 0.000000 0.000000
#
# Coordination Sequence:
#
# PCOD9218034 Si02
#       4
#     4   8   8   4
#     4  10  24  40  75  99 136 180 255 283 338 412
#     4  11  22  43  70 101 136 189 245 283 342 435
#     4  12  28  46  71 107 152 183 231 305 372 412
#     4  12  27  50  77 103 140 201 248 285 349 447
#
# _framework density 21.332576
#
# number of rings (size 3 to 8) (size 9 to 14) (size 15 to 20)
#    0.000    0.667    3.333    3.500    9.333    1.333 
#    0.000    1.667    0.000    0.000    0.000    0.000 
#    0.000    0.000    0.000    0.000    0.000    0.000 
#
# Total GULP energy -66879.849069 kJ/mol
# GULP energy per Si atom -5573.320756 kJ/mol
# Density = 2.128402 g / cm^3
# Si number density = 21.332576 Si / 1000 Ang^3
#
#
#
# Elastic Constant Matrix: (Units=GPa)
#
#
# Indices 1 2 3 4 5 6 
#
# 1 158.0253 91.6020 45.4845 0.0000 23.7565 0.0000
# 2 91.6020 241.0363 34.7803 0.0000 19.9482 0.0000
# 3 45.4845 34.7803 112.1453 0.0000 5.1373 0.0000
# 4 0.0000 0.0000 0.0000 24.6755 0.0000 4.1144
# 5 23.7565 19.9482 5.1373 0.0000 60.5489 0.0000
# 6 0.0000 0.0000 0.0000 4.1144 0.0000 71.2197
#
#
#
# Elastic Compliance Matrix: (Units=1/GPa)
#
#
# Indices 1 2 3 4 5 6 
#
# 1 0.009140 -0.002884 -0.002702 0.000000 -0.002406 0.000000
# 2 -0.002884 0.005361 -0.000466 0.000000 -0.000595 0.000000
# 3 -0.002702 -0.000466 0.010141 0.000000 0.000353 0.000000
# 4 0.000000 0.000000 0.000000 0.040920 0.000000 -0.002364
# 5 -0.002406 -0.000595 0.000353 0.000000 0.017626 0.000000
# 6 0.000000 0.000000 0.000000 -0.002364 0.000000 0.014178
#
#
# Mechanical properties :
#
#
# Convention : Reuss Voigt Hill
#
# Bulk Modulus (GPa) = 79.75781 94.99339 87.37560
# Shear Modulus (GPa) = 43.99506 53.91149 48.95328
#
# Velocity S-wave (km/s) = 4.54623 5.03257 4.79557
# Velocity P-wave (km/s) = 8.06390 8.85412 8.46823
#
# Compressibility (1/GPa) = 0.01253796
#
# Stress axis : x y z
#
# Youngs Moduli (GPa) = 109.41473 186.52109 98.60786
#
# Poissons Ratio (x) = 0.53798 0.26645
# Poissons Ratio (y) = 0.31558 0.04592
# Poissons Ratio (z) = 0.29565 0.08685
#
# Static dielectric constant tensor:
#      x y z
#    x 1.798890 0.000000 -0.116410 
#    y 0.000000 1.793470 0.000000 
#    z -0.116410 0.000000 1.885400 
# 
# From -- ./inp_files/58836.got.cif
#   From: 2010.05.17/outbox.cif.g08.bks.cpg/sg12_30_cif.got.tgz:58836.got - 2010.06.03 13:09:07.
