data_PCOD9218252
_publ_section_title
;
Structure prediction by ZEFSAII (Michael W. Deem and Ramdas Pophale) SiO2 
 PCOD9218252
Probable space group: C 2/M
;
_chemical_formula_sum "Si O2"
_cell_formula_units_Z 52
_cell_length_a 15.178780
_cell_length_b 15.734843
_cell_length_c 17.077816
_cell_angle_alpha 90.000000
_cell_angle_beta 141.510532
_cell_angle_gamma 90.000000
_cell_volume 2538.521213
_symmetry_space_group_name_H-M "C 2/M"
_symmetry_group_IT_number 12
_symmetry_cell_setting 'monoclinic'
loop_
_space_group_symop_operation_xyz
x,y,z
-x,y,-z
-x,-y,-z
x,-y,z
1/2+x,1/2+y,z
1/2-x,1/2+y,-z
1/2-x,1/2-y,-z
1/2+x,1/2-y,z
loop_
_atom_site_type_symbol
_atom_site_label
_atom_site_fract_x
_atom_site_fract_y
_atom_site_fract_z
Si Si1 0.973061 0.400200 0.213090
Si Si2 0.033989 0.144239 0.614352
Si Si3 0.607562 0.147803 0.008265
Si Si4 0.712593 0.797308 0.799772
Si Si5 0.250213 0.852170 0.497519
Si Si6 0.786662 0.000000 0.189065
Si Si7 0.169248 0.400210 0.620881
O O1 0.958715 0.500000 0.188156
O O2 0.848361 0.364232 0.180946
O O3 0.118038 0.384877 0.360415
O O4 0.968319 0.350258 0.127860
O O5 0.088261 0.231285 0.690519
O O6 0.000000 0.157269 0.500000
O O7 0.894947 0.115862 0.564844
O O8 0.154248 0.074314 0.709998
O O9 0.667292 0.238075 0.078738
O O10 0.728828 0.076272 0.090353
O O11 0.500000 0.114807 0.000000
O O12 0.743611 0.845199 0.740163
O O13 0.250000 0.750000 0.500000
O O14 0.268351 0.881373 0.420957
O O15 0.182083 0.500000 0.647994
O O16 0.000000 0.380968 0.500000
#
# Coordination Sequence:
#
# PCOD9218252 Si02
#       7
#     8   8   8   8   8   4   8
#     4  12  25  42  69  98 133 180 227 277 334 409
#     4  11  24  40  65 100 137 178 214 276 351 408
#     4  11  26  44  70  96 128 179 235 281 337 402
#     4  11  23  44  69  93 134 179 222 280 339 403
#     4  12  24  39  67 105 138 176 224 274 345 416
#     4  10  24  44  62  92 136 171 217 284 335 405
#     4  11  22  41  67 101 136 173 220 277 344 402
#
# _framework density 20.484366999999999
#
# number of rings (size 3 to 8) (size 9 to 14) (size 15 to 20)
#    0.000    0.769    3.846    3.231    8.615    0.000 
#    0.000    0.000    0.000    0.923    0.000    0.000 
#    0.000    0.000    0.000    0.000    0.000    0.000 
#
# Total GULP energy -144871.618053 kJ/mol
# GULP energy per Si atom -5571.985310 kJ/mol
# Density = 2.043774 g / cm^3
# Si number density = 20.484367 Si / 1000 Ang^3
#
#
#
# Elastic Constant Matrix: (Units=GPa)
#
#
# Indices 1 2 3 4 5 6 
#
# 1 106.8753 6.4601 34.7575 0.0001 -31.2543 0.0001
# 2 6.4601 100.7199 38.1872 0.0000 -9.7262 0.0000
# 3 34.7575 38.1872 73.1730 0.0001 -37.0435 0.0001
# 4 0.0001 0.0000 0.0001 11.2190 0.0000 -0.7930
# 5 -31.2543 -9.7262 -37.0435 0.0000 30.7487 0.0001
# 6 0.0001 0.0000 0.0001 -0.7930 0.0001 13.9084
#
#
#
# Elastic Compliance Matrix: (Units=1/GPa)
#
#
# Indices 1 2 3 4 5 6 
#
# 1 0.013368 0.000136 0.001230 0.000000 0.015112 0.000000
# 2 0.000136 0.013682 -0.012673 0.000000 -0.010802 0.000000
# 3 0.001230 -0.012673 0.046907 0.000000 0.053751 0.000000
# 4 0.000000 0.000000 0.000000 0.089495 -0.000001 0.005103
# 5 0.015112 -0.010802 0.053751 -0.000001 0.109220 -0.000001
# 6 0.000000 0.000000 0.000000 0.005103 -0.000001 0.072190
#
#
# Mechanical properties :
#
#
# Convention : Reuss Voigt Hill
#
# Bulk Modulus (GPa) = 19.47726 48.84197 34.15962
# Shear Modulus (GPa) = 13.00085 24.59944 18.80014
#
# Velocity S-wave (km/s) = 2.52200 3.46914 3.03278
# Velocity P-wave (km/s) = 4.24378 6.31996 5.38292
#
# Compressibility (1/GPa) = 0.05134191
#
# Stress axis : x y z
#
# Youngs Moduli (GPa) = 74.80606 73.09128 21.31888
#
# Poissons Ratio (x) = -0.00991 -0.02622
# Poissons Ratio (y) = -0.01014 0.27017
# Poissons Ratio (z) = -0.09201 0.92626
#
# Static dielectric constant tensor:
#      x y z
#    x 1.750070 0.000000 0.032780 
#    y 0.000000 1.717520 0.000000 
#    z 0.032780 0.000000 1.751930 
# 
# From -- ./inp_files/270761.got.cif
#   From: 2010.05.17/outbox.cif.g08.bks.cpg/sg12_136_cif.got.tgz:270761.got - 2010.06.03 13:09:07.
