data_PCOD9218466
_publ_section_title
;
Structure prediction by ZEFSAII (Michael W. Deem and Ramdas Pophale) SiO2 
 PCOD9218466
Probable space group: C 2/M
;
_chemical_formula_sum "Si O2"
_cell_formula_units_Z 44
_cell_length_a 13.965265
_cell_length_b 27.941535
_cell_length_c 11.404468
_cell_angle_alpha 90.000000
_cell_angle_beta 151.880095
_cell_angle_gamma 90.000000
_cell_volume 2097.436325
_symmetry_space_group_name_H-M "C 2/M"
_symmetry_group_IT_number 12
_symmetry_cell_setting 'monoclinic'
loop_
_space_group_symop_operation_xyz
x,y,z
-x,y,-z
-x,-y,-z
x,-y,z
1/2+x,1/2+y,z
1/2-x,1/2+y,-z
1/2-x,1/2-y,-z
1/2+x,1/2-y,z
loop_
_atom_site_type_symbol
_atom_site_label
_atom_site_fract_x
_atom_site_fract_y
_atom_site_fract_z
Si Si1 0.201983 0.871664 0.978550
Si Si2 0.739397 0.360703 0.269916
Si Si3 0.411133 0.556286 0.534439
Si Si4 0.115565 0.374101 0.309069
Si Si5 0.000000 0.728989 0.500000
Si Si6 0.896726 0.210442 0.598029
O O1 0.058750 0.914240 0.780322
O O2 0.065441 0.823322 0.843217
O O3 0.305315 0.883060 0.215856
O O4 0.378166 0.865425 0.072189
O O5 0.803043 0.377609 0.467697
O O6 0.819251 0.306465 0.342025
O O7 0.500000 0.365435 0.000000
O O8 0.500000 0.563736 0.500000
O O9 0.408785 0.500000 0.555920
O O10 0.190590 0.579889 0.318749
O O11 0.233280 0.329207 0.379131
O O12 0.974603 0.762583 0.361460
O O13 0.750000 0.250000 0.500000
#
# Coordination Sequence:
#
# PCOD9218466 Si02
#       6
#     8   8   8   8   4   8
#     4  11  23  40  69  92 129 169 215 270 317 378
#     4  12  20  41  63  88 125 172 210 259 320 370
#     4  10  24  46  69  95 127 161 207 262 326 398
#     4  11  23  41  65  95 127 167 213 268 323 376
#     4  12  24  36  58  88 130 172 218 260 306 366
#     4  11  22  39  56  89 128 173 219 253 308 365
#
# _framework density 20.977992
#
# number of rings (size 3 to 8) (size 9 to 14) (size 15 to 20)
#    0.000    0.909    7.273    0.000    5.091    5.818 
#    0.000    3.636    0.000    2.182    0.000    0.000 
#    0.000    0.000    0.000    0.000    0.000    0.000 
#
# Total GULP energy -122576.357659 kJ/mol
# GULP energy per Si atom -5571.652621 kJ/mol
# Density = 2.093024 g / cm^3
# Si number density = 20.977992 Si / 1000 Ang^3
#
#
#
# Elastic Constant Matrix: (Units=GPa)
#
#
# Indices 1 2 3 4 5 6 
#
# 1 106.0831 46.7512 12.8489 0.0000 7.2830 0.0000
# 2 46.7512 113.0307 24.1314 0.0000 -11.3792 0.0000
# 3 12.8489 24.1314 40.9956 0.0000 9.1036 0.0000
# 4 0.0000 0.0000 0.0000 14.6995 0.0000 5.7628
# 5 7.2830 -11.3792 9.1036 0.0000 44.6606 0.0000
# 6 0.0000 0.0000 0.0000 5.7628 0.0000 37.3470
#
#
#
# Elastic Compliance Matrix: (Units=1/GPa)
#
#
# Indices 1 2 3 4 5 6 
#
# 1 0.011985 -0.005317 0.000113 0.000000 -0.003332 0.000000
# 2 -0.005317 0.013198 -0.007376 0.000000 0.005733 0.000000
# 3 0.000113 -0.007376 0.030501 0.000000 -0.008115 0.000000
# 4 0.000000 0.000000 0.000000 0.072410 0.000000 -0.011173
# 5 -0.003332 0.005733 -0.008115 0.000000 0.026049 0.000000
# 6 0.000000 0.000000 0.000000 -0.011173 0.000000 0.028500
#
#
# Mechanical properties :
#
#
# Convention : Reuss Voigt Hill
#
# Bulk Modulus (GPa) = 32.75935 47.50804 40.13370
# Shear Modulus (GPa) = 22.93830 31.09994 27.01912
#
# Velocity S-wave (km/s) = 3.31032 3.85451 3.59273
# Velocity P-wave (km/s) = 5.50099 6.51962 6.03184
#
# Compressibility (1/GPa) = 0.03052563
#
# Stress axis : x y z
#
# Youngs Moduli (GPa) = 83.43977 75.76888 32.78594
#
# Poissons Ratio (x) = 0.40284 -0.00371
# Poissons Ratio (y) = 0.44362 0.24181
# Poissons Ratio (z) = -0.00945 0.55884
#
# Static dielectric constant tensor:
#      x y z
#    x 1.836330 0.000000 -0.028480 
#    y 0.000000 1.715010 0.000000 
#    z -0.028480 0.000000 1.921620 
# 
# From -- ./inp_files/149549.got.cif
#   From: 2010.05.17/outbox.cif.g08.bks.cpg/sg12_75_cif.got.tgz:149549.got - 2010.06.03 13:09:07.
