data_PCOD9218794
_publ_section_title
;
Structure prediction by ZEFSAII (Michael W. Deem and Ramdas Pophale) SiO2 
 PCOD9218794
Probable space group: C 2/M
;
_chemical_formula_sum "Si O2"
_cell_formula_units_Z 38
_cell_length_a 9.759254
_cell_length_b 16.034513
_cell_length_c 10.231120
_cell_angle_alpha 90.000000
_cell_angle_beta 109.462854
_cell_angle_gamma 90.000000
_cell_volume 1509.529933
_symmetry_space_group_name_H-M "C 2/M"
_symmetry_group_IT_number 12
_symmetry_cell_setting 'monoclinic'
loop_
_space_group_symop_operation_xyz
x,y,z
-x,y,-z
-x,-y,-z
x,-y,z
1/2+x,1/2+y,z
1/2-x,1/2+y,-z
1/2-x,1/2-y,-z
1/2+x,1/2-y,z
loop_
_atom_site_type_symbol
_atom_site_label
_atom_site_fract_x
_atom_site_fract_y
_atom_site_fract_z
Si Si1 0.000000 0.500000 0.500000
Si Si2 0.500000 0.716372 0.500000
Si Si3 0.316361 0.860664 0.320583
Si Si4 0.513144 0.340296 0.856773
Si Si5 0.794022 0.901637 0.324706
Si Si6 0.520411 0.853368 0.863353
O O1 0.874630 0.427775 0.440141
O O2 0.420145 0.779953 0.376019
O O3 0.630907 0.649627 0.534178
O O4 0.148290 0.838849 0.256243
O O5 0.361492 0.894603 0.191685
O O6 0.616978 0.383357 0.782557
O O7 0.562117 0.244026 0.892105
O O8 0.500000 0.376529 0.000000
O O9 0.633541 0.866492 0.254491
O O10 0.792143 0.000000 0.346723
O O11 0.500000 0.890119 0.000000
#
# Coordination Sequence:
#
# PCOD9218794 Si02
#       6
#     2   4   8   8   8   8
#     4  10  28  44  66 102 142 180 230 280 332 422
#     4  11  23  47  67  96 136 192 223 283 333 427
#     4  11  24  46  71 100 135 183 237 273 344 410
#     4  11  23  46  74 100 131 178 236 286 342 409
#     4  12  27  43  65 108 140 176 229 290 348 393
#     4  11  23  46  74 100 131 178 236 286 342 409
#
# _framework density 25.173400000000001
#
# number of rings (size 3 to 8) (size 9 to 14) (size 15 to 20)
#    0.000    0.842    4.211    1.579    2.947    9.263 
#    3.789    0.000    0.000    0.000    0.000    0.000 
#    0.000    0.000    0.000    0.000    0.000    0.000 
#
# Total GULP energy -105940.247346 kJ/mol
# GULP energy per Si atom -5575.802492 kJ/mol
# Density = 2.511610 g / cm^3
# Si number density = 25.173400 Si / 1000 Ang^3
#
#
#
# Elastic Constant Matrix: (Units=GPa)
#
#
# Indices 1 2 3 4 5 6 
#
# 1 97.7633 15.8251 12.8518 0.0000 -6.1230 0.0000
# 2 15.8251 120.1370 1.8516 0.0000 0.6187 0.0000
# 3 12.8518 1.8516 95.4105 0.0000 -10.4684 0.0000
# 4 0.0000 0.0000 0.0000 46.2624 0.0000 -11.6214
# 5 -6.1230 0.6187 -10.4684 0.0000 47.5475 0.0000
# 6 0.0000 0.0000 0.0000 -11.6214 0.0000 28.7829
#
#
#
# Elastic Compliance Matrix: (Units=1/GPa)
#
#
# Indices 1 2 3 4 5 6 
#
# 1 0.010694 -0.001394 -0.001292 0.000000 0.001111 0.000000
# 2 -0.001394 0.008509 -0.000009 0.000000 -0.000292 0.000000
# 3 -0.001292 -0.000009 0.010900 0.000000 0.002234 0.000000
# 4 0.000000 0.000000 0.000000 0.024056 0.000000 0.009713
# 5 0.001111 -0.000292 0.002234 0.000000 0.021670 0.000000
# 6 0.000000 0.000000 0.000000 0.009713 0.000000 0.038664
#
#
# Mechanical properties :
#
#
# Convention : Reuss Voigt Hill
#
# Bulk Modulus (GPa) = 40.46522 41.59641 41.03082
# Shear Modulus (GPa) = 39.02530 43.37071 41.19801
#
# Velocity S-wave (km/s) = 3.94160 4.15526 4.04984
# Velocity P-wave (km/s) = 6.06832 6.29138 6.18085
#
# Compressibility (1/GPa) = 0.02471258
#
# Stress axis : x y z
#
# Youngs Moduli (GPa) = 93.51153 117.52029 91.74094
#
# Poissons Ratio (x) = 0.16388 0.11848
# Poissons Ratio (y) = 0.13040 0.00086
# Poissons Ratio (z) = 0.12077 0.00110
#
# Static dielectric constant tensor:
#      x y z
#    x 1.846430 0.000000 -0.176650 
#    y 0.000000 1.964990 0.000000 
#    z -0.176650 0.000000 2.027740 
# 
# From -- ./inp_files/119180.got.cif
#   From: 2010.05.17/outbox.cif.g08.bks.cpg/sg12_60_cif.got.tgz:119180.got - 2010.06.03 13:09:07.
