data_PCOD9218893
_publ_section_title
;
Structure prediction by ZEFSAII (Michael W. Deem and Ramdas Pophale) SiO2 
 PCOD9218893
Probable space group: C 2/M
;
_chemical_formula_sum "Si O2"
_cell_formula_units_Z 56
_cell_length_a 14.907960
_cell_length_b 21.054806
_cell_length_c 9.921479
_cell_angle_alpha 90.000000
_cell_angle_beta 113.088492
_cell_angle_gamma 90.000000
_cell_volume 2864.749365
_symmetry_space_group_name_H-M "C 2/M"
_symmetry_group_IT_number 12
_symmetry_cell_setting 'monoclinic'
loop_
_space_group_symop_operation_xyz
x,y,z
-x,y,-z
-x,-y,-z
x,-y,z
1/2+x,1/2+y,z
1/2-x,1/2+y,-z
1/2-x,1/2-y,-z
1/2+x,1/2-y,z
loop_
_atom_site_type_symbol
_atom_site_label
_atom_site_fract_x
_atom_site_fract_y
_atom_site_fract_z
Si Si1 0.238338 0.182025 0.859247
Si Si2 0.969097 0.836234 0.132492
Si Si3 0.552765 0.808970 0.894560
Si Si4 0.050395 0.375649 0.404248
Si Si5 0.665663 0.750592 0.563567
Si Si6 0.420785 0.614870 0.556188
Si Si7 0.723546 0.070709 0.333154
O O1 0.144352 0.161205 0.890652
O O2 0.209969 0.239282 0.739079
O O3 0.266767 0.123917 0.776600
O O4 0.333252 0.197345 0.003214
O O5 0.991782 0.760850 0.160758
O O6 0.031553 0.878309 0.270863
O O7 0.000000 0.852914 0.000000
O O8 0.526917 0.851830 0.752425
O O9 0.500000 0.832658 0.000000
O O10 0.104067 0.313785 0.501344
O O11 0.131020 0.414382 0.370822
O O12 0.000000 0.409723 0.500000
O O13 0.750000 0.750000 0.500000
O O14 0.602273 0.687296 0.503646
O O15 0.500000 0.587691 0.500000
O O16 0.319750 0.578744 0.481754
O O17 0.718883 0.000000 0.273894
#
# Coordination Sequence:
#
# PCOD9218893 Si02
#       7
#     8   8   8   8   8   8   8
#     4  11  22  41  58  91 131 166 208 252 309 379
#     4  11  23  34  59  96 135 157 189 248 323 389
#     4  11  21  36  60  94 129 165 196 242 312 392
#     4  12  23  38  63  93 128 162 208 259 322 370
#     4  11  18  34  63  89 127 164 199 253 313 378
#     4  11  20  39  64  93 123 159 209 256 312 377
#     4  11  25  43  66  88 117 166 228 268 297 358
#
# _framework density 19.547957
#
# number of rings (size 3 to 8) (size 9 to 14) (size 15 to 20)
#    0.000    0.857    8.571    1.714    2.000    1.714 
#    0.000    1.429    0.000    3.429    0.000    0.000 
#    0.000    0.000    0.000    0.000    0.000    0.000 
#
# Total GULP energy -156448.996870 kJ/mol
# GULP energy per Si atom -5587.464174 kJ/mol
# Density = 1.950347 g / cm^3
# Si number density = 19.547957 Si / 1000 Ang^3
#
#
#
# Elastic Constant Matrix: (Units=GPa)
#
#
# Indices 1 2 3 4 5 6 
#
# 1 112.0030 -12.2592 55.5067 0.0000 -13.8187 0.0000
# 2 -12.2592 43.5809 7.8632 0.0000 0.5633 0.0000
# 3 55.5067 7.8632 141.5734 0.0000 -3.9675 0.0000
# 4 0.0000 0.0000 0.0000 6.3523 0.0000 -0.8657
# 5 -13.8187 0.5633 -3.9675 0.0000 42.1854 0.0000
# 6 0.0000 0.0000 0.0000 -0.8657 0.0000 -12.3118
#
#
#
# Elastic Compliance Matrix: (Units=1/GPa)
#
#
# Indices 1 2 3 4 5 6 
#
# 1 0.012290 0.004307 -0.004959 0.000000 0.003502 0.000000
# 2 0.004307 0.024695 -0.003038 0.000000 0.000795 0.000000
# 3 -0.004959 -0.003038 0.009156 0.000000 -0.000723 0.000000
# 4 0.000000 0.000000 0.000000 0.155930 0.000000 -0.010965
# 5 0.003502 0.000795 -0.000723 0.000000 0.024773 0.000000
# 6 0.000000 0.000000 0.000000 -0.010965 0.000000 -0.080452
#
#
# Mechanical properties :
#
#
# Convention : Reuss Voigt Hill
#
# Bulk Modulus (GPa) = 25.79996 44.37541 35.08768
# Shear Modulus (GPa) = 29.99517 23.64828 26.82173
#
# Velocity S-wave (km/s) = 3.92144 3.48193 3.70820
# Velocity P-wave (km/s) = 5.80780 6.23820 6.02685
#
# Compressibility (1/GPa) = 0.03875976
#
# Stress axis : x y z
#
# Youngs Moduli (GPa) = 81.36987 40.49386 109.21333
#
# Poissons Ratio (x) = -0.17439 0.54164
# Poissons Ratio (y) = -0.35043 0.33177
# Poissons Ratio (z) = 0.40355 0.12301
#
# Static dielectric constant tensor:
#      x y z
#    x 1.727450 0.000000 -0.017050 
#    y 0.000000 1.677300 0.000000 
#    z -0.017050 0.000000 1.723260 
# 
# From -- ./inp_files/65460.got.cif
#   From: 2010.05.17/outbox.cif.g08.bks.cpg/sg12_33_cif.got.tgz:65460.got - 2010.06.03 13:09:07.
