data_PCOD9218729
_publ_section_title
;
Structure prediction by ZEFSAII (Michael W. Deem and Ramdas Pophale) SiO2 
 PCOD9218729
Probable space group: C 2/M
;
_chemical_formula_sum "Si O2"
_cell_formula_units_Z 34
_cell_length_a 9.184735
_cell_length_b 27.096357
_cell_length_c 6.673205
_cell_angle_alpha 90.000000
_cell_angle_beta 133.326888
_cell_angle_gamma 90.000000
_cell_volume 1208.135508
_symmetry_space_group_name_H-M "C 2/M"
_symmetry_group_IT_number 12
_symmetry_cell_setting 'monoclinic'
loop_
_space_group_symop_operation_xyz
x,y,z
-x,y,-z
-x,-y,-z
x,-y,z
1/2+x,1/2+y,z
1/2-x,1/2+y,-z
1/2-x,1/2-y,-z
1/2+x,1/2-y,z
loop_
_atom_site_type_symbol
_atom_site_label
_atom_site_fract_x
_atom_site_fract_y
_atom_site_fract_z
Si Si1 0.500000 0.500000 0.500000
Si Si2 0.681597 0.316597 0.406411
Si Si3 0.000000 0.739538 0.500000
Si Si4 0.114195 0.442003 0.779620
Si Si5 0.115730 0.071737 0.269808
Si Si6 0.000000 0.638104 0.000000
O O1 0.612218 0.542175 0.472787
O O2 0.808255 0.295640 0.339768
O O3 0.526510 0.276131 0.337381
O O4 0.597321 0.369815 0.282850
O O5 0.841440 0.327654 0.734945
O O6 0.105389 0.500000 0.840999
O O7 0.132119 0.435774 0.534349
O O8 0.100701 0.398356 0.931569
O O9 0.369936 0.441103 0.976037
#
# Coordination Sequence:
#
# PCOD9218729 Si02
#       6
#     2   8   4   8   8   4
#     4  12  28  48  70 110 150 202 232 288 354 434
#     4  11  25  49  73 109 139 194 241 311 367 437
#     4  10  25  52  72 100 148 180 257 304 376 436
#     4  11  24  44  66 106 149 195 236 291 346 436
#     4  12  27  46  73 108 153 190 243 291 357 436
#     4  12  25  42  78 104 148 186 246 299 372 424
#
# _framework density 28.142537999999998
#
# number of rings (size 3 to 8) (size 9 to 14) (size 15 to 20)
#    0.000    0.706    3.529    2.824    6.588    0.941 
#    8.471    0.000    0.000    0.000    0.000    0.000 
#    0.000    0.000    0.000    0.000    0.000    0.000 
#
# Total GULP energy -95022.519305 kJ/mol
# GULP energy per Si atom -5589.559959 kJ/mol
# Density = 2.807848 g / cm^3
# Si number density = 28.142538 Si / 1000 Ang^3
#
#
#
# Elastic Constant Matrix: (Units=GPa)
#
#
# Indices 1 2 3 4 5 6 
#
# 1 285.5193 67.5598 27.6608 0.0000 32.2666 0.0000
# 2 67.5598 227.2265 24.0547 0.0000 3.4108 0.0000
# 3 27.6608 24.0547 168.8547 0.0000 24.1061 0.0000
# 4 0.0000 0.0000 0.0000 4.9918 0.0000 29.2831
# 5 32.2666 3.4108 24.1061 0.0000 37.7686 0.0000
# 6 0.0000 0.0000 0.0000 29.2831 0.0000 72.5893
#
#
#
# Elastic Compliance Matrix: (Units=1/GPa)
#
#
# Indices 1 2 3 4 5 6 
#
# 1 0.004175 -0.001187 -0.000023 0.000000 -0.003445 0.000000
# 2 -0.001187 0.004806 -0.000630 0.000000 0.000983 0.000000
# 3 -0.000023 -0.000630 0.006607 0.000000 -0.004140 0.000000
# 4 0.000000 0.000000 0.000000 -0.146601 0.000000 0.059140
# 5 -0.003445 0.000983 -0.004140 0.000000 0.031974 0.000000
# 6 0.000000 0.000000 0.000000 0.059140 0.000000 -0.010081
#
#
# Mechanical properties :
#
#
# Convention : Reuss Voigt Hill
#
# Bulk Modulus (GPa) = 83.98810 102.23899 93.11355
# Shear Modulus (GPa) = -49.27516 60.55830 5.64157
#
# Velocity S-wave (km/s) = -4.18893 4.64383 1.41739
# Velocity P-wave (km/s) = 2.55194 8.07226 5.98639
#
# Compressibility (1/GPa) = 0.01190645
#
# Stress axis : x y z
#
# Youngs Moduli (GPa) = 239.53192 208.07990 151.35664
#
# Poissons Ratio (x) = 0.24702 0.00348
# Poissons Ratio (y) = 0.28435 0.09542
# Poissons Ratio (z) = 0.00551 0.13118
#
# Static dielectric constant tensor:
#      x y z
#    x 2.146300 0.000000 0.044650 
#    y 0.000000 2.236040 0.000000 
#    z 0.044650 0.000000 2.374170 
# 
# From -- ./inp_files/42000.got.cif
#   From: 2010.05.17/outbox.cif.g08.bks.cpg/sg12_21_cif.got.tgz:42000.got - 2010.06.03 13:09:07.
