data_PCOD9218634
_publ_section_title
;
Structure prediction by ZEFSAII (Michael W. Deem and Ramdas Pophale) SiO2 
 PCOD9218634
Probable space group: C 2/M
;
_chemical_formula_sum "Si O2"
_cell_formula_units_Z 48
_cell_length_a 12.681347
_cell_length_b 19.945612
_cell_length_c 12.142682
_cell_angle_alpha 90.000000
_cell_angle_beta 48.787432
_cell_angle_gamma 90.000000
_cell_volume 2310.475412
_symmetry_space_group_name_H-M "C 2/M"
_symmetry_group_IT_number 12
_symmetry_cell_setting 'monoclinic'
loop_
_space_group_symop_operation_xyz
x,y,z
-x,y,-z
-x,-y,-z
x,-y,z
1/2+x,1/2+y,z
1/2-x,1/2+y,-z
1/2-x,1/2-y,-z
1/2+x,1/2-y,z
loop_
_atom_site_type_symbol
_atom_site_label
_atom_site_fract_x
_atom_site_fract_y
_atom_site_fract_z
Si Si1 0.815721 0.424876 0.298976
Si Si2 0.160340 0.669425 0.912264
Si Si3 0.668900 0.924708 0.365903
Si Si4 0.105741 0.623792 0.186425
Si Si5 0.191515 0.174438 0.559754
Si Si6 0.063550 0.239629 0.333452
O O1 0.763113 0.500000 0.344748
O O2 0.820336 0.398098 0.171838
O O3 0.728408 0.372234 0.430631
O O4 0.974230 0.419735 0.236002
O O5 0.273659 0.721226 0.787885
O O6 0.179123 0.652969 0.027546
O O7 0.000000 0.692033 0.000000
O O8 0.500000 0.920765 0.500000
O O9 0.692615 0.914658 0.219349
O O10 0.743551 0.865634 0.382345
O O11 0.711220 0.000000 0.372587
O O12 0.044031 0.687942 0.293376
O O13 0.250000 0.250000 0.500000
O O14 0.025235 0.186180 0.676112
O O15 0.000000 0.238665 0.500000
#
# Coordination Sequence:
#
# PCOD9218634 Si02
#       6
#     8   8   8   8   8   8
#     4  11  22  40  66  97 132 174 221 273 327 391
#     4  10  25  43  64  99 136 176 220 274 337 395
#     4  11  22  37  62  96 132 171 217 268 322 393
#     4  11  22  39  65  97 134 173 219 270 331 391
#     4  12  22  39  65  98 132 167 221 278 328 380
#     4  12  23  42  68  99 134 173 226 277 332 390
#
# _framework density 20.774944999999999
#
# number of rings (size 3 to 8) (size 9 to 14) (size 15 to 20)
#    0.000    0.833    5.000    3.000    0.000    3.667 
#    0.000    3.333    0.000    1.000    0.000    0.000 
#    0.000    0.000    0.000    0.000    0.000    0.000 
#
# Total GULP energy -134134.364427 kJ/mol
# GULP energy per Si atom -5588.931851 kJ/mol
# Density = 2.072766 g / cm^3
# Si number density = 20.774945 Si / 1000 Ang^3
#
#
#
# Elastic Constant Matrix: (Units=GPa)
#
#
# Indices 1 2 3 4 5 6 
#
# 1 65.4734 37.5652 32.5625 0.0000 13.6764 0.0000
# 2 37.5652 139.2839 37.4104 0.0000 5.8032 0.0000
# 3 32.5625 37.4104 98.8296 0.0000 14.9091 0.0000
# 4 0.0000 0.0000 0.0000 12.7363 0.0000 0.1977
# 5 13.6764 5.8032 14.9091 0.0000 41.9983 0.0000
# 6 0.0000 0.0000 0.0000 0.1977 0.0000 28.7702
#
#
#
# Elastic Compliance Matrix: (Units=1/GPa)
#
#
# Indices 1 2 3 4 5 6 
#
# 1 0.020949 -0.004220 -0.004611 0.000000 -0.004602 0.000000
# 2 -0.004220 0.008842 -0.002092 0.000000 0.000895 0.000000
# 3 -0.004611 -0.002092 0.012847 0.000000 -0.002770 0.000000
# 4 0.000000 0.000000 0.000000 0.078524 0.000000 -0.000540
# 5 -0.004602 0.000895 -0.002770 0.000000 0.026169 0.000000
# 6 0.000000 0.000000 0.000000 -0.000540 0.000000 0.034762
#
#
# Mechanical properties :
#
#
# Convention : Reuss Voigt Hill
#
# Bulk Modulus (GPa) = 48.09109 57.62922 52.86016
# Shear Modulus (GPa) = 23.71140 29.77088 26.74114
#
# Velocity S-wave (km/s) = 3.38205 3.78963 3.59162
# Velocity P-wave (km/s) = 6.20079 6.85189 6.53446
#
# Compressibility (1/GPa) = 0.02079387
#
# Stress axis : x y z
#
# Youngs Moduli (GPa) = 47.73538 113.09390 77.83763
#
# Poissons Ratio (x) = 0.47724 0.35888
# Poissons Ratio (y) = 0.20143 0.16282
# Poissons Ratio (z) = 0.22009 0.23656
#
# Static dielectric constant tensor:
#      x y z
#    x 1.817630 0.000000 0.010810 
#    y 0.000000 1.730860 0.000000 
#    z 0.010810 0.000000 1.761510 
# 
# From -- ./inp_files/132972.got.cif
#   From: 2010.05.17/outbox.cif.g08.bks.cpg/sg12_67_cif.got.tgz:132972.got - 2010.06.03 13:09:07.
