data_PCOD9218926
_publ_section_title
;
Structure prediction by ZEFSAII (Michael W. Deem and Ramdas Pophale) SiO2 
 PCOD9218926
Probable space group: C 2/M
;
_chemical_formula_sum "Si O2"
_cell_formula_units_Z 52
_cell_length_a 14.814224
_cell_length_b 19.643491
_cell_length_c 11.153623
_cell_angle_alpha 90.000000
_cell_angle_beta 129.265871
_cell_angle_gamma 90.000000
_cell_volume 2512.907151
_symmetry_space_group_name_H-M "C 2/M"
_symmetry_group_IT_number 12
_symmetry_cell_setting 'monoclinic'
loop_
_space_group_symop_operation_xyz
x,y,z
-x,y,-z
-x,-y,-z
x,-y,z
1/2+x,1/2+y,z
1/2-x,1/2+y,-z
1/2-x,1/2-y,-z
1/2+x,1/2-y,z
loop_
_atom_site_type_symbol
_atom_site_label
_atom_site_fract_x
_atom_site_fract_y
_atom_site_fract_z
Si Si1 0.938240 0.698261 0.319674
Si Si2 0.529570 0.920906 0.259858
Si Si3 0.000000 0.338402 0.000000
Si Si4 0.367841 0.286551 0.643158
Si Si5 0.828382 0.777257 0.892213
Si Si6 0.781300 0.925333 0.592124
Si Si7 0.365711 0.425251 0.929929
O O1 0.810208 0.729986 0.219297
O O2 0.000000 0.690297 0.500000
O O3 0.937341 0.624702 0.254886
O O4 0.023856 0.747213 0.318374
O O5 0.549063 0.885682 0.147317
O O6 0.649836 0.916345 0.435900
O O7 0.497457 0.000000 0.221459
O O8 0.097856 0.290348 0.018811
O O9 0.250000 0.250000 0.500000
O O10 0.366148 0.285620 0.785175
O O11 0.358408 0.365507 0.602400
O O12 0.854152 0.849962 0.978256
O O13 0.788367 0.922133 0.742876
O O14 0.823031 0.000000 0.592061
O O15 0.341999 0.500000 0.968013
O O16 0.500000 0.427701 0.000000
#
# Coordination Sequence:
#
# PCOD9218926 Si02
#       7
#     8   8   4   8   8   8   8
#     4  12  23  37  66 101 127 163 212 271 331 388
#     4  11  24  42  63  92 129 171 219 269 321 380
#     4  12  23  44  65  90 128 182 222 268 311 380
#     4  11  18  38  60  91 131 164 203 262 323 385
#     4  11  22  36  63  93 128 171 215 262 319 382
#     4   9  18  34  61  87 118 166 210 252 313 379
#     4   9  17  32  56  90 129 166 198 245 321 393
#
# _framework density 20.693162999999998
#
# number of rings (size 3 to 8) (size 9 to 14) (size 15 to 20)
#    0.000    1.385    5.385    1.154    0.000    1.538 
#    0.000    0.000    0.000    4.154    0.000    0.000 
#    0.000    0.000    0.000    0.000    0.000    0.000 
#
# Total GULP energy -145120.942022 kJ/mol
# GULP energy per Si atom -5581.574693 kJ/mol
# Density = 2.064606 g / cm^3
# Si number density = 20.693163 Si / 1000 Ang^3
#
#
#
# Elastic Constant Matrix: (Units=GPa)
#
#
# Indices 1 2 3 4 5 6 
#
# 1 92.4100 52.1665 17.9319 0.0000 17.2346 0.0000
# 2 52.1665 169.8781 24.2596 0.0000 6.6727 0.0000
# 3 17.9319 24.2596 73.5358 0.0000 5.4111 0.0000
# 4 0.0000 0.0000 0.0000 11.6769 0.0000 -7.2875
# 5 17.2346 6.6727 5.4111 0.0000 27.2467 0.0000
# 6 0.0000 0.0000 0.0000 -7.2875 0.0000 11.9195
#
#
#
# Elastic Compliance Matrix: (Units=1/GPa)
#
#
# Indices 1 2 3 4 5 6 
#
# 1 0.014941 -0.004024 -0.001718 0.000000 -0.008124 0.000000
# 2 -0.004024 0.007295 -0.001503 0.000000 0.001057 0.000000
# 3 -0.001718 -0.001503 0.014620 0.000000 -0.001449 0.000000
# 4 0.000000 0.000000 0.000000 0.138479 0.000000 0.084665
# 5 -0.008124 0.001057 -0.001449 0.000000 0.041869 0.000000
# 6 0.000000 0.000000 0.000000 0.084665 0.000000 0.135659
#
#
# Mechanical properties :
#
#
# Convention : Reuss Voigt Hill
#
# Bulk Modulus (GPa) = 44.70976 58.28220 51.49598
# Shear Modulus (GPa) = 13.34007 26.26635 19.80321
#
# Velocity S-wave (km/s) = 2.54177 3.56662 3.09689
# Velocity P-wave (km/s) = 5.50155 6.72214 6.14224
#
# Compressibility (1/GPa) = 0.02236648
#
# Stress axis : x y z
#
# Youngs Moduli (GPa) = 66.92813 137.07355 68.39775
#
# Poissons Ratio (x) = 0.55155 0.11752
# Poissons Ratio (y) = 0.26930 0.10282
# Poissons Ratio (z) = 0.11500 0.20607
#
# Static dielectric constant tensor:
#      x y z
#    x 1.728420 0.000000 -0.000270 
#    y 0.000000 1.831840 0.000000 
#    z -0.000270 0.000000 1.787620 
# 
# From -- ./inp_files/147732.got.cif
#   From: 2010.05.17/outbox.cif.g08.bks.cpg/sg12_74_cif.got.tgz:147732.got - 2010.06.03 13:09:07.
