data_PCOD9218912
_publ_section_title
;
Structure prediction by ZEFSAII (Michael W. Deem and Ramdas Pophale) SiO2 
 PCOD9218912
Probable space group: C 2/M
;
_chemical_formula_sum "Si O2"
_cell_formula_units_Z 56
_cell_length_a 21.441699
_cell_length_b 21.418033
_cell_length_c 15.816508
_cell_angle_alpha 90.000000
_cell_angle_beta 159.299725
_cell_angle_gamma 90.000000
_cell_volume 2567.517494
_symmetry_space_group_name_H-M "C 2/M"
_symmetry_group_IT_number 12
_symmetry_cell_setting 'monoclinic'
loop_
_space_group_symop_operation_xyz
x,y,z
-x,y,-z
-x,-y,-z
x,-y,z
1/2+x,1/2+y,z
1/2-x,1/2+y,-z
1/2-x,1/2-y,-z
1/2+x,1/2-y,z
loop_
_atom_site_type_symbol
_atom_site_label
_atom_site_fract_x
_atom_site_fract_y
_atom_site_fract_z
Si Si1 0.223352 0.571938 0.190859
Si Si2 0.166721 0.000000 0.100279
Si Si3 0.116762 0.200552 0.373810
Si Si4 0.246206 0.500000 0.591397
Si Si5 0.932842 0.712846 0.244335
Si Si6 0.778462 0.132358 0.919655
Si Si7 0.915738 0.381599 0.704114
Si Si8 0.438238 0.427788 0.287188
O O1 0.184729 0.500000 0.162567
O O2 0.368705 0.594618 0.440649
O O3 0.321426 0.572616 0.223819
O O4 0.044639 0.606829 0.945832
O O5 0.231634 0.000000 0.279502
O O6 0.230114 0.932971 0.141877
O O7 0.951546 0.000000 0.820936
O O8 0.250000 0.250000 0.500000
O O9 0.231926 0.139332 0.510898
O O10 0.072615 0.231305 0.408555
O O11 0.934338 0.181971 0.093023
O O12 0.135330 0.441442 0.416496
O O13 0.989383 0.667308 0.238971
O O14 0.750000 0.750000 0.000000
O O15 0.900053 0.670559 0.285283
O O16 0.847212 0.110968 0.099241
O O17 0.451448 0.500000 0.276149
#
# Coordination Sequence:
#
# PCOD9218912 Si02
#       8
#     8   4   8   4   8   8   8   8
#     4   9  17  29  51  87 125 154 179 223 301 378
#     4  11  24  39  60  95 128 166 211 259 326 390
#     4   9  20  35  57  86 112 162 214 243 302 366
#     4  11  24  39  60  95 128 164 211 259 324 393
#     4   9  20  35  59  88 114 158 213 255 302 364
#     4  11  18  36  63  85 123 159 197 260 309 366
#     4  11  18  36  63  85 125 163 199 258 312 373
#     4   9  17  29  51  87 125 151 178 225 302 376
#
# _framework density 21.810950999999999
#
# number of rings (size 3 to 8) (size 9 to 14) (size 15 to 20)
#    0.000    2.143    4.286    0.857    0.000    0.571 
#    0.000    2.143    0.000   28.286    0.000    0.000 
#    0.000    0.000    0.000    0.000    0.000    0.000 
#
# Total GULP energy -155957.891287 kJ/mol
# GULP energy per Si atom -5569.924689 kJ/mol
# Density = 2.176131 g / cm^3
# Si number density = 21.810951 Si / 1000 Ang^3
#
#
#
# Elastic Constant Matrix: (Units=GPa)
#
#
# Indices 1 2 3 4 5 6 
#
# 1 81.9434 47.6862 24.0183 0.0000 13.9627 0.0000
# 2 47.6862 120.4889 17.8416 0.0000 6.7759 0.0000
# 3 24.0183 17.8416 48.6784 0.0000 9.4949 0.0000
# 4 0.0000 0.0000 0.0000 13.4894 0.0000 19.6005
# 5 13.9627 6.7759 9.4949 0.0000 34.9415 0.0000
# 6 0.0000 0.0000 0.0000 19.6005 0.0000 31.8184
#
#
#
# Elastic Compliance Matrix: (Units=1/GPa)
#
#
# Indices 1 2 3 4 5 6 
#
# 1 0.018245 -0.006095 -0.005889 0.000000 -0.004509 0.000000
# 2 -0.006095 0.010838 -0.001087 0.000000 0.000630 0.000000
# 3 -0.005889 -0.001087 0.024654 0.000000 -0.004135 0.000000
# 4 0.000000 0.000000 0.000000 0.706558 0.000000 -0.435248
# 5 -0.004509 0.000630 -0.004135 0.000000 0.031423 0.000000
# 6 0.000000 0.000000 0.000000 -0.435248 0.000000 0.299546
#
#
# Mechanical properties :
#
#
# Convention : Reuss Voigt Hill
#
# Bulk Modulus (GPa) = 36.24096 47.80033 42.02065
# Shear Modulus (GPa) = 4.43812 26.82083 15.62948
#
# Velocity S-wave (km/s) = 1.42802 3.51051 2.67982
# Velocity P-wave (km/s) = 4.40125 6.19636 5.37428
#
# Compressibility (1/GPa) = 0.02759309
#
# Stress axis : x y z
#
# Youngs Moduli (GPa) = 54.80979 92.27220 40.56179
#
# Poissons Ratio (x) = 0.56243 0.23886
# Poissons Ratio (y) = 0.33408 0.04411
# Poissons Ratio (z) = 0.32276 0.10034
#
# Static dielectric constant tensor:
#      x y z
#    x 1.816900 0.000000 0.054950 
#    y 0.000000 1.916860 0.000000 
#    z 0.054950 0.000000 1.800880 
# 
# From -- ./inp_files/290879.got.cif
#   From: 2010.05.17/outbox.cif.g08.bks.cpg/sg12_146_cif.got.tgz:290879.got - 2010.06.03 13:09:07.
