data_PCOD9218669
_publ_section_title
;
Structure prediction by ZEFSAII (Michael W. Deem and Ramdas Pophale) SiO2 
 PCOD9218669
Probable space group: C 2/M
;
_chemical_formula_sum "Si O2"
_cell_formula_units_Z 20
_cell_length_a 5.387693
_cell_length_b 16.072842
_cell_length_c 9.730057
_cell_angle_alpha 90.000000
_cell_angle_beta 72.123835
_cell_angle_gamma 90.000000
_cell_volume 801.901623
_symmetry_space_group_name_H-M "C 2/M"
_symmetry_group_IT_number 12
_symmetry_cell_setting 'monoclinic'
loop_
_space_group_symop_operation_xyz
x,y,z
-x,y,-z
-x,-y,-z
x,-y,z
1/2+x,1/2+y,z
1/2-x,1/2+y,-z
1/2-x,1/2-y,-z
1/2+x,1/2-y,z
loop_
_atom_site_type_symbol
_atom_site_label
_atom_site_fract_x
_atom_site_fract_y
_atom_site_fract_z
Si Si1 0.229412 0.904901 0.346780
Si Si2 0.216460 0.155183 0.059613
Si Si3 0.000000 0.694384 0.500000
O O1 0.147967 0.849084 0.231290
O O2 0.492260 0.867830 0.370799
O O3 0.000000 0.905361 0.500000
O O4 0.266419 0.000000 0.297259
O O5 0.500000 0.115005 0.000000
O O6 0.250000 0.250000 0.000000
O O7 0.000000 0.115590 0.000000
O O8 0.250000 0.750000 0.500000
#
# Coordination Sequence:
#
# PCOD9218669 Si02
#       3
#     8   8   4
#     4  11  27  50  78 115 159 201 254 318 386 456
#     4  10  25  45  72 105 151 198 251 308 372 453
#     4  12  27  44  77 110 150 200 256 316 371 448
#
# _framework density 24.940718
#
# number of rings (size 3 to 8) (size 9 to 14) (size 15 to 20)
#    0.000    1.200    2.000    0.600   16.800    1.600 
#    0.000    0.000    0.000    0.000    0.000    0.000 
#    0.000    0.000    0.000    0.000    0.000    0.000 
#
# Total GULP energy -55869.355192 kJ/mol
# GULP energy per Si atom -5586.935519 kJ/mol
# Density = 2.488395 g / cm^3
# Si number density = 24.940718 Si / 1000 Ang^3
#
#
#
# Elastic Constant Matrix: (Units=GPa)
#
#
# Indices 1 2 3 4 5 6 
#
# 1 216.2033 24.0768 68.8929 0.0000 40.3579 0.0000
# 2 24.0768 134.2524 40.8430 0.0000 15.6679 0.0000
# 3 68.8929 40.8430 188.4189 0.0000 34.5848 0.0000
# 4 0.0000 0.0000 0.0000 35.2925 0.0000 -5.7398
# 5 40.3579 15.6679 34.5848 0.0000 56.1270 0.0000
# 6 0.0000 0.0000 0.0000 -5.7398 0.0000 6.9723
#
#
#
# Elastic Compliance Matrix: (Units=1/GPa)
#
#
# Indices 1 2 3 4 5 6 
#
# 1 0.005701 -0.000211 -0.001462 0.000000 -0.003139 0.000000
# 2 -0.000211 0.008069 -0.001450 0.000000 -0.001207 0.000000
# 3 -0.001462 -0.001450 0.006640 0.000000 -0.002635 0.000000
# 4 0.000000 0.000000 0.000000 0.032715 0.000000 0.026932
# 5 -0.003139 -0.001207 -0.002635 0.000000 0.022034 0.000000
# 6 0.000000 0.000000 0.000000 0.026932 0.000000 0.165595
#
#
# Mechanical properties :
#
#
# Convention : Reuss Voigt Hill
#
# Bulk Modulus (GPa) = 70.61286 89.61109 80.11197
# Shear Modulus (GPa) = 19.86322 46.68249 33.27286
#
# Velocity S-wave (km/s) = 2.82515 4.33105 3.65647
# Velocity P-wave (km/s) = 6.24625 7.81142 7.07227
#
# Compressibility (1/GPa) = 0.01416173
#
# Stress axis : x y z
#
# Youngs Moduli (GPa) = 175.41554 123.93750 150.59981
#
# Poissons Ratio (x) = 0.02616 0.22025
# Poissons Ratio (y) = 0.03703 0.21841
# Poissons Ratio (z) = 0.25654 0.17974
#
# Static dielectric constant tensor:
#      x y z
#    x 2.090270 0.000000 -0.006740 
#    y 0.000000 2.018160 0.000000 
#    z -0.006740 0.000000 2.215960 
# 
# From -- ./inp_files/32972.got.cif
#   From: 2010.05.17/outbox.cif.g08.bks.cpg/sg12_17_cif.got.tgz:32972.got - 2010.06.03 13:09:07.
