data_PCOD9218225
_publ_section_title
;
Structure prediction by ZEFSAII (Michael W. Deem and Ramdas Pophale) SiO2 
 PCOD9218225
Probable space group: C 2/M
;
_chemical_formula_sum "Si O2"
_cell_formula_units_Z 48
_cell_length_a 27.717863
_cell_length_b 13.985729
_cell_length_c 12.169658
_cell_angle_alpha 90.000000
_cell_angle_beta 151.443803
_cell_angle_gamma 90.000000
_cell_volume 2255.120448
_symmetry_space_group_name_H-M "C 2/M"
_symmetry_group_IT_number 12
_symmetry_cell_setting 'monoclinic'
loop_
_space_group_symop_operation_xyz
x,y,z
-x,y,-z
-x,-y,-z
x,-y,z
1/2+x,1/2+y,z
1/2-x,1/2+y,-z
1/2-x,1/2-y,-z
1/2+x,1/2-y,z
loop_
_atom_site_type_symbol
_atom_site_label
_atom_site_fract_x
_atom_site_fract_y
_atom_site_fract_z
Si Si1 0.500000 0.829509 0.000000
Si Si2 0.598274 0.700589 0.757259
Si Si3 0.510089 0.687000 0.817535
Si Si4 0.620226 0.500000 0.127297
Si Si5 0.222534 0.638189 0.436337
Si Si6 0.301418 0.393280 0.354275
Si Si7 0.800285 0.609968 0.081557
O O1 0.480681 0.763637 0.067780
O O2 0.606101 0.881410 0.232124
O O3 0.500000 0.658209 0.500000
O O4 0.574193 0.709685 0.837487
O O5 0.697524 0.635556 0.940890
O O6 0.622026 0.803046 0.747305
O O7 0.393556 0.679661 0.546912
O O8 0.542757 0.584836 0.931605
O O9 0.699377 0.581994 0.331721
O O10 0.250000 0.750000 0.500000
O O11 0.242248 0.610576 0.349653
O O12 0.344388 0.500000 0.426135
O O13 0.231578 0.378959 0.109617
O O14 0.831767 0.500000 0.165578
#
# Coordination Sequence:
#
# PCOD9218225 Si02
#       7
#     4   8   8   4   8   8   8
#     4  12  26  42  68  96 138 184 216 274 338 410
#     4  11  24  44  69 101 134 175 222 282 329 398
#     4  12  23  40  71 100 131 172 230 273 336 390
#     4  12  26  42  65 100 134 175 222 282 326 396
#     4  12  24  42  66  97 137 174 226 273 335 400
#     4  11  21  39  67  97 130 172 220 279 328 393
#     4  10  24  43  68  98 135 176 222 272 340 392
#
# _framework density 21.284894000000001
#
# number of rings (size 3 to 8) (size 9 to 14) (size 15 to 20)
#    0.000    0.667    6.667    1.000    1.167    2.000 
#    0.000    0.000    1.833    0.000    0.000    0.000 
#    0.000    0.000    0.000    0.000    0.000    0.000 
#
# Total GULP energy -133636.298878 kJ/mol
# GULP energy per Si atom -5568.179120 kJ/mol
# Density = 2.123645 g / cm^3
# Si number density = 21.284894 Si / 1000 Ang^3
#
#
#
# Elastic Constant Matrix: (Units=GPa)
#
#
# Indices 1 2 3 4 5 6 
#
# 1 48.5740 -25.6809 -4.0867 0.0000 0.8572 0.0000
# 2 -25.6809 76.1046 -13.9802 0.0000 1.2880 0.0000
# 3 -4.0867 -13.9802 49.2519 0.0000 11.0177 0.0000
# 4 0.0000 0.0000 0.0000 34.9038 0.0000 -1.6655
# 5 0.8572 1.2880 11.0177 0.0000 27.6618 0.0000
# 6 0.0000 0.0000 0.0000 -1.6655 0.0000 2.0766
#
#
#
# Elastic Compliance Matrix: (Units=1/GPa)
#
#
# Indices 1 2 3 4 5 6 
#
# 1 0.026469 0.010071 0.005866 0.000000 -0.003626 0.000000
# 2 0.010071 0.017845 0.006759 0.000000 -0.003835 0.000000
# 3 0.005866 0.006759 0.025052 0.000000 -0.010475 0.000000
# 4 0.000000 0.000000 0.000000 0.029790 0.000000 0.023893
# 5 -0.003626 -0.003835 -0.010475 0.000000 0.040614 0.000000
# 6 0.000000 0.000000 0.000000 0.023893 0.000000 0.500712
#
#
# Mechanical properties :
#
#
# Convention : Reuss Voigt Hill
#
# Bulk Modulus (GPa) = 8.71414 9.60389 9.15902
# Shear Modulus (GPa) = 7.89462 27.44033 17.66747
#
# Velocity S-wave (km/s) = 1.92797 3.59443 2.88418
# Velocity P-wave (km/s) = 3.00982 4.66352 3.92476
#
# Compressibility (1/GPa) = 0.11475600
#
# Stress axis : x y z
#
# Youngs Moduli (GPa) = 37.78010 56.03967 39.91665
#
# Poissons Ratio (x) = -0.56435 -0.23415
# Poissons Ratio (y) = -0.38047 -0.26978
# Poissons Ratio (z) = -0.22161 -0.37875
#
# Static dielectric constant tensor:
#      x y z
#    x 1.782110 0.000000 0.012520 
#    y 0.000000 1.801210 0.000000 
#    z 0.012520 0.000000 1.759590 
# 
# From -- ./inp_files/183907.got.cif
#   From: 2010.05.17/outbox.cif.g08.bks.cpg/sg12_92_cif.got.tgz:183907.got - 2010.06.03 13:09:07.
