data_PCOD9218995
_publ_section_title
;
Structure prediction by ZEFSAII (Michael W. Deem and Ramdas Pophale) SiO2 
 PCOD9218995
Probable space group: C 2/M
;
_chemical_formula_sum "Si O2"
_cell_formula_units_Z 64
_cell_length_a 13.984119
_cell_length_b 29.887475
_cell_length_c 8.059314
_cell_angle_alpha 90.000000
_cell_angle_beta 76.811686
_cell_angle_gamma 90.000000
_cell_volume 3279.550586
_symmetry_space_group_name_H-M "C 2/M"
_symmetry_group_IT_number 12
_symmetry_cell_setting 'monoclinic'
loop_
_space_group_symop_operation_xyz
x,y,z
-x,y,-z
-x,-y,-z
x,-y,z
1/2+x,1/2+y,z
1/2-x,1/2+y,-z
1/2-x,1/2-y,-z
1/2+x,1/2-y,z
loop_
_atom_site_type_symbol
_atom_site_label
_atom_site_fract_x
_atom_site_fract_y
_atom_site_fract_z
Si Si1 0.048454 0.227548 0.729515
Si Si2 0.131561 0.633424 0.385239
Si Si3 0.966019 0.669427 0.239108
Si Si4 0.051785 0.449214 0.249710
Si Si5 0.781098 0.645657 0.152673
Si Si6 0.839970 0.222622 0.663255
Si Si7 0.222304 0.187632 0.826114
Si Si8 0.153710 0.551969 0.847730
O O1 0.034660 0.278275 0.789026
O O2 0.119049 0.230696 0.538151
O O3 0.109902 0.200236 0.838487
O O4 0.940158 0.211615 0.723177
O O5 0.090440 0.654234 0.569472
O O6 0.101056 0.582533 0.366600
O O7 0.241601 0.649351 0.315564
O O8 0.073980 0.655120 0.250671
O O9 0.899423 0.649936 0.120235
O O10 0.056794 0.500000 0.303899
O O11 0.939097 0.439789 0.239291
O O12 0.111335 0.445569 0.052611
O O13 0.732569 0.680483 0.300394
O O14 0.768660 0.592769 0.193977
O O15 0.741277 0.666121 0.997543
O O16 0.784750 0.266582 0.760368
O O17 0.185535 0.500000 0.809238
#
# Coordination Sequence:
#
# PCOD9218995 Si02
#       8
#     8   8   8   8   8   8   8   8
#     4  11  22  40  54  73 110 154 185 218 257 331
#     4  11  19  34  53  79 103 151 187 211 265 317
#     4  11  21  33  53  73 113 148 186 218 258 320
#     4   9  17  32  54  78 110 146 182 220 266 328
#     4  12  23  34  52  85 107 142 180 228 270 319
#     4  11  22  38  55  78 109 146 184 217 273 313
#     4  12  22  34  54  80 108 141 183 224 262 316
#     4   9  18  33  53  79 111 144 175 220 280 332
#
# _framework density 19.514869000000001
#
# number of rings (size 3 to 8) (size 9 to 14) (size 15 to 20)
#    0.000    1.250    6.250    3.000    0.000    1.000 
#    0.000    1.875    0.000    0.000    0.000    4.375 
#    0.000    0.000    0.000    0.000    0.000    0.000 
#
# Total GULP energy -178612.604040 kJ/mol
# GULP energy per Si atom -5581.643876 kJ/mol
# Density = 1.947045 g / cm^3
# Si number density = 19.514869 Si / 1000 Ang^3
#
#
#
# Elastic Constant Matrix: (Units=GPa)
#
#
# Indices 1 2 3 4 5 6 
#
# 1 78.9009 41.4199 2.2438 0.0000 17.2562 0.0000
# 2 41.4199 149.3685 11.4695 0.0000 5.8956 0.0000
# 3 2.2438 11.4695 53.0778 0.0000 11.9331 0.0000
# 4 0.0000 0.0000 0.0000 20.7589 0.0000 5.1023
# 5 17.2562 5.8956 11.9331 0.0000 28.9867 0.0000
# 6 0.0000 0.0000 0.0000 5.1023 0.0000 28.9526
#
#
#
# Elastic Compliance Matrix: (Units=1/GPa)
#
#
# Indices 1 2 3 4 5 6 
#
# 1 0.017287 -0.004582 0.002605 0.000000 -0.010431 0.000000
# 2 -0.004582 0.008042 -0.001972 0.000000 0.001904 0.000000
# 3 0.002605 -0.001972 0.021395 0.000000 -0.009957 0.000000
# 4 0.000000 0.000000 0.000000 0.050353 0.000000 -0.008874
# 5 -0.010431 0.001904 -0.009957 0.000000 0.044420 0.000000
# 6 0.000000 0.000000 0.000000 -0.008874 0.000000 0.036103
#
#
# Mechanical properties :
#
#
# Convention : Reuss Voigt Hill
#
# Bulk Modulus (GPa) = 25.75696 43.51266 34.63481
# Shear Modulus (GPa) = 25.19650 30.82057 28.00854
#
# Velocity S-wave (km/s) = 3.59715 3.97840 3.79257
# Velocity P-wave (km/s) = 5.52086 6.59160 6.07985
#
# Compressibility (1/GPa) = 0.03882446
#
# Stress axis : x y z
#
# Youngs Moduli (GPa) = 57.84767 124.35194 46.74012
#
# Poissons Ratio (x) = 0.56977 -0.12174
# Poissons Ratio (y) = 0.26505 0.09217
# Poissons Ratio (z) = -0.15066 0.24523
#
# Static dielectric constant tensor:
#      x y z
#    x 1.698070 0.000000 0.006580 
#    y 0.000000 1.743590 0.000000 
#    z 0.006580 0.000000 1.777050 
# 
# From -- ./inp_files/67848.got.cif
#   From: 2010.05.17/outbox.cif.g08.bks.cpg/sg12_34_cif.got.tgz:67848.got - 2010.06.03 13:09:07.
