data_PCOD9218071
_publ_section_title
;
Structure prediction by ZEFSAII (Michael W. Deem and Ramdas Pophale) SiO2 
 PCOD9218071
Probable space group: C 2/M
;
_chemical_formula_sum "Si O2"
_cell_formula_units_Z 46
_cell_length_a 17.066699
_cell_length_b 20.409778
_cell_length_c 9.136310
_cell_angle_alpha 90.000000
_cell_angle_beta 46.453856
_cell_angle_gamma 90.000000
_cell_volume 2306.686963
_symmetry_space_group_name_H-M "C 2/M"
_symmetry_group_IT_number 12
_symmetry_cell_setting 'monoclinic'
loop_
_space_group_symop_operation_xyz
x,y,z
-x,y,-z
-x,-y,-z
x,-y,z
1/2+x,1/2+y,z
1/2-x,1/2+y,-z
1/2-x,1/2-y,-z
1/2+x,1/2-y,z
loop_
_atom_site_type_symbol
_atom_site_label
_atom_site_fract_x
_atom_site_fract_y
_atom_site_fract_z
Si Si1 0.004284 0.361735 0.824555
Si Si2 0.623397 0.635096 0.382588
Si Si3 0.744426 0.500000 0.832214
Si Si4 0.611501 0.774704 0.452720
Si Si5 0.341745 0.500000 0.494214
Si Si6 0.215867 0.640060 0.075929
Si Si7 0.000000 0.000000 0.000000
Si Si8 0.887941 0.500000 0.366689
O O1 0.086686 0.317152 0.627002
O O2 0.043821 0.436036 0.757028
O O3 0.889149 0.356115 0.892457
O O4 0.000000 0.343734 0.000000
O O5 0.500000 0.626830 0.500000
O O6 0.639098 0.700234 0.459432
O O7 0.655169 0.566643 0.414455
O O8 0.684256 0.655579 0.156081
O O9 0.762777 0.566340 0.898184
O O10 0.842899 0.500000 0.589215
O O11 0.622783 0.500000 0.920304
O O12 0.500000 0.772651 0.500000
O O13 0.696475 0.812239 0.238794
O O14 0.436442 0.500000 0.247379
O O15 0.223203 0.500000 0.578298
#
# Coordination Sequence:
#
# PCOD9218071 Si02
#       8
#     8   8   4   8   4   8   2   4
#     4  11  22  39  61  96 134 162 201 257 311 375
#     4  11  22  40  64  90 120 162 216 263 307 366
#     4  11  21  37  66  92 122 168 210 254 310 368
#     4   9  21  39  62  93 128 162 204 254 313 379
#     4  11  23  41  59  87 121 164 212 260 315 365
#     4  11  21  38  66  95 125 166 208 250 315 375
#     4  10  24  42  60  88 128 160 214 268 310 354
#     4  11  22  38  61  87 128 161 198 256 310 371
#
# _framework density 19.942019999999999
#
# number of rings (size 3 to 8) (size 9 to 14) (size 15 to 20)
#    0.000    1.391    1.739    4.174    0.000    0.696 
#    1.565    3.478    0.000    0.000    0.000    0.000 
#    0.000    0.000    0.000    0.000    0.000    0.000 
#
# Total GULP energy -128147.195220 kJ/mol
# GULP energy per Si atom -5571.617183 kJ/mol
# Density = 1.989663 g / cm^3
# Si number density = 19.942020 Si / 1000 Ang^3
#
#
#
# Elastic Constant Matrix: (Units=GPa)
#
#
# Indices 1 2 3 4 5 6 
#
# 1 44.3493 -0.1724 18.8631 0.0000 4.7517 0.0000
# 2 -0.1724 129.6443 14.5663 0.0000 19.5431 0.0000
# 3 18.8631 14.5663 111.8608 0.0000 4.6331 0.0000
# 4 0.0000 0.0000 0.0000 19.6314 0.0000 -7.8563
# 5 4.7517 19.5431 4.6331 0.0000 32.4678 0.0000
# 6 0.0000 0.0000 0.0000 -7.8563 0.0000 18.3622
#
#
#
# Elastic Compliance Matrix: (Units=1/GPa)
#
#
# Indices 1 2 3 4 5 6 
#
# 1 0.024710 0.001051 -0.004152 0.000000 -0.003656 0.000000
# 2 0.001051 0.008619 -0.001085 0.000000 -0.005187 0.000000
# 3 -0.004152 -0.001085 0.009787 0.000000 -0.000136 0.000000
# 4 0.000000 0.000000 0.000000 0.061462 0.000000 0.026297
# 5 -0.003656 -0.005187 -0.000136 0.000000 0.034476 0.000000
# 6 0.000000 0.000000 0.000000 0.026297 0.000000 0.065711
#
#
# Mechanical properties :
#
#
# Convention : Reuss Voigt Hill
#
# Bulk Modulus (GPa) = 28.78294 39.15204 33.96749
# Shear Modulus (GPa) = 22.25008 30.93211 26.59110
#
# Velocity S-wave (km/s) = 3.34389 3.94268 3.65556
# Velocity P-wave (km/s) = 5.41973 6.35624 5.90658
#
# Compressibility (1/GPa) = 0.03474280
#
# Stress axis : x y z
#
# Youngs Moduli (GPa) = 40.46919 116.02904 102.17901
#
# Poissons Ratio (x) = -0.12189 0.42427
# Poissons Ratio (y) = -0.04251 0.11083
# Poissons Ratio (z) = 0.16804 0.12585
#
# Static dielectric constant tensor:
#      x y z
#    x 1.681980 0.000000 0.016600 
#    y 0.000000 1.769920 0.000000 
#    z 0.016600 0.000000 1.764760 
# 
# From -- ./inp_files/77334.got.cif
#   From: 2010.05.17/outbox.cif.g08.bks.cpg/sg12_39_cif.got.tgz:77334.got - 2010.06.03 13:09:07.
