data_PCOD9218373
_publ_section_title
;
Structure prediction by ZEFSAII (Michael W. Deem and Ramdas Pophale) SiO2 
 PCOD9218373
Probable space group: C 2/M
;
_chemical_formula_sum "Si O2"
_cell_formula_units_Z 50
_cell_length_a 22.425009
_cell_length_b 7.513287
_cell_length_c 15.862934
_cell_angle_alpha 90.000000
_cell_angle_beta 124.776752
_cell_angle_gamma 90.000000
_cell_volume 2195.283544
_symmetry_space_group_name_H-M "C 2/M"
_symmetry_group_IT_number 12
_symmetry_cell_setting 'monoclinic'
loop_
_space_group_symop_operation_xyz
x,y,z
-x,y,-z
-x,-y,-z
x,-y,z
1/2+x,1/2+y,z
1/2-x,1/2+y,-z
1/2-x,1/2-y,-z
1/2+x,1/2-y,z
loop_
_atom_site_type_symbol
_atom_site_label
_atom_site_fract_x
_atom_site_fract_y
_atom_site_fract_z
Si Si1 0.967879 0.215918 0.853523
Si Si2 0.224480 0.712387 0.885244
Si Si3 0.434576 0.701671 0.640122
Si Si4 0.330197 0.208967 0.415046
Si Si5 0.500000 0.000000 0.000000
Si Si6 0.582559 0.783856 0.676362
Si Si7 0.690626 0.283529 0.210745
O O1 0.961371 0.273654 0.751016
O O2 0.021324 0.340781 0.948140
O O3 0.889714 0.270962 0.829686
O O4 0.980365 0.000000 0.870963
O O5 0.222743 0.500000 0.874581
O O6 0.143224 0.772065 0.794167
O O7 0.278818 0.776555 0.855250
O O8 0.250000 0.750000 0.000000
O O9 0.415329 0.500000 0.644568
O O10 0.364934 0.772092 0.534416
O O11 0.503600 0.714133 0.634606
O O12 0.385448 0.277254 0.387679
O O13 0.250020 0.276836 0.328142
O O14 0.325634 0.000000 0.394367
O O15 0.576555 0.000000 0.670934
O O16 0.687663 0.500000 0.207956
#
# Coordination Sequence:
#
# PCOD9218373 Si02
#       7
#     8   8   8   8   2   8   8
#     4  10  24  45  64  90 126 158 206 256 301 364
#     4   9  18  34  56  82 109 146 196 246 303 355
#     4  11  23  36  55  87 124 159 196 249 305 363
#     4   9  18  35  62  87 115 161 203 243 307 363
#     4  12  26  44  68  90 114 168 208 244 308 362
#     4   9  19  35  55  82 119 158 201 248 294 362
#     4   8  17  39  62  81 117 159 192 246 309 359
#
# _framework density 22.776102999999999
#
# number of rings (size 3 to 8) (size 9 to 14) (size 15 to 20)
#    0.000    2.560    0.000    3.120    2.240    5.120 
#    5.760    4.800    0.000    0.000    0.000    0.000 
#    0.000    0.000    0.000    0.000    0.000    0.000 
#
# Total GULP energy -139237.750750 kJ/mol
# GULP energy per Si atom -5569.510030 kJ/mol
# Density = 2.272426 g / cm^3
# Si number density = 22.776103 Si / 1000 Ang^3
#
#
#
# Elastic Constant Matrix: (Units=GPa)
#
#
# Indices 1 2 3 4 5 6 
#
# 1 29.7000 -2.7348 -5.9747 0.0000 13.1528 0.0000
# 2 -2.7348 69.3096 14.4932 0.0000 -3.7828 0.0000
# 3 -5.9747 14.4932 107.4343 0.0000 -3.6208 0.0000
# 4 0.0000 0.0000 0.0000 26.9153 0.0000 -12.6506
# 5 13.1528 -3.7828 -3.6208 0.0000 19.1488 0.0000
# 6 0.0000 0.0000 0.0000 -12.6506 0.0000 -14.4532
#
#
#
# Elastic Compliance Matrix: (Units=1/GPa)
#
#
# Indices 1 2 3 4 5 6 
#
# 1 0.048661 -0.000228 0.001619 0.000000 -0.033163 0.000000
# 2 -0.000228 0.014975 -0.001940 0.000000 0.002748 0.000000
# 3 0.001619 -0.001940 0.009671 0.000000 0.000333 0.000000
# 4 0.000000 0.000000 0.000000 0.026324 0.000000 -0.023041
# 5 -0.033163 0.002748 0.000333 0.000000 0.075607 0.000000
# 6 0.000000 0.000000 0.000000 -0.023041 0.000000 -0.049021
#
#
# Mechanical properties :
#
#
# Convention : Reuss Voigt Hill
#
# Bulk Modulus (GPa) = 13.84889 24.22348 19.03619
# Shear Modulus (GPa) = 33.02849 19.69951 26.36400
#
# Velocity S-wave (km/s) = 3.81220 2.94414 3.40594
# Velocity P-wave (km/s) = 5.04686 4.71337 4.88296
#
# Compressibility (1/GPa) = 0.07220794
#
# Stress axis : x y z
#
# Youngs Moduli (GPa) = 20.55034 66.77919 103.40151
#
# Poissons Ratio (x) = 0.01526 -0.16744
# Poissons Ratio (y) = 0.00470 0.20062
# Poissons Ratio (z) = -0.03328 0.12957
#
# Static dielectric constant tensor:
#      x y z
#    x 1.835580 0.000000 0.011680 
#    y 0.000000 1.903780 0.000000 
#    z 0.011680 0.000000 1.960060 
# 
# From -- ./inp_files/237982.got.cif
#   From: 2010.05.17/outbox.cif.g08.bks.cpg/sg12_119_cif.got.tgz:237982.got - 2010.06.03 13:09:07.
