data_PCOD9218229
_publ_section_title
;
Structure prediction by ZEFSAII (Michael W. Deem and Ramdas Pophale) SiO2 
 PCOD9218229
Probable space group: C 2/M
;
_chemical_formula_sum "Si O2"
_cell_formula_units_Z 56
_cell_length_a 17.083570
_cell_length_b 15.181282
_cell_length_c 11.639361
_cell_angle_alpha 90.000000
_cell_angle_beta 61.382368
_cell_angle_gamma 90.000000
_cell_volume 2649.899591
_symmetry_space_group_name_H-M "C 2/M"
_symmetry_group_IT_number 12
_symmetry_cell_setting 'monoclinic'
loop_
_space_group_symop_operation_xyz
x,y,z
-x,y,-z
-x,-y,-z
x,-y,z
1/2+x,1/2+y,z
1/2-x,1/2+y,-z
1/2-x,1/2-y,-z
1/2+x,1/2-y,z
loop_
_atom_site_type_symbol
_atom_site_label
_atom_site_fract_x
_atom_site_fract_y
_atom_site_fract_z
Si Si1 0.596233 0.275440 0.428219
Si Si2 0.400644 0.334745 0.833997
Si Si3 0.575142 0.858708 0.099253
Si Si4 0.219792 0.781367 0.698288
Si Si5 0.589210 0.599804 0.641776
Si Si6 0.752660 0.099037 0.102519
Si Si7 0.876587 0.401064 0.197701
O O1 0.500000 0.229204 0.500000
O O2 0.617802 0.303466 0.283132
O O3 0.678389 0.218911 0.415944
O O4 0.585550 0.360156 0.516759
O O5 0.422338 0.247076 0.891915
O O6 0.490098 0.391974 0.764365
O O7 0.316392 0.382214 0.948946
O O8 0.650310 0.891697 0.134467
O O9 0.473660 0.889292 0.189006
O O10 0.603658 0.889981 0.952450
O O11 0.154199 0.837756 0.667095
O O12 0.222582 0.828511 0.820281
O O13 0.186532 0.680416 0.725792
O O14 0.619585 0.500000 0.621289
O O15 0.768604 0.000000 0.134314
O O16 0.842293 0.500000 0.243501
#
# Coordination Sequence:
#
# PCOD9218229 Si02
#       7
#     8   8   8   8   8   8   8
#     4  10  24  43  69  90 118 174 226 270 320 371
#     4  11  21  41  66  96 132 174 212 267 334 381
#     4  11  20  40  59  92 135 170 216 261 315 387
#     4  12  23  43  67  95 137 168 211 274 329 396
#     4  11  25  44  66  95 130 175 223 270 320 384
#     4  12  24  38  65 101 137 174 208 261 333 402
#     4  11  23  38  64  96 131 176 215 260 322 385
#
# _framework density 21.132876
#
# number of rings (size 3 to 8) (size 9 to 14) (size 15 to 20)
#    0.000    0.857    4.286    4.286    0.000    4.286 
#    0.000    1.429    0.000    1.714    0.000    0.000 
#    0.000    0.000    0.000    0.000    0.000    0.000 
#
# Total GULP energy -156576.906814 kJ/mol
# GULP energy per Si atom -5592.032386 kJ/mol
# Density = 2.108478 g / cm^3
# Si number density = 21.132876 Si / 1000 Ang^3
#
#
#
# Elastic Constant Matrix: (Units=GPa)
#
#
# Indices 1 2 3 4 5 6 
#
# 1 128.5197 37.1555 33.7872 0.0000 -2.7581 0.0000
# 2 37.1555 117.0304 21.5454 0.0000 -3.0913 0.0000
# 3 33.7872 21.5454 62.8016 0.0000 -4.8259 0.0000
# 4 0.0000 0.0000 0.0000 12.7645 0.0000 -3.8156
# 5 -2.7581 -3.0913 -4.8259 0.0000 29.0948 0.0000
# 6 0.0000 0.0000 0.0000 -3.8156 0.0000 7.7607
#
#
#
# Elastic Compliance Matrix: (Units=1/GPa)
#
#
# Indices 1 2 3 4 5 6 
#
# 1 0.009580 -0.002235 -0.004392 0.000000 -0.000058 0.000000
# 2 -0.002235 0.009648 -0.002072 0.000000 0.000470 0.000000
# 3 -0.004392 -0.002072 0.019193 0.000000 0.002547 0.000000
# 4 0.000000 0.000000 0.000000 0.091840 0.000000 0.045154
# 5 -0.000058 0.000470 0.002547 0.000000 0.034837 0.000000
# 6 0.000000 0.000000 0.000000 0.045154 0.000000 0.151055
#
#
# Mechanical properties :
#
#
# Convention : Reuss Voigt Hill
#
# Bulk Modulus (GPa) = 47.56392 54.81421 51.18906
# Shear Modulus (GPa) = 14.68180 24.31490 19.49835
#
# Velocity S-wave (km/s) = 2.63865 3.39569 3.04082
# Velocity P-wave (km/s) = 5.64262 6.43183 6.05011
#
# Compressibility (1/GPa) = 0.02102434
#
# Stress axis : x y z
#
# Youngs Moduli (GPa) = 104.38047 103.64806 52.10361
#
# Poissons Ratio (x) = 0.23161 0.22884
# Poissons Ratio (y) = 0.23325 0.10794
# Poissons Ratio (z) = 0.45844 0.21473
#
# Static dielectric constant tensor:
#      x y z
#    x 1.779720 0.000000 -0.004460 
#    y 0.000000 1.746730 0.000000 
#    z -0.004460 0.000000 1.760530 
# 
# From -- ./inp_files/156519.got.cif
#   From: 2010.05.17/outbox.cif.g08.bks.cpg/sg12_79_cif.got.tgz:156519.got - 2010.06.03 13:09:07.
