data_PCOD9218624
_publ_section_title
;
Structure prediction by ZEFSAII (Michael W. Deem and Ramdas Pophale) SiO2 
 PCOD9218624
Probable space group: C 2/M
;
_chemical_formula_sum "Si O2"
_cell_formula_units_Z 52
_cell_length_a 11.043716
_cell_length_b 20.739975
_cell_length_c 12.089628
_cell_angle_alpha 90.000000
_cell_angle_beta 124.734694
_cell_angle_gamma 90.000000
_cell_volume 2275.632347
_symmetry_space_group_name_H-M "C 2/M"
_symmetry_group_IT_number 12
_symmetry_cell_setting 'monoclinic'
loop_
_space_group_symop_operation_xyz
x,y,z
-x,y,-z
-x,-y,-z
x,-y,z
1/2+x,1/2+y,z
1/2-x,1/2+y,-z
1/2-x,1/2-y,-z
1/2+x,1/2-y,z
loop_
_atom_site_type_symbol
_atom_site_label
_atom_site_fract_x
_atom_site_fract_y
_atom_site_fract_z
Si Si1 0.176547 0.500000 0.966242
Si Si2 0.235514 0.620820 0.406204
Si Si3 0.827824 0.500000 0.771327
Si Si4 0.932640 0.665910 0.344425
Si Si5 0.273213 0.705760 0.232487
Si Si6 0.637103 0.379741 0.924768
Si Si7 0.182489 0.924250 0.310204
Si Si8 0.500000 0.728294 0.000000
O O1 0.197108 0.500000 0.110591
O O2 0.255642 0.434189 0.970793
O O3 0.004879 0.500000 0.848910
O O4 0.239797 0.561082 0.325320
O O5 0.298388 0.680381 0.369573
O O6 0.311384 0.603637 0.561461
O O7 0.064609 0.635056 0.344200
O O8 0.873640 0.732117 0.263217
O O9 0.800211 0.616549 0.301319
O O10 0.000000 0.680777 0.500000
O O11 0.302257 0.650779 0.157172
O O12 0.104227 0.728430 0.130669
O O13 0.480039 0.413189 0.821144
O O14 0.605433 0.318847 0.985832
O O15 0.220156 0.000000 0.331665
#
# Coordination Sequence:
#
# PCOD9218624 Si02
#       8
#     4   8   4   8   8   8   8   4
#     4  11  26  44  69  97 142 175 233 282 331 406
#     4  11  25  43  74  99 135 183 226 280 344 405
#     4  11  24  45  66 103 133 185 227 274 341 403
#     4  10  25  42  66 100 136 180 224 274 338 404
#     4  12  26  45  70 100 136 178 230 283 336 413
#     4  12  26  46  69 101 137 179 228 286 340 404
#     4  11  24  46  69 103 142 174 228 285 342 404
#     4  12  28  47  68  95 140 188 228 274 346 402
#
# _framework density 22.850791000000001
#
# number of rings (size 3 to 8) (size 9 to 14) (size 15 to 20)
#    0.000    0.769    4.615    1.385    7.538    2.462 
#    0.000    1.538    0.000    0.000    0.000    0.000 
#    0.000    0.000    0.000    0.000    0.000    0.000 
#
# Total GULP energy -145653.999310 kJ/mol
# GULP energy per Si atom -5602.076897 kJ/mol
# Density = 2.279878 g / cm^3
# Si number density = 22.850791 Si / 1000 Ang^3
#
#
#
# Elastic Constant Matrix: (Units=GPa)
#
#
# Indices 1 2 3 4 5 6 
#
# 1 47.6807 16.8807 1.0413 0.0000 -7.6914 0.0000
# 2 16.8807 100.4071 8.8247 0.0000 -4.1501 0.0000
# 3 1.0413 8.8247 57.4888 0.0000 -1.4421 0.0000
# 4 0.0000 0.0000 0.0000 15.4958 0.0000 6.6235
# 5 -7.6914 -4.1501 -1.4421 0.0000 33.9137 0.0000
# 6 0.0000 0.0000 0.0000 6.6235 0.0000 27.0485
#
#
#
# Elastic Compliance Matrix: (Units=1/GPa)
#
#
# Indices 1 2 3 4 5 6 
#
# 1 0.023049 -0.003701 0.000271 0.000000 0.004786 0.000000
# 2 -0.003701 0.010737 -0.001571 0.000000 0.000408 0.000000
# 3 0.000271 -0.001571 0.017646 0.000000 0.000620 0.000000
# 4 0.000000 0.000000 0.000000 0.072078 0.000000 -0.017650
# 5 0.004786 0.000408 0.000620 0.000000 0.030648 0.000000
# 6 0.000000 0.000000 0.000000 -0.017650 0.000000 0.041293
#
#
# Mechanical properties :
#
#
# Convention : Reuss Voigt Hill
#
# Bulk Modulus (GPa) = 24.13716 28.78555 26.46136
# Shear Modulus (GPa) = 22.80358 27.21358 25.00858
#
# Velocity S-wave (km/s) = 3.16244 3.45472 3.31181
# Velocity P-wave (km/s) = 4.89086 5.34210 5.12145
#
# Compressibility (1/GPa) = 0.04142990
#
# Stress axis : x y z
#
# Youngs Moduli (GPa) = 43.38528 93.13930 56.66863
#
# Poissons Ratio (x) = 0.34472 -0.01534
# Poissons Ratio (y) = 0.16057 0.08902
# Poissons Ratio (z) = -0.01174 0.14631
#
# Static dielectric constant tensor:
#      x y z
#    x 1.819210 0.000000 -0.014980 
#    y 0.000000 1.824800 0.000000 
#    z -0.014980 0.000000 1.821680 
# 
# From -- ./inp_files/134064.got.cif
#   From: 2010.05.17/outbox.cif.g08.bks.cpg/sg12_68_cif.got.tgz:134064.got - 2010.06.03 13:09:07.
