data_PCOD9218119
_publ_section_title
;
Structure prediction by ZEFSAII (Michael W. Deem and Ramdas Pophale) SiO2 
 PCOD9218119
Probable space group: C 2/M
;
_chemical_formula_sum "Si O2"
_cell_formula_units_Z 36
_cell_length_a 27.559681
_cell_length_b 15.149127
_cell_length_c 8.597972
_cell_angle_alpha 90.000000
_cell_angle_beta 29.863469
_cell_angle_gamma 90.000000
_cell_volume 1787.435590
_symmetry_space_group_name_H-M "C 2/M"
_symmetry_group_IT_number 12
_symmetry_cell_setting 'monoclinic'
loop_
_space_group_symop_operation_xyz
x,y,z
-x,y,-z
-x,-y,-z
x,-y,z
1/2+x,1/2+y,z
1/2-x,1/2+y,-z
1/2-x,1/2-y,-z
1/2+x,1/2-y,z
loop_
_atom_site_type_symbol
_atom_site_label
_atom_site_fract_x
_atom_site_fract_y
_atom_site_fract_z
Si Si1 0.214106 0.339285 0.185321
Si Si2 0.956944 0.000000 0.864587
Si Si3 0.345928 0.500000 0.866176
Si Si4 0.156483 0.714005 0.669446
Si Si5 0.497719 0.104525 0.691997
Si Si6 0.500000 0.648455 0.000000
O O1 0.205010 0.339959 0.396609
O O2 0.105747 0.365473 0.436858
O O3 0.250000 0.250000 0.000000
O O4 0.291288 0.416148 0.945469
O O5 0.864228 0.000000 0.004068
O O6 0.048672 0.000000 0.499146
O O7 0.972910 0.915255 0.931183
O O8 0.250000 0.750000 0.500000
O O9 0.092845 0.786174 0.749752
O O10 0.082795 0.661321 0.989069
O O11 0.500000 0.117372 0.500000
O O12 0.483060 0.000000 0.765578
#
# Coordination Sequence:
#
# PCOD9218119 Si02
#       6
#     8   4   4   8   8   4
#     4  12  24  43  70 101 139 182 232 287 347 422
#     4  10  24  42  66  94 138 176 227 287 337 416
#     4  11  24  42  66 100 133 183 234 279 355 409
#     4  12  25  44  71 102 137 180 230 286 351 417
#     4  11  25  46  69  98 137 182 232 290 350 420
#     4  11  22  46  65  98 134 178 223 284 346 411
#
# _framework density 20.140585000000002
#
# number of rings (size 3 to 8) (size 9 to 14) (size 15 to 20)
#    0.000    0.667    3.333    4.000    1.556    0.889 
#    4.000    0.000    0.000    0.000    0.000    0.000 
#    0.000    0.000    0.000    0.000    0.000    0.000 
#
# Total GULP energy -100304.989791 kJ/mol
# GULP energy per Si atom -5572.499433 kJ/mol
# Density = 2.009474 g / cm^3
# Si number density = 20.140585 Si / 1000 Ang^3
#
#
#
# Elastic Constant Matrix: (Units=GPa)
#
#
# Indices 1 2 3 4 5 6 
#
# 1 116.3172 43.5281 33.8989 0.0000 -18.6105 0.0000
# 2 43.5281 116.6605 51.8805 0.0000 -2.7508 0.0000
# 3 33.8989 51.8805 106.2879 0.0000 -8.5919 0.0000
# 4 0.0000 0.0000 0.0000 42.6665 0.0000 -7.7229
# 5 -18.6105 -2.7508 -8.5919 0.0000 44.4976 0.0000
# 6 0.0000 0.0000 0.0000 -7.7229 0.0000 18.8881
#
#
#
# Elastic Compliance Matrix: (Units=1/GPa)
#
#
# Indices 1 2 3 4 5 6 
#
# 1 0.010933 -0.003294 -0.001550 0.000000 0.004070 0.000000
# 2 -0.003294 0.011947 -0.004909 0.000000 -0.001587 0.000000
# 3 -0.001550 -0.004909 0.012416 0.000000 0.001446 0.000000
# 4 0.000000 0.000000 0.000000 0.025311 0.000000 0.010349
# 5 0.004070 -0.001587 0.001446 0.000000 0.024356 0.000000
# 6 0.000000 0.000000 0.000000 0.010349 0.000000 0.057175
#
#
# Mechanical properties :
#
#
# Convention : Reuss Voigt Hill
#
# Bulk Modulus (GPa) = 63.33483 66.43116 64.88300
# Shear Modulus (GPa) = 29.95702 35.20764 32.58233
#
# Velocity S-wave (km/s) = 3.86086 4.18556 4.02648
# Velocity P-wave (km/s) = 7.16866 7.51092 7.34178
#
# Compressibility (1/GPa) = 0.01578910
#
# Stress axis : x y z
#
# Youngs Moduli (GPa) = 91.46890 83.70600 80.54261
#
# Poissons Ratio (x) = 0.27572 0.12485
# Poissons Ratio (y) = 0.30129 0.39539
# Poissons Ratio (z) = 0.14178 0.41091
#
# Static dielectric constant tensor:
#      x y z
#    x 1.599780 0.000000 0.022480 
#    y 0.000000 1.723870 0.000000 
#    z 0.022480 0.000000 1.663660 
# 
# From -- ./inp_files/104898.got.cif
#   From: 2010.05.17/outbox.cif.g08.bks.cpg/sg12_53_cif.got.tgz:104898.got - 2010.06.03 13:09:07.
