data_PCOD9218982
_publ_section_title
;
Structure prediction by ZEFSAII (Michael W. Deem and Ramdas Pophale) SiO2 
 PCOD9218982
Probable space group: C 2/M
;
_chemical_formula_sum "Si O2"
_cell_formula_units_Z 56
_cell_length_a 14.089614
_cell_length_b 27.446172
_cell_length_c 11.220049
_cell_angle_alpha 90.000000
_cell_angle_beta 138.022453
_cell_angle_gamma 90.000000
_cell_volume 2902.000174
_symmetry_space_group_name_H-M "C 2/M"
_symmetry_group_IT_number 12
_symmetry_cell_setting 'monoclinic'
loop_
_space_group_symop_operation_xyz
x,y,z
-x,y,-z
-x,-y,-z
x,-y,z
1/2+x,1/2+y,z
1/2-x,1/2+y,-z
1/2-x,1/2-y,-z
1/2+x,1/2-y,z
loop_
_atom_site_type_symbol
_atom_site_label
_atom_site_fract_x
_atom_site_fract_y
_atom_site_fract_z
Si Si1 0.208343 0.444156 0.594485
Si Si2 0.243809 0.852313 0.038063
Si Si3 0.204945 0.844221 0.275500
Si Si4 0.041756 0.300047 0.358842
Si Si5 0.106760 0.554595 0.777016
Si Si6 0.863862 0.736052 0.793110
Si Si7 0.591840 0.299336 0.684361
O O1 0.258723 0.500000 0.618707
O O2 0.312408 0.397442 0.680423
O O3 0.157832 0.443054 0.686174
O O4 0.062687 0.435987 0.384346
O O5 0.179124 0.850099 0.110378
O O6 0.390041 0.822189 0.185089
O O7 0.299752 0.906533 0.066523
O O8 0.143943 0.830047 0.845105
O O9 0.369068 0.830252 0.461072
O O10 0.131275 0.793196 0.238987
O O11 0.133427 0.295461 0.324195
O O12 0.006613 0.245785 0.368938
O O13 0.129058 0.500000 0.840537
O O14 0.730110 0.723942 0.750630
O O15 0.000000 0.725249 0.000000
O O16 0.500000 0.327683 0.500000
#
# Coordination Sequence:
#
# PCOD9218982 Si02
#       7
#     8   8   8   8   8   8   8
#     4   8  14  25  46  76 108 137 169 213 269 330
#     4  11  19  33  55  77 111 145 177 223 276 322
#     4  11  20  33  53  80 113 145 175 217 281 326
#     4  12  21  36  54  81 113 149 178 223 269 328
#     4   8  14  25  46  78 107 133 172 218 270 325
#     4  12  24  37  53  78 114 152 189 223 260 321
#     4  12  24  39  54  75 110 151 189 226 267 315
#
# _framework density 19.297035000000001
#
# number of rings (size 3 to 8) (size 9 to 14) (size 15 to 20)
#    0.000    1.429    5.714    3.000    0.000    0.000 
#    0.000    0.000    0.000    0.857    0.000    4.000 
#    0.000    0.000    0.000    0.000    0.000    0.000 
#
# Total GULP energy -156206.439336 kJ/mol
# GULP energy per Si atom -5578.801405 kJ/mol
# Density = 1.925311 g / cm^3
# Si number density = 19.297035 Si / 1000 Ang^3
#
#
#
# Elastic Constant Matrix: (Units=GPa)
#
#
# Indices 1 2 3 4 5 6 
#
# 1 38.2303 -1.7694 0.2434 0.0000 -6.3208 0.0000
# 2 -1.7694 94.9858 38.8672 0.0000 -12.4598 0.0000
# 3 0.2434 38.8672 123.6886 0.0000 -13.4695 0.0000
# 4 0.0000 0.0000 0.0000 21.7894 0.0000 6.7093
# 5 -6.3208 -12.4598 -13.4695 0.0000 9.4119 0.0000
# 6 0.0000 0.0000 0.0000 6.7093 0.0000 9.2394
#
#
#
# Elastic Compliance Matrix: (Units=1/GPa)
#
#
# Indices 1 2 3 4 5 6 
#
# 1 0.030958 0.003487 0.001907 0.000000 0.028137 0.000000
# 2 0.003487 0.013860 -0.002498 0.000000 0.017115 0.000000
# 3 0.001907 -0.002498 0.010242 0.000000 0.012630 0.000000
# 4 0.000000 0.000000 0.000000 0.059111 0.000000 -0.042924
# 5 0.028137 0.017115 0.012630 0.000000 0.165876 0.000000
# 6 0.000000 0.000000 0.000000 -0.042924 0.000000 0.139403
#
#
# Mechanical properties :
#
#
# Convention : Reuss Voigt Hill
#
# Bulk Modulus (GPa) = 16.43322 36.84301 26.63812
# Shear Modulus (GPa) = 11.52227 22.72571 17.12399
#
# Velocity S-wave (km/s) = 2.44622 3.43546 2.98214
# Velocity P-wave (km/s) = 4.06362 5.90512 5.06871
#
# Compressibility (1/GPa) = 0.06085234
#
# Stress axis : x y z
#
# Youngs Moduli (GPa) = 32.30135 72.14883 97.64110
#
# Poissons Ratio (x) = -0.25159 -0.18624
# Poissons Ratio (y) = -0.11264 0.24395
# Poissons Ratio (z) = -0.06161 0.18026
#
# Static dielectric constant tensor:
#      x y z
#    x 1.701850 0.000000 0.013600 
#    y 0.000000 1.715730 0.000000 
#    z 0.013600 0.000000 1.689470 
# 
# From -- ./inp_files/149496.got.cif
#   From: 2010.05.17/outbox.cif.g08.bks.cpg/sg12_75_cif.got.tgz:149496.got - 2010.06.03 13:09:07.
