data_PCOD9218048
_publ_section_title
;
Structure prediction by ZEFSAII (Michael W. Deem and Ramdas Pophale) SiO2 
 PCOD9218048
Probable space group: C 2/M
;
_chemical_formula_sum "Si O2"
_cell_formula_units_Z 36
_cell_length_a 19.945867
_cell_length_b 14.356622
_cell_length_c 8.589972
_cell_angle_alpha 90.000000
_cell_angle_beta 139.097119
_cell_angle_gamma 90.000000
_cell_volume 1610.614318
_symmetry_space_group_name_H-M "C 2/M"
_symmetry_group_IT_number 12
_symmetry_cell_setting 'monoclinic'
loop_
_space_group_symop_operation_xyz
x,y,z
-x,y,-z
-x,-y,-z
x,-y,z
1/2+x,1/2+y,z
1/2-x,1/2+y,-z
1/2-x,1/2-y,-z
1/2+x,1/2-y,z
loop_
_atom_site_type_symbol
_atom_site_label
_atom_site_fract_x
_atom_site_fract_y
_atom_site_fract_z
Si Si1 0.385497 0.819497 0.632080
Si Si2 0.952767 0.796493 0.244006
Si Si3 0.210030 0.693793 0.206254
Si Si4 0.762153 0.500000 0.851957
Si Si5 0.994197 0.500000 0.676756
Si Si6 0.408248 0.500000 0.208782
O O1 0.464443 0.737760 0.733393
O O2 0.280783 0.781121 0.373143
O O3 0.361989 0.829342 0.772666
O O4 0.433952 0.910682 0.638380
O O5 0.000000 0.791051 0.500000
O O6 0.921062 0.901413 0.149250
O O7 0.858163 0.725424 0.059563
O O8 0.270455 0.598307 0.280188
O O9 0.704613 0.500000 0.914587
O O10 0.885708 0.500000 0.064632
O O11 0.000000 0.500000 0.500000
O O12 0.500000 0.500000 0.500000
#
# Coordination Sequence:
#
# PCOD9218048 Si02
#       6
#     8   8   8   4   4   4
#     4  11  25  45  66 101 139 179 228 278 347 410
#     4  11  23  42  67  96 135 177 227 287 335 407
#     4  11  25  43  71  97 137 183 225 281 344 416
#     4  12  25  42  72  98 134 183 225 279 353 395
#     4  12  27  43  70 107 137 174 233 291 337 405
#     4  10  24  41  63  99 135 176 224 280 342 407
#
# _framework density 22.351718999999999
#
# number of rings (size 3 to 8) (size 9 to 14) (size 15 to 20)
#    0.000    0.889    2.222    4.667    3.111    2.667 
#    0.000    4.444    0.000    0.000    0.000    0.000 
#    0.000    0.000    0.000    0.000    0.000    0.000 
#
# Total GULP energy -100627.116824 kJ/mol
# GULP energy per Si atom -5590.395379 kJ/mol
# Density = 2.230085 g / cm^3
# Si number density = 22.351719 Si / 1000 Ang^3
#
#
#
# Elastic Constant Matrix: (Units=GPa)
#
#
# Indices 1 2 3 4 5 6 
#
# 1 112.5968 75.1070 8.3302 0.0000 12.9121 0.0000
# 2 75.1070 189.4839 27.1557 0.0000 -2.2088 0.0000
# 3 8.3302 27.1557 79.2222 0.0000 -4.6608 0.0000
# 4 0.0000 0.0000 0.0000 12.8809 0.0000 12.9131
# 5 12.9121 -2.2088 -4.6608 0.0000 20.9295 0.0000
# 6 0.0000 0.0000 0.0000 12.9131 0.0000 37.0018
#
#
#
# Elastic Compliance Matrix: (Units=1/GPa)
#
#
# Indices 1 2 3 4 5 6 
#
# 1 0.013563 -0.005469 -0.000079 0.000000 -0.008962 0.000000
# 2 -0.005469 0.007756 -0.001861 0.000000 0.003778 0.000000
# 3 -0.000079 -0.001861 0.013436 0.000000 0.002844 0.000000
# 4 0.000000 0.000000 0.000000 0.119411 0.000000 -0.041673
# 5 -0.008962 0.003778 0.002844 0.000000 0.054341 0.000000
# 6 0.000000 0.000000 0.000000 -0.041673 0.000000 0.041569
#
#
# Mechanical properties :
#
#
# Convention : Reuss Voigt Hill
#
# Bulk Modulus (GPa) = 50.15766 66.94319 58.55043
# Shear Modulus (GPa) = 18.41346 32.20978 25.31162
#
# Velocity S-wave (km/s) = 2.87331 3.80022 3.36880
# Velocity P-wave (km/s) = 5.78764 7.01930 6.43301
#
# Compressibility (1/GPa) = 0.01993713
#
# Stress axis : x y z
#
# Youngs Moduli (GPa) = 73.72965 128.92952 74.42501
#
# Poissons Ratio (x) = 0.70515 0.00585
# Poissons Ratio (y) = 0.40325 0.13853
# Poissons Ratio (z) = 0.00580 0.23997
#
# Static dielectric constant tensor:
#      x y z
#    x 1.791530 0.000000 0.031870 
#    y 0.000000 1.821620 0.000000 
#    z 0.031870 0.000000 1.887290 
# 
# From -- ./inp_files/86456.got.cif
#   From: 2010.05.17/outbox.cif.g08.bks.cpg/sg12_44_cif.got.tgz:86456.got - 2010.06.03 13:09:07.
