data_PCOD9218551
_publ_section_title
;
Structure prediction by ZEFSAII (Michael W. Deem and Ramdas Pophale) SiO2 
 PCOD9218551
Probable space group: C 2/M
;
_chemical_formula_sum "Si O2"
_cell_formula_units_Z 30
_cell_length_a 5.054046
_cell_length_b 26.631681
_cell_length_c 10.585839
_cell_angle_alpha 90.000000
_cell_angle_beta 105.568619
_cell_angle_gamma 90.000000
_cell_volume 1372.552588
_symmetry_space_group_name_H-M "C 2/M"
_symmetry_group_IT_number 12
_symmetry_cell_setting 'monoclinic'
loop_
_space_group_symop_operation_xyz
x,y,z
-x,y,-z
-x,-y,-z
x,-y,z
1/2+x,1/2+y,z
1/2-x,1/2+y,-z
1/2-x,1/2-y,-z
1/2+x,1/2-y,z
loop_
_atom_site_type_symbol
_atom_site_label
_atom_site_fract_x
_atom_site_fract_y
_atom_site_fract_z
Si Si1 0.698748 0.000000 0.408020
Si Si2 0.000000 0.500000 0.000000
Si Si3 0.721522 0.854033 0.760730
Si Si4 0.500000 0.787373 0.500000
Si Si5 0.254091 0.418100 0.205398
Si Si6 0.000000 0.785403 0.000000
O O1 0.500000 0.000000 0.500000
O O2 0.671894 0.048222 0.315733
O O3 0.000000 0.000000 0.500000
O O4 0.794364 0.455503 0.917537
O O5 0.593502 0.823233 0.627550
O O6 0.471846 0.874242 0.815063
O O7 0.911352 0.818942 0.870785
O O8 0.935616 0.897746 0.746753
O O9 0.250000 0.750000 0.500000
O O10 0.750000 0.750000 0.000000
#
# Coordination Sequence:
#
# PCOD9218551 Si02
#       6
#     4   2   8   4   8   4
#     4  11  24  41  64  93 138 172 220 267 329 390
#     4  10  24  48  68 100 146 176 230 274 362 396
#     4  12  25  43  70 101 134 177 237 278 340 417
#     4  12  26  46  68  97 140 183 224 288 358 410
#     4  11  25  42  69  99 133 182 221 284 329 410
#     4  12  24  43  68  97 134 173 226 289 348 402
#
# _framework density 21.857084
#
# number of rings (size 3 to 8) (size 9 to 14) (size 15 to 20)
#    0.000    0.533    0.000    8.000    5.600    4.267 
#    0.000    0.000    0.000    0.000    0.000    0.000 
#    0.000    0.000    0.000    0.000    0.000    0.000 
#
# Total GULP energy -83672.870702 kJ/mol
# GULP energy per Si atom -5578.191380 kJ/mol
# Density = 2.180734 g / cm^3
# Si number density = 21.857084 Si / 1000 Ang^3
#
#
#
# Elastic Constant Matrix: (Units=GPa)
#
#
# Indices 1 2 3 4 5 6 
#
# 1 157.2943 43.5684 13.6321 0.0000 16.5177 0.0000
# 2 43.5684 104.8889 46.3723 0.0000 17.3039 0.0000
# 3 13.6321 46.3723 110.5447 0.0000 28.0462 0.0000
# 4 0.0000 0.0000 0.0000 34.8954 0.0000 45.7316
# 5 16.5177 17.3039 28.0462 0.0000 33.3467 0.0000
# 6 0.0000 0.0000 0.0000 45.7316 0.0000 30.2969
#
#
#
# Elastic Compliance Matrix: (Units=1/GPa)
#
#
# Indices 1 2 3 4 5 6 
#
# 1 0.007435 -0.003096 0.001155 0.000000 -0.003048 0.000000
# 2 -0.003096 0.013157 -0.004823 0.000000 -0.001237 0.000000
# 3 0.001155 -0.004823 0.013268 0.000000 -0.009229 0.000000
# 4 0.000000 0.000000 0.000000 -0.029296 0.000000 0.044221
# 5 -0.003048 -0.001237 -0.009229 0.000000 0.039901 0.000000
# 6 0.000000 0.000000 0.000000 0.044221 0.000000 -0.033743
#
#
# Mechanical properties :
#
#
# Convention : Reuss Voigt Hill
#
# Bulk Modulus (GPa) = 49.18605 64.43038 56.80822
# Shear Modulus (GPa) = 161.14448 37.65148 99.39798
#
# Velocity S-wave (km/s) = 8.59572 4.15495 6.75093
# Velocity P-wave (km/s) = 11.00307 7.24984 9.31740
#
# Compressibility (1/GPa) = 0.02033097
#
# Stress axis : x y z
#
# Youngs Moduli (GPa) = 134.49778 76.00797 75.36678
#
# Poissons Ratio (x) = 0.23534 -0.08707
# Poissons Ratio (y) = 0.41644 0.36353
# Poissons Ratio (z) = -0.15537 0.36662
#
# Static dielectric constant tensor:
#      x y z
#    x 1.759890 0.000000 -0.008700 
#    y 0.000000 1.622630 0.000000 
#    z -0.008700 0.000000 1.782840 
# 
# From -- ./inp_files/114575.got.cif
#   From: 2010.05.17/outbox.cif.g08.bks.cpg/sg12_58_cif.got.tgz:114575.got - 2010.06.03 13:09:07.
