data_PCOD9218461
_publ_section_title
;
Structure prediction by ZEFSAII (Michael W. Deem and Ramdas Pophale) SiO2 
 PCOD9218461
Probable space group: C 2/M
;
_chemical_formula_sum "Si O2"
_cell_formula_units_Z 56
_cell_length_a 28.772690
_cell_length_b 21.720742
_cell_length_c 8.845698
_cell_angle_alpha 90.000000
_cell_angle_beta 30.304305
_cell_angle_gamma 90.000000
_cell_volume 2789.510615
_symmetry_space_group_name_H-M "C 2/M"
_symmetry_group_IT_number 12
_symmetry_cell_setting 'monoclinic'
loop_
_space_group_symop_operation_xyz
x,y,z
-x,y,-z
-x,-y,-z
x,-y,z
1/2+x,1/2+y,z
1/2-x,1/2+y,-z
1/2-x,1/2-y,-z
1/2+x,1/2-y,z
loop_
_atom_site_type_symbol
_atom_site_label
_atom_site_fract_x
_atom_site_fract_y
_atom_site_fract_z
Si Si1 0.162733 0.285206 0.814591
Si Si2 0.749555 0.182529 0.077484
Si Si3 0.890575 0.368296 0.312782
Si Si4 0.896151 0.500000 0.227046
Si Si5 0.264816 0.887251 0.175246
Si Si6 0.085101 0.168369 0.149024
Si Si7 0.912934 0.926916 0.133056
Si Si8 0.898009 0.500000 0.855942
O O1 0.250000 0.250000 0.500000
O O2 0.135263 0.333739 0.766504
O O3 0.192521 0.324892 0.874810
O O4 0.084987 0.234793 0.066634
O O5 0.650854 0.167802 0.429436
O O6 0.750000 0.250000 0.000000
O O7 0.768767 0.131776 0.895811
O O8 0.823095 0.173748 0.005689
O O9 0.851254 0.437499 0.413557
O O10 0.000000 0.371736 0.000000
O O11 0.899824 0.500000 0.034410
O O12 0.000000 0.500000 0.000000
O O13 0.180083 0.909816 0.515554
O O14 0.341849 0.940018 0.960192
O O15 0.000000 0.160642 0.500000
O O16 0.085507 0.115351 0.021096
O O17 0.913165 0.000000 0.097134
O O18 0.000000 0.914520 0.000000
O O19 0.000000 0.500000 0.500000
#
# Coordination Sequence:
#
# PCOD9218461 Si02
#       8
#     8   8   8   4   8   8   8   4
#     4  12  22  44  68  98 137 182 228 276 342 415
#     4  12  26  45  64 103 145 176 232 284 338 414
#     4  11  25  42  71  98 135 184 223 282 341 404
#     4  10  24  46  68  99 136 172 237 272 340 406
#     4  12  24  44  72  99 141 185 225 284 352 409
#     4  12  27  46  73 104 139 181 233 295 348 410
#     4  11  25  49  77 103 136 182 238 290 355 419
#     4  12  28  44  71 105 141 182 235 287 342 423
#
# _framework density 20.075206000000001
#
# number of rings (size 3 to 8) (size 9 to 14) (size 15 to 20)
#    0.000    0.429    6.429    0.857    6.000    1.429 
#    1.286    0.000    0.000    0.000    0.000    0.000 
#    0.000    0.000    0.000    0.000    0.000    0.000 
#
# Total GULP energy -156528.712418 kJ/mol
# GULP energy per Si atom -5590.311158 kJ/mol
# Density = 2.002951 g / cm^3
# Si number density = 20.075206 Si / 1000 Ang^3
#
#
#
# Elastic Constant Matrix: (Units=GPa)
#
#
# Indices 1 2 3 4 5 6 
#
# 1 91.5101 71.1628 20.3553 0.0000 9.0499 0.0000
# 2 71.1628 151.5541 56.7170 0.0000 4.4268 0.0000
# 3 20.3553 56.7170 136.6609 0.0000 5.3415 0.0000
# 4 0.0000 0.0000 0.0000 19.0797 0.0000 -2.2752
# 5 9.0499 4.4268 5.3415 0.0000 28.7669 0.0000
# 6 0.0000 0.0000 0.0000 -2.2752 0.0000 34.1800
#
#
#
# Elastic Compliance Matrix: (Units=1/GPa)
#
#
# Indices 1 2 3 4 5 6 
#
# 1 0.017873 -0.008678 0.001115 0.000000 -0.004494 0.000000
# 2 -0.008678 0.012036 -0.003764 0.000000 0.001577 0.000000
# 3 0.001115 -0.003764 0.008768 0.000000 -0.001400 0.000000
# 4 0.000000 0.000000 0.000000 0.052831 0.000000 0.003517
# 5 -0.004494 0.001577 -0.001400 0.000000 0.036193 0.000000
# 6 0.000000 0.000000 0.000000 0.003517 0.000000 0.029491
#
#
# Mechanical properties :
#
#
# Convention : Reuss Voigt Hill
#
# Bulk Modulus (GPa) = 62.41272 75.13282 68.77277
# Shear Modulus (GPa) = 26.99966 31.83799 29.41882
#
# Velocity S-wave (km/s) = 3.67130 3.98670 3.83225
# Velocity P-wave (km/s) = 7.00915 7.66150 7.34258
#
# Compressibility (1/GPa) = 0.01602237
#
# Stress axis : x y z
#
# Youngs Moduli (GPa) = 55.95082 83.08506 114.04885
#
# Poissons Ratio (x) = 0.72104 -0.12719
# Poissons Ratio (y) = 0.48556 0.42930
# Poissons Ratio (z) = -0.06240 0.31274
#
# Static dielectric constant tensor:
#      x y z
#    x 1.721000 0.000000 0.001250 
#    y 0.000000 1.722750 0.000000 
#    z 0.001250 0.000000 1.695260 
# 
# From -- ./inp_files/113377.got.cif
#   From: 2010.05.17/outbox.cif.g08.bks.cpg/sg12_57_cif.got.tgz:113377.got - 2010.06.03 13:09:07.
