data_PCOD9218385
_publ_section_title
;
Structure prediction by ZEFSAII (Michael W. Deem and Ramdas Pophale) SiO2 
 PCOD9218385
Probable space group: C 2/M
;
_chemical_formula_sum "Si O2"
_cell_formula_units_Z 40
_cell_length_a 24.263020
_cell_length_b 8.869107
_cell_length_c 9.731436
_cell_angle_alpha 90.000000
_cell_angle_beta 76.571045
_cell_angle_gamma 90.000000
_cell_volume 2036.864455
_symmetry_space_group_name_H-M "C 2/M"
_symmetry_group_IT_number 12
_symmetry_cell_setting 'monoclinic'
loop_
_space_group_symop_operation_xyz
x,y,z
-x,y,-z
-x,-y,-z
x,-y,z
1/2+x,1/2+y,z
1/2-x,1/2+y,-z
1/2-x,1/2-y,-z
1/2+x,1/2-y,z
loop_
_atom_site_type_symbol
_atom_site_label
_atom_site_fract_x
_atom_site_fract_y
_atom_site_fract_z
Si Si1 0.417590 0.320205 0.409050
Si Si2 0.890149 0.679675 0.710676
Si Si3 0.009645 0.319033 0.152319
Si Si4 0.699847 0.821457 0.618580
Si Si5 0.730443 0.677721 0.152837
O O1 0.418744 0.500000 0.417237
O O2 0.420437 0.250808 0.560227
O O3 0.466227 0.260221 0.280575
O O4 0.357986 0.262563 0.382250
O O5 0.886848 0.500000 0.694346
O O6 0.827435 0.746523 0.761134
O O7 0.927638 0.710850 0.824502
O O8 0.000338 0.500000 0.164995
O O9 0.000000 0.272595 0.000000
O O10 0.750000 0.750000 0.500000
O O11 0.720228 0.803742 0.763166
O O12 0.694051 0.000000 0.592270
O O13 0.720082 0.500000 0.142604
O O14 0.750000 0.750000 0.000000
#
# Coordination Sequence:
#
# PCOD9218385 Si02
#       5
#     8   8   8   8   8
#     4  12  25  41  65  96 129 168 211 262 317 375
#     4  11  23  42  68  94 125 168 215 263 316 375
#     4  10  24  45  67  93 125 164 211 264 320 378
#     4  11  23  41  66  95 128 167 212 258 311 375
#     4  11  25  42  64  95 132 169 209 258 316 379
#
# _framework density 19.638027000000001
#
# number of rings (size 3 to 8) (size 9 to 14) (size 15 to 20)
#    0.000    1.000    2.000    4.200    2.800    6.800 
#    0.000    0.000    0.000    0.000    0.000    0.000 
#    0.000    0.000    0.000    0.000    0.000    0.000 
#
# Total GULP energy -111898.743723 kJ/mol
# GULP energy per Si atom -5594.937186 kJ/mol
# Density = 1.959333 g / cm^3
# Si number density = 19.638027 Si / 1000 Ang^3
#
#
#
# Elastic Constant Matrix: (Units=GPa)
#
#
# Indices 1 2 3 4 5 6 
#
# 1 74.0812 26.4978 19.2533 0.0000 18.1668 0.0000
# 2 26.4978 77.9329 44.4781 0.0000 18.8325 0.0000
# 3 19.2533 44.4781 120.6435 0.0000 16.1613 0.0000
# 4 0.0000 0.0000 0.0000 34.1025 0.0000 -6.6205
# 5 18.1668 18.8325 16.1613 0.0000 31.9115 0.0000
# 6 0.0000 0.0000 0.0000 -6.6205 0.0000 32.1300
#
#
#
# Elastic Compliance Matrix: (Units=1/GPa)
#
#
# Indices 1 2 3 4 5 6 
#
# 1 0.016672 -0.003770 -0.000319 0.000000 -0.007105 0.000000
# 2 -0.003770 0.018721 -0.005480 0.000000 -0.006127 0.000000
# 3 -0.000319 -0.005480 0.010623 0.000000 -0.001965 0.000000
# 4 0.000000 0.000000 0.000000 0.030545 0.000000 0.006294
# 5 -0.007105 -0.006127 -0.001965 0.000000 0.039992 0.000000
# 6 0.000000 0.000000 0.000000 0.006294 0.000000 0.032420
#
#
# Mechanical properties :
#
#
# Convention : Reuss Voigt Hill
#
# Bulk Modulus (GPa) = 37.20251 50.34622 43.77437
# Shear Modulus (GPa) = 28.23713 31.79069 30.01391
#
# Velocity S-wave (km/s) = 3.79605 4.02784 3.91366
# Velocity P-wave (km/s) = 6.18050 6.87925 6.53921
#
# Compressibility (1/GPa) = 0.02687990
#
# Stress axis : x y z
#
# Youngs Moduli (GPa) = 59.97952 53.41514 94.13361
#
# Poissons Ratio (x) = 0.20136 0.03004
# Poissons Ratio (y) = 0.22610 0.51582
# Poissons Ratio (z) = 0.01914 0.29270
#
# Static dielectric constant tensor:
#      x y z
#    x 1.662570 0.000000 0.029600 
#    y 0.000000 1.655460 0.000000 
#    z 0.029600 0.000000 1.670290 
# 
# From -- ./inp_files/92783.got.cif
#   From: 2010.05.17/outbox.cif.g08.bks.cpg/sg12_47_cif.got.tgz:92783.got - 2010.06.03 13:09:07.
