data_PCOD9218010
_publ_section_title
;
Structure prediction by ZEFSAII (Michael W. Deem and Ramdas Pophale) SiO2 
 PCOD9218010
Probable space group: C 2/M
;
_chemical_formula_sum "Si O2"
_cell_formula_units_Z 44
_cell_length_a 15.996512
_cell_length_b 11.940225
_cell_length_c 27.258589
_cell_angle_alpha 90.000000
_cell_angle_beta 151.552614
_cell_angle_gamma 90.000000
_cell_volume 2480.097549
_symmetry_space_group_name_H-M "C 2/M"
_symmetry_group_IT_number 12
_symmetry_cell_setting 'monoclinic'
loop_
_space_group_symop_operation_xyz
x,y,z
-x,y,-z
-x,-y,-z
x,-y,z
1/2+x,1/2+y,z
1/2-x,1/2+y,-z
1/2-x,1/2-y,-z
1/2+x,1/2-y,z
loop_
_atom_site_type_symbol
_atom_site_label
_atom_site_fract_x
_atom_site_fract_y
_atom_site_fract_z
Si Si1 0.139714 0.257432 0.870389
Si Si2 0.337391 0.500000 0.450888
Si Si3 0.523724 0.731582 0.112093
Si Si4 0.325720 0.628948 0.214351
Si Si5 0.439178 0.000000 0.210137
Si Si6 0.169695 0.125825 0.459318
Si Si7 0.618154 0.500000 0.110446
O O1 0.131285 0.193368 0.814157
O O2 0.114525 0.388716 0.846426
O O3 0.001757 0.228799 0.842292
O O4 0.333996 0.236507 0.991974
O O5 0.500000 0.500000 0.500000
O O6 0.359718 0.605240 0.498376
O O7 0.145441 0.500000 0.328062
O O8 0.668687 0.813741 0.163875
O O9 0.573026 0.609691 0.117536
O O10 0.281183 0.500000 0.180228
O O11 0.496228 0.630702 0.336981
O O12 0.320622 0.000000 0.198040
O O13 0.250000 0.250000 0.500000
O O14 0.254546 0.000000 0.489927
O O15 0.500000 0.500000 0.000000
#
# Coordination Sequence:
#
# PCOD9218010 Si02
#       7
#     8   4   8   8   4   8   4
#     4  11  24  38  61  92 125 166 209 254 316 378
#     4  10  24  40  67  92 119 160 222 275 318 383
#     4  11  24  38  60  92 125 165 213 254 305 381
#     4  11  23  41  61  87 129 166 202 256 315 376
#     4  12  22  40  68  86 120 168 212 266 316 364
#     4   9  21  40  63  91 119 160 208 259 320 376
#     4  12  20  42  63  88 123 166 214 263 302 377
#
# _framework density 17.741237000000002
#
# number of rings (size 3 to 8) (size 9 to 14) (size 15 to 20)
#    0.545    0.727    3.636    1.636    5.091    1.455 
#    0.000    0.000    0.000    0.545    0.000    0.000 
#    0.000    0.000    0.000    0.000    0.000    0.000 
#
# Total GULP energy -122530.221014 kJ/mol
# GULP energy per Si atom -5569.555501 kJ/mol
# Density = 1.770086 g / cm^3
# Si number density = 17.741237 Si / 1000 Ang^3
#
#
#
# Elastic Constant Matrix: (Units=GPa)
#
#
# Indices 1 2 3 4 5 6 
#
# 1 122.8444 67.5177 31.9416 0.0000 21.6733 0.0000
# 2 67.5177 159.8311 27.4932 -0.0001 13.5083 0.0000
# 3 31.9416 27.4932 68.0701 -0.0001 2.6269 -0.0002
# 4 0.0000 -0.0001 -0.0001 8.6754 -0.0002 -5.7705
# 5 21.6733 13.5083 2.6269 -0.0002 12.5548 -0.0002
# 6 0.0000 0.0000 -0.0002 -5.7705 -0.0002 20.7122
#
#
#
# Elastic Compliance Matrix: (Units=1/GPa)
#
#
# Indices 1 2 3 4 5 6 
#
# 1 0.015214 -0.003816 -0.004781 -0.000001 -0.021157 0.000000
# 2 -0.003816 0.008295 -0.001481 0.000000 -0.002027 0.000000
# 3 -0.004781 -0.001481 0.017292 0.000000 0.006229 0.000000
# 4 -0.000001 0.000000 0.000000 0.141489 0.000003 0.039419
# 5 -0.021157 -0.002027 0.006229 0.000003 0.117052 0.000002
# 6 0.000000 0.000000 0.000000 0.039419 0.000002 0.059263
#
#
# Mechanical properties :
#
#
# Convention : Reuss Voigt Hill
#
# Bulk Modulus (GPa) = 48.44164 67.18340 57.81252
# Shear Modulus (GPa) = 12.96536 23.30802 18.13669
#
# Velocity S-wave (km/s) = 2.70627 3.62854 3.20080
# Velocity P-wave (km/s) = 6.09336 7.45022 6.80569
#
# Compressibility (1/GPa) = 0.02064340
#
# Stress axis : x y z
#
# Youngs Moduli (GPa) = 65.72997 120.55743 57.82970
#
# Poissons Ratio (x) = 0.46008 0.27649
# Poissons Ratio (y) = 0.25084 0.08566
# Poissons Ratio (z) = 0.31427 0.17858
#
# Static dielectric constant tensor:
#      x y z
#    x 1.597470 0.000000 -0.002620 
#    y 0.000000 1.622410 0.000000 
#    z -0.002620 0.000000 1.598220 
# 
# From -- ./inp_files/360925.got.cif
#   From: 2010.05.17/outbox.cif.g08.bks.cpg/sg12_181_cif.got.tgz:360925.got - 2010.06.03 13:09:07.
