data_PCOD9218243
_publ_section_title
;
Structure prediction by ZEFSAII (Michael W. Deem and Ramdas Pophale) SiO2 
 PCOD9218243
Probable space group: C 2/M
;
_chemical_formula_sum "Si O2"
_cell_formula_units_Z 28
_cell_length_a 5.065105
_cell_length_b 20.787562
_cell_length_c 11.884001
_cell_angle_alpha 90.000000
_cell_angle_beta 115.388893
_cell_angle_gamma 90.000000
_cell_volume 1130.429895
_symmetry_space_group_name_H-M "C 2/M"
_symmetry_group_IT_number 12
_symmetry_cell_setting 'monoclinic'
loop_
_space_group_symop_operation_xyz
x,y,z
-x,y,-z
-x,-y,-z
x,-y,z
1/2+x,1/2+y,z
1/2-x,1/2+y,-z
1/2-x,1/2-y,-z
1/2+x,1/2-y,z
loop_
_atom_site_type_symbol
_atom_site_label
_atom_site_fract_x
_atom_site_fract_y
_atom_site_fract_z
Si Si1 0.654552 0.358872 0.916307
Si Si2 0.025539 0.207883 0.345062
Si Si3 0.205360 0.000000 0.871580
Si Si4 0.000000 0.607539 0.500000
Si Si5 0.692778 0.000000 0.376938
O O1 0.581954 0.316842 0.795146
O O2 0.552840 0.432755 0.874761
O O3 0.500000 0.334169 0.000000
O O4 0.000000 0.359708 0.000000
O O5 0.251131 0.266227 0.364287
O O6 0.213805 0.150550 0.431945
O O7 0.269544 0.000000 0.749677
O O8 0.500000 0.000000 0.000000
O O9 0.969595 0.562344 0.603642
O O10 0.000000 0.000000 0.500000
#
# Coordination Sequence:
#
# PCOD9218243 Si02
#       5
#     8   8   4   4   4
#     4  11  25  46  75 109 151 193 248 308 374 446
#     4  12  28  47  75 105 148 201 252 304 365 438
#     4  10  24  43  78 110 148 188 242 310 384 442
#     4  11  28  46  78 108 150 191 252 308 380 443
#     4  11  25  47  78 112 149 193 243 315 385 447
#
# _framework density 24.769338000000001
#
# number of rings (size 3 to 8) (size 9 to 14) (size 15 to 20)
#    0.000    0.857    0.000    4.714   16.000    4.571 
#    0.000    0.000    0.000    0.000    0.000    0.000 
#    0.000    0.000    0.000    0.000    0.000    0.000 
#
# Total GULP energy -78619.341195 kJ/mol
# GULP energy per Si atom -5615.667228 kJ/mol
# Density = 2.471296 g / cm^3
# Si number density = 24.769338 Si / 1000 Ang^3
#
#
#
# Elastic Constant Matrix: (Units=GPa)
#
#
# Indices 1 2 3 4 5 6 
#
# 1 96.5571 16.1175 45.2776 0.0000 -5.0949 0.0000
# 2 16.1175 97.1279 47.8148 0.0000 4.3225 0.0000
# 3 45.2776 47.8148 175.4490 0.0000 -12.6265 0.0000
# 4 0.0000 0.0000 0.0000 -20.6803 0.0000 -4.5889
# 5 -5.0949 4.3225 -12.6265 0.0000 51.5240 0.0000
# 6 0.0000 0.0000 0.0000 -4.5889 0.0000 7.6969
#
#
#
# Elastic Compliance Matrix: (Units=1/GPa)
#
#
# Indices 1 2 3 4 5 6 
#
# 1 0.011819 -0.000579 -0.002855 0.000000 0.000518 0.000000
# 2 -0.000579 0.012090 -0.003281 0.000000 -0.001875 0.000000
# 3 -0.002855 -0.003281 0.007462 0.000000 0.001821 0.000000
# 4 0.000000 0.000000 0.000000 -0.042705 0.000000 -0.025461
# 5 0.000518 -0.001875 0.001821 0.000000 0.020063 0.000000
# 6 0.000000 0.000000 0.000000 -0.025461 0.000000 0.114743
#
#
# Mechanical properties :
#
#
# Convention : Reuss Voigt Hill
#
# Bulk Modulus (GPa) = 55.73472 65.28376 60.50924
# Shear Modulus (GPa) = 34.99400 25.03637 30.01519
#
# Velocity S-wave (km/s) = 3.76279 3.18273 3.48485
# Velocity P-wave (km/s) = 6.43650 6.31825 6.37765
#
# Compressibility (1/GPa) = 0.01794214
#
# Stress axis : x y z
#
# Youngs Moduli (GPa) = 84.60698 82.71190 134.01928
#
# Poissons Ratio (x) = 0.04787 0.38265
# Poissons Ratio (y) = 0.04897 0.43965
# Poissons Ratio (z) = 0.24157 0.27134
#
# Static dielectric constant tensor:
#      x y z
#    x 1.943210 0.000000 0.037860 
#    y 0.000000 1.986100 0.000000 
#    z 0.037860 0.000000 1.937990 
# 
# From -- ./inp_files/114480.got.cif
#   From: 2010.05.17/outbox.cif.g08.bks.cpg/sg12_58_cif.got.tgz:114480.got - 2010.06.03 13:09:07.
