data_PCOD9218201
_publ_section_title
;
Structure prediction by ZEFSAII (Michael W. Deem and Ramdas Pophale) SiO2 
 PCOD9218201
Probable space group: C 2/M
;
_chemical_formula_sum "Si O2"
_cell_formula_units_Z 48
_cell_length_a 14.183863
_cell_length_b 26.379868
_cell_length_c 14.548171
_cell_angle_alpha 90.000000
_cell_angle_beta 158.439320
_cell_angle_gamma 90.000000
_cell_volume 2000.399824
_symmetry_space_group_name_H-M "C 2/M"
_symmetry_group_IT_number 12
_symmetry_cell_setting 'monoclinic'
loop_
_space_group_symop_operation_xyz
x,y,z
-x,y,-z
-x,-y,-z
x,-y,z
1/2+x,1/2+y,z
1/2-x,1/2+y,-z
1/2-x,1/2-y,-z
1/2+x,1/2-y,z
loop_
_atom_site_type_symbol
_atom_site_label
_atom_site_fract_x
_atom_site_fract_y
_atom_site_fract_z
Si Si1 0.387814 0.714729 0.997149
Si Si2 0.409992 0.057866 0.022357
Si Si3 0.610484 0.720235 0.501962
Si Si4 0.276902 0.060313 0.232679
Si Si5 0.962356 0.138301 0.224091
Si Si6 0.656986 0.943881 0.430428
O O1 0.610275 0.754202 0.232900
O O2 0.355619 0.672225 0.045148
O O3 0.500000 0.697637 0.000000
O O4 0.111257 0.740420 0.730765
O O5 0.231812 0.103873 0.892959
O O6 0.298916 0.000000 0.929969
O O7 0.500000 0.064287 0.000000
O O8 0.639833 0.058694 0.305183
O O9 0.500000 0.701523 0.500000
O O10 0.608752 0.675805 0.426515
O O11 0.500000 0.081661 0.500000
O O12 0.375564 0.063857 0.217955
O O13 0.263106 0.000000 0.240562
O O14 0.000000 0.082009 0.000000
O O15 0.163713 0.098480 0.367449
O O16 0.740839 0.000000 0.535093
#
# Coordination Sequence:
#
# PCOD9218201 Si02
#       6
#     8   8   8   8   8   8
#     4  10  24  48  72 106 150 186 229 302 377 437
#     4  10  25  46  68 100 148 194 244 308 364 417
#     4  10  24  44  74 108 146 186 236 303 369 439
#     4   9  19  38  64  91 128 179 231 281 338 405
#     4  12  25  40  75 105 141 192 252 295 359 446
#     4  10  24  43  66 102 144 190 243 300 357 421
#
# _framework density 23.995203
#
# number of rings (size 3 to 8) (size 9 to 14) (size 15 to 20)
#    0.000    1.833    0.000    1.500    9.333    0.667 
#    3.000    2.500    0.000    1.000    0.000    0.000 
#    0.000    0.000    0.000    0.000    0.000    0.000 
#
# Total GULP energy -134327.838193 kJ/mol
# GULP energy per Si atom -5596.993258 kJ/mol
# Density = 2.394059 g / cm^3
# Si number density = 23.995203 Si / 1000 Ang^3
#
#
#
# Elastic Constant Matrix: (Units=GPa)
#
#
# Indices 1 2 3 4 5 6 
#
# 1 120.3915 32.4576 20.8113 0.0020 -21.2563 0.0052
# 2 32.4576 70.4007 -1.8800 0.0040 -16.8491 0.0213
# 3 20.8113 -1.8800 75.2427 0.0071 -11.6049 0.0321
# 4 0.0020 0.0040 0.0071 16.5843 0.0028 -19.1439
# 5 -21.2563 -16.8491 -11.6049 0.0028 34.7128 0.0125
# 6 0.0052 0.0213 0.0321 -19.1439 0.0125 -217.6281
#
#
#
# Elastic Compliance Matrix: (Units=1/GPa)
#
#
# Indices 1 2 3 4 5 6 
#
# 1 0.010450 -0.004012 -0.002429 0.000000 0.003640 0.000000
# 2 -0.004012 0.017818 0.002646 -0.000003 0.007077 0.000003
# 3 -0.002429 0.002646 0.014758 -0.000004 0.004731 0.000003
# 4 0.000000 -0.000003 -0.000004 0.054740 -0.000006 -0.004815
# 5 0.003640 0.007077 0.004731 -0.000006 0.036053 0.000004
# 6 0.000000 0.000003 0.000003 -0.004815 0.000004 -0.004171
#
#
# Mechanical properties :
#
#
# Convention : Reuss Voigt Hill
#
# Bulk Modulus (GPa) = 28.21897 40.97921 34.59909
# Shear Modulus (GPa) = 33.54575 -18.95646 7.29464
#
# Velocity S-wave (km/s) = 3.74307 -2.81376 1.74546
# Velocity P-wave (km/s) = 5.51965 2.56102 4.30263
#
# Compressibility (1/GPa) = 0.03543716
#
# Stress axis : x y z
#
# Youngs Moduli (GPa) = 95.68995 56.12178 67.75983
#
# Poissons Ratio (x) = 0.22515 0.16461
# Poissons Ratio (y) = 0.38389 -0.17931
# Poissons Ratio (z) = 0.23246 -0.14852
#
# Static dielectric constant tensor:
#      x y z
#    x 1.910910 0.000000 0.000830 
#    y 0.000000 1.895800 0.000000 
#    z 0.000830 0.000000 1.933580 
# 
# From -- ./inp_files/219612.got.cif
#   From: 2010.05.17/outbox.cif.g08.bks.cpg/sg12_110_cif.got.tgz:219612.got - 2010.06.03 13:09:07.
