data_PCOD9218514
_publ_section_title
;
Structure prediction by ZEFSAII (Michael W. Deem and Ramdas Pophale) SiO2 
 PCOD9218514
Probable space group: C 2/M
;
_chemical_formula_sum "Si O2"
_cell_formula_units_Z 40
_cell_length_a 14.179951
_cell_length_b 21.681243
_cell_length_c 6.859785
_cell_angle_alpha 90.000000
_cell_angle_beta 121.388351
_cell_angle_gamma 90.000000
_cell_volume 1800.332280
_symmetry_space_group_name_H-M "C 2/M"
_symmetry_group_IT_number 12
_symmetry_cell_setting 'monoclinic'
loop_
_space_group_symop_operation_xyz
x,y,z
-x,y,-z
-x,-y,-z
x,-y,z
1/2+x,1/2+y,z
1/2-x,1/2+y,-z
1/2-x,1/2-y,-z
1/2+x,1/2-y,z
loop_
_atom_site_type_symbol
_atom_site_label
_atom_site_fract_x
_atom_site_fract_y
_atom_site_fract_z
Si Si1 0.500000 0.736663 0.000000
Si Si2 0.379150 0.908421 0.456647
Si Si3 0.485811 0.500000 0.718230
Si Si4 0.307952 0.809432 0.645187
Si Si5 0.922033 0.865684 0.603119
Si Si6 0.373266 0.000000 0.798839
Si Si7 0.257882 0.500000 0.944228
O O1 0.396323 0.784491 0.897355
O O2 0.468927 0.688705 0.793461
O O3 0.500000 0.919909 0.500000
O O4 0.364757 0.839291 0.514499
O O5 0.362987 0.942918 0.643763
O O6 0.293533 0.939610 0.216234
O O7 0.500000 0.500000 0.500000
O O8 0.428184 0.434521 0.703580
O O9 0.611015 0.500000 0.929195
O O10 0.250000 0.750000 0.500000
O O11 0.203751 0.851192 0.595256
O O12 0.000000 0.866682 0.500000
O O13 0.500000 0.000000 0.000000
O O14 0.288497 0.000000 0.885227
#
# Coordination Sequence:
#
# PCOD9218514 Si02
#       7
#     4   8   4   8   8   4   4
#     4  10  24  47  72 101 132 192 238 288 354 398
#     4  11  24  43  69 107 140 180 231 284 355 423
#     4  10  25  43  68 108 132 182 234 275 357 426
#     4  10  25  45  68 101 136 179 242 288 334 414
#     4  10  24  47  69 101 143 177 235 293 346 421
#     4  11  21  41  69 105 142 172 219 284 345 428
#     4  11  24  42  71 104 144 185 217 288 364 422
#
# _framework density 22.218119999999999
#
# number of rings (size 3 to 8) (size 9 to 14) (size 15 to 20)
#    0.000    1.600    2.000    0.600   12.600    5.200 
#    0.000    0.000    0.000    0.000    0.000    0.000 
#    0.000    0.000    0.000    0.000    0.000    0.000 
#
# Total GULP energy -111622.833898 kJ/mol
# GULP energy per Si atom -5581.141695 kJ/mol
# Density = 2.216755 g / cm^3
# Si number density = 22.218120 Si / 1000 Ang^3
#
#
#
# Elastic Constant Matrix: (Units=GPa)
#
#
# Indices 1 2 3 4 5 6 
#
# 1 106.0341 56.9706 46.6309 0.0000 10.6131 0.0000
# 2 56.9706 137.0914 58.0671 0.0000 19.0055 0.0000
# 3 46.6309 58.0671 111.9996 0.0000 21.4585 0.0000
# 4 0.0000 0.0000 0.0000 18.7565 0.0000 3.2493
# 5 10.6131 19.0055 21.4585 0.0000 51.2292 0.0000
# 6 0.0000 0.0000 0.0000 3.2493 0.0000 36.4589
#
#
#
# Elastic Compliance Matrix: (Units=1/GPa)
#
#
# Indices 1 2 3 4 5 6 
#
# 1 0.013062 -0.004019 -0.003394 0.000000 0.000207 0.000000
# 2 -0.004019 0.010700 -0.003559 0.000000 -0.001646 0.000000
# 3 -0.003394 -0.003559 0.012829 0.000000 -0.003350 0.000000
# 4 0.000000 0.000000 0.000000 0.054151 0.000000 -0.004826
# 5 0.000207 -0.001646 -0.003350 0.000000 0.021491 0.000000
# 6 0.000000 0.000000 0.000000 -0.004826 0.000000 0.027858
#
#
# Mechanical properties :
#
#
# Convention : Reuss Voigt Hill
#
# Bulk Modulus (GPa) = 68.27456 75.38468 71.82962
# Shear Modulus (GPa) = 29.95465 34.18605 32.07035
#
# Velocity S-wave (km/s) = 3.67578 3.92683 3.80337
# Velocity P-wave (km/s) = 6.98649 7.38668 7.18937
#
# Compressibility (1/GPa) = 0.01464674
#
# Stress axis : x y z
#
# Youngs Moduli (GPa) = 76.55531 93.45536 77.94969
#
# Poissons Ratio (x) = 0.37562 0.26459
# Poissons Ratio (y) = 0.30770 0.27741
# Poissons Ratio (z) = 0.25985 0.33259
#
# Static dielectric constant tensor:
#      x y z
#    x 1.808540 0.000000 0.018020 
#    y 0.000000 1.888890 0.000000 
#    z 0.018020 0.000000 1.838720 
# 
# From -- ./inp_files/63856.got.cif
#   From: 2010.05.17/outbox.cif.g08.bks.cpg/sg12_32_cif.got.tgz:63856.got - 2010.06.03 13:09:07.
