data_PCOD9218006
_publ_section_title
;
Structure prediction by ZEFSAII (Michael W. Deem and Ramdas Pophale) SiO2 
 PCOD9218006
Probable space group: C 2/M
;
_chemical_formula_sum "Si O2"
_cell_formula_units_Z 36
_cell_length_a 8.073593
_cell_length_b 17.099805
_cell_length_c 13.669381
_cell_angle_alpha 90.000000
_cell_angle_beta 55.635944
_cell_angle_gamma 90.000000
_cell_volume 1557.783057
_symmetry_space_group_name_H-M "C 2/M"
_symmetry_group_IT_number 12
_symmetry_cell_setting 'monoclinic'
loop_
_space_group_symop_operation_xyz
x,y,z
-x,y,-z
-x,-y,-z
x,-y,z
1/2+x,1/2+y,z
1/2-x,1/2+y,-z
1/2-x,1/2-y,-z
1/2+x,1/2-y,z
loop_
_atom_site_type_symbol
_atom_site_label
_atom_site_fract_x
_atom_site_fract_y
_atom_site_fract_z
Si Si1 0.256282 0.090082 0.568946
Si Si2 0.230705 0.692254 0.256813
Si Si3 0.209931 0.500000 0.786515
Si Si4 0.754800 0.000000 0.993820
Si Si5 0.720708 0.849718 0.649251
Si Si6 0.500000 0.642618 0.000000
O O1 0.500000 0.091529 0.500000
O O2 0.184712 0.132126 0.690475
O O3 0.204334 0.134169 0.486025
O O4 0.195547 0.000000 0.582336
O O5 0.198966 0.772696 0.324926
O O6 0.389630 0.695276 0.116811
O O7 0.019369 0.662713 0.284764
O O8 0.303709 0.500000 0.862524
O O9 0.255207 0.424409 0.705975
O O10 0.974689 0.500000 0.894709
O O11 0.845017 0.919333 0.005060
#
# Coordination Sequence:
#
# PCOD9218006 Si02
#       6
#     8   8   4   4   8   4
#     4   9  19  38  67  94 124 168 217 264 319 379
#     4  11  25  39  66  95 135 170 213 265 324 375
#     4  11  22  44  67  92 127 176 216 262 321 377
#     4  10  24  40  66  93 131 169 219 263 310 384
#     4  11  23  43  66  96 129 167 219 267 321 379
#     4  11  24  42  64  97 134 168 214 259 320 386
#
# _framework density 23.109764999999999
#
# number of rings (size 3 to 8) (size 9 to 14) (size 15 to 20)
#    0.000    1.556    3.333    0.667    7.778    2.667 
#    0.000    0.000    0.000    2.667    0.000    0.000 
#    0.000    0.000    0.000    0.000    0.000    0.000 
#
# Total GULP energy -100836.882237 kJ/mol
# GULP energy per Si atom -5602.049013 kJ/mol
# Density = 2.305717 g / cm^3
# Si number density = 23.109765 Si / 1000 Ang^3
#
#
#
# Elastic Constant Matrix: (Units=GPa)
#
#
# Indices 1 2 3 4 5 6 
#
# 1 46.9870 23.1391 32.6178 0.0000 9.0230 0.0000
# 2 23.1391 125.9068 43.7311 0.0000 18.3344 0.0000
# 3 32.6178 43.7311 158.2184 0.0000 12.4772 0.0000
# 4 0.0000 0.0000 0.0000 40.8150 0.0000 1.1846
# 5 9.0230 18.3344 12.4772 0.0000 33.6891 0.0000
# 6 0.0000 0.0000 0.0000 1.1846 0.0000 58.8553
#
#
#
# Elastic Compliance Matrix: (Units=1/GPa)
#
#
# Indices 1 2 3 4 5 6 
#
# 1 0.026440 -0.002763 -0.004375 0.000000 -0.003957 0.000000
# 2 -0.002763 0.009631 -0.001790 0.000000 -0.003838 0.000000
# 3 -0.004375 -0.001790 0.007775 0.000000 -0.000734 0.000000
# 4 0.000000 0.000000 0.000000 0.024515 0.000000 -0.000493
# 5 -0.003957 -0.003838 -0.000734 0.000000 0.033104 0.000000
# 6 0.000000 0.000000 0.000000 -0.000493 0.000000 0.017001
#
#
# Mechanical properties :
#
#
# Convention : Reuss Voigt Hill
#
# Bulk Modulus (GPa) = 38.47625 58.89870 48.68747
# Shear Modulus (GPa) = 34.48640 42.11347 38.29993
#
# Velocity S-wave (km/s) = 3.86720 4.27350 4.07542
# Velocity P-wave (km/s) = 6.05193 7.06344 6.57716
#
# Compressibility (1/GPa) = 0.02599006
#
# Stress axis : x y z
#
# Youngs Moduli (GPa) = 37.82107 103.83426 128.62063
#
# Poissons Ratio (x) = 0.28693 0.56271
# Poissons Ratio (y) = 0.10451 0.23017
# Poissons Ratio (z) = 0.16547 0.18581
#
# Static dielectric constant tensor:
#      x y z
#    x 1.927900 0.000000 -0.023280 
#    y 0.000000 1.792370 0.000000 
#    z -0.023280 0.000000 1.805130 
# 
# From -- ./inp_files/118805.got.cif
#   From: 2010.05.17/outbox.cif.g08.bks.cpg/sg12_60_cif.got.tgz:118805.got - 2010.06.03 13:09:07.
