data_PCOD9218474
_publ_section_title
;
Structure prediction by ZEFSAII (Michael W. Deem and Ramdas Pophale) SiO2 
 PCOD9218474
Probable space group: C 2/M
;
_chemical_formula_sum "Si O2"
_cell_formula_units_Z 48
_cell_length_a 19.520837
_cell_length_b 17.533716
_cell_length_c 15.190646
_cell_angle_alpha 90.000000
_cell_angle_beta 151.887605
_cell_angle_gamma 90.000000
_cell_volume 2449.945480
_symmetry_space_group_name_H-M "C 2/M"
_symmetry_group_IT_number 12
_symmetry_cell_setting 'monoclinic'
loop_
_space_group_symop_operation_xyz
x,y,z
-x,y,-z
-x,-y,-z
x,-y,z
1/2+x,1/2+y,z
1/2-x,1/2+y,-z
1/2-x,1/2-y,-z
1/2+x,1/2-y,z
loop_
_atom_site_type_symbol
_atom_site_label
_atom_site_fract_x
_atom_site_fract_y
_atom_site_fract_z
Si Si1 0.649314 0.677859 0.417165
Si Si2 0.318529 0.709617 0.991871
Si Si3 0.091737 0.589275 0.339649
Si Si4 0.897875 0.658936 0.964583
Si Si5 0.870729 0.088387 0.423896
Si Si6 0.421865 0.091448 0.320689
O O1 0.750000 0.750000 0.500000
O O2 0.487073 0.691469 0.200121
O O3 0.739599 0.609258 0.476108
O O4 0.635178 0.650434 0.503469
O O5 0.250000 0.750000 0.000000
O O6 0.310331 0.769933 0.903636
O O7 0.227625 0.635139 0.864628
O O8 0.069311 0.500000 0.305025
O O9 0.025844 0.614223 0.357766
O O10 0.001678 0.628801 0.159624
O O11 0.782435 0.597184 0.800136
O O12 0.000000 0.682008 0.000000
O O13 0.000000 0.102463 0.500000
O O14 0.886367 0.000000 0.473319
O O15 0.500000 0.112357 0.500000
O O16 0.401753 0.000000 0.296695
#
# Coordination Sequence:
#
# PCOD9218474 Si02
#       6
#     8   8   8   8   8   8
#     4  12  23  42  63  94 139 177 222 268 333 408
#     4  12  24  42  68  98 132 177 224 275 341 393
#     4  11  23  42  68  95 134 179 218 274 334 401
#     4  12  23  41  65  99 135 175 213 272 336 413
#     4  11  25  41  64 100 137 173 219 276 340 406
#     4  10  24  46  70  95 131 181 235 280 332 394
#
# _framework density 19.592272000000001
#
# number of rings (size 3 to 8) (size 9 to 14) (size 15 to 20)
#    0.000    0.667    5.000    2.000    0.000    6.667 
#    0.000    0.000    0.000    3.500    0.000    0.000 
#    0.000    0.000    0.000    0.000    0.000    0.000 
#
# Total GULP energy -134053.973114 kJ/mol
# GULP energy per Si atom -5585.582213 kJ/mol
# Density = 1.954768 g / cm^3
# Si number density = 19.592272 Si / 1000 Ang^3
#
#
#
# Elastic Constant Matrix: (Units=GPa)
#
#
# Indices 1 2 3 4 5 6 
#
# 1 154.0806 52.3877 42.7142 0.0000 1.5848 0.0000
# 2 52.3877 48.9454 34.6583 0.0000 -5.3939 0.0000
# 3 42.7142 34.6583 116.6486 0.0000 8.3999 0.0000
# 4 0.0000 0.0000 0.0000 32.8202 0.0000 9.9147
# 5 1.5848 -5.3939 8.3999 0.0000 35.6764 0.0000
# 6 0.0000 0.0000 0.0000 9.9147 0.0000 27.3984
#
#
#
# Elastic Compliance Matrix: (Units=1/GPa)
#
#
# Indices 1 2 3 4 5 6 
#
# 1 0.010378 -0.011078 -0.000361 0.000000 -0.002051 0.000000
# 2 -0.011078 0.038946 -0.008112 0.000000 0.008290 0.000000
# 3 -0.000361 -0.008112 0.011395 0.000000 -0.003893 0.000000
# 4 0.000000 0.000000 0.000000 0.034209 0.000000 -0.012379
# 5 -0.002051 0.008290 -0.003893 0.000000 0.030291 0.000000
# 6 0.000000 0.000000 0.000000 -0.012379 0.000000 0.040978
#
#
# Mechanical properties :
#
#
# Convention : Reuss Voigt Hill
#
# Bulk Modulus (GPa) = 46.25942 64.35500 55.30721
# Shear Modulus (GPa) = 23.52885 31.83994 27.68439
#
# Velocity S-wave (km/s) = 3.46920 4.03566 3.76310
# Velocity P-wave (km/s) = 6.30154 7.39147 6.86816
#
# Compressibility (1/GPa) = 0.02161722
#
# Stress axis : x y z
#
# Youngs Moduli (GPa) = 96.35885 25.67660 87.75406
#
# Poissons Ratio (x) = 0.28445 0.03167
# Poissons Ratio (y) = 1.06748 0.71185
# Poissons Ratio (z) = 0.03478 0.20829
#
# Static dielectric constant tensor:
#      x y z
#    x 1.702660 0.000000 0.005220 
#    y 0.000000 1.713230 0.000000 
#    z 0.005220 0.000000 1.691130 
# 
# From -- ./inp_files/226750.got.cif
#   From: 2010.05.17/outbox.cif.g08.bks.cpg/sg12_114_cif.got.tgz:226750.got - 2010.06.03 13:09:07.
