data_PCOD9218526
_publ_section_title
;
Structure prediction by ZEFSAII (Michael W. Deem and Ramdas Pophale) SiO2 
 PCOD9218526
Probable space group: C 2/M
;
_chemical_formula_sum "Si O2"
_cell_formula_units_Z 46
_cell_length_a 11.629693
_cell_length_b 31.940844
_cell_length_c 8.196711
_cell_angle_alpha 90.000000
_cell_angle_beta 133.421499
_cell_angle_gamma 90.000000
_cell_volume 2211.466443
_symmetry_space_group_name_H-M "C 2/M"
_symmetry_group_IT_number 12
_symmetry_cell_setting 'monoclinic'
loop_
_space_group_symop_operation_xyz
x,y,z
-x,y,-z
-x,-y,-z
x,-y,z
1/2+x,1/2+y,z
1/2-x,1/2+y,-z
1/2-x,1/2-y,-z
1/2+x,1/2-y,z
loop_
_atom_site_type_symbol
_atom_site_label
_atom_site_fract_x
_atom_site_fract_y
_atom_site_fract_z
Si Si1 0.810820 0.730827 0.798368
Si Si2 0.500000 0.397049 0.500000
Si Si3 0.340656 0.664865 0.587504
Si Si4 0.194570 0.189560 0.015600
Si Si5 0.820774 0.388358 0.283320
Si Si6 0.227919 0.953905 0.938693
Si Si7 0.500000 0.000000 0.000000
O O1 0.748080 0.704988 0.580904
O O2 0.770348 0.779715 0.796556
O O3 0.734037 0.710566 0.883329
O O4 0.000000 0.727317 0.000000
O O5 0.616661 0.366381 0.517674
O O6 0.605166 0.426157 0.718067
O O7 0.509625 0.678944 0.825238
O O8 0.259111 0.634378 0.639879
O O9 0.298404 0.148078 0.128254
O O10 0.000000 0.396474 0.500000
O O11 0.754614 0.430010 0.135276
O O12 0.388731 0.963895 0.989575
O O13 0.158849 0.000000 0.901236
#
# Coordination Sequence:
#
# PCOD9218526 Si02
#       7
#     8   4   8   8   8   8   2
#     4  11  23  41  67  97 137 193 250 300 363 415
#     4  12  23  44  76 102 138 192 238 286 365 430
#     4  12  24  43  68 100 145 191 243 306 352 437
#     4  11  24  44  64  96 142 186 251 303 354 430
#     4  12  26  42  68 103 145 186 234 298 367 428
#     4  10  24  47  72 107 137 185 230 290 366 438
#     4   8  24  46  78 102 150 168 234 294 354 446
#
# _framework density 20.800678000000001
#
# number of rings (size 3 to 8) (size 9 to 14) (size 15 to 20)
#    0.522    0.348    3.478    2.870    2.435    5.913 
#    1.565    2.609    0.000    0.000    0.000    0.000 
#    0.000    0.000    0.000    0.000    0.000    0.000 
#
# Total GULP energy -128040.454820 kJ/mol
# GULP energy per Si atom -5566.976297 kJ/mol
# Density = 2.075333 g / cm^3
# Si number density = 20.800678 Si / 1000 Ang^3
#
#
#
# Elastic Constant Matrix: (Units=GPa)
#
#
# Indices 1 2 3 4 5 6 
#
# 1 67.3086 13.8603 9.7426 0.0000 -12.3202 0.0000
# 2 13.8603 137.6895 48.9315 0.0000 -7.5572 0.0000
# 3 9.7426 48.9315 104.7002 0.0000 -4.9353 0.0000
# 4 0.0000 0.0000 0.0000 39.2414 0.0000 -6.3068
# 5 -12.3202 -7.5572 -4.9353 0.0000 25.0938 0.0000
# 6 0.0000 0.0000 0.0000 -6.3068 0.0000 35.6538
#
#
#
# Elastic Compliance Matrix: (Units=1/GPa)
#
#
# Indices 1 2 3 4 5 6 
#
# 1 0.016574 -0.000991 -0.000716 0.000000 0.007698 0.000000
# 2 -0.000991 0.008853 -0.003980 0.000000 0.001397 0.000000
# 3 -0.000716 -0.003980 0.011511 0.000000 0.000714 0.000000
# 4 0.000000 0.000000 0.000000 0.026229 0.000000 0.004640
# 5 0.007698 0.001397 0.000714 0.000000 0.044191 0.000000
# 6 0.000000 0.000000 0.000000 0.004640 0.000000 0.028868
#
#
# Mechanical properties :
#
#
# Convention : Reuss Voigt Hill
#
# Bulk Modulus (GPa) = 39.11691 50.52967 44.82329
# Shear Modulus (GPa) = 32.02626 35.80873 33.91749
#
# Velocity S-wave (km/s) = 3.92812 4.15362 4.04244
# Velocity P-wave (km/s) = 6.27853 6.88102 6.58667
#
# Compressibility (1/GPa) = 0.02556439
#
# Stress axis : x y z
#
# Youngs Moduli (GPa) = 60.33639 112.95071 86.87194
#
# Poissons Ratio (x) = 0.11198 0.06220
# Poissons Ratio (y) = 0.05982 0.34571
# Poissons Ratio (z) = 0.04320 0.44949
#
# Static dielectric constant tensor:
#      x y z
#    x 1.762250 0.000000 -0.054340 
#    y 0.000000 1.757510 0.000000 
#    z -0.054340 0.000000 1.744040 
# 
# From -- ./inp_files/68415.got.cif
#   From: 2010.05.17/outbox.cif.g08.bks.cpg/sg12_35_cif.got.tgz:68415.got - 2010.06.03 13:09:07.
