data_PCOD9218017
_publ_section_title
;
Structure prediction by ZEFSAII (Michael W. Deem and Ramdas Pophale) SiO2 
 PCOD9218017
Probable space group: C 2/M
;
_chemical_formula_sum "Si O2"
_cell_formula_units_Z 44
_cell_length_a 8.799511
_cell_length_b 26.241558
_cell_length_c 11.532632
_cell_angle_alpha 90.000000
_cell_angle_beta 127.531513
_cell_angle_gamma 90.000000
_cell_volume 2111.834361
_symmetry_space_group_name_H-M "C 2/M"
_symmetry_group_IT_number 12
_symmetry_cell_setting 'monoclinic'
loop_
_space_group_symop_operation_xyz
x,y,z
-x,y,-z
-x,-y,-z
x,-y,z
1/2+x,1/2+y,z
1/2-x,1/2+y,-z
1/2-x,1/2-y,-z
1/2+x,1/2-y,z
loop_
_atom_site_type_symbol
_atom_site_label
_atom_site_fract_x
_atom_site_fract_y
_atom_site_fract_z
Si Si1 0.716645 0.500000 0.561772
Si Si2 0.637880 0.197109 0.454219
Si Si3 0.773297 0.403189 0.423469
Si Si4 0.714398 0.000000 0.140203
Si Si5 0.819389 0.320614 0.118979
Si Si6 0.000000 0.253405 0.000000
Si Si7 0.433399 0.583150 0.090391
O O1 0.500000 0.500000 0.500000
O O2 0.750570 0.450810 0.498206
O O3 0.810233 0.500000 0.732013
O O4 0.500000 0.203176 0.500000
O O5 0.750000 0.250000 0.500000
O O6 0.779849 0.150171 0.541940
O O7 0.502612 0.176425 0.287544
O O8 0.634374 0.405091 0.248200
O O9 0.000000 0.402312 0.500000
O O10 0.822204 0.951803 0.131771
O O11 0.500000 0.000000 0.000000
O O12 0.666747 0.285293 0.117238
O O13 0.902065 0.288851 0.049308
O O14 0.703507 0.369564 0.014752
O O15 0.500000 0.558263 0.000000
#
# Coordination Sequence:
#
# PCOD9218017 Si02
#       7
#     4   8   8   4   8   4   8
#     4  12  25  52  70 104 141 178 236 300 360 418
#     4  11  25  43  66 101 138 180 233 280 344 410
#     4  11  26  45  74 100 138 190 233 288 358 427
#     4  12  31  46  74 104 141 180 236 299 362 424
#     4  11  24  43  69  99 139 183 232 286 342 418
#     4  10  24  40  68  92 136 182 228 274 348 402
#     4  12  25  47  70 102 140 184 238 289 355 431
#
# _framework density 20.834969000000001
#
# number of rings (size 3 to 8) (size 9 to 14) (size 15 to 20)
#    0.000    0.727    2.727    3.818   11.455    0.727 
#    0.000    0.000    0.000    0.000    0.000    0.000 
#    0.000    0.000    0.000    0.000    0.000    0.000 
#
# Total GULP energy -122673.317271 kJ/mol
# GULP energy per Si atom -5576.059876 kJ/mol
# Density = 2.078755 g / cm^3
# Si number density = 20.834969 Si / 1000 Ang^3
#
#
#
# Elastic Constant Matrix: (Units=GPa)
#
#
# Indices 1 2 3 4 5 6 
#
# 1 71.5756 53.5898 22.5240 0.0000 0.3347 0.0000
# 2 53.5898 169.9109 59.6140 0.0000 -13.8982 0.0000
# 3 22.5240 59.6140 190.8762 0.0000 0.8268 0.0000
# 4 0.0000 0.0000 0.0000 26.6317 0.0000 -2.3880
# 5 0.3347 -13.8982 0.8268 0.0000 36.8761 0.0000
# 6 0.0000 0.0000 0.0000 -2.3880 0.0000 25.8460
#
#
#
# Elastic Compliance Matrix: (Units=1/GPa)
#
#
# Indices 1 2 3 4 5 6 
#
# 1 0.018519 -0.005923 -0.000325 0.000000 -0.002393 0.000000
# 2 -0.005923 0.008750 -0.002049 0.000000 0.003397 0.000000
# 3 -0.000325 -0.002049 0.005921 0.000000 -0.000902 0.000000
# 4 0.000000 0.000000 0.000000 0.037863 0.000000 0.003498
# 5 -0.002393 0.003397 -0.000902 0.000000 0.028440 0.000000
# 6 0.000000 0.000000 0.000000 0.003498 0.000000 0.039014
#
#
# Mechanical properties :
#
#
# Convention : Reuss Voigt Hill
#
# Bulk Modulus (GPa) = 60.25023 78.20203 69.22613
# Shear Modulus (GPa) = 31.12691 37.64642 34.38667
#
# Velocity S-wave (km/s) = 3.86939 4.25536 4.06696
# Velocity P-wave (km/s) = 6.99596 7.85873 7.43986
#
# Compressibility (1/GPa) = 0.01659745
#
# Stress axis : x y z
#
# Youngs Moduli (GPa) = 53.99841 114.28470 168.88726
#
# Poissons Ratio (x) = 0.67685 0.05493
# Poissons Ratio (y) = 0.31981 0.34599
# Poissons Ratio (z) = 0.01756 0.23413
#
# Static dielectric constant tensor:
#      x y z
#    x 1.715130 0.000000 0.043180 
#    y 0.000000 2.180570 0.000000 
#    z 0.043180 0.000000 1.767980 
# 
# From -- ./inp_files/124501.got.cif
#   From: 2010.05.17/outbox.cif.g08.bks.cpg/sg12_63_cif.got.tgz:124501.got - 2010.06.03 13:09:07.
