data_PCOD9218609
_publ_section_title
;
Structure prediction by ZEFSAII (Michael W. Deem and Ramdas Pophale) SiO2 
 PCOD9218609
Probable space group: C 2/M
;
_chemical_formula_sum "Si O2"
_cell_formula_units_Z 42
_cell_length_a 13.594627
_cell_length_b 18.867223
_cell_length_c 8.689292
_cell_angle_alpha 90.000000
_cell_angle_beta 72.417184
_cell_angle_gamma 90.000000
_cell_volume 2124.617475
_symmetry_space_group_name_H-M "C 2/M"
_symmetry_group_IT_number 12
_symmetry_cell_setting 'monoclinic'
loop_
_space_group_symop_operation_xyz
x,y,z
-x,y,-z
-x,-y,-z
x,-y,z
1/2+x,1/2+y,z
1/2-x,1/2+y,-z
1/2-x,1/2-y,-z
1/2+x,1/2-y,z
loop_
_atom_site_type_symbol
_atom_site_label
_atom_site_fract_x
_atom_site_fract_y
_atom_site_fract_z
Si Si1 0.920357 0.246796 0.658312
Si Si2 0.780095 0.000000 0.752101
Si Si3 0.209160 0.000000 0.593302
Si Si4 0.926765 0.746965 0.165034
Si Si5 0.246272 0.149995 0.727739
Si Si6 0.748334 0.848461 0.903675
Si Si7 0.000000 0.000000 0.500000
O O1 0.844909 0.305698 0.622494
O O2 0.847013 0.190226 0.778201
O O3 0.000000 0.212872 0.500000
O O4 0.994809 0.283520 0.747582
O O5 0.735208 0.000000 0.599741
O O6 0.748377 0.070461 0.854789
O O7 0.903538 0.000000 0.667850
O O8 0.238328 0.070586 0.672275
O O9 0.088707 0.000000 0.599424
O O10 0.855217 0.806752 0.274081
O O11 0.850765 0.691389 0.120259
O O12 0.000000 0.780004 0.000000
O O13 0.249005 0.157099 0.912862
#
# Coordination Sequence:
#
# PCOD9218609 Si02
#       7
#     8   4   4   8   8   8   2
#     4  11  25  38  67  97 126 164 212 261 319 368
#     4  10  25  41  61  91 130 161 207 261 304 378
#     4  10  25  41  63  90 131 161 213 257 314 366
#     4  11  21  41  67  94 126 162 211 263 311 372
#     4  11  23  43  64  96 126 167 211 263 305 384
#     4  11  23  42  65  94 129 165 213 257 313 376
#     4   8  24  40  58  90 128 162 198 248 328 358
#
# _framework density 19.768263999999999
#
# number of rings (size 3 to 8) (size 9 to 14) (size 15 to 20)
#    0.571    0.762    3.810    1.714    9.333    1.524 
#    0.000    3.333    0.000    0.000    0.000    0.000 
#    0.000    0.000    0.000    0.000    0.000    0.000 
#
# Total GULP energy -116930.804896 kJ/mol
# GULP energy per Si atom -5568.133566 kJ/mol
# Density = 1.972327 g / cm^3
# Si number density = 19.768264 Si / 1000 Ang^3
#
#
#
# Elastic Constant Matrix: (Units=GPa)
#
#
# Indices 1 2 3 4 5 6 
#
# 1 105.2619 34.6680 21.2870 0.0000 -2.8029 0.0000
# 2 34.6680 129.8124 9.7643 0.0000 -3.2936 0.0000
# 3 21.2870 9.7643 52.8542 0.0000 -10.2144 0.0000
# 4 0.0000 0.0000 0.0000 21.0086 0.0000 5.8176
# 5 -2.8029 -3.2936 -10.2144 0.0000 25.1314 0.0000
# 6 0.0000 0.0000 0.0000 5.8176 0.0000 5.8262
#
#
#
# Elastic Compliance Matrix: (Units=1/GPa)
#
#
# Indices 1 2 3 4 5 6 
#
# 1 0.011212 -0.002701 -0.004171 0.000000 -0.000799 0.000000
# 2 -0.002701 0.008468 -0.000348 0.000000 0.000667 0.000000
# 3 -0.004171 -0.000348 0.022318 0.000000 0.008560 0.000000
# 4 0.000000 0.000000 0.000000 0.065791 0.000000 -0.065694
# 5 -0.000799 0.000667 0.008560 0.000000 0.043269 0.000000
# 6 0.000000 0.000000 0.000000 -0.065694 0.000000 0.237235
#
#
# Mechanical properties :
#
#
# Convention : Reuss Voigt Hill
#
# Bulk Modulus (GPa) = 36.28557 46.59635 41.44096
# Shear Modulus (GPa) = 12.13833 25.20717 18.67275
#
# Velocity S-wave (km/s) = 2.48065 3.57477 3.07674
# Velocity P-wave (km/s) = 5.15754 6.37661 5.79919
#
# Compressibility (1/GPa) = 0.02755916
#
# Stress axis : x y z
#
# Youngs Moduli (GPa) = 89.19135 118.09461 44.80610
#
# Poissons Ratio (x) = 0.31895 0.18689
# Poissons Ratio (y) = 0.24089 0.01558
# Poissons Ratio (z) = 0.37202 0.04106
#
# Static dielectric constant tensor:
#      x y z
#    x 1.688400 0.000000 0.010140 
#    y 0.000000 1.661050 0.000000 
#    z 0.010140 0.000000 1.743610 
# 
# From -- ./inp_files/61024.got.cif
#   From: 2010.05.17/outbox.cif.g08.bks.cpg/sg12_31_cif.got.tgz:61024.got - 2010.06.03 13:09:07.
