data_PCOD9218658
_publ_section_title
;
Structure prediction by ZEFSAII (Michael W. Deem and Ramdas Pophale) SiO2 
 PCOD9218658
Probable space group: C 2/M
;
_chemical_formula_sum "Si O2"
_cell_formula_units_Z 24
_cell_length_a 13.745356
_cell_length_b 17.569533
_cell_length_c 5.115746
_cell_angle_alpha 90.000000
_cell_angle_beta 56.034182
_cell_angle_gamma 90.000000
_cell_volume 1024.646467
_symmetry_space_group_name_H-M "C 2/M"
_symmetry_group_IT_number 12
_symmetry_cell_setting 'monoclinic'
loop_
_space_group_symop_operation_xyz
x,y,z
-x,y,-z
-x,-y,-z
x,-y,z
1/2+x,1/2+y,z
1/2-x,1/2+y,-z
1/2-x,1/2-y,-z
1/2+x,1/2-y,z
loop_
_atom_site_type_symbol
_atom_site_label
_atom_site_fract_x
_atom_site_fract_y
_atom_site_fract_z
Si Si1 0.083224 0.000000 0.631016
Si Si2 0.262154 0.369364 0.799501
Si Si3 0.580275 0.262526 0.127278
Si Si4 0.918601 0.500000 0.864647
O O1 0.164252 0.076331 0.505952
O O2 0.000000 0.000000 0.500000
O O3 0.000000 0.000000 0.000000
O O4 0.355458 0.337586 0.865291
O O5 0.181941 0.294780 0.868927
O O6 0.164058 0.427618 0.037894
O O7 0.500000 0.235637 0.500000
O O8 0.500000 0.277000 0.000000
O O9 0.000000 0.500000 0.500000
O O10 0.000000 0.500000 0.000000
#
# Coordination Sequence:
#
# PCOD9218658 Si02
#       4
#     4   8   8   4
#     4  11  26  45  70 100 136 180 230 288 345 408
#     4  10  25  44  70 102 138 183 234 287 349 415
#     4  11  25  44  69 102 142 185 232 286 349 419
#     4  11  24  43  69 100 135 178 232 290 346 408
#
# _framework density 23.422711
#
# number of rings (size 3 to 8) (size 9 to 14) (size 15 to 20)
#    0.000    1.333    0.000    3.000    0.000   21.333 
#    0.000    2.500    0.000    2.000    0.000    0.000 
#    0.000    0.000    0.000    0.000    0.000    0.000 
#
# Total GULP energy -67041.187038 kJ/mol
# GULP energy per Si atom -5586.765587 kJ/mol
# Density = 2.336940 g / cm^3
# Si number density = 23.422711 Si / 1000 Ang^3
#
#
#
# Elastic Constant Matrix: (Units=GPa)
#
#
# Indices 1 2 3 4 5 6 
#
# 1 160.2539 59.7536 81.8618 0.0000 -8.3987 0.0000
# 2 59.7536 154.9315 75.7465 0.0000 -9.8115 0.0000
# 3 81.8618 75.7465 222.0416 0.0000 -16.0933 0.0000
# 4 0.0000 0.0000 0.0000 42.0391 0.0000 -43.0992
# 5 -8.3987 -9.8115 -16.0933 0.0000 30.8739 0.0000
# 6 0.0000 0.0000 0.0000 -43.0992 0.0000 49.9564
#
#
#
# Elastic Compliance Matrix: (Units=1/GPa)
#
#
# Indices 1 2 3 4 5 6 
#
# 1 0.008186 -0.002005 -0.002306 0.000000 0.000388 0.000000
# 2 -0.002005 0.008276 -0.002009 0.000000 0.001037 0.000000
# 3 -0.002306 -0.002009 0.006181 0.000000 0.001956 0.000000
# 4 0.000000 0.000000 0.000000 0.205935 0.000000 0.177667
# 5 0.000388 0.001037 0.001956 0.000000 0.033845 0.000000
# 6 0.000000 0.000000 0.000000 0.177667 0.000000 0.173297
#
#
# Mechanical properties :
#
#
# Convention : Reuss Voigt Hill
#
# Bulk Modulus (GPa) = 99.97099 107.99453 103.98276
# Shear Modulus (GPa) = 11.06947 45.89822 28.48384
#
# Velocity S-wave (km/s) = 2.17628 4.43149 3.49101
# Velocity P-wave (km/s) = 7.00634 8.50829 7.79358
#
# Compressibility (1/GPa) = 0.01000290
#
# Stress axis : x y z
#
# Youngs Moduli (GPa) = 122.15994 120.83762 161.79250
#
# Poissons Ratio (x) = 0.24231 0.37306
# Poissons Ratio (y) = 0.24497 0.32498
# Poissons Ratio (z) = 0.28168 0.24272
#
# Static dielectric constant tensor:
#      x y z
#    x 1.774460 0.000000 -0.069100 
#    y 0.000000 2.536360 0.000000 
#    z -0.069100 0.000000 1.854040 
# 
# From -- ./inp_files/9668.got.cif
#   From: 2010.05.17/outbox.cif.g08.bks.cpg/sg12_5_cif.got.tgz:9668.got - 2010.06.03 13:09:07.
