data_PCOD9218094
_publ_section_title
;
Structure prediction by ZEFSAII (Michael W. Deem and Ramdas Pophale) SiO2 
 PCOD9218094
Probable space group: C 2/M
;
_chemical_formula_sum "Si O2"
_cell_formula_units_Z 18
_cell_length_a 5.360869
_cell_length_b 29.634623
_cell_length_c 5.138347
_cell_angle_alpha 90.000000
_cell_angle_beta 99.065231
_cell_angle_gamma 90.000000
_cell_volume 806.119371
_symmetry_space_group_name_H-M "C 2/M"
_symmetry_group_IT_number 12
_symmetry_cell_setting 'monoclinic'
loop_
_space_group_symop_operation_xyz
x,y,z
-x,y,-z
-x,-y,-z
x,-y,z
1/2+x,1/2+y,z
1/2-x,1/2+y,-z
1/2-x,1/2-y,-z
1/2+x,1/2-y,z
loop_
_atom_site_type_symbol
_atom_site_label
_atom_site_fract_x
_atom_site_fract_y
_atom_site_fract_z
Si Si1 0.500000 0.780000 0.500000
Si Si2 0.835978 0.076017 0.215522
Si Si3 0.000000 0.500000 0.000000
Si Si4 0.500000 0.157920 0.000000
O O1 0.250000 0.750000 0.500000
O O2 0.451262 0.811165 0.241077
O O3 0.000000 0.079814 0.500000
O O4 0.614270 0.040010 0.208675
O O5 0.727089 0.124257 0.112530
O O6 0.000000 0.057423 0.000000
#
# Coordination Sequence:
#
# PCOD9218094 Si02
#       4
#     4   8   2   4
#     4  12  28  48  76 105 144 187 240 302 362 432
#     4  11  24  42  70  97 142 182 230 288 345 425
#     4  10  24  42  64 108 132 186 232 280 350 414
#     4  11  26  45  70 104 138 184 238 287 362 423
#
# _framework density 22.329198000000002
#
# number of rings (size 3 to 8) (size 9 to 14) (size 15 to 20)
#    0.000    0.889    0.000    5.333    9.333    7.111 
#    0.000    0.000    0.000    0.000    0.000    0.000 
#    0.000    0.000    0.000    0.000    0.000    0.000 
#
# Total GULP energy -50142.524710 kJ/mol
# GULP energy per Si atom -5571.391634 kJ/mol
# Density = 2.227838 g / cm^3
# Si number density = 22.329198 Si / 1000 Ang^3
#
#
#
# Elastic Constant Matrix: (Units=GPa)
#
#
# Indices 1 2 3 4 5 6 
#
# 1 70.6339 49.5635 53.6509 0.0000 9.3320 0.0000
# 2 49.5635 188.9580 100.2048 0.0000 9.1286 0.0000
# 3 53.6509 100.2048 251.8530 0.0000 19.1469 0.0000
# 4 0.0000 0.0000 0.0000 -16.5181 0.0000 -18.4435
# 5 9.3320 9.1286 19.1469 0.0000 47.5076 0.0000
# 6 0.0000 0.0000 0.0000 -18.4435 0.0000 -34.7382
#
#
#
# Elastic Compliance Matrix: (Units=1/GPa)
#
#
# Indices 1 2 3 4 5 6 
#
# 1 0.018752 -0.003529 -0.002437 0.000000 -0.002023 0.000000
# 2 -0.003529 0.007374 -0.002194 0.000000 0.000161 0.000000
# 3 -0.002437 -0.002194 0.005462 0.000000 -0.001301 0.000000
# 4 0.000000 0.000000 0.000000 -0.148677 0.000000 0.078937
# 5 -0.002023 0.000161 -0.001301 0.000000 0.021940 0.000000
# 6 0.000000 0.000000 0.000000 0.078937 0.000000 -0.070696
#
#
# Mechanical properties :
#
#
# Convention : Reuss Voigt Hill
#
# Bulk Modulus (GPa) = 65.49829 102.03148 83.76489
# Shear Modulus (GPa) = -34.61689 19.78530 -7.41580
#
# Velocity S-wave (km/s) = -3.94165 2.97993 -1.82437
# Velocity P-wave (km/s) = 2.94639 7.59166 5.75824
#
# Compressibility (1/GPa) = 0.01526757
#
# Stress axis : x y z
#
# Youngs Moduli (GPa) = 53.32841 135.61918 183.09602
#
# Poissons Ratio (x) = 0.47854 0.44618
# Poissons Ratio (y) = 0.18817 0.40176
# Poissons Ratio (z) = 0.12995 0.29759
#
# Static dielectric constant tensor:
#      x y z
#    x 2.023630 0.000000 -0.035960 
#    y 0.000000 1.798100 0.000000 
#    z -0.035960 0.000000 1.789620 
# 
# From -- ./inp_files/716.got.cif
#   From: 2010.05.17/outbox.cif.g08.bks.cpg/sg12_1_cif.got.tgz:716.got - 2010.06.03 13:09:07.
