data_PCOD9218456
_publ_section_title
;
Structure prediction by ZEFSAII (Michael W. Deem and Ramdas Pophale) SiO2 
 PCOD9218456
Probable space group: C 2/M
;
_chemical_formula_sum "Si O2"
_cell_formula_units_Z 40
_cell_length_a 20.620503
_cell_length_b 8.985800
_cell_length_c 30.953004
_cell_angle_alpha 90.000000
_cell_angle_beta 19.878484
_cell_angle_gamma 90.000000
_cell_volume 1950.165529
_symmetry_space_group_name_H-M "C 2/M"
_symmetry_group_IT_number 12
_symmetry_cell_setting 'monoclinic'
loop_
_space_group_symop_operation_xyz
x,y,z
-x,y,-z
-x,-y,-z
x,-y,z
1/2+x,1/2+y,z
1/2-x,1/2+y,-z
1/2-x,1/2-y,-z
1/2+x,1/2-y,z
loop_
_atom_site_type_symbol
_atom_site_label
_atom_site_fract_x
_atom_site_fract_y
_atom_site_fract_z
Si Si1 0.367772 0.322839 0.465707
Si Si2 0.197033 0.172179 0.930205
Si Si3 0.306807 0.820399 0.595985
Si Si4 0.260586 0.327607 0.199796
Si Si5 0.403204 0.325518 0.873460
O O1 0.345373 0.500000 0.478219
O O2 0.250000 0.250000 0.500000
O O3 0.298817 0.258384 0.554710
O O4 0.589410 0.274943 0.322471
O O5 0.227251 0.178955 0.859963
O O6 0.336244 0.282105 0.867411
O O7 0.231298 0.000000 0.921808
O O8 0.976068 0.207786 0.079539
O O9 0.500000 0.782902 0.500000
O O10 0.122422 0.777457 0.739766
O O11 0.301720 0.000000 0.592829
O O12 0.220244 0.500000 0.237373
O O13 0.395335 0.500000 0.885659
O O14 0.250000 0.250000 0.000000
#
# Coordination Sequence:
#
# PCOD9218456 Si02
#       5
#     8   8   8   8   8
#     4  12  25  40  63  94 128 167 212 263 319 377
#     4   9  19  37  61  89 122 161 204 252 308 369
#     4  10  24  46  68  92 127 172 217 262 318 381
#     4   9  19  37  62  90 122 161 203 252 311 372
#     4  11  24  40  62  90 122 163 208 258 310 368
#
# _framework density 20.51108
#
# number of rings (size 3 to 8) (size 9 to 14) (size 15 to 20)
#    0.000    1.800    0.000    4.800    2.800    6.800 
#    0.000    2.000    0.000    0.000    0.000    0.000 
#    0.000    0.000    0.000    0.000    0.000    0.000 
#
# Total GULP energy -111807.209624 kJ/mol
# GULP energy per Si atom -5590.360481 kJ/mol
# Density = 2.046440 g / cm^3
# Si number density = 20.511080 Si / 1000 Ang^3
#
#
#
# Elastic Constant Matrix: (Units=GPa)
#
#
# Indices 1 2 3 4 5 6 
#
# 1 64.6461 32.9280 39.9694 -0.0045 -7.4050 0.0018
# 2 32.9280 63.0379 61.7929 -0.0140 -2.6735 0.0125
# 3 39.9694 61.7929 157.3116 -0.0332 -8.7544 0.0026
# 4 -0.0045 -0.0140 -0.0332 29.6883 -0.0020 4.9953
# 5 -7.4050 -2.6735 -8.7544 -0.0020 26.3383 0.0030
# 6 0.0018 0.0125 0.0026 4.9953 0.0030 30.4694
#
#
#
# Elastic Compliance Matrix: (Units=1/GPa)
#
#
# Indices 1 2 3 4 5 6 
#
# 1 0.021904 -0.009827 -0.001445 -0.000003 0.004680 0.000003
# 2 -0.009827 0.030220 -0.009533 0.000004 -0.002864 -0.000011
# 3 -0.001445 -0.009533 0.010588 0.000007 0.002145 0.000002
# 4 -0.000003 0.000004 0.000007 0.034639 0.000005 -0.005679
# 5 0.004680 -0.002864 0.002145 0.000005 0.039706 -0.000004
# 6 0.000003 -0.000011 0.000002 -0.005679 -0.000004 0.033751
#
#
# Mechanical properties :
#
#
# Convention : Reuss Voigt Hill
#
# Bulk Modulus (GPa) = 47.38840 61.59736 54.49288
# Shear Modulus (GPa) = 22.78419 27.31952 25.05186
#
# Velocity S-wave (km/s) = 3.33652 3.65353 3.49862
# Velocity P-wave (km/s) = 6.16418 6.92056 6.55329
#
# Compressibility (1/GPa) = 0.02110221
#
# Stress axis : x y z
#
# Youngs Moduli (GPa) = 45.65474 33.09075 94.44667
#
# Poissons Ratio (x) = 0.32517 0.13645
# Poissons Ratio (y) = 0.44863 0.90038
# Poissons Ratio (z) = 0.06596 0.31546
#
# Static dielectric constant tensor:
#      x y z
#    x 1.766970 0.000000 0.036860 
#    y 0.000000 1.689150 0.000010 
#    z 0.036860 0.000010 1.799300 
# 
# From -- ./inp_files/230627.got.cif
#   From: 2010.05.17/outbox.cif.g08.bks.cpg/sg12_116_cif.got.tgz:230627.got - 2010.06.03 13:09:07.
