data_PCOD9218286
_publ_section_title
;
Structure prediction by ZEFSAII (Michael W. Deem and Ramdas Pophale) SiO2 
 PCOD9218286
Probable space group: C 2/M
;
_chemical_formula_sum "Si O2"
_cell_formula_units_Z 44
_cell_length_a 8.654974
_cell_length_b 25.669399
_cell_length_c 11.362596
_cell_angle_alpha 90.000000
_cell_angle_beta 55.004185
_cell_angle_gamma 90.000000
_cell_volume 2067.977281
_symmetry_space_group_name_H-M "C 2/M"
_symmetry_group_IT_number 12
_symmetry_cell_setting 'monoclinic'
loop_
_space_group_symop_operation_xyz
x,y,z
-x,y,-z
-x,-y,-z
x,-y,z
1/2+x,1/2+y,z
1/2-x,1/2+y,-z
1/2-x,1/2-y,-z
1/2+x,1/2-y,z
loop_
_atom_site_type_symbol
_atom_site_label
_atom_site_fract_x
_atom_site_fract_y
_atom_site_fract_z
Si Si1 0.338067 0.500000 0.976387
Si Si2 0.668863 0.823010 0.108274
Si Si3 0.775689 0.562983 0.576167
Si Si4 0.000000 0.241445 0.000000
Si Si5 0.584574 0.607835 0.177654
Si Si6 0.196466 0.392015 0.688468
Si Si7 0.550019 0.000000 0.841377
O O1 0.344277 0.550785 0.893391
O O2 0.500000 0.500000 0.000000
O O3 0.150264 0.500000 0.136085
O O4 0.569178 0.778676 0.073687
O O5 0.496491 0.858092 0.230725
O O6 0.809177 0.855725 0.962086
O O7 0.821832 0.793057 0.121218
O O8 0.728996 0.500000 0.593680
O O9 0.639896 0.595535 0.723485
O O10 0.734596 0.592422 0.470817
O O11 0.000000 0.566513 0.500000
O O12 0.658805 0.627200 0.273480
O O13 0.147898 0.448272 0.761166
O O14 0.500000 0.000000 0.000000
#
# Coordination Sequence:
#
# PCOD9218286 Si02
#       7
#     4   8   8   4   8   8   4
#     4  12  26  33  58  97 135 165 211 263 312 383
#     4  11  23  42  73 100 126 163 217 275 336 380
#     4  11  27  41  58  92 140 178 214 254 307 385
#     4  10  24  44  66 102 130 154 214 294 334 374
#     4  12  23  41  63  94 131 176 214 250 321 391
#     4  12  22  40  65  94 129 176 211 254 321 389
#     4  12  20  35  58  95 131 161 205 263 302 389
#
# _framework density 21.27683
#
# number of rings (size 3 to 8) (size 9 to 14) (size 15 to 20)
#    0.000    0.545    7.273    0.545    6.364    0.727 
#    0.000    0.000    0.000    6.545    0.000    0.000 
#    0.000    0.000    0.000    0.000    0.000    0.000 
#
# Total GULP energy -122632.469558 kJ/mol
# GULP energy per Si atom -5574.203162 kJ/mol
# Density = 2.122840 g / cm^3
# Si number density = 21.276830 Si / 1000 Ang^3
#
#
#
# Elastic Constant Matrix: (Units=GPa)
#
#
# Indices 1 2 3 4 5 6 
#
# 1 78.0254 24.3982 7.1059 0.0000 -24.7156 0.0000
# 2 24.3982 95.4483 27.9412 0.0000 -12.1891 0.0000
# 3 7.1059 27.9412 68.0637 0.0000 -20.9462 0.0000
# 4 0.0000 0.0000 0.0000-1320.2280 0.0000 863.0153
# 5 -24.7156 -12.1891 -20.9462 0.0000 33.1974 0.0000
# 6 0.0000 0.0000 0.0000 863.0153 0.0000 -534.6975
#
#
#
# Elastic Compliance Matrix: (Units=1/GPa)
#
#
# Indices 1 2 3 4 5 6 
#
# 1 0.018440 -0.004076 0.004359 0.000000 0.014982 0.000000
# 2 -0.004076 0.012878 -0.005385 0.000000 -0.001705 0.000000
# 3 0.004359 -0.005385 0.020895 0.000000 0.014452 0.000000
# 4 0.000000 0.000000 0.000000 0.013755 0.000000 0.022201
# 5 0.014982 -0.001705 0.014452 0.000000 0.049770 0.000000
# 6 0.000000 0.000000 0.000000 0.022201 0.000000 0.033963
#
#
# Mechanical properties :
#
#
# Convention : Reuss Voigt Hill
#
# Bulk Modulus (GPa) = 23.80547 40.04757 31.92652
# Shear Modulus (GPa) = 28.75071 -352.20615 -161.72772
#
# Velocity S-wave (km/s) = 3.67995 -12.88000 -8.72790
# Velocity P-wave (km/s) = 5.41006 14.22426 9.30217
#
# Compressibility (1/GPa) = 0.04200715
#
# Stress axis : x y z
#
# Youngs Moduli (GPa) = 54.23056 77.65360 47.85747
#
# Poissons Ratio (x) = 0.31654 -0.20861
# Poissons Ratio (y) = 0.22106 0.25774
# Poissons Ratio (z) = -0.23639 0.41820
#
# Static dielectric constant tensor:
#      x y z
#    x 1.938810 0.000000 0.009160 
#    y 0.000000 1.780920 0.000000 
#    z 0.009160 0.000000 1.814190 
# 
# From -- ./inp_files/125101.got.cif
#   From: 2010.05.17/outbox.cif.g08.bks.cpg/sg12_63_cif.got.tgz:125101.got - 2010.06.03 13:09:07.
