data_PCOD9218761
_publ_section_title
;
Structure prediction by ZEFSAII (Michael W. Deem and Ramdas Pophale) SiO2 
 PCOD9218761
Probable space group: C 2/M
;
_chemical_formula_sum "Si O2"
_cell_formula_units_Z 32
_cell_length_a 5.345297
_cell_length_b 29.443991
_cell_length_c 9.416722
_cell_angle_alpha 90.000000
_cell_angle_beta 117.691202
_cell_angle_gamma 90.000000
_cell_volume 1312.319744
_symmetry_space_group_name_H-M "C 2/M"
_symmetry_group_IT_number 12
_symmetry_cell_setting 'monoclinic'
loop_
_space_group_symop_operation_xyz
x,y,z
-x,y,-z
-x,-y,-z
x,-y,z
1/2+x,1/2+y,z
1/2-x,1/2+y,-z
1/2-x,1/2-y,-z
1/2+x,1/2-y,z
loop_
_atom_site_type_symbol
_atom_site_label
_atom_site_fract_x
_atom_site_fract_y
_atom_site_fract_z
Si Si1 0.092903 0.230965 0.816172
Si Si2 0.791149 0.049632 0.663023
Si Si3 0.640815 0.359781 0.682202
Si Si4 0.176704 0.597518 0.900446
O O1 0.274762 0.252844 0.739444
O O2 0.108575 0.177454 0.796305
O O3 0.250000 0.250000 0.000000
O O4 0.500000 0.053590 0.500000
O O5 0.711484 0.054254 0.807695
O O6 0.992218 0.091737 0.676147
O O7 0.918445 0.000000 0.667359
O O8 0.500000 0.343245 0.500000
O O9 0.975707 0.368450 0.759795
O O10 0.500000 0.613148 0.000000
O O11 0.000000 0.590533 0.000000
#
# Coordination Sequence:
#
# PCOD9218761 Si02
#       4
#     8   8   8   8
#     4  10  26  46  76 113 154 199 263 335 406 479
#     4  11  26  49  80 120 168 219 274 332 399 483
#     4  12  27  49  83 116 162 218 277 328 406 492
#     4  12  27  46  76 115 160 212 271 336 398 467
#
# _framework density 24.3843
#
# number of rings (size 3 to 8) (size 9 to 14) (size 15 to 20)
#    0.000    0.750    5.000    0.000    7.000    5.500 
#    0.000    0.000    0.000    0.000    0.000    0.000 
#    0.000    0.000    0.000    0.000    0.000    0.000 
#
# Total GULP energy -89437.906630 kJ/mol
# GULP energy per Si atom -5589.869164 kJ/mol
# Density = 2.432880 g / cm^3
# Si number density = 24.384300 Si / 1000 Ang^3
#
#
#
# Elastic Constant Matrix: (Units=GPa)
#
#
# Indices 1 2 3 4 5 6 
#
# 1 181.4793 59.4980 41.7069 0.0000 11.0570 0.0000
# 2 59.4980 183.2149 35.3479 0.0000 6.2211 0.0000
# 3 41.7069 35.3479 128.4157 0.0000 17.2065 0.0000
# 4 0.0000 0.0000 0.0000 3.8066 0.0000 -26.7393
# 5 11.0570 6.2211 17.2065 0.0000 39.9974 0.0000
# 6 0.0000 0.0000 0.0000 -26.7393 0.0000 11.8301
#
#
#
# Elastic Compliance Matrix: (Units=1/GPa)
#
#
# Indices 1 2 3 4 5 6 
#
# 1 0.006495 -0.001790 -0.001500 0.000000 -0.000872 0.000000
# 2 -0.001790 0.006260 -0.001143 0.000000 0.000013 0.000000
# 3 -0.001500 -0.001143 0.009030 0.000000 -0.003292 0.000000
# 4 0.000000 0.000000 0.000000 -0.017658 0.000000 -0.039912
# 5 -0.000872 0.000013 -0.003292 0.000000 0.026657 0.000000
# 6 0.000000 0.000000 0.000000 -0.039912 0.000000 -0.005682
#
#
# Mechanical properties :
#
#
# Convention : Reuss Voigt Hill
#
# Bulk Modulus (GPa) = 77.41206 85.13507 81.27356
# Shear Modulus (GPa) = 130.63469 34.89729 82.76599
#
# Velocity S-wave (km/s) = 7.32732 3.78714 5.83232
# Velocity P-wave (km/s) = 10.16866 7.35615 8.87453
#
# Compressibility (1/GPa) = 0.01291788
#
# Stress axis : x y z
#
# Youngs Moduli (GPa) = 153.96438 159.75504 110.73973
#
# Poissons Ratio (x) = 0.28600 0.16609
# Poissons Ratio (y) = 0.27563 0.12661
# Poissons Ratio (z) = 0.23092 0.18266
#
# Static dielectric constant tensor:
#      x y z
#    x 1.904700 0.000000 -0.034860 
#    y 0.000000 1.975230 0.000000 
#    z -0.034860 0.000000 1.992600 
# 
# From -- ./inp_files/34652.got.cif
#   From: 2010.05.17/outbox.cif.g08.bks.cpg/sg12_18_cif.got.tgz:34652.got - 2010.06.03 13:09:07.
