data_PCOD9218115
_publ_section_title
;
Structure prediction by ZEFSAII (Michael W. Deem and Ramdas Pophale) SiO2 
 PCOD9218115
Probable space group: C 2/M
;
_chemical_formula_sum "Si O2"
_cell_formula_units_Z 52
_cell_length_a 14.809645
_cell_length_b 9.403991
_cell_length_c 18.307016
_cell_angle_alpha 90.000000
_cell_angle_beta 99.262341
_cell_angle_gamma 90.000000
_cell_volume 2516.371300
_symmetry_space_group_name_H-M "C 2/M"
_symmetry_group_IT_number 12
_symmetry_cell_setting 'monoclinic'
loop_
_space_group_symop_operation_xyz
x,y,z
-x,y,-z
-x,-y,-z
x,-y,z
1/2+x,1/2+y,z
1/2-x,1/2+y,-z
1/2-x,1/2-y,-z
1/2+x,1/2-y,z
loop_
_atom_site_type_symbol
_atom_site_label
_atom_site_fract_x
_atom_site_fract_y
_atom_site_fract_z
Si Si1 0.808449 0.841310 0.679682
Si Si2 0.222341 0.329576 0.182127
Si Si3 0.038776 0.672097 0.081771
Si Si4 0.147703 0.258446 0.551115
Si Si5 0.781255 0.500000 0.524461
Si Si6 0.912163 0.328765 0.202724
Si Si7 0.007408 0.834504 0.647998
O O1 0.809324 0.720704 0.741330
O O2 0.716590 0.828592 0.620716
O O3 0.897873 0.829958 0.640828
O O4 0.810992 0.000000 0.713834
O O5 0.235986 0.500000 0.183220
O O6 0.313970 0.243033 0.178913
O O7 0.142502 0.289491 0.115108
O O8 0.037333 0.500000 0.078196
O O9 0.975721 0.710505 0.142259
O O10 0.000000 0.727002 0.000000
O O11 0.144905 0.375495 0.488410
O O12 0.055328 0.215931 0.580275
O O13 0.203872 0.122087 0.532446
O O14 0.906454 0.500000 0.207456
O O15 0.954098 0.261679 0.281350
O O16 0.034522 0.000000 0.663382
#
# Coordination Sequence:
#
# PCOD9218115 Si02
#       7
#     8   8   8   8   4   8   8
#     4  11  23  39  63  93 123 160 205 256 308 358
#     4  11  22  37  61  93 124 161 209 257 303 362
#     4   9  20  40  61  87 129 170 203 250 311 366
#     4  11  22  44  62  92 117 170 192 258 301 370
#     4  10  24  42  66  84 130 156 206 236 316 374
#     4  11  22  37  61  93 124 161 209 257 303 362
#     4  11  23  39  63  93 123 160 205 256 308 358
#
# _framework density 20.664677000000001
#
# number of rings (size 3 to 8) (size 9 to 14) (size 15 to 20)
#    0.000    1.385    4.615    0.923    2.154    0.615 
#    0.000    4.615    0.000    6.462    0.000    0.000 
#    0.000    0.000    0.000    0.000    0.000    0.000 
#
# Total GULP energy -144789.705158 kJ/mol
# GULP energy per Si atom -5568.834814 kJ/mol
# Density = 2.061764 g / cm^3
# Si number density = 20.664677 Si / 1000 Ang^3
#
#
#
# Elastic Constant Matrix: (Units=GPa)
#
#
# Indices 1 2 3 4 5 6 
#
# 1 95.4901 22.6818 23.2747 0.0000 -0.4519 0.0000
# 2 22.6818 125.9793 32.1419 0.0000 -0.8136 0.0000
# 3 23.2747 32.1419 71.3596 0.0000 6.2627 0.0000
# 4 0.0000 0.0000 0.0000 40.8682 0.0000 -5.2053
# 5 -0.4519 -0.8136 6.2627 0.0000 27.4179 0.0000
# 6 0.0000 0.0000 0.0000 -5.2053 0.0000 25.6038
#
#
#
# Elastic Compliance Matrix: (Units=1/GPa)
#
#
# Indices 1 2 3 4 5 6 
#
# 1 0.011574 -0.001237 -0.003298 0.000000 0.000907 0.000000
# 2 -0.001237 0.009140 -0.003812 0.000000 0.001122 0.000000
# 3 -0.003298 -0.003812 0.017165 0.000000 -0.004088 0.000000
# 4 0.000000 0.000000 0.000000 0.025119 0.000000 0.005107
# 5 0.000907 0.001122 -0.004088 0.000000 0.037455 0.000000
# 6 0.000000 0.000000 0.000000 0.005107 0.000000 0.040095
#
#
# Mechanical properties :
#
#
# Convention : Reuss Voigt Hill
#
# Bulk Modulus (GPa) = 47.19960 49.89174 48.54567
# Shear Modulus (GPa) = 30.43156 33.09335 31.76245
#
# Velocity S-wave (km/s) = 3.84166 4.00615 3.92476
# Velocity P-wave (km/s) = 6.52442 6.75240 6.63939
#
# Compressibility (1/GPa) = 0.02118662
#
# Stress axis : x y z
#
# Youngs Moduli (GPa) = 86.39989 109.40558 58.25839
#
# Poissons Ratio (x) = 0.13530 0.19211
# Poissons Ratio (y) = 0.10685 0.22209
# Poissons Ratio (z) = 0.28491 0.41706
#
# Static dielectric constant tensor:
#      x y z
#    x 1.743120 0.000000 0.008990 
#    y 0.000000 1.714890 0.000000 
#    z 0.008990 0.000000 1.777760 
# 
# From -- ./inp_files/308454.got.cif
#   From: 2010.05.17/outbox.cif.g08.bks.cpg/sg12_155_cif.got.tgz:308454.got - 2010.06.03 13:09:07.
