data_PCOD9218592
_publ_section_title
;
Structure prediction by ZEFSAII (Michael W. Deem and Ramdas Pophale) SiO2 
 PCOD9218592
Probable space group: C 2/M
;
_chemical_formula_sum "Si O2"
_cell_formula_units_Z 56
_cell_length_a 7.069131
_cell_length_b 13.518455
_cell_length_c 22.507372
_cell_angle_alpha 90.000000
_cell_angle_beta 87.536606
_cell_angle_gamma 90.000000
_cell_volume 2148.900739
_symmetry_space_group_name_H-M "C 2/M"
_symmetry_group_IT_number 12
_symmetry_cell_setting 'monoclinic'
loop_
_space_group_symop_operation_xyz
x,y,z
-x,y,-z
-x,-y,-z
x,-y,z
1/2+x,1/2+y,z
1/2-x,1/2+y,-z
1/2-x,1/2-y,-z
1/2+x,1/2-y,z
loop_
_atom_site_type_symbol
_atom_site_label
_atom_site_fract_x
_atom_site_fract_y
_atom_site_fract_z
Si Si1 0.145424 0.831697 0.042508
Si Si2 0.413087 0.887769 0.677025
Si Si3 0.487417 0.609902 0.698819
Si Si4 0.247274 0.323422 0.205817
Si Si5 0.057806 0.670920 0.873894
Si Si6 0.745603 0.809627 0.596818
Si Si7 0.724210 0.888930 0.479245
O O1 0.021650 0.767896 0.090621
O O2 0.308999 0.882607 0.079785
O O3 0.250000 0.750000 0.000000
O O4 0.000000 0.885485 0.000000
O O5 0.404518 0.826257 0.738250
O O6 0.545016 0.849084 0.623702
O O7 0.191994 0.890418 0.664616
O O8 0.467473 0.000000 0.691217
O O9 0.404039 0.500000 0.699806
O O10 0.566441 0.630681 0.765036
O O11 0.360163 0.677129 0.657318
O O12 0.128382 0.375263 0.154244
O O13 0.309664 0.217928 0.179144
O O14 0.821850 0.879494 0.543171
O O15 0.725386 0.706695 0.561138
O O16 0.500000 0.880533 0.500000
O O17 0.751094 0.000000 0.455028
#
# Coordination Sequence:
#
# PCOD9218592 Si02
#       7
#     8   8   8   8   8   8   8
#     4   8  14  25  44  72 116 173 234 290 344 418
#     4   9  20  41  68 100 137 173 230 287 344 431
#     4   9  20  41  68 101 136 172 232 285 341 435
#     4   9  19  34  51  90 133 172 216 284 350 426
#     4   9  16  29  48  79 126 173 220 284 360 430
#     4  11  22  46  79 104 127 186 222 275 363 429
#     4  10  24  50  77 108 140 168 226 290 351 433
#
# _framework density 26.059836000000001
#
# number of rings (size 3 to 8) (size 9 to 14) (size 15 to 20)
#    0.857    1.857    0.000    1.286    0.000    2.286 
#   12.857    2.143    0.000   14.571    0.000    0.000 
#    0.000  288.000    0.000    0.000    0.000   10.286 
#
# Total GULP energy -156007.725083 kJ/mol
# GULP energy per Si atom -5571.704467 kJ/mol
# Density = 2.600052 g / cm^3
# Si number density = 26.059836 Si / 1000 Ang^3
#
#
#
# Elastic Constant Matrix: (Units=GPa)
#
#
# Indices 1 2 3 4 5 6 
#
# 1 103.3327 22.2850 40.1730 0.0000 13.2694 0.0000
# 2 22.2850 106.3042 36.3752 0.0000 -1.2846 0.0000
# 3 40.1730 36.3752 162.0441 0.0000 37.4418 0.0000
# 4 0.0000 0.0000 0.0000 -18.1302 0.0000 3.7094
# 5 13.2694 -1.2846 37.4418 0.0000 73.1408 0.0000
# 6 0.0000 0.0000 0.0000 3.7094 0.0000 13.7136
#
#
#
# Elastic Compliance Matrix: (Units=1/GPa)
#
#
# Indices 1 2 3 4 5 6 
#
# 1 0.010972 -0.001574 -0.002156 0.000000 -0.000915 0.000000
# 2 -0.001574 0.010569 -0.002372 0.000000 0.001685 0.000000
# 3 -0.002156 -0.002372 0.008117 0.000000 -0.003806 0.000000
# 4 0.000000 0.000000 0.000000 -0.052264 0.000000 0.014137
# 5 -0.000915 0.001685 -0.003806 0.000000 0.015816 0.000000
# 6 0.000000 0.000000 0.000000 0.014137 0.000000 0.069097
#
#
# Mechanical properties :
#
#
# Convention : Reuss Voigt Hill
#
# Bulk Modulus (GPa) = 57.28481 63.26079 60.27280
# Shear Modulus (GPa) = 62.24508 31.93470 47.08989
#
# Velocity S-wave (km/s) = 4.89258 3.50442 4.25548
# Velocity P-wave (km/s) = 7.34480 6.37985 6.87927
#
# Compressibility (1/GPa) = 0.01745663
#
# Stress axis : x y z
#
# Youngs Moduli (GPa) = 91.13814 94.61844 123.19277
#
# Poissons Ratio (x) = 0.14889 0.26555
# Poissons Ratio (y) = 0.14342 0.29218
# Poissons Ratio (z) = 0.19646 0.22441
#
# Static dielectric constant tensor:
#      x y z
#    x 2.180520 0.000000 0.067750 
#    y 0.000000 2.064910 0.000000 
#    z 0.067750 0.000000 2.163080 
# 
# From -- ./inp_files/332686.got.cif
#   From: 2010.05.17/outbox.cif.g08.bks.cpg/sg12_167_cif.got.tgz:332686.got - 2010.06.03 13:09:07.
