data_PCOD9218187
_publ_section_title
;
Structure prediction by ZEFSAII (Michael W. Deem and Ramdas Pophale) SiO2 
 PCOD9218187
Probable space group: C 2/M
;
_chemical_formula_sum "Si O2"
_cell_formula_units_Z 64
_cell_length_a 20.391010
_cell_length_b 18.026783
_cell_length_c 23.599538
_cell_angle_alpha 90.000000
_cell_angle_beta 158.519324
_cell_angle_gamma 90.000000
_cell_volume 3176.609818
_symmetry_space_group_name_H-M "C 2/M"
_symmetry_group_IT_number 12
_symmetry_cell_setting 'monoclinic'
loop_
_space_group_symop_operation_xyz
x,y,z
-x,y,-z
-x,-y,-z
x,-y,z
1/2+x,1/2+y,z
1/2-x,1/2+y,-z
1/2-x,1/2-y,-z
1/2+x,1/2-y,z
loop_
_atom_site_type_symbol
_atom_site_label
_atom_site_fract_x
_atom_site_fract_y
_atom_site_fract_z
Si Si1 0.526446 0.912004 0.697940
Si Si2 0.487588 0.162726 0.432295
Si Si3 0.203015 0.168486 0.489710
Si Si4 0.661487 0.319658 0.589346
Si Si5 0.641692 0.410354 0.840883
Si Si6 0.420375 0.325262 0.881587
Si Si7 0.390742 0.588032 0.052661
Si Si8 0.981654 0.339253 0.051196
O O1 0.482826 0.879868 0.601329
O O2 0.377915 0.880065 0.619670
O O3 0.520430 0.000000 0.691404
O O4 0.720686 0.890007 0.877553
O O5 0.500000 0.115707 0.500000
O O6 0.621804 0.231230 0.549822
O O7 0.283466 0.192741 0.265992
O O8 0.250000 0.250000 0.500000
O O9 0.162868 0.160785 0.524344
O O10 0.033124 0.132356 0.322010
O O11 0.500000 0.346863 0.500000
O O12 0.841462 0.344160 0.766742
O O13 0.628669 0.500000 0.822947
O O14 0.649433 0.394533 0.914437
O O15 0.815074 0.378641 0.947526
O O16 0.442610 0.371102 0.842119
O O17 0.534516 0.250114 0.966303
O O18 0.500000 0.368121 0.000000
O O19 0.416341 0.500000 0.069413
O O20 0.000000 0.365012 0.000000
#
# Coordination Sequence:
#
# PCOD9218187 Si02
#       8
#     8   8   8   8   8   8   8   8
#     4  11  24  44  65  92 135 182 222 271 330 396
#     4  11  22  39  61  96 138 170 219 272 333 389
#     4  12  26  41  69 100 131 173 219 271 328 392
#     4  11  22  43  67 101 134 166 214 279 333 386
#     4  11  27  47  67  97 135 171 217 275 332 394
#     4  11  22  37  65  98 131 172 220 276 321 383
#     4  10  24  43  64  92 133 179 223 269 326 392
#     4  11  24  42  72  99 127 170 219 278 329 385
#
# _framework density 20.147264
#
# number of rings (size 3 to 8) (size 9 to 14) (size 15 to 20)
#    0.000    1.000    5.000    1.875    7.000    1.750 
#    0.000    0.625    0.000    2.625    0.000    0.000 
#    0.000    0.000    0.000    0.000    0.000    0.000 
#
# Total GULP energy -178477.655648 kJ/mol
# GULP energy per Si atom -5577.426739 kJ/mol
# Density = 2.010141 g / cm^3
# Si number density = 20.147264 Si / 1000 Ang^3
#
#
#
# Elastic Constant Matrix: (Units=GPa)
#
#
# Indices 1 2 3 4 5 6 
#
# 1 128.3243 32.4698 -4.4776 0.0086 -10.1276 0.0054
# 2 32.4698 39.6547 23.8343 0.0133 6.5328 0.0080
# 3 -4.4776 23.8343 57.3977 0.0044 -0.0246 0.0006
# 4 0.0086 0.0133 0.0044 20.6874 0.0001 -1.9397
# 5 -10.1276 6.5328 -0.0246 0.0001 42.0392 0.0020
# 6 0.0054 0.0080 0.0006 -1.9397 0.0020 26.9152
#
#
#
# Elastic Compliance Matrix: (Units=1/GPa)
#
#
# Indices 1 2 3 4 5 6 
#
# 1 0.012395 -0.015486 0.007400 0.000003 0.005397 0.000002
# 2 -0.015486 0.054144 -0.023696 -0.000024 -0.012159 -0.000013
# 3 0.007400 -0.023696 0.027842 0.000007 0.005481 0.000005
# 4 0.000003 -0.000024 0.000007 0.048668 0.000004 0.003507
# 5 0.005397 -0.012159 0.005481 0.000004 0.026980 0.000001
# 6 0.000002 -0.000013 0.000005 0.003507 0.000001 0.037407
#
#
# Mechanical properties :
#
#
# Convention : Reuss Voigt Hill
#
# Bulk Modulus (GPa) = 32.45133 36.55885 34.50509
# Shear Modulus (GPa) = 17.77636 29.49836 23.63736
#
# Velocity S-wave (km/s) = 2.97361 3.83056 3.42896
# Velocity P-wave (km/s) = 5.28506 6.14406 5.73067
#
# Compressibility (1/GPa) = 0.03081538
#
# Stress axis : x y z
#
# Youngs Moduli (GPa) = 80.67500 18.46936 35.91725
#
# Poissons Ratio (x) = 0.28602 -0.26579
# Poissons Ratio (y) = 1.24936 0.85111
# Poissons Ratio (z) = -0.59699 0.43766
#
# Static dielectric constant tensor:
#      x y z
#    x 1.774420 0.000000 -0.035160 
#    y 0.000000 1.726240 -0.000010 
#    z -0.035160 -0.000010 1.746910 
# 
# From -- ./inp_files/347940.got.cif
#   From: 2010.05.17/outbox.cif.g08.bks.cpg/sg12_174_cif.got.tgz:347940.got - 2010.06.03 13:09:07.
