data_PCOD9218076
_publ_section_title
;
Structure prediction by ZEFSAII (Michael W. Deem and Ramdas Pophale) SiO2 
 PCOD9218076
Probable space group: C 2/M
;
_chemical_formula_sum "Si O2"
_cell_formula_units_Z 56
_cell_length_a 19.291807
_cell_length_b 14.496510
_cell_length_c 17.332031
_cell_angle_alpha 90.000000
_cell_angle_beta 150.263645
_cell_angle_gamma 90.000000
_cell_volume 2404.230040
_symmetry_space_group_name_H-M "C 2/M"
_symmetry_group_IT_number 12
_symmetry_cell_setting 'monoclinic'
loop_
_space_group_symop_operation_xyz
x,y,z
-x,y,-z
-x,-y,-z
x,-y,z
1/2+x,1/2+y,z
1/2-x,1/2+y,-z
1/2-x,1/2-y,-z
1/2+x,1/2-y,z
loop_
_atom_site_type_symbol
_atom_site_label
_atom_site_fract_x
_atom_site_fract_y
_atom_site_fract_z
Si Si1 0.340952 0.296351 0.375550
Si Si2 0.282154 0.603179 0.738779
Si Si3 0.979250 0.398221 0.215053
Si Si4 0.805555 0.895191 0.501219
Si Si5 0.725906 0.892650 0.120941
Si Si6 0.596227 0.396838 0.975582
Si Si7 0.569821 0.297157 0.800774
O O1 0.500000 0.304180 0.500000
O O2 0.309945 0.191285 0.370711
O O3 0.317034 0.363075 0.424287
O O4 0.237138 0.329278 0.207083
O O5 0.228319 0.500000 0.667236
O O6 0.435812 0.611705 0.849421
O O7 0.309332 0.607735 0.857115
O O8 0.937830 0.500000 0.203292
O O9 0.145708 0.391999 0.372277
O O10 0.925809 0.311069 0.210577
O O11 0.914525 0.388576 0.066213
O O12 0.909383 0.829169 0.647101
O O13 0.855195 0.000000 0.558573
O O14 0.847350 0.856854 0.181196
O O15 0.748885 0.000000 0.164084
O O16 0.610701 0.500000 0.955508
O O17 0.625360 0.321553 0.939237
#
# Coordination Sequence:
#
# PCOD9218076 Si02
#       7
#     8   8   8   8   8   8   8
#     4  12  24  40  61  86 122 162 208 256 304 362
#     4   9  20  38  60  90 121 158 203 254 304 360
#     4  10  24  42  61  93 127 156 200 257 306 361
#     4  11  24  42  65  92 123 160 207 255 305 361
#     4  11  24  42  65  92 123 160 207 255 305 361
#     4   9  18  36  65  93 118 152 208 257 297 360
#     4  12  21  39  67  92 124 166 203 243 305 370
#
# _framework density 23.292280000000002
#
# number of rings (size 3 to 8) (size 9 to 14) (size 15 to 20)
#    0.000    1.429    1.429    5.143    0.000    2.571 
#    0.000    6.429    0.000    0.000    0.000    0.000 
#    0.000    0.000    0.000    0.000    0.000    0.000 
#
# Total GULP energy -156760.908412 kJ/mol
# GULP energy per Si atom -5598.603872 kJ/mol
# Density = 2.323927 g / cm^3
# Si number density = 23.292280 Si / 1000 Ang^3
#
#
#
# Elastic Constant Matrix: (Units=GPa)
#
#
# Indices 1 2 3 4 5 6 
#
# 1 37.7249 12.8768 3.1477 0.0002 6.7729 0.0001
# 2 12.8768 163.5781 20.3102 0.0002 9.6433 0.0001
# 3 3.1477 20.3102 80.0077 0.0003 12.6025 0.0002
# 4 0.0002 0.0002 0.0003 22.5515 0.0002 -1.3698
# 5 6.7729 9.6433 12.6025 0.0002 24.2199 0.0001
# 6 0.0001 0.0001 0.0002 -1.3698 0.0001 9.8655
#
#
#
# Elastic Compliance Matrix: (Units=1/GPa)
#
#
# Indices 1 2 3 4 5 6 
#
# 1 0.028444 -0.001864 0.000534 0.000000 -0.007490 0.000000
# 2 -0.001864 0.006510 -0.001365 0.000000 -0.001360 0.000000
# 3 0.000534 -0.001365 0.013902 0.000000 -0.006839 0.000000
# 4 0.000000 0.000000 0.000000 0.044720 0.000000 0.006209
# 5 -0.007490 -0.001360 -0.006839 0.000000 0.047483 -0.000001
# 6 0.000000 0.000000 0.000000 0.006209 -0.000001 0.102225
#
#
# Mechanical properties :
#
#
# Convention : Reuss Voigt Hill
#
# Bulk Modulus (GPa) = 23.00677 39.33114 31.16895
# Shear Modulus (GPa) = 18.99968 27.65911 23.32939
#
# Velocity S-wave (km/s) = 2.85916 3.44972 3.16823
# Velocity P-wave (km/s) = 4.56054 5.72626 5.17632
#
# Compressibility (1/GPa) = 0.04346547
#
# Stress axis : x y z
#
# Youngs Moduli (GPa) = 35.15680 153.61751 71.93432
#
# Poissons Ratio (x) = 0.28632 -0.03840
# Poissons Ratio (y) = 0.06553 0.09818
# Poissons Ratio (z) = -0.01877 0.20967
#
# Static dielectric constant tensor:
#      x y z
#    x 1.811580 0.000000 -0.013060 
#    y 0.000000 1.876480 0.000000 
#    z -0.013060 0.000000 1.896330 
# 
# From -- ./inp_files/284592.got.cif
#   From: 2010.05.17/outbox.cif.g08.bks.cpg/sg12_143_cif.got.tgz:284592.got - 2010.06.03 13:09:07.
