data_PCOD9218008
_publ_section_title
;
Structure prediction by ZEFSAII (Michael W. Deem and Ramdas Pophale) SiO2 
 PCOD9218008
Probable space group: C 2/M
;
_chemical_formula_sum "Si O2"
_cell_formula_units_Z 32
_cell_length_a 23.129654
_cell_length_b 7.946342
_cell_length_c 18.376623
_cell_angle_alpha 90.000000
_cell_angle_beta 154.597806
_cell_angle_gamma 90.000000
_cell_volume 1448.867718
_symmetry_space_group_name_H-M "C 2/M"
_symmetry_group_IT_number 12
_symmetry_cell_setting 'monoclinic'
loop_
_space_group_symop_operation_xyz
x,y,z
-x,y,-z
-x,-y,-z
x,-y,z
1/2+x,1/2+y,z
1/2-x,1/2+y,-z
1/2-x,1/2-y,-z
1/2+x,1/2-y,z
loop_
_atom_site_type_symbol
_atom_site_label
_atom_site_fract_x
_atom_site_fract_y
_atom_site_fract_z
Si Si1 0.669437 0.301471 0.480437
Si Si2 0.625063 0.705012 0.806044
Si Si3 0.427145 0.500000 0.995800
Si Si4 0.366913 0.000000 0.301377
Si Si5 0.938218 0.315132 0.849122
O O1 0.653047 0.500000 0.458344
O O2 0.750000 0.250000 0.500000
O O3 0.519400 0.238858 0.323784
O O4 0.780449 0.267347 0.669714
O O5 0.624270 0.500000 0.791339
O O6 0.638311 0.828424 0.751949
O O7 0.750000 0.750000 0.000000
O O8 0.269682 0.500000 0.807868
O O9 0.500000 0.500000 0.000000
O O10 0.479719 0.666597 0.095655
O O11 0.500000 0.000000 0.500000
O O12 0.951462 0.500000 0.829831
O O13 0.000000 0.328697 0.000000
#
# Coordination Sequence:
#
# PCOD9218008 Si02
#       5
#     8   8   4   4   8
#     4  10  24  40  67 102 134 178 235 285 348 422
#     4  11  26  49  72 103 149 194 240 295 364 439
#     4  10  24  42  70 100 138 175 236 288 353 424
#     4  12  30  48  74 108 147 197 243 296 371 427
#     4   9  20  39  64  95 132 170 221 287 347 401
#
# _framework density 22.086212
#
# number of rings (size 3 to 8) (size 9 to 14) (size 15 to 20)
#    0.000    1.750    1.250    0.000   14.000    1.500 
#    0.000    0.000    0.000    0.000    0.000    0.000 
#    0.000    0.000    0.000    0.000    0.000    0.000 
#
# Total GULP energy -89247.873473 kJ/mol
# GULP energy per Si atom -5577.992092 kJ/mol
# Density = 2.203594 g / cm^3
# Si number density = 22.086212 Si / 1000 Ang^3
#
#
#
# Elastic Constant Matrix: (Units=GPa)
#
#
# Indices 1 2 3 4 5 6 
#
# 1 93.1594 24.3884 72.3368 0.0000 20.7551 0.0000
# 2 24.3884 148.5608 55.6252 0.0000 6.1313 0.0000
# 3 72.3368 55.6252 222.6042 0.0000 24.6566 0.0000
# 4 0.0000 0.0000 0.0000 32.8719 0.0000 2.7202
# 5 20.7551 6.1313 24.6566 0.0000 44.8726 0.0000
# 6 0.0000 0.0000 0.0000 2.7202 0.0000 23.8905
#
#
#
# Elastic Compliance Matrix: (Units=1/GPa)
#
#
# Indices 1 2 3 4 5 6 
#
# 1 0.015266 -0.000717 -0.004270 0.000000 -0.004617 0.000000
# 2 -0.000717 0.007460 -0.001656 0.000000 0.000222 0.000000
# 3 -0.004270 -0.001656 0.006442 0.000000 -0.001338 0.000000
# 4 0.000000 0.000000 0.000000 0.030710 0.000000 -0.003497
# 5 -0.004617 0.000222 -0.001338 0.000000 0.025126 0.000000
# 6 0.000000 0.000000 0.000000 -0.003497 0.000000 0.042256
#
#
# Mechanical properties :
#
#
# Convention : Reuss Voigt Hill
#
# Bulk Modulus (GPa) = 62.96322 85.44723 74.20522
# Shear Modulus (GPa) = 34.28412 41.12528 37.70470
#
# Velocity S-wave (km/s) = 3.94418 4.31981 4.13626
# Velocity P-wave (km/s) = 7.02224 7.97829 7.51548
#
# Compressibility (1/GPa) = 0.01588229
#
# Stress axis : x y z
#
# Youngs Moduli (GPa) = 65.50315 134.05362 155.23193
#
# Poissons Ratio (x) = 0.09607 0.66291
# Poissons Ratio (y) = 0.04695 0.25703
# Poissons Ratio (z) = 0.27973 0.22196
#
# Static dielectric constant tensor:
#      x y z
#    x 1.906060 0.000000 -0.025070 
#    y 0.000000 1.886470 0.000000 
#    z -0.025070 0.000000 1.880550 
# 
# From -- ./inp_files/81709.got.cif
#   From: 2010.05.17/outbox.cif.g08.bks.cpg/sg12_41_cif.got.tgz:81709.got - 2010.06.03 13:09:07.
