data_PCOD9218198
_publ_section_title
;
Structure prediction by ZEFSAII (Michael W. Deem and Ramdas Pophale) SiO2 
 PCOD9218198
Probable space group: C 2/M
;
_chemical_formula_sum "Si O2"
_cell_formula_units_Z 48
_cell_length_a 14.835345
_cell_length_b 24.473522
_cell_length_c 11.530647
_cell_angle_alpha 90.000000
_cell_angle_beta 28.119503
_cell_angle_gamma 90.000000
_cell_volume 1973.133231
_symmetry_space_group_name_H-M "C 2/M"
_symmetry_group_IT_number 12
_symmetry_cell_setting 'monoclinic'
loop_
_space_group_symop_operation_xyz
x,y,z
-x,y,-z
-x,-y,-z
x,-y,z
1/2+x,1/2+y,z
1/2-x,1/2+y,-z
1/2-x,1/2-y,-z
1/2+x,1/2-y,z
loop_
_atom_site_type_symbol
_atom_site_label
_atom_site_fract_x
_atom_site_fract_y
_atom_site_fract_z
Si Si1 0.200530 0.908572 0.025851
Si Si2 0.228439 0.123624 0.746019
Si Si3 0.407098 0.934346 0.319346
Si Si4 0.230673 0.747074 0.735637
Si Si5 0.127908 0.060861 0.456325
Si Si6 0.098990 0.209003 0.225796
O O1 0.278853 0.909345 0.806213
O O2 0.369116 0.923071 0.922509
O O3 0.016697 0.942991 0.270107
O O4 0.125994 0.847604 0.131329
O O5 0.314047 0.097147 0.533537
O O6 0.276494 0.188200 0.701300
O O7 0.000000 0.120508 0.000000
O O8 0.314244 0.913995 0.304017
O O9 0.376986 0.000000 0.360722
O O10 0.378611 0.728613 0.466702
O O11 0.316028 0.709800 0.741118
O O12 0.000000 0.741697 0.000000
O O13 0.000000 0.087473 0.500000
O O14 0.178936 0.000000 0.355791
O O15 0.250000 0.250000 0.000000
#
# Coordination Sequence:
#
# PCOD9218198 Si02
#       6
#     8   8   8   8   8   8
#     4  12  24  41  69  99 139 181 231 287 343 418
#     4  11  22  43  68 101 142 184 225 285 354 417
#     4  11  25  43  71 107 138 181 231 282 356 427
#     4  10  24  43  65  97 139 183 240 291 352 418
#     4  10  24  46  68  96 138 180 226 285 342 413
#     4  11  23  41  65  97 136 186 234 285 353 416
#
# _framework density 24.326791
#
# number of rings (size 3 to 8) (size 9 to 14) (size 15 to 20)
#    0.000    1.167    3.333    2.000    4.667    5.000 
#    0.000    2.500    0.000    0.000    0.000    0.000 
#    0.000    0.000    0.000    0.000    0.000    0.000 
#
# Total GULP energy -134078.440305 kJ/mol
# GULP energy per Si atom -5586.601679 kJ/mol
# Density = 2.427142 g / cm^3
# Si number density = 24.326791 Si / 1000 Ang^3
#
#
#
# Elastic Constant Matrix: (Units=GPa)
#
#
# Indices 1 2 3 4 5 6 
#
# 1 139.7910 4.7819 24.6651 0.0050 -22.7567 0.0007
# 2 4.7819 84.1462 25.4188 0.0000 4.0494 0.0000
# 3 24.6651 25.4188 133.3948 0.0066 -22.9899 0.0052
# 4 0.0050 0.0000 0.0066 43.3256 -0.0035 -0.4138
# 5 -22.7567 4.0494 -22.9899 -0.0035 45.2141 -0.0026
# 6 0.0007 0.0000 0.0052 -0.4138 -0.0026 26.4797
#
#
#
# Elastic Compliance Matrix: (Units=1/GPa)
#
#
# Indices 1 2 3 4 5 6 
#
# 1 0.007890 -0.000393 -0.000760 0.000000 0.003620 0.000000
# 2 -0.000393 0.012910 -0.002872 0.000000 -0.002814 0.000000
# 3 -0.000760 -0.002872 0.008947 -0.000001 0.004424 -0.000001
# 4 0.000000 0.000000 -0.000001 0.023084 0.000001 0.000361
# 5 0.003620 -0.002814 0.004424 0.000001 0.026440 0.000002
# 6 0.000000 0.000000 -0.000001 0.000361 0.000002 0.037770
#
#
# Mechanical properties :
#
#
# Convention : Reuss Voigt Hill
#
# Bulk Modulus (GPa) = 46.09190 51.89594 48.99392
# Shear Modulus (GPa) = 37.78574 43.16828 40.47701
#
# Velocity S-wave (km/s) = 3.94541 4.21707 4.08350
# Velocity P-wave (km/s) = 6.30422 6.71496 6.51283
#
# Compressibility (1/GPa) = 0.02169578
#
# Stress axis : x y z
#
# Youngs Moduli (GPa) = 126.73612 77.46216 111.77106
#
# Poissons Ratio (x) = 0.03044 0.08497
# Poissons Ratio (y) = 0.04980 0.32104
# Poissons Ratio (z) = 0.09634 0.22250
#
# Static dielectric constant tensor:
#      x y z
#    x 2.209070 -0.000430 -0.114710 
#    y -0.000430 1.575140 0.000180 
#    z -0.114710 0.000180 2.045820 
# 
# From -- ./inp_files/149638.got.cif
#   From: 2010.05.17/outbox.cif.g08.bks.cpg/sg12_75_cif.got.tgz:149638.got - 2010.06.03 13:09:07.
