data_PCOD9218166
_publ_section_title
;
Structure prediction by ZEFSAII (Michael W. Deem and Ramdas Pophale) SiO2 
 PCOD9218166
Probable space group: C 2/M
;
_chemical_formula_sum "Si O2"
_cell_formula_units_Z 56
_cell_length_a 9.347834
_cell_length_b 27.991177
_cell_length_c 11.321186
_cell_angle_alpha 90.000000
_cell_angle_beta 69.626080
_cell_angle_gamma 90.000000
_cell_volume 2776.948438
_symmetry_space_group_name_H-M "C 2/M"
_symmetry_group_IT_number 12
_symmetry_cell_setting 'monoclinic'
loop_
_space_group_symop_operation_xyz
x,y,z
-x,y,-z
-x,-y,-z
x,-y,z
1/2+x,1/2+y,z
1/2-x,1/2+y,-z
1/2-x,1/2-y,-z
1/2+x,1/2-y,z
loop_
_atom_site_type_symbol
_atom_site_label
_atom_site_fract_x
_atom_site_fract_y
_atom_site_fract_z
Si Si1 0.598067 0.815961 0.583606
Si Si2 0.690768 0.190306 0.202213
Si Si3 0.170103 0.346024 0.960149
Si Si4 0.242629 0.053831 0.983120
Si Si5 0.631167 0.647886 0.636683
Si Si6 0.080264 0.946129 0.786307
Si Si7 0.332887 0.704532 0.703895
O O1 0.500000 0.794915 0.500000
O O2 0.467316 0.835105 0.709530
O O3 0.718425 0.851879 0.488669
O O4 0.715129 0.785680 0.630104
O O5 0.818643 0.173882 0.256628
O O6 0.650859 0.245703 0.232416
O O7 0.739969 0.178221 0.056530
O O8 0.166236 0.402105 0.990159
O O9 0.257069 0.332730 0.816838
O O10 0.000000 0.326266 0.000000
O O11 0.081868 0.054998 0.099760
O O12 0.305287 0.000000 0.976871
O O13 0.202862 0.062437 0.856373
O O14 0.586112 0.594575 0.686514
O O15 0.492787 0.679700 0.627401
O O16 0.102953 0.000000 0.734401
#
# Coordination Sequence:
#
# PCOD9218166 Si02
#       7
#     8   8   8   8   8   8   8
#     4  10  24  43  60  83 119 164 210 253 298 348
#     4  11  24  41  58  89 127 165 200 250 310 362
#     4  12  23  38  61  87 130 160 195 254 318 371
#     4   9  18  35  60  90 121 153 199 252 314 375
#     4  11  22  37  68  88 120 161 212 255 295 364
#     4   9  17  34  61  93 121 152 198 258 316 367
#     4  12  24  40  61  91 120 166 212 253 302 363
#
# _framework density 20.166021000000001
#
# number of rings (size 3 to 8) (size 9 to 14) (size 15 to 20)
#    0.000    1.429    4.286    2.571    0.000    7.143 
#    0.000    0.000    0.000    7.286    0.000    0.000 
#    0.000    0.000    0.000    0.000    0.000    0.000 
#
# Total GULP energy -156193.344836 kJ/mol
# GULP energy per Si atom -5578.333744 kJ/mol
# Density = 2.012012 g / cm^3
# Si number density = 20.166021 Si / 1000 Ang^3
#
#
#
# Elastic Constant Matrix: (Units=GPa)
#
#
# Indices 1 2 3 4 5 6 
#
# 1 99.0782 18.3234 27.3376 0.0000 5.2028 0.0000
# 2 18.3234 111.0072 18.7658 0.0000 9.5361 0.0000
# 3 27.3376 18.7658 55.4464 0.0000 14.2418 0.0000
# 4 0.0000 0.0000 0.0000 10.5208 0.0000 1.4028
# 5 5.2028 9.5361 14.2418 0.0000 18.7046 0.0000
# 6 0.0000 0.0000 0.0000 1.4028 0.0000 20.0665
#
#
#
# Elastic Compliance Matrix: (Units=1/GPa)
#
#
# Indices 1 2 3 4 5 6 
#
# 1 0.011837 -0.001106 -0.005919 0.000000 0.001778 0.000000
# 2 -0.001106 0.009795 -0.001947 0.000000 -0.003204 0.000000
# 3 -0.005919 -0.001947 0.026024 0.000000 -0.017176 0.000000
# 4 0.000000 0.000000 0.000000 0.095944 0.000000 -0.006707
# 5 0.001778 -0.003204 -0.017176 0.000000 0.067680 0.000000
# 6 0.000000 0.000000 0.000000 -0.006707 0.000000 0.050303
#
#
# Mechanical properties :
#
#
# Convention : Reuss Voigt Hill
#
# Bulk Modulus (GPa) = 33.65446 43.82061 38.73754
# Shear Modulus (GPa) = 17.27521 23.26538 20.27029
#
# Velocity S-wave (km/s) = 2.93003 3.40029 3.17388
# Velocity P-wave (km/s) = 5.30770 6.09861 5.71685
#
# Compressibility (1/GPa) = 0.02971374
#
# Stress axis : x y z
#
# Youngs Moduli (GPa) = 84.47868 102.08910 38.42547
#
# Poissons Ratio (x) = 0.11292 0.22743
# Poissons Ratio (y) = 0.09344 0.07481
# Poissons Ratio (z) = 0.50000 0.19876
#
# Static dielectric constant tensor:
#      x y z
#    x 1.743750 0.000000 0.018010 
#    y 0.000000 1.711230 0.000000 
#    z 0.018010 0.000000 1.741580 
# 
# From -- ./inp_files/124226.got.cif
#   From: 2010.05.17/outbox.cif.g08.bks.cpg/sg12_63_cif.got.tgz:124226.got - 2010.06.03 13:09:07.
