data_PCOD9218682
_publ_section_title
;
Structure prediction by ZEFSAII (Michael W. Deem and Ramdas Pophale) SiO2 
 PCOD9218682
Probable space group: C 2/M
;
_chemical_formula_sum "Si O2"
_cell_formula_units_Z 32
_cell_length_a 17.197482
_cell_length_b 19.482037
_cell_length_c 4.979820
_cell_angle_alpha 90.000000
_cell_angle_beta 59.280622
_cell_angle_gamma 90.000000
_cell_volume 1434.331279
_symmetry_space_group_name_H-M "C 2/M"
_symmetry_group_IT_number 12
_symmetry_cell_setting 'monoclinic'
loop_
_space_group_symop_operation_xyz
x,y,z
-x,y,-z
-x,-y,-z
x,-y,z
1/2+x,1/2+y,z
1/2-x,1/2+y,-z
1/2-x,1/2-y,-z
1/2+x,1/2-y,z
loop_
_atom_site_type_symbol
_atom_site_label
_atom_site_fract_x
_atom_site_fract_y
_atom_site_fract_z
Si Si1 0.434272 0.922846 0.866824
Si Si2 0.604509 0.577601 0.396561
Si Si3 0.690659 0.204021 0.887813
Si Si4 0.658943 0.339255 0.797758
O O1 0.500000 0.927287 0.500000
O O2 0.395294 0.000000 0.985559
O O3 0.500000 0.905234 0.000000
O O4 0.361559 0.863860 0.932334
O O5 0.500000 0.576472 0.500000
O O6 0.638704 0.500000 0.353947
O O7 0.607700 0.614257 0.676059
O O8 0.659900 0.619739 0.074951
O O9 0.620681 0.263273 0.918533
O O10 0.749053 0.178133 0.528641
O O11 0.750000 0.250000 0.000000
#
# Coordination Sequence:
#
# PCOD9218682 Si02
#       4
#     8   8   8   8
#     4  10  25  46  70 100 136 183 233 285 346 410
#     4  11  24  43  65  97 139 180 228 276 334 413
#     4  11  25  46  68 104 139 176 229 293 341 419
#     4  11  24  42  66  97 133 181 229 280 348 404
#
# _framework density 22.310048999999999
#
# number of rings (size 3 to 8) (size 9 to 14) (size 15 to 20)
#    0.000    1.250    2.500    1.500    7.000    7.000 
#    0.000    0.000    0.000    0.000    0.000    0.000 
#    0.000    0.000    0.000    0.000    0.000    0.000 
#
# Total GULP energy -89249.945035 kJ/mol
# GULP energy per Si atom -5578.121565 kJ/mol
# Density = 2.225927 g / cm^3
# Si number density = 22.310049 Si / 1000 Ang^3
#
#
#
# Elastic Constant Matrix: (Units=GPa)
#
#
# Indices 1 2 3 4 5 6 
#
# 1 70.2727 60.1866 26.9541 0.0000 12.4892 0.0000
# 2 60.1866 211.5849 40.6330 0.0000 -11.0133 0.0000
# 3 26.9541 40.6330 96.4873 0.0000 15.2871 0.0000
# 4 0.0000 0.0000 0.0000 59.9969 0.0000 0.5785
# 5 12.4892 -11.0133 15.2871 0.0000 30.3496 0.0000
# 6 0.0000 0.0000 0.0000 0.5785 0.0000 38.2741
#
#
#
# Elastic Compliance Matrix: (Units=1/GPa)
#
#
# Indices 1 2 3 4 5 6 
#
# 1 0.022494 -0.006613 -0.001795 0.000000 -0.010752 0.000000
# 2 -0.006613 0.007392 -0.002306 0.000000 0.006565 0.000000
# 3 -0.001795 -0.002306 0.012880 0.000000 -0.006586 0.000000
# 4 0.000000 0.000000 0.000000 0.016670 0.000000 -0.000252
# 5 -0.010752 0.006565 -0.006586 0.000000 0.043074 0.000000
# 6 0.000000 0.000000 0.000000 -0.000252 0.000000 0.026131
#
#
# Mechanical properties :
#
#
# Convention : Reuss Voigt Hill
#
# Bulk Modulus (GPa) = 46.86606 70.43246 58.64926
# Shear Modulus (GPa) = 31.81036 42.42888 37.11962
#
# Velocity S-wave (km/s) = 3.78011 4.36568 4.08340
# Velocity P-wave (km/s) = 6.33282 7.55318 6.96976
#
# Compressibility (1/GPa) = 0.02133740
#
# Stress axis : x y z
#
# Youngs Moduli (GPa) = 44.45623 135.28166 77.64050
#
# Poissons Ratio (x) = 0.89468 0.13938
# Poissons Ratio (y) = 0.29401 0.17901
# Poissons Ratio (z) = 0.07981 0.31191
#
# Static dielectric constant tensor:
#      x y z
#    x 1.926550 0.000000 0.008190 
#    y 0.000000 1.895620 0.000000 
#    z 0.008190 0.000000 1.783080 
# 
# From -- ./inp_files/14907.got.cif
#   From: 2010.05.17/outbox.cif.g08.bks.cpg/sg12_8_cif.got.tgz:14907.got - 2010.06.03 13:09:07.
