data_PCOD9218073
_publ_section_title
;
Structure prediction by ZEFSAII (Michael W. Deem and Ramdas Pophale) SiO2 
 PCOD9218073
Probable space group: C 2/M
;
_chemical_formula_sum "Si O2"
_cell_formula_units_Z 44
_cell_length_a 8.460969
_cell_length_b 19.913996
_cell_length_c 11.723893
_cell_angle_alpha 90.000000
_cell_angle_beta 101.730397
_cell_angle_gamma 90.000000
_cell_volume 1934.123086
_symmetry_space_group_name_H-M "C 2/M"
_symmetry_group_IT_number 12
_symmetry_cell_setting 'monoclinic'
loop_
_space_group_symop_operation_xyz
x,y,z
-x,y,-z
-x,-y,-z
x,-y,z
1/2+x,1/2+y,z
1/2-x,1/2+y,-z
1/2-x,1/2-y,-z
1/2+x,1/2-y,z
loop_
_atom_site_type_symbol
_atom_site_label
_atom_site_fract_x
_atom_site_fract_y
_atom_site_fract_z
Si Si1 0.220362 0.385115 0.673309
Si Si2 0.308052 0.422339 0.442575
Si Si3 0.576093 0.000000 0.809674
Si Si4 0.000000 0.270918 0.000000
Si Si5 0.098811 0.121940 0.782457
Si Si6 0.758838 0.500000 0.924808
Si Si7 0.186948 0.724802 0.834248
O O1 0.211774 0.393522 0.536191
O O2 0.114679 0.437167 0.731356
O O3 0.410692 0.394529 0.731694
O O4 0.182886 0.310970 0.713566
O O5 0.500000 0.420340 0.500000
O O6 0.262320 0.500000 0.422985
O O7 0.300005 0.387013 0.319965
O O8 0.407796 0.000000 0.855133
O O9 0.696508 0.000000 0.935876
O O10 0.073500 0.313355 0.908057
O O11 0.859111 0.227845 0.921332
O O12 0.161499 0.067544 0.880828
O O13 0.126902 0.198858 0.819966
#
# Coordination Sequence:
#
# PCOD9218073 Si02
#       7
#     8   8   4   4   8   4   8
#     4  11  23  42  66  93 123 168 214 256 313 380
#     4   9  18  39  66  90 122 165 209 258 313 371
#     4  11  27  40  61  92 130 163 208 267 318 371
#     4  10  24  42  60  90 136 170 206 254 322 378
#     4  11  23  42  66  93 123 168 214 256 313 380
#     4  11  27  40  61  92 130 163 208 267 318 371
#     4  11  24  39  66  94 126 171 213 258 314 372
#
# _framework density 22.749326
#
# number of rings (size 3 to 8) (size 9 to 14) (size 15 to 20)
#    0.000    1.455    3.636    0.545    7.636    2.182 
#    0.000    1.818    0.000    0.000    0.000    0.000 
#    0.000    0.000    0.000    0.000    0.000    0.000 
#
# Total GULP energy -122922.225468 kJ/mol
# GULP energy per Si atom -5587.373885 kJ/mol
# Density = 2.269755 g / cm^3
# Si number density = 22.749326 Si / 1000 Ang^3
#
#
#
# Elastic Constant Matrix: (Units=GPa)
#
#
# Indices 1 2 3 4 5 6 
#
# 1 61.8635 -0.3964 0.0024 0.0000 -23.0756 0.0000
# 2 -0.3964 71.6328 1.9645 0.0000 -8.4473 0.0000
# 3 0.0024 1.9645 71.6044 0.0000 -29.0050 0.0000
# 4 0.0000 0.0000 0.0000 30.3633 0.0000 -5.6136
# 5 -23.0756 -8.4473 -29.0050 0.0000 37.8814 0.0000
# 6 0.0000 0.0000 0.0000 -5.6136 0.0000 10.1336
#
#
#
# Elastic Compliance Matrix: (Units=1/GPa)
#
#
# Indices 1 2 3 4 5 6 
#
# 1 0.024539 0.002531 0.009007 0.000000 0.022409 0.000000
# 2 0.002531 0.014683 0.002244 0.000000 0.006534 0.000000
# 3 0.009007 0.002244 0.023671 0.000000 0.024111 0.000000
# 4 0.000000 0.000000 0.000000 0.036692 0.000000 0.020326
# 5 0.022409 0.006534 0.024111 0.000000 0.059967 0.000000
# 6 0.000000 0.000000 0.000000 0.020326 0.000000 0.109941
#
#
# Mechanical properties :
#
#
# Convention : Reuss Voigt Hill
#
# Bulk Modulus (GPa) = 11.05483 23.13796 17.09640
# Shear Modulus (GPa) = 18.37684 29.24435 23.81059
#
# Velocity S-wave (km/s) = 2.84526 3.58928 3.23871
# Velocity P-wave (km/s) = 3.95777 5.23165 4.63865
#
# Compressibility (1/GPa) = 0.09045816
#
# Stress axis : x y z
#
# Youngs Moduli (GPa) = 40.75089 68.10538 42.24655
#
# Poissons Ratio (x) = -0.17240 -0.38052
# Poissons Ratio (y) = -0.10316 -0.09480
# Poissons Ratio (z) = -0.36705 -0.15283
#
# Static dielectric constant tensor:
#      x y z
#    x 1.935490 0.000000 -0.024510 
#    y 0.000000 1.803910 0.000000 
#    z -0.024510 0.000000 1.824410 
# 
# From -- ./inp_files/120895.got.cif
#   From: 2010.05.17/outbox.cif.g08.bks.cpg/sg12_61_cif.got.tgz:120895.got - 2010.06.03 13:09:07.
