data_PCOD9218266
_publ_section_title
;
Structure prediction by ZEFSAII (Michael W. Deem and Ramdas Pophale) SiO2 
 PCOD9218266
Probable space group: C 2/M
;
_chemical_formula_sum "Si O2"
_cell_formula_units_Z 34
_cell_length_a 20.300614
_cell_length_b 13.649254
_cell_length_c 8.179715
_cell_angle_alpha 90.000000
_cell_angle_beta 141.152267
_cell_angle_gamma 90.000000
_cell_volume 1421.670365
_symmetry_space_group_name_H-M "C 2/M"
_symmetry_group_IT_number 12
_symmetry_cell_setting 'monoclinic'
loop_
_space_group_symop_operation_xyz
x,y,z
-x,y,-z
-x,-y,-z
x,-y,z
1/2+x,1/2+y,z
1/2-x,1/2+y,-z
1/2-x,1/2-y,-z
1/2+x,1/2-y,z
loop_
_atom_site_type_symbol
_atom_site_label
_atom_site_fract_x
_atom_site_fract_y
_atom_site_fract_z
Si Si1 0.311307 0.109450 0.478285
Si Si2 0.832960 0.890753 0.237549
Si Si3 0.392249 0.384061 0.726895
Si Si4 0.381097 0.816800 0.271735
Si Si5 0.000000 0.500000 0.000000
O O1 0.211881 0.150285 0.381884
O O2 0.343312 0.172833 0.385511
O O3 0.284904 0.000000 0.358189
O O4 0.410393 0.084480 0.783875
O O5 0.879297 0.879923 0.507853
O O6 0.874955 0.798400 0.215131
O O7 0.858413 0.000000 0.227029
O O8 0.706206 0.875867 0.998313
O O9 0.394642 0.500000 0.769876
O O10 0.500000 0.338827 0.000000
O O11 0.500000 0.853968 0.500000
#
# Coordination Sequence:
#
# PCOD9218266 Si02
#       5
#     8   8   8   8   2
#     4   9  20  37  61  96 134 164 213 267 332 384
#     4  10  24  44  64  91 130 175 218 270 333 386
#     4   9  19  38  64  92 125 169 217 262 323 393
#     4  11  25  41  65 100 131 171 224 269 322 398
#     4   8  20  36  60 100 136 170 204 282 334 380
#
# _framework density 23.915527999999998
#
# number of rings (size 3 to 8) (size 9 to 14) (size 15 to 20)
#    0.706    1.647    0.000    0.706    3.294    7.059 
#    2.118    2.353    0.000    0.000    0.000    0.000 
#    0.000    0.000    0.000    0.000    0.000    0.000 
#
# Total GULP energy -94664.605876 kJ/mol
# GULP energy per Si atom -5568.506228 kJ/mol
# Density = 2.386110 g / cm^3
# Si number density = 23.915528 Si / 1000 Ang^3
#
#
#
# Elastic Constant Matrix: (Units=GPa)
#
#
# Indices 1 2 3 4 5 6 
#
# 1 40.8382 -11.4812 38.9839 0.0000 17.2934 0.0000
# 2 -11.4812 114.1342 -8.4695 0.0000 4.2575 0.0000
# 3 38.9839 -8.4695 184.3560 0.0000 45.7903 0.0000
# 4 0.0000 0.0000 0.0000 12.1041 0.0000 -7.3028
# 5 17.2934 4.2575 45.7903 0.0000 23.4578 0.0000
# 6 0.0000 0.0000 0.0000 -7.3028 0.0000 1.3288
#
#
#
# Elastic Compliance Matrix: (Units=1/GPa)
#
#
# Indices 1 2 3 4 5 6 
#
# 1 0.038311 0.004753 -0.001269 0.000000 -0.026630 0.000000
# 2 0.004753 0.009648 0.001443 0.000000 -0.008072 0.000000
# 3 -0.001269 0.001443 0.010854 0.000000 -0.020514 0.000000
# 4 0.000000 0.000000 0.000000 -0.035676 0.000000 -0.196066
# 5 -0.026630 -0.008072 -0.020514 0.000000 0.103771 0.000000
# 6 0.000000 0.000000 0.000000 -0.196066 0.000000 -0.324972
#
#
# Mechanical properties :
#
#
# Convention : Reuss Voigt Hill
#
# Bulk Modulus (GPa) = 14.56283 41.93275 28.24779
# Shear Modulus (GPa) = -27.02269 28.73116 0.85424
#
# Velocity S-wave (km/s) = -3.36508 3.46982 0.59830
# Velocity P-wave (km/s) = 2.99931 5.79868 3.50919
#
# Compressibility (1/GPa) = 0.06866799
#
# Stress axis : x y z
#
# Youngs Moduli (GPa) = 26.10234 103.64908 92.13038
#
# Poissons Ratio (x) = -0.49265 0.11687
# Poissons Ratio (y) = -0.12407 -0.13295
# Poissons Ratio (z) = 0.03311 -0.14957
#
# Static dielectric constant tensor:
#      x y z
#    x 1.891300 0.000000 0.047050 
#    y 0.000000 1.969400 0.000000 
#    z 0.047050 0.000000 1.944740 
# 
# From -- ./inp_files/95995.got.cif
#   From: 2010.05.17/outbox.cif.g08.bks.cpg/sg12_48_cif.got.tgz:95995.got - 2010.06.03 13:09:07.
