data_PCOD9218063
_publ_section_title
;
Structure prediction by ZEFSAII (Michael W. Deem and Ramdas Pophale) SiO2 
 PCOD9218063
Probable space group: C 2/M
;
_chemical_formula_sum "Si O2"
_cell_formula_units_Z 40
_cell_length_a 18.468786
_cell_length_b 17.057514
_cell_length_c 10.834729
_cell_angle_alpha 90.000000
_cell_angle_beta 150.081635
_cell_angle_gamma 90.000000
_cell_volume 1702.427453
_symmetry_space_group_name_H-M "C 2/M"
_symmetry_group_IT_number 12
_symmetry_cell_setting 'monoclinic'
loop_
_space_group_symop_operation_xyz
x,y,z
-x,y,-z
-x,-y,-z
x,-y,z
1/2+x,1/2+y,z
1/2-x,1/2+y,-z
1/2-x,1/2-y,-z
1/2+x,1/2-y,z
loop_
_atom_site_type_symbol
_atom_site_label
_atom_site_fract_x
_atom_site_fract_y
_atom_site_fract_z
Si Si1 0.564514 0.084545 0.958651
Si Si2 0.326897 0.353315 0.226743
Si Si3 0.808050 0.327645 0.515609
Si Si4 0.207732 0.178020 0.087910
Si Si5 0.947812 0.913893 0.780164
O O1 0.478525 0.157569 0.774062
O O2 0.528656 0.000000 0.848448
O O3 0.500000 0.083941 0.000000
O O4 0.734290 0.099077 0.189691
O O5 0.500000 0.362228 0.500000
O O6 0.278567 0.262852 0.170950
O O7 0.267265 0.371989 0.000319
O O8 0.750000 0.250000 0.500000
O O9 0.766917 0.338484 0.312054
O O10 0.721510 0.395737 0.460196
O O11 0.035558 0.158054 0.849048
O O12 0.978650 0.000000 0.771847
O O13 0.000000 0.915661 0.000000
#
# Coordination Sequence:
#
# PCOD9218063 Si02
#       5
#     8   8   8   8   8
#     4  11  26  46  68 100 140 180 228 283 343 409
#     4  11  26  45  69  98 135 180 228 281 343 409
#     4  11  22  39  71 103 137 176 225 283 334 405
#     4  10  24  41  69  99 132 175 230 281 336 402
#     4   9  19  38  63  97 132 168 215 270 334 398
#
# _framework density 23.495861000000001
#
# number of rings (size 3 to 8) (size 9 to 14) (size 15 to 20)
#    0.000    1.600    0.000    3.000   11.200    3.600 
#    0.000    1.000    0.000    0.000    0.000    0.000 
#    0.000    0.000    0.000    0.000    0.000    0.000 
#
# Total GULP energy -111393.825557 kJ/mol
# GULP energy per Si atom -5569.691278 kJ/mol
# Density = 2.344238 g / cm^3
# Si number density = 23.495861 Si / 1000 Ang^3
#
#
#
# Elastic Constant Matrix: (Units=GPa)
#
#
# Indices 1 2 3 4 5 6 
#
# 1 132.2763 22.9327 53.7637 0.0000 -4.3589 0.0000
# 2 22.9327 83.9409 35.3149 0.0000 11.9797 0.0000
# 3 53.7637 35.3149 118.4125 0.0000 23.9125 0.0000
# 4 0.0000 0.0000 0.0000 14.9666 0.0000 6.1567
# 5 -4.3589 11.9797 23.9125 0.0000 51.8016 0.0000
# 6 0.0000 0.0000 0.0000 6.1567 0.0000 13.2616
#
#
#
# Elastic Compliance Matrix: (Units=1/GPa)
#
#
# Indices 1 2 3 4 5 6 
#
# 1 0.009808 -0.001139 -0.004779 0.000000 0.003295 0.000000
# 2 -0.001139 0.013848 -0.003250 0.000000 -0.001798 0.000000
# 3 -0.004779 -0.003250 0.012697 0.000000 -0.005512 0.000000
# 4 0.000000 0.000000 0.000000 0.082587 0.000000 -0.038341
# 5 0.003295 -0.001798 -0.005512 0.000000 0.022542 0.000000
# 6 0.000000 0.000000 0.000000 -0.038341 0.000000 0.093205
#
#
# Mechanical properties :
#
#
# Convention : Reuss Voigt Hill
#
# Bulk Modulus (GPa) = 55.50015 62.07249 58.78632
# Shear Modulus (GPa) = 19.30280 30.84720 25.07500
#
# Velocity S-wave (km/s) = 2.86936 3.62730 3.27036
# Velocity P-wave (km/s) = 5.88644 6.63467 6.27172
#
# Compressibility (1/GPa) = 0.01801797
#
# Stress axis : x y z
#
# Youngs Moduli (GPa) = 101.95288 72.21161 78.75807
#
# Poissons Ratio (x) = 0.08227 0.37638
# Poissons Ratio (y) = 0.11616 0.25593
# Poissons Ratio (z) = 0.48723 0.23466
#
# Static dielectric constant tensor:
#      x y z
#    x 1.978280 0.000000 -0.032790 
#    y 0.000000 1.880640 0.000000 
#    z -0.032790 0.000000 1.920140 
# 
# From -- ./inp_files/158493.got.cif
#   From: 2010.05.17/outbox.cif.g08.bks.cpg/sg12_80_cif.got.tgz:158493.got - 2010.06.03 13:09:07.
