data_PCOD9218377
_publ_section_title
;
Structure prediction by ZEFSAII (Michael W. Deem and Ramdas Pophale) SiO2 
 PCOD9218377
Probable space group: C 2/M
;
_chemical_formula_sum "Si O2"
_cell_formula_units_Z 44
_cell_length_a 13.293777
_cell_length_b 25.742387
_cell_length_c 8.268462
_cell_angle_alpha 90.000000
_cell_angle_beta 43.426411
_cell_angle_gamma 90.000000
_cell_volume 1945.116388
_symmetry_space_group_name_H-M "C 2/M"
_symmetry_group_IT_number 12
_symmetry_cell_setting 'monoclinic'
loop_
_space_group_symop_operation_xyz
x,y,z
-x,y,-z
-x,-y,-z
x,-y,z
1/2+x,1/2+y,z
1/2-x,1/2+y,-z
1/2-x,1/2-y,-z
1/2+x,1/2-y,z
loop_
_atom_site_type_symbol
_atom_site_label
_atom_site_fract_x
_atom_site_fract_y
_atom_site_fract_z
Si Si1 0.357659 0.599582 0.055737
Si Si2 0.662409 0.309226 0.394278
Si Si3 0.231254 0.000000 0.666077
Si Si4 0.243662 0.587656 0.861921
Si Si5 0.125871 0.000000 0.483423
Si Si6 0.538011 0.000000 0.259986
Si Si7 0.668552 0.702831 0.769644
O O1 0.271071 0.551183 0.226662
O O2 0.283282 0.654848 0.174241
O O3 0.500000 0.603001 0.000000
O O4 0.370847 0.590693 0.850304
O O5 0.500000 0.311391 0.500000
O O6 0.765065 0.353332 0.191344
O O7 0.665073 0.316600 0.586662
O O8 0.730387 0.251613 0.306341
O O9 0.090212 0.000000 0.713553
O O10 0.372981 0.000000 0.388149
O O11 0.290617 0.552873 0.656958
O O12 0.119582 0.551894 0.096003
O O13 0.000000 0.000000 0.500000
O O14 0.500000 0.000000 0.500000
O O15 0.500000 0.717730 0.000000
#
# Coordination Sequence:
#
# PCOD9218377 Si02
#       7
#     8   8   4   8   4   4   8
#     4  11  21  38  66  95 131 174 227 274 338 404
#     4  11  23  45  71  99 134 178 234 285 337 405
#     4  12  22  40  68  95 135 180 219 276 341 404
#     4  11  23  40  66  93 134 176 220 279 331 402
#     4  11  22  38  60  95 129 163 218 271 334 390
#     4  11  23  47  62 102 143 176 225 278 343 416
#     4  10  24  45  66 101 138 177 227 283 344 408
#
# _framework density 22.620756
#
# number of rings (size 3 to 8) (size 9 to 14) (size 15 to 20)
#    0.000    1.091    1.818    5.727    0.000    4.364 
#   13.091    0.000    0.000    0.000    0.000    0.000 
#    0.000    0.000    0.000    0.000    0.000    0.000 
#
# Total GULP energy -122684.920349 kJ/mol
# GULP energy per Si atom -5576.587289 kJ/mol
# Density = 2.256927 g / cm^3
# Si number density = 22.620756 Si / 1000 Ang^3
#
#
#
# Elastic Constant Matrix: (Units=GPa)
#
#
# Indices 1 2 3 4 5 6 
#
# 1 79.6875 46.3238 24.3612 0.0000 22.9304 0.0000
# 2 46.3238 165.4243 56.6481 0.0000 2.8002 0.0000
# 3 24.3612 56.6481 82.3146 0.0000 9.3837 0.0000
# 4 0.0000 0.0000 0.0000 39.3853 0.0000 12.9078
# 5 22.9304 2.8002 9.3837 0.0000 34.7491 0.0000
# 6 0.0000 0.0000 0.0000 12.9078 0.0000 -30.4055
#
#
#
# Elastic Compliance Matrix: (Units=1/GPa)
#
#
# Indices 1 2 3 4 5 6 
#
# 1 0.019076 -0.004805 -0.000978 0.000000 -0.011937 0.000000
# 2 -0.004805 0.009144 -0.005312 0.000000 0.003868 0.000000
# 3 -0.000978 -0.005312 0.016478 0.000000 -0.003376 0.000000
# 4 0.000000 0.000000 0.000000 0.022289 0.000000 0.009462
# 5 -0.011937 0.003868 -0.003376 0.000000 0.037255 0.000000
# 6 0.000000 0.000000 0.000000 0.009462 0.000000 -0.028872
#
#
# Mechanical properties :
#
#
# Convention : Reuss Voigt Hill
#
# Bulk Modulus (GPa) = 44.42701 64.67695 54.55198
# Shear Modulus (GPa) = 47.59052 22.08533 34.83793
#
# Velocity S-wave (km/s) = 4.59174 3.12802 3.92865
# Velocity P-wave (km/s) = 6.91337 6.45755 6.68934
#
# Compressibility (1/GPa) = 0.02250883
#
# Stress axis : x y z
#
# Youngs Moduli (GPa) = 52.42190 109.36055 60.68531
#
# Poissons Ratio (x) = 0.52546 0.05936
# Poissons Ratio (y) = 0.25188 0.32235
# Poissons Ratio (z) = 0.05128 0.58090
#
# Static dielectric constant tensor:
#      x y z
#    x 2.000140 0.000000 -0.070610 
#    y 0.000000 1.851550 0.000000 
#    z -0.070610 0.000000 1.882140 
# 
# From -- ./inp_files/65206.got.cif
#   From: 2010.05.17/outbox.cif.g08.bks.cpg/sg12_33_cif.got.tgz:65206.got - 2010.06.03 13:09:07.
