data_PCOD9218502
_publ_section_title
;
Structure prediction by ZEFSAII (Michael W. Deem and Ramdas Pophale) SiO2 
 PCOD9218502
Probable space group: C 2/M
;
_chemical_formula_sum "Si O2"
_cell_formula_units_Z 28
_cell_length_a 4.898876
_cell_length_b 31.063179
_cell_length_c 7.863557
_cell_angle_alpha 90.000000
_cell_angle_beta 66.072954
_cell_angle_gamma 90.000000
_cell_volume 1093.798515
_symmetry_space_group_name_H-M "C 2/M"
_symmetry_group_IT_number 12
_symmetry_cell_setting 'monoclinic'
loop_
_space_group_symop_operation_xyz
x,y,z
-x,y,-z
-x,-y,-z
x,-y,z
1/2+x,1/2+y,z
1/2-x,1/2+y,-z
1/2-x,1/2-y,-z
1/2+x,1/2-y,z
loop_
_atom_site_type_symbol
_atom_site_label
_atom_site_fract_x
_atom_site_fract_y
_atom_site_fract_z
Si Si1 0.319198 0.603295 0.691130
Si Si2 0.338416 0.221179 0.716151
Si Si3 0.000000 0.335510 0.000000
Si Si4 0.765597 0.048661 0.214997
O O1 0.500000 0.628012 0.500000
O O2 0.535238 0.563672 0.679298
O O3 0.998678 0.582902 0.733031
O O4 0.264697 0.634323 0.862815
O O5 0.500000 0.206903 0.500000
O O6 0.510258 0.264212 0.741010
O O7 0.380197 0.189754 0.864539
O O8 0.650031 0.000000 0.256247
O O9 0.000000 0.049815 0.000000
#
# Coordination Sequence:
#
# PCOD9218502 Si02
#       4
#     8   8   4   8
#     4  12  27  44  69 107 144 190 244 295 366 437
#     4  10  24  46  75 108 139 186 248 294 352 437
#     4  12  26  48  73 106 154 196 230 306 371 432
#     4  11  23  46  73  99 139 192 248 304 359 424
#
# _framework density 25.598865
#
# number of rings (size 3 to 8) (size 9 to 14) (size 15 to 20)
#    0.000    0.857    2.857    2.571    0.000   16.000 
#    0.000    0.000    0.000    0.000    0.000    0.000 
#    0.000    0.000    0.000    0.000    0.000    0.000 
#
# Total GULP energy -78442.379906 kJ/mol
# GULP energy per Si atom -5603.027136 kJ/mol
# Density = 2.554060 g / cm^3
# Si number density = 25.598865 Si / 1000 Ang^3
#
#
#
# Elastic Constant Matrix: (Units=GPa)
#
#
# Indices 1 2 3 4 5 6 
#
# 1 126.1439 13.2056 41.8567 0.0000 2.0082 0.0000
# 2 13.2056 73.5044 76.7043 0.0000 -11.7538 0.0000
# 3 41.8567 76.7043 210.8827 0.0000 5.0583 0.0000
# 4 0.0000 0.0000 0.0000 5.7669 0.0000 13.9242
# 5 2.0082 -11.7538 5.0583 0.0000 35.6526 0.0000
# 6 0.0000 0.0000 0.0000 13.9242 0.0000 22.1141
#
#
#
# Elastic Compliance Matrix: (Units=1/GPa)
#
#
# Indices 1 2 3 4 5 6 
#
# 1 0.008493 0.000344 -0.001808 0.000000 -0.000109 0.000000
# 2 0.000344 0.024764 -0.009303 0.000000 0.009465 0.000000
# 3 -0.001808 -0.009303 0.008585 0.000000 -0.004183 0.000000
# 4 0.000000 0.000000 0.000000 -0.333268 0.000000 0.209844
# 5 -0.000109 0.009465 -0.004183 0.000000 0.031768 0.000000
# 6 0.000000 0.000000 0.000000 0.209844 0.000000 -0.086909
#
#
# Mechanical properties :
#
#
# Convention : Reuss Voigt Hill
#
# Bulk Modulus (GPa) = 49.24243 74.89601 62.06922
# Shear Modulus (GPa) = -15.71023 31.29101 7.79039
#
# Velocity S-wave (km/s) = -2.48000 3.50002 1.74639
# Velocity P-wave (km/s) = 3.32827 6.75682 5.32597
#
# Compressibility (1/GPa) = 0.02030769
#
# Stress axis : x y z
#
# Youngs Moduli (GPa) = 117.74149 40.38140 116.48476
#
# Poissons Ratio (x) = -0.01388 0.21062
# Poissons Ratio (y) = -0.04046 1.08361
# Poissons Ratio (z) = 0.21289 0.37565
#
# Static dielectric constant tensor:
#      x y z
#    x 1.938430 0.000000 -0.052970 
#    y 0.000000 2.052520 0.000000 
#    z -0.052970 0.000000 2.518870 
# 
# From -- ./inp_files/34267.got.cif
#   From: 2010.05.17/outbox.cif.g08.bks.cpg/sg12_18_cif.got.tgz:34267.got - 2010.06.03 13:09:07.
