data_PCOD9218027
_publ_section_title
;
Structure prediction by ZEFSAII (Michael W. Deem and Ramdas Pophale) SiO2 
 PCOD9218027
Probable space group: C 2/M
;
_chemical_formula_sum "Si O2"
_cell_formula_units_Z 38
_cell_length_a 17.666168
_cell_length_b 14.540024
_cell_length_c 22.336767
_cell_angle_alpha 90.000000
_cell_angle_beta 160.450129
_cell_angle_gamma 90.000000
_cell_volume 1919.946200
_symmetry_space_group_name_H-M "C 2/M"
_symmetry_group_IT_number 12
_symmetry_cell_setting 'monoclinic'
loop_
_space_group_symop_operation_xyz
x,y,z
-x,y,-z
-x,-y,-z
x,-y,z
1/2+x,1/2+y,z
1/2-x,1/2+y,-z
1/2-x,1/2-y,-z
1/2+x,1/2-y,z
loop_
_atom_site_type_symbol
_atom_site_label
_atom_site_fract_x
_atom_site_fract_y
_atom_site_fract_z
Si Si1 0.499705 0.729838 0.208821
Si Si2 0.000000 0.820525 0.000000
Si Si3 0.363298 0.608694 0.460233
Si Si4 0.752455 0.107479 0.700880
Si Si5 0.193636 0.841470 0.815369
Si Si6 0.500000 0.000000 0.000000
O O1 0.657854 0.820861 0.320434
O O2 0.597803 0.657588 0.235753
O O3 0.470047 0.680270 0.250917
O O4 0.250000 0.750000 0.000000
O O5 0.144382 0.874815 0.156770
O O6 0.178035 0.754003 0.100159
O O7 0.500000 0.626211 0.500000
O O8 0.297418 0.500000 0.410717
O O9 0.543952 0.625781 0.647610
O O10 0.500000 0.143554 0.500000
O O11 0.750614 0.000000 0.688381
O O12 0.389519 0.919096 0.962109
#
# Coordination Sequence:
#
# PCOD9218027 Si02
#       6
#     8   4   8   8   8   2
#     4  12  25  43  67 102 137 177 233 292 346 410
#     4  11  21  43  69  98 136 180 226 282 352 414
#     4  11  25  44  70 101 139 185 233 289 358 428
#     4  11  25  45  69  98 137 186 232 283 351 425
#     4  11  23  42  69  99 137 176 226 287 346 418
#     4  10  24  40  72 100 132 182 230 276 350 416
#
# _framework density 19.792221000000001
#
# number of rings (size 3 to 8) (size 9 to 14) (size 15 to 20)
#    0.000    0.842    3.158    4.105    4.421    0.842 
#    0.000    2.105    0.000    0.000    0.000    0.000 
#    0.000    0.000    0.000    0.000    0.000    0.000 
#
# Total GULP energy -105800.313175 kJ/mol
# GULP energy per Si atom -5568.437536 kJ/mol
# Density = 1.974717 g / cm^3
# Si number density = 19.792221 Si / 1000 Ang^3
#
#
#
# Elastic Constant Matrix: (Units=GPa)
#
#
# Indices 1 2 3 4 5 6 
#
# 1 148.0149 54.5805 57.1591 -0.0185 0.4658 0.0129
# 2 54.5805 116.7581 37.7936 0.0850 9.6366 0.0009
# 3 57.1591 37.7936 87.9682 0.1006 1.1993 0.0157
# 4 -0.0185 0.0850 0.1006 29.2454 0.0205 2.5654
# 5 0.4658 9.6366 1.1993 0.0205 34.8578 -0.0039
# 6 0.0129 0.0009 0.0157 2.5654 -0.0039 31.3298
#
#
#
# Elastic Compliance Matrix: (Units=1/GPa)
#
#
# Indices 1 2 3 4 5 6 
#
# 1 0.009839 -0.003018 -0.005108 0.000032 0.000879 -0.000004
# 2 -0.003018 0.011116 -0.002774 -0.000023 -0.002937 0.000004
# 3 -0.005108 -0.002774 0.015875 -0.000050 0.000289 -0.000002
# 4 0.000032 -0.000023 -0.000050 0.034441 -0.000013 -0.002820
# 5 0.000879 -0.002937 0.000289 -0.000013 0.029478 0.000004
# 6 -0.000004 0.000004 -0.000002 -0.002820 0.000004 0.032149
#
#
# Mechanical properties :
#
#
# Convention : Reuss Voigt Hill
#
# Bulk Modulus (GPa) = 66.54298 72.42306 69.48302
# Shear Modulus (GPa) = 31.30653 32.63380 31.97016
#
# Velocity S-wave (km/s) = 3.98145 4.06497 4.02343
# Velocity P-wave (km/s) = 7.40471 7.66180 7.53435
#
# Compressibility (1/GPa) = 0.01502788
#
# Stress axis : x y z
#
# Youngs Moduli (GPa) = 101.63576 89.95823 62.99177
#
# Poissons Ratio (x) = 0.27153 0.32178
# Poissons Ratio (y) = 0.30678 0.17477
# Poissons Ratio (z) = 0.51919 0.24959
#
# Static dielectric constant tensor:
#      x y z
#    x 1.701430 -0.000020 -0.025980 
#    y -0.000020 1.686020 -0.000060 
#    z -0.025980 -0.000060 1.760830 
# 
# From -- ./inp_files/59006.got.cif
#   From: 2010.05.17/outbox.cif.g08.bks.cpg/sg12_30_cif.got.tgz:59006.got - 2010.06.03 13:09:07.
