data_PCOD9218965
_publ_section_title
;
Structure prediction by ZEFSAII (Michael W. Deem and Ramdas Pophale) SiO2 
 PCOD9218965
Probable space group: C 2/M
;
_chemical_formula_sum "Si O2"
_cell_formula_units_Z 40
_cell_length_a 15.916721
_cell_length_b 8.068898
_cell_length_c 19.857077
_cell_angle_alpha 90.000000
_cell_angle_beta 134.698013
_cell_angle_gamma 90.000000
_cell_volume 1812.780207
_symmetry_space_group_name_H-M "C 2/M"
_symmetry_group_IT_number 12
_symmetry_cell_setting 'monoclinic'
loop_
_space_group_symop_operation_xyz
x,y,z
-x,y,-z
-x,-y,-z
x,-y,z
1/2+x,1/2+y,z
1/2-x,1/2+y,-z
1/2-x,1/2-y,-z
1/2+x,1/2-y,z
loop_
_atom_site_type_symbol
_atom_site_label
_atom_site_fract_x
_atom_site_fract_y
_atom_site_fract_z
Si Si1 0.388141 0.312198 0.031616
Si Si2 0.489275 0.000000 0.327344
Si Si3 0.735830 0.500000 0.555455
Si Si4 0.701571 0.000000 0.255158
Si Si5 0.487589 0.313144 0.572449
Si Si6 0.423042 0.000000 0.136833
Si Si7 0.168437 0.813038 0.152345
O O1 0.363451 0.500000 0.040667
O O2 0.369052 0.166562 0.074208
O O3 0.528678 0.310686 0.092635
O O4 0.325889 0.282530 0.924523
O O5 0.464665 0.833930 0.355356
O O6 0.631772 0.000000 0.395787
O O7 0.427428 0.000000 0.219780
O O8 0.742338 0.500000 0.640001
O O9 0.651852 0.344239 0.490264
O O10 0.725206 0.833915 0.226620
O O11 0.560079 0.000000 0.190423
O O12 0.500000 0.275691 0.500000
O O13 0.537015 0.500000 0.612274
O O14 0.210301 0.000000 0.190818
#
# Coordination Sequence:
#
# PCOD9218965 Si02
#       7
#     8   4   4   4   8   4   8
#     4   8  13  22  34  52  84 123 155 180 221 282
#     4  11  19  32  53  76 100 125 162 205 244 290
#     4   9  19  34  49  76 102 125 160 203 250 286
#     4   9  15  25  36  59  94 117 147 194 232 276
#     4   9  20  37  54  70  94 132 166 196 242 298
#     4   9  17  23  36  63  90 119 149 188 238 274
#     4   8  13  21  35  53  81 124 157 178 222 281
#
# _framework density 22.065553999999999
#
# number of rings (size 3 to 8) (size 9 to 14) (size 15 to 20)
#    0.600    2.600    0.000    2.700    0.000    3.200 
#    1.800    2.000    0.000    0.000    0.000    0.000 
#    0.000    6.400    0.000    0.000    0.000    0.000 
#
# Total GULP energy -111695.820935 kJ/mol
# GULP energy per Si atom -5584.791047 kJ/mol
# Density = 2.201533 g / cm^3
# Si number density = 22.065554 Si / 1000 Ang^3
#
#
#
# Elastic Constant Matrix: (Units=GPa)
#
#
# Indices 1 2 3 4 5 6 
#
# 1 101.0309 36.1193 17.0201 0.0000 -3.8992 0.0000
# 2 36.1193 215.8872 138.8039 0.0000 -34.2455 0.0000
# 3 17.0201 138.8039 129.4379 0.0000 -24.4084 0.0000
# 4 0.0000 0.0000 0.0000 44.2491 0.0000 0.2774
# 5 -3.8992 -34.2455 -24.4084 0.0000 28.8075 0.0000
# 6 0.0000 0.0000 0.0000 0.2774 0.0000 31.7336
#
#
#
# Elastic Compliance Matrix: (Units=1/GPa)
#
#
# Indices 1 2 3 4 5 6 
#
# 1 0.010645 -0.002918 0.001603 0.000000 -0.000670 0.000000
# 2 -0.002918 0.016340 -0.016127 0.000000 0.005365 0.000000
# 3 0.001603 -0.016127 0.025273 0.000000 0.002459 0.000000
# 4 0.000000 0.000000 0.000000 0.022601 0.000000 -0.000198
# 5 -0.000670 0.005365 0.002459 0.000000 0.043084 0.000000
# 6 0.000000 0.000000 0.000000 -0.000198 0.000000 0.031514
#
#
# Mechanical properties :
#
#
# Convention : Reuss Voigt Hill
#
# Bulk Modulus (GPa) = 57.55707 92.24917 74.90312
# Shear Modulus (GPa) = 26.29750 37.91888 32.10819
#
# Velocity S-wave (km/s) = 3.45598 4.14993 3.81875
# Velocity P-wave (km/s) = 6.48585 8.05359 7.31186
#
# Compressibility (1/GPa) = 0.01737406
#
# Stress axis : x y z
#
# Youngs Moduli (GPa) = 93.93876 61.19889 39.56847
#
# Poissons Ratio (x) = 0.17857 -0.06343
# Poissons Ratio (y) = 0.27410 0.63812
# Poissons Ratio (z) = -0.15058 0.98696
#
# Static dielectric constant tensor:
#      x y z
#    x 1.896560 0.000000 0.043790 
#    y 0.000000 1.765080 0.000000 
#    z 0.043790 0.000000 1.737020 
# 
# From -- ./inp_files/229514.got.cif
#   From: 2010.05.17/outbox.cif.g08.bks.cpg/sg12_115_cif.got.tgz:229514.got - 2010.06.03 13:09:07.
