data_PCOD9218555
_publ_section_title
;
Structure prediction by ZEFSAII (Michael W. Deem and Ramdas Pophale) SiO2 
 PCOD9218555
Probable space group: C 2/M
;
_chemical_formula_sum "Si O2"
_cell_formula_units_Z 30
_cell_length_a 12.807728
_cell_length_b 9.339034
_cell_length_c 10.914128
_cell_angle_alpha 90.000000
_cell_angle_beta 65.860051
_cell_angle_gamma 90.000000
_cell_volume 1191.295244
_symmetry_space_group_name_H-M "C 2/M"
_symmetry_group_IT_number 12
_symmetry_cell_setting 'monoclinic'
loop_
_space_group_symop_operation_xyz
x,y,z
-x,y,-z
-x,-y,-z
x,-y,z
1/2+x,1/2+y,z
1/2-x,1/2+y,-z
1/2-x,1/2-y,-z
1/2+x,1/2-y,z
loop_
_atom_site_type_symbol
_atom_site_label
_atom_site_fract_x
_atom_site_fract_y
_atom_site_fract_z
Si Si1 0.849493 0.773302 0.048985
Si Si2 0.823983 0.000000 0.645083
Si Si3 0.500000 0.000000 0.000000
Si Si4 0.000000 0.249397 0.500000
Si Si5 0.300115 0.500000 0.277225
Si Si6 0.049744 0.000000 0.171224
Si Si7 0.390049 0.000000 0.422458
O O1 0.802343 0.864459 0.185545
O O2 0.750000 0.750000 0.000000
O O3 0.903527 0.625421 0.059976
O O4 0.937307 0.865742 0.924090
O O5 0.892319 0.856099 0.570136
O O6 0.851652 0.000000 0.775948
O O7 0.697075 0.000000 0.649188
O O8 0.031578 0.358404 0.596841
O O9 0.422621 0.500000 0.287954
O O10 0.195786 0.500000 0.419686
#
# Coordination Sequence:
#
# PCOD9218555 Si02
#       7
#     8   4   2   4   4   4   4
#     4  11  24  44  69 108 140 183 236 290 354 431
#     4  11  24  46  74 104 145 191 233 292 357 417
#     4  12  20  46  74  98 142 180 240 288 344 420
#     4  10  24  48  70 104 142 184 248 292 346 416
#     4  11  22  46  72  96 150 186 227 295 361 413
#     4  11  23  46  70  98 151 188 226 291 360 418
#     4  11  25  47  77 106 141 191 238 297 349 420
#
# _framework density 25.182676000000001
#
# number of rings (size 3 to 8) (size 9 to 14) (size 15 to 20)
#    0.000    1.067    2.667    4.800    3.733    0.000 
#    0.000    0.000    0.000    0.000    0.000    0.000 
#    0.000    0.000    0.000    0.000    0.000    0.000 
#
# Total GULP energy -83796.785161 kJ/mol
# GULP energy per Si atom -5586.452344 kJ/mol
# Density = 2.512536 g / cm^3
# Si number density = 25.182676 Si / 1000 Ang^3
#
#
#
# Elastic Constant Matrix: (Units=GPa)
#
#
# Indices 1 2 3 4 5 6 
#
# 1 173.5267 49.8170 32.0374 0.0000 33.7879 0.0000
# 2 49.8170 232.3237 43.7852 0.0000 14.4440 0.0000
# 3 32.0374 43.7852 96.9628 0.0000 18.9897 0.0000
# 4 0.0000 0.0000 0.0000 15.0478 0.0000 5.7224
# 5 33.7879 14.4440 18.9897 0.0000 46.9255 0.0000
# 6 0.0000 0.0000 0.0000 5.7224 0.0000 14.7339
#
#
#
# Elastic Compliance Matrix: (Units=1/GPa)
#
#
# Indices 1 2 3 4 5 6 
#
# 1 0.007107 -0.001061 -0.001011 0.000000 -0.004382 0.000000
# 2 -0.001061 0.004881 -0.001856 0.000000 0.000013 0.000000
# 3 -0.001011 -0.001856 0.012198 0.000000 -0.003637 0.000000
# 4 0.000000 0.000000 0.000000 0.077971 0.000000 -0.030283
# 5 -0.004382 0.000013 -0.003637 0.000000 0.025933 0.000000
# 6 0.000000 0.000000 0.000000 -0.030283 0.000000 0.079632
#
#
# Mechanical properties :
#
#
# Convention : Reuss Voigt Hill
#
# Bulk Modulus (GPa) = 61.23808 83.78805 72.51307
# Shear Modulus (GPa) = 22.62225 40.48635 31.55430
#
# Velocity S-wave (km/s) = 3.00046 4.01397 3.54364
# Velocity P-wave (km/s) = 6.03109 7.40452 6.75281
#
# Compressibility (1/GPa) = 0.01632971
#
# Stress axis : x y z
#
# Youngs Moduli (GPa) = 140.70147 204.88237 81.98318
#
# Poissons Ratio (x) = 0.21739 0.08289
# Poissons Ratio (y) = 0.14929 0.15216
# Poissons Ratio (z) = 0.14225 0.38025
#
# Static dielectric constant tensor:
#      x y z
#    x 2.178470 0.000000 0.487590 
#    y 0.000000 1.960490 0.000000 
#    z 0.487590 0.000000 3.906220 
# 
# From -- ./inp_files/138718.got.cif
#   From: 2010.05.17/outbox.cif.g08.bks.cpg/sg12_70_cif.got.tgz:138718.got - 2010.06.03 13:09:07.
