data_PCOD9218257
_publ_section_title
;
Structure prediction by ZEFSAII (Michael W. Deem and Ramdas Pophale) SiO2 
 PCOD9218257
Probable space group: C 2/M
;
_chemical_formula_sum "Si O2"
_cell_formula_units_Z 60
_cell_length_a 9.075176
_cell_length_b 26.489287
_cell_length_c 19.186181
_cell_angle_alpha 90.000000
_cell_angle_beta 136.614125
_cell_angle_gamma 90.000000
_cell_volume 3168.200586
_symmetry_space_group_name_H-M "C 2/M"
_symmetry_group_IT_number 12
_symmetry_cell_setting 'monoclinic'
loop_
_space_group_symop_operation_xyz
x,y,z
-x,y,-z
-x,-y,-z
x,-y,z
1/2+x,1/2+y,z
1/2-x,1/2+y,-z
1/2-x,1/2-y,-z
1/2+x,1/2-y,z
loop_
_atom_site_type_symbol
_atom_site_label
_atom_site_fract_x
_atom_site_fract_y
_atom_site_fract_z
Si Si1 0.879658 0.828231 0.302749
Si Si2 0.905049 0.184120 0.893947
Si Si3 0.201028 0.097206 0.612896
Si Si4 0.521617 0.500000 0.396727
Si Si5 0.374577 0.875019 0.303870
Si Si6 0.747276 0.404223 0.400534
Si Si7 0.512395 0.229490 0.422583
Si Si8 0.254668 0.208867 0.892660
O O1 0.111865 0.856147 0.381598
O O2 0.875272 0.774580 0.340463
O O3 0.744271 0.866388 0.303729
O O4 0.811332 0.821962 0.199139
O O5 0.762875 0.141428 0.809451
O O6 0.766781 0.233241 0.869576
O O7 0.087639 0.200780 0.899365
O O8 0.000000 0.166145 0.000000
O O9 0.119420 0.044014 0.611789
O O10 0.412187 0.093640 0.639095
O O11 0.000000 0.119989 0.500000
O O12 0.656376 0.454768 0.403114
O O13 0.228845 0.902648 0.310643
O O14 0.455142 0.821757 0.363780
O O15 0.000000 0.399533 0.500000
O O16 0.500000 0.221859 0.500000
O O17 0.750000 0.250000 0.500000
O O18 0.500000 0.197039 0.000000
#
# Coordination Sequence:
#
# PCOD9218257 Si02
#       8
#     8   8   8   4   8   8   8   8
#     4  11  22  38  58  88 130 172 212 243 304 369
#     4  11  24  40  61  91 123 170 220 261 305 355
#     4  11  24  40  61  92 127 163 209 256 308 377
#     4  10  24  44  64  86 123 160 210 257 329 367
#     4  12  23  37  62  91 127 164 210 258 306 368
#     4  11  22  40  62  92 123 161 208 263 304 377
#     4  12  23  34  52  82 129 176 204 233 287 358
#     4  11  23  40  61  86 126 172 221 260 300 353
#
# _framework density 18.938195
#
# number of rings (size 3 to 8) (size 9 to 14) (size 15 to 20)
#    0.000    0.800    2.667    7.600    3.733    0.533 
#    0.000    0.000    0.000    0.000    0.000   17.733 
#    0.000    0.000    0.000    0.000    0.000    0.000 
#
# Total GULP energy -167059.234137 kJ/mol
# GULP energy per Si atom -5568.641138 kJ/mol
# Density = 1.889509 g / cm^3
# Si number density = 18.938195 Si / 1000 Ang^3
#
#
#
# Elastic Constant Matrix: (Units=GPa)
#
#
# Indices 1 2 3 4 5 6 
#
# 1 97.9900 31.9492 14.5614 0.0000 -11.2401 0.0000
# 2 31.9492 98.4908 31.0941 0.0000 -6.0888 0.0000
# 3 14.5614 31.0941 92.0162 0.0000 -23.8279 0.0000
# 4 0.0000 0.0000 0.0000 1.1719 0.0000 -3.6706
# 5 -11.2401 -6.0888 -23.8279 0.0000 30.2928 0.0000
# 6 0.0000 0.0000 0.0000 -3.6706 0.0000 28.7847
#
#
#
# Elastic Compliance Matrix: (Units=1/GPa)
#
#
# Indices 1 2 3 4 5 6 
#
# 1 0.011810 -0.003716 0.000412 0.000000 0.003959 0.000000
# 2 -0.003716 0.012556 -0.004217 0.000000 -0.002173 0.000000
# 3 0.000412 -0.004217 0.015129 -0.000001 0.011206 0.000000
# 4 0.000000 0.000000 -0.000001 1.420712 -0.000002 0.181167
# 5 0.003959 -0.002173 0.011206 -0.000002 0.042858 0.000000
# 6 0.000000 0.000000 0.000000 0.181167 0.000000 0.057843
#
#
# Mechanical properties :
#
#
# Convention : Reuss Voigt Hill
#
# Bulk Modulus (GPa) = 40.89651 49.30074 45.09862
# Shear Modulus (GPa) = 3.15636 26.10938 14.63287
#
# Velocity S-wave (km/s) = 1.29239 3.71706 2.78270
# Velocity P-wave (km/s) = 4.88556 6.67166 5.84721
#
# Compressibility (1/GPa) = 0.02445197
#
# Stress axis : x y z
#
# Youngs Moduli (GPa) = 84.67613 79.64387 66.09684
#
# Poissons Ratio (x) = 0.29598 -0.02724
# Poissons Ratio (y) = 0.31468 0.27876
# Poissons Ratio (z) = -0.03490 0.33589
#
# Static dielectric constant tensor:
#      x y z
#    x 1.695650 0.000000 -0.008980 
#    y 0.000000 1.623790 0.000000 
#    z -0.008980 0.000000 1.709700 
# 
# From -- ./inp_files/259729.got.cif
#   From: 2010.05.17/outbox.cif.g08.bks.cpg/sg12_130_cif.got.tgz:259729.got - 2010.06.03 13:09:07.
