data_PCOD9218203
_publ_section_title
;
Structure prediction by ZEFSAII (Michael W. Deem and Ramdas Pophale) SiO2 
 PCOD9218203
Probable space group: C 2/M
;
_chemical_formula_sum "Si O2"
_cell_formula_units_Z 64
_cell_length_a 31.345714
_cell_length_b 15.171352
_cell_length_c 9.351075
_cell_angle_alpha 90.000000
_cell_angle_beta 45.823476
_cell_angle_gamma 90.000000
_cell_volume 3189.348456
_symmetry_space_group_name_H-M "C 2/M"
_symmetry_group_IT_number 12
_symmetry_cell_setting 'monoclinic'
loop_
_space_group_symop_operation_xyz
x,y,z
-x,y,-z
-x,-y,-z
x,-y,z
1/2+x,1/2+y,z
1/2-x,1/2+y,-z
1/2-x,1/2-y,-z
1/2+x,1/2-y,z
loop_
_atom_site_type_symbol
_atom_site_label
_atom_site_fract_x
_atom_site_fract_y
_atom_site_fract_z
Si Si1 0.958037 0.365143 0.973799
Si Si2 0.650167 0.256690 0.104559
Si Si3 0.263355 0.180035 0.344487
Si Si4 0.658929 0.726040 0.410942
Si Si5 0.979778 0.819007 0.206196
Si Si6 0.051494 0.898428 0.276161
Si Si7 0.837976 0.396770 0.406523
Si Si8 0.065834 0.406368 0.286974
O O1 0.941090 0.411482 0.867458
O O2 0.989821 0.276813 0.844606
O O3 0.896914 0.353689 0.200073
O O4 0.000000 0.404045 0.000000
O O5 0.674390 0.278695 0.206294
O O6 0.609858 0.338438 0.145869
O O7 0.606156 0.174767 0.233786
O O8 0.693788 0.223019 0.876903
O O9 0.250000 0.250000 0.500000
O O10 0.202151 0.163678 0.403511
O O11 0.293172 0.105826 0.374633
O O12 0.590129 0.695572 0.596185
O O13 0.672669 0.826025 0.439855
O O14 0.015415 0.889552 0.214866
O O15 0.000000 0.840507 0.000000
O O16 0.000000 0.861160 0.500000
O O17 0.064532 0.000000 0.282144
O O18 0.845966 0.500000 0.430227
O O19 0.089963 0.500000 0.284928
O O20 0.000000 0.394767 0.500000
#
# Coordination Sequence:
#
# PCOD9218203 Si02
#       8
#     8   8   8   8   8   8   8   8
#     4  11  20  35  58  90 125 167 200 247 310 374
#     4  12  22  42  66  90 131 171 211 270 319 381
#     4  10  24  43  66  89 118 169 221 261 315 377
#     4  11  23  41  64  92 120 172 217 254 319 381
#     4  11  20  38  65  93 127 163 207 263 319 384
#     4  11  23  40  65  96 127 163 209 269 333 383
#     4  11  22  40  62  93 129 164 209 261 310 374
#     4  11  23  35  56  94 133 169 203 244 314 392
#
# _framework density 20.066794999999999
#
# number of rings (size 3 to 8) (size 9 to 14) (size 15 to 20)
#    0.000    1.000    6.250    1.875    1.750    1.750 
#    0.000    3.750    0.000    1.500    0.000    0.000 
#    0.000    0.000    0.000    0.000    0.000    0.000 
#
# Total GULP energy -178201.202328 kJ/mol
# GULP energy per Si atom -5568.787573 kJ/mol
# Density = 2.002112 g / cm^3
# Si number density = 20.066795 Si / 1000 Ang^3
#
#
#
# Elastic Constant Matrix: (Units=GPa)
#
#
# Indices 1 2 3 4 5 6 
#
# 1 89.3114 12.9945 -1.9660 0.0000 3.4895 0.0000
# 2 12.9945 40.1269 4.9870 0.0000 -14.9477 0.0000
# 3 -1.9660 4.9870 61.9338 0.0000 8.0262 0.0000
# 4 0.0000 0.0000 0.0000 442.0130 0.0000 316.0536
# 5 3.4895 -14.9477 8.0262 0.0000 32.7462 0.0000
# 6 0.0000 0.0000 0.0000 316.0536 0.0000 212.4006
#
#
#
# Elastic Compliance Matrix: (Units=1/GPa)
#
#
# Indices 1 2 3 4 5 6 
#
# 1 0.012226 -0.005719 0.001400 0.000000 -0.004256 0.000000
# 2 -0.005719 0.033871 -0.005155 0.000000 0.017334 0.000000
# 3 0.001400 -0.005155 0.017486 0.000000 -0.006788 0.000000
# 4 0.000000 0.000000 0.000000 -0.035365 0.000000 0.052623
# 5 -0.004256 0.017334 -0.006788 0.000000 0.040568 0.000000
# 6 0.000000 0.000000 0.000000 0.052623 0.000000 -0.073595
#
#
# Mechanical properties :
#
#
# Convention : Reuss Voigt Hill
#
# Bulk Modulus (GPa) = 22.40418 24.82257 23.61337
# Shear Modulus (GPa) = 172.31733 149.12241 160.71987
#
# Velocity S-wave (km/s) = 9.27676 8.62985 8.95915
# Velocity P-wave (km/s) = 11.22201 10.56863 10.90022
#
# Compressibility (1/GPa) = 0.04463453
#
# Stress axis : x y z
#
# Youngs Moduli (GPa) = 81.79304 29.52406 57.19019
#
# Poissons Ratio (x) = 0.16884 -0.08008
# Poissons Ratio (y) = 0.46776 0.29483
# Poissons Ratio (z) = -0.11453 0.15220
#
# Static dielectric constant tensor:
#      x y z
#    x 1.610180 0.000000 -0.141750 
#    y 0.000000 1.959270 0.000000 
#    z -0.141750 0.000000 1.638650 
# 
# From -- ./inp_files/111961.got.cif
#   From: 2010.05.17/outbox.cif.g08.bks.cpg/sg12_56_cif.got.tgz:111961.got - 2010.06.03 13:09:07.
