data_PCOD9218113
_publ_section_title
;
Structure prediction by ZEFSAII (Michael W. Deem and Ramdas Pophale) SiO2 
 PCOD9218113
Probable space group: C 2/M
;
_chemical_formula_sum "Si O2"
_cell_formula_units_Z 52
_cell_length_a 21.362015
_cell_length_b 17.824152
_cell_length_c 9.018855
_cell_angle_alpha 90.000000
_cell_angle_beta 130.009142
_cell_angle_gamma 90.000000
_cell_volume 2630.257750
_symmetry_space_group_name_H-M "C 2/M"
_symmetry_group_IT_number 12
_symmetry_cell_setting 'monoclinic'
loop_
_space_group_symop_operation_xyz
x,y,z
-x,y,-z
-x,-y,-z
x,-y,z
1/2+x,1/2+y,z
1/2-x,1/2+y,-z
1/2-x,1/2-y,-z
1/2+x,1/2-y,z
loop_
_atom_site_type_symbol
_atom_site_label
_atom_site_fract_x
_atom_site_fract_y
_atom_site_fract_z
Si Si1 0.408287 0.716638 0.360571
Si Si2 0.300291 0.141234 0.685921
Si Si3 0.406855 0.000000 0.817004
Si Si4 0.850219 0.210313 0.936625
Si Si5 0.183912 0.352548 0.635840
Si Si6 0.085691 0.500000 0.533848
Si Si7 0.886093 0.912606 0.559789
Si Si8 0.000000 0.139814 0.000000
O O1 0.500000 0.747347 0.500000
O O2 0.351436 0.777253 0.350348
O O3 0.410759 0.640401 0.459953
O O4 0.374453 0.709848 0.144340
O O5 0.358532 0.071074 0.808840
O O6 0.316159 0.211280 0.818187
O O7 0.325374 0.157674 0.554729
O O8 0.205576 0.115700 0.539327
O O9 0.413469 0.000000 0.646697
O O10 0.500000 0.000000 0.000000
O O11 0.780738 0.147362 0.810071
O O12 0.931115 0.190185 0.970584
O O13 0.137458 0.423510 0.636889
O O14 0.000000 0.500000 0.500000
O O15 0.950283 0.903099 0.793749
O O16 0.882285 0.000000 0.514237
#
# Coordination Sequence:
#
# PCOD9218113 Si02
#       8
#     8   8   4   8   8   4   8   4
#     4  12  26  45  64  98 141 182 225 285 347 415
#     4  11  23  42  73 100 135 178 237 289 345 418
#     4  10  24  42  66 104 135 174 228 292 351 409
#     4  12  25  43  68 103 133 184 234 279 352 415
#     4  11  23  43  69  97 137 176 227 286 342 414
#     4  10  24  46  66  98 135 178 222 282 351 407
#     4  12  25  48  71 102 138 183 233 290 352 406
#     4  12  25  44  74 103 134 184 236 291 342 418
#
# _framework density 19.769926999999999
#
# number of rings (size 3 to 8) (size 9 to 14) (size 15 to 20)
#    0.000    0.615    5.385    2.538    1.077    2.769 
#    2.769    0.000    0.000    0.000    0.000    0.000 
#    0.000    0.000    0.000    0.000    0.000    0.000 
#
# Total GULP energy -145126.707142 kJ/mol
# GULP energy per Si atom -5581.796429 kJ/mol
# Density = 1.972493 g / cm^3
# Si number density = 19.769927 Si / 1000 Ang^3
#
#
#
# Elastic Constant Matrix: (Units=GPa)
#
#
# Indices 1 2 3 4 5 6 
#
# 1 122.8311 54.6268 38.7687 0.0000 20.7061 0.0000
# 2 54.6268 108.4997 51.2964 0.0000 0.2202 0.0000
# 3 38.7687 51.2964 111.2669 0.0000 3.5656 0.0000
# 4 0.0000 0.0000 0.0000 37.3588 0.0000 43.8757
# 5 20.7061 0.2202 3.5656 0.0000 39.8671 0.0000
# 6 0.0000 0.0000 0.0000 43.8757 0.0000 107.2476
#
#
#
# Elastic Compliance Matrix: (Units=1/GPa)
#
#
# Indices 1 2 3 4 5 6 
#
# 1 0.012011 -0.005305 -0.001545 0.000000 -0.006071 0.000000
# 2 -0.005305 0.014135 -0.004768 0.000000 0.003103 0.000000
# 3 -0.001545 -0.004768 0.011731 0.000000 -0.000220 0.000000
# 4 0.000000 0.000000 0.000000 0.051523 0.000000 -0.021078
# 5 -0.006071 0.003103 -0.000220 0.000000 0.028239 0.000000
# 6 0.000000 0.000000 0.000000 -0.021078 0.000000 0.017947
#
#
# Mechanical properties :
#
#
# Convention : Reuss Voigt Hill
#
# Bulk Modulus (GPa) = 68.29419 70.22018 69.25718
# Shear Modulus (GPa) = 30.54325 50.08842 40.31583
#
# Velocity S-wave (km/s) = 3.93483 5.03891 4.52071
# Velocity P-wave (km/s) = 7.43393 8.33367 7.89662
#
# Compressibility (1/GPa) = 0.01464253
#
# Stress axis : x y z
#
# Youngs Moduli (GPa) = 83.25370 70.74549 85.24539
#
# Poissons Ratio (x) = 0.37528 0.13171
# Poissons Ratio (y) = 0.44163 0.40643
# Poissons Ratio (z) = 0.12863 0.33730
#
# Static dielectric constant tensor:
#      x y z
#    x 1.701190 0.000000 -0.001330 
#    y 0.000000 1.679880 0.000000 
#    z -0.001330 0.000000 1.713250 
# 
# From -- ./inp_files/88516.got.cif
#   From: 2010.05.17/outbox.cif.g08.bks.cpg/sg12_45_cif.got.tgz:88516.got - 2010.06.03 13:09:07.
