data_PCOD9218090
_publ_section_title
;
Structure prediction by ZEFSAII (Michael W. Deem and Ramdas Pophale) SiO2 
 PCOD9218090
Probable space group: C 2/M
;
_chemical_formula_sum "Si O2"
_cell_formula_units_Z 36
_cell_length_a 9.576115
_cell_length_b 9.883263
_cell_length_c 17.930366
_cell_angle_alpha 90.000000
_cell_angle_beta 104.058535
_cell_angle_gamma 90.000000
_cell_volume 1646.160263
_symmetry_space_group_name_H-M "C 2/M"
_symmetry_group_IT_number 12
_symmetry_cell_setting 'monoclinic'
loop_
_space_group_symop_operation_xyz
x,y,z
-x,y,-z
-x,-y,-z
x,-y,z
1/2+x,1/2+y,z
1/2-x,1/2+y,-z
1/2-x,1/2-y,-z
1/2+x,1/2-y,z
loop_
_atom_site_type_symbol
_atom_site_label
_atom_site_fract_x
_atom_site_fract_y
_atom_site_fract_z
Si Si1 0.784034 0.000000 0.488240
Si Si2 0.876690 0.500000 0.922335
Si Si3 0.553028 0.762619 0.181262
Si Si4 0.570007 0.229950 0.431084
Si Si5 0.449261 0.500000 0.078434
Si Si6 0.159492 0.658871 0.719579
O O1 0.693878 0.879549 0.431990
O O2 0.869860 0.879464 0.546061
O O3 0.892932 0.371257 0.871088
O O4 0.722639 0.500000 0.941120
O O5 0.000000 0.500000 0.000000
O O6 0.506098 0.630036 0.130305
O O7 0.683990 0.724379 0.253190
O O8 0.421100 0.820991 0.211962
O O9 0.500000 0.179852 0.500000
O O10 0.443943 0.226077 0.354625
O O11 0.500000 0.500000 0.000000
O O12 0.172091 0.500000 0.703696
#
# Coordination Sequence:
#
# PCOD9218090 Si02
#       6
#     4   4   8   8   4   8
#     4  10  24  42  63  96 137 176 246 292 354 422
#     4  12  28  48  76 106 148 188 228 288 354 435
#     4  12  27  48  72 108 145 188 240 286 363 427
#     4  11  25  43  69 100 139 189 246 295 359 416
#     4  12  28  48  77 112 143 186 236 289 349 434
#     4  12  27  45  74 103 148 189 240 308 355 422
#
# _framework density 21.869073
#
# number of rings (size 3 to 8) (size 9 to 14) (size 15 to 20)
#    0.000    0.444    5.556    1.333    9.333    3.556 
#    0.000    0.000    0.000    0.000    0.000    0.000 
#    0.000    0.000    0.000    0.000    0.000    0.000 
#
# Total GULP energy -100334.327001 kJ/mol
# GULP energy per Si atom -5574.129278 kJ/mol
# Density = 2.181930 g / cm^3
# Si number density = 21.869073 Si / 1000 Ang^3
#
#
#
# Elastic Constant Matrix: (Units=GPa)
#
#
# Indices 1 2 3 4 5 6 
#
# 1 79.6810 35.7672 23.3304 0.0000 14.2878 0.0000
# 2 35.7672 149.4789 26.2798 0.0000 32.1456 0.0000
# 3 23.3304 26.2798 97.0572 0.0000 30.0037 0.0000
# 4 0.0000 0.0000 0.0000 36.0629 0.0000 -1.7739
# 5 14.2878 32.1456 30.0037 0.0000 57.8984 0.0000
# 6 0.0000 0.0000 0.0000 -1.7739 0.0000 8.7380
#
#
#
# Elastic Compliance Matrix: (Units=1/GPa)
#
#
# Indices 1 2 3 4 5 6 
#
# 1 0.014732 -0.002930 -0.002533 0.000000 -0.000696 0.000000
# 2 -0.002930 0.008246 -0.000401 0.000000 -0.003647 0.000000
# 3 -0.002533 -0.000401 0.012811 0.000000 -0.005791 0.000000
# 4 0.000000 0.000000 0.000000 0.028009 0.000000 0.005686
# 5 -0.000696 -0.003647 -0.005791 0.000000 0.022470 0.000000
# 6 0.000000 0.000000 0.000000 0.005686 0.000000 0.115597
#
#
# Mechanical properties :
#
#
# Convention : Reuss Voigt Hill
#
# Bulk Modulus (GPa) = 41.56049 55.21910 48.38980
# Shear Modulus (GPa) = 22.56203 36.59585 29.57894
#
# Velocity S-wave (km/s) = 3.21547 4.09517 3.68169
# Velocity P-wave (km/s) = 5.72985 6.90400 6.34415
#
# Compressibility (1/GPa) = 0.02406131
#
# Stress axis : x y z
#
# Youngs Moduli (GPa) = 67.88108 121.27322 78.05931
#
# Poissons Ratio (x) = 0.35533 0.19769
# Poissons Ratio (y) = 0.19889 0.03129
# Poissons Ratio (z) = 0.17192 0.04861
#
# Static dielectric constant tensor:
#      x y z
#    x 1.864780 0.000000 -0.027490 
#    y 0.000000 1.732930 0.000000 
#    z -0.027490 0.000000 1.773560 
# 
# From -- ./inp_files/261135.got.cif
#   From: 2010.05.17/outbox.cif.g08.bks.cpg/sg12_131_cif.got.tgz:261135.got - 2010.06.03 13:09:07.
