data_PCOD9218924
_publ_section_title
;
Structure prediction by ZEFSAII (Michael W. Deem and Ramdas Pophale) SiO2 
 PCOD9218924
Probable space group: C 2/M
;
_chemical_formula_sum "Si O2"
_cell_formula_units_Z 40
_cell_length_a 21.972866
_cell_length_b 9.647117
_cell_length_c 12.267965
_cell_angle_alpha 90.000000
_cell_angle_beta 52.610238
_cell_angle_gamma 90.000000
_cell_volume 2066.157054
_symmetry_space_group_name_H-M "C 2/M"
_symmetry_group_IT_number 12
_symmetry_cell_setting 'monoclinic'
loop_
_space_group_symop_operation_xyz
x,y,z
-x,y,-z
-x,-y,-z
x,-y,z
1/2+x,1/2+y,z
1/2-x,1/2+y,-z
1/2-x,1/2-y,-z
1/2+x,1/2-y,z
loop_
_atom_site_type_symbol
_atom_site_label
_atom_site_fract_x
_atom_site_fract_y
_atom_site_fract_z
Si Si1 0.169067 0.000000 0.972056
Si Si2 0.843593 0.500000 0.848643
Si Si3 0.592603 0.711796 0.893406
Si Si4 0.960409 0.000000 0.744364
Si Si5 0.662597 0.000000 0.879749
Si Si6 0.390362 0.500000 0.306950
Si Si7 0.929677 0.248576 0.638378
Si Si8 0.839450 0.000000 0.614257
O O1 0.134169 0.130293 0.946467
O O2 0.258507 0.000000 0.891201
O O3 0.128910 0.000000 0.132401
O O4 0.883722 0.361351 0.757771
O O5 0.841644 0.500000 0.982770
O O6 0.619448 0.867539 0.878059
O O7 0.624632 0.635342 0.750272
O O8 0.500000 0.700669 0.000000
O O9 0.974895 0.860540 0.664615
O O10 0.017499 0.000000 0.781685
O O11 0.750665 0.000000 0.744563
O O12 0.354651 0.500000 0.466678
O O13 0.877428 0.141388 0.623848
O O14 0.000000 0.321188 0.500000
#
# Coordination Sequence:
#
# PCOD9218924 Si02
#       8
#     4   4   8   4   4   4   8   4
#     4  11  21  40  67  93 123 168 219 256 311 377
#     4  12  26  40  63  98 137 163 192 270 339 368
#     4  11  23  42  66  93 126 168 217 262 302 376
#     4  11  18  37  68  88 119 165 219 254 299 370
#     4  12  27  42  60  98 136 161 206 266 328 370
#     4  11  21  41  69  89 114 173 222 256 298 362
#     4  11  22  39  63  96 127 166 209 258 311 381
#     4  11  23  42  67  91 125 169 217 258 309 378
#
# _framework density 19.359613
#
# number of rings (size 3 to 8) (size 9 to 14) (size 15 to 20)
#    0.000    0.800    4.000    5.400    0.000    3.200 
#    0.000    1.000    0.000    0.000    0.000    0.000 
#    0.000    0.000    0.000    0.000    0.000    0.000 
#
# Total GULP energy -111547.683022 kJ/mol
# GULP energy per Si atom -5577.384151 kJ/mol
# Density = 1.931555 g / cm^3
# Si number density = 19.359613 Si / 1000 Ang^3
#
#
#
# Elastic Constant Matrix: (Units=GPa)
#
#
# Indices 1 2 3 4 5 6 
#
# 1 94.2979 48.7016 53.2709 0.0000 -2.3124 0.0000
# 2 48.7016 156.7718 65.2381 0.0000 8.6544 0.0000
# 3 53.2709 65.2381 153.9766 0.0000 -1.5669 0.0000
# 4 0.0000 0.0000 0.0000 -36.0243 0.0000 -43.6574
# 5 -2.3124 8.6544 -1.5669 0.0000 32.5778 0.0000
# 6 0.0000 0.0000 0.0000 -43.6574 0.0000 1.5992
#
#
#
# Elastic Compliance Matrix: (Units=1/GPa)
#
#
# Indices 1 2 3 4 5 6 
#
# 1 0.014253 -0.003002 -0.003642 0.000000 0.001634 0.000000
# 2 -0.003002 0.008540 -0.002606 0.000000 -0.002607 0.000000
# 3 -0.003642 -0.002606 0.008868 0.000000 0.000860 0.000000
# 4 0.000000 0.000000 0.000000 -0.000814 0.000000 -0.022234
# 5 0.001634 -0.002607 0.000860 0.000000 0.031546 0.000000
# 6 0.000000 0.000000 0.000000 -0.022234 0.000000 0.018346
#
#
# Mechanical properties :
#
#
# Convention : Reuss Voigt Hill
#
# Bulk Modulus (GPa) = 75.99417 82.16304 79.07860
# Shear Modulus (GPa) = 48.25070 15.48626 31.86848
#
# Velocity S-wave (km/s) = 4.99775 2.83136 4.06166
# Velocity P-wave (km/s) = 8.52306 7.29530 7.93297
#
# Compressibility (1/GPa) = 0.01315890
#
# Stress axis : x y z
#
# Youngs Moduli (GPa) = 70.16075 117.09980 112.77041
#
# Poissons Ratio (x) = 0.35156 0.41076
# Poissons Ratio (y) = 0.21064 0.29389
# Poissons Ratio (z) = 0.25556 0.30517
#
# Static dielectric constant tensor:
#      x y z
#    x 1.650380 0.000000 0.012020 
#    y 0.000000 1.562150 0.000000 
#    z 0.012020 0.000000 1.718720 
# 
# From -- ./inp_files/171916.got.cif
#   From: 2010.05.17/outbox.cif.g08.bks.cpg/sg12_86_cif.got.tgz:171916.got - 2010.06.03 13:09:07.
