data_PCOD9218408
_publ_section_title
;
Structure prediction by ZEFSAII (Michael W. Deem and Ramdas Pophale) SiO2 
 PCOD9218408
Probable space group: C 2/M
;
_chemical_formula_sum "Si O2"
_cell_formula_units_Z 48
_cell_length_a 13.263970
_cell_length_b 28.557216
_cell_length_c 6.269962
_cell_angle_alpha 90.000000
_cell_angle_beta 85.290061
_cell_angle_gamma 90.000000
_cell_volume 2366.929272
_symmetry_space_group_name_H-M "C 2/M"
_symmetry_group_IT_number 12
_symmetry_cell_setting 'monoclinic'
loop_
_space_group_symop_operation_xyz
x,y,z
-x,y,-z
-x,-y,-z
x,-y,z
1/2+x,1/2+y,z
1/2-x,1/2+y,-z
1/2-x,1/2-y,-z
1/2+x,1/2-y,z
loop_
_atom_site_type_symbol
_atom_site_label
_atom_site_fract_x
_atom_site_fract_y
_atom_site_fract_z
Si Si1 0.225873 0.277798 0.213723
Si Si2 0.461845 0.444339 0.759683
Si Si3 0.111358 0.363443 0.052973
Si Si4 0.611943 0.945707 0.376616
Si Si5 0.880803 0.196457 0.497604
Si Si6 0.264617 0.604668 0.672672
O O1 0.157814 0.323526 0.194246
O O2 0.166085 0.240536 0.368071
O O3 0.335565 0.294490 0.273694
O O4 0.250000 0.250000 0.000000
O O5 0.500000 0.430569 0.500000
O O6 0.477687 0.500000 0.759466
O O7 0.344588 0.429298 0.773540
O O8 0.500000 0.428319 0.000000
O O9 0.107001 0.412989 0.172133
O O10 0.184855 0.370877 0.842299
O O11 0.000000 0.349355 0.000000
O O12 0.500000 0.942984 0.500000
O O13 0.698836 0.924025 0.512534
O O14 0.633687 0.000000 0.327535
O O15 0.831193 0.147593 0.574253
O O16 0.000000 0.195123 0.500000
#
# Coordination Sequence:
#
# PCOD9218408 Si02
#       6
#     8   8   8   8   8   8
#     4  11  25  46  68 103 139 180 231 287 355 428
#     4  10  24  45  69 100 139 188 242 298 365 436
#     4  12  26  43  71 101 139 184 237 291 362 435
#     4  11  25  45  68  99 140 183 237 299 363 433
#     4  11  26  43  71 103 139 181 233 287 353 434
#     4  12  24  44  68 102 136 184 234 295 362 431
#
# _framework density 20.279440999999998
#
# number of rings (size 3 to 8) (size 9 to 14) (size 15 to 20)
#    0.000    0.833    5.000    1.000    4.667    3.667 
#    0.000    0.000    0.000    0.000    0.000    0.000 
#    0.000    0.000    0.000    0.000    0.000    0.000 
#
# Total GULP energy -133776.890108 kJ/mol
# GULP energy per Si atom -5574.037088 kJ/mol
# Density = 2.023328 g / cm^3
# Si number density = 20.279441 Si / 1000 Ang^3
#
#
#
# Elastic Constant Matrix: (Units=GPa)
#
#
# Indices 1 2 3 4 5 6 
#
# 1 167.6615 42.4515 49.1389 0.0000 29.4947 0.0000
# 2 42.4515 115.6551 23.5110 0.0000 7.2446 0.0000
# 3 49.1389 23.5110 72.3138 0.0000 18.6478 0.0000
# 4 0.0000 0.0000 0.0000 41.8407 0.0000 12.6539
# 5 29.4947 7.2446 18.6478 0.0000 33.9732 0.0000
# 6 0.0000 0.0000 0.0000 12.6539 0.0000 24.2833
#
#
#
# Elastic Compliance Matrix: (Units=1/GPa)
#
#
# Indices 1 2 3 4 5 6 
#
# 1 0.008446 -0.002018 -0.003848 0.000000 -0.004790 0.000000
# 2 -0.002018 0.009744 -0.001995 0.000000 0.000769 0.000000
# 3 -0.003848 -0.001995 0.018779 0.000000 -0.006542 0.000000
# 4 0.000000 0.000000 0.000000 0.028371 0.000000 -0.014784
# 5 -0.004790 0.000769 -0.006542 0.000000 0.037020 0.000000
# 6 0.000000 0.000000 0.000000 -0.014784 0.000000 0.048884
#
#
# Mechanical properties :
#
#
# Convention : Reuss Voigt Hill
#
# Bulk Modulus (GPa) = 47.06495 65.09257 56.07876
# Shear Modulus (GPa) = 28.72749 36.05471 32.39110
#
# Velocity S-wave (km/s) = 3.76783 4.22108 4.00088
# Velocity P-wave (km/s) = 6.49518 7.47825 7.00398
#
# Compressibility (1/GPa) = 0.02124723
#
# Stress axis : x y z
#
# Youngs Moduli (GPa) = 118.40403 102.62222 53.25114
#
# Poissons Ratio (x) = 0.20707 0.20490
# Poissons Ratio (y) = 0.23891 0.10626
# Poissons Ratio (z) = 0.45559 0.20477
#
# Static dielectric constant tensor:
#      x y z
#    x 1.668460 0.000000 0.029090 
#    y 0.000000 1.705900 0.000000 
#    z 0.029090 0.000000 1.785540 
# 
# From -- ./inp_files/12347.got.cif
#   From: 2010.05.17/outbox.cif.g08.bks.cpg/sg12_7_cif.got.tgz:12347.got - 2010.06.03 13:09:07.
