data_PCOD9218942
_publ_section_title
;
Structure prediction by ZEFSAII (Michael W. Deem and Ramdas Pophale) SiO2 
 PCOD9218942
Probable space group: C 2/M
;
_chemical_formula_sum "Si O2"
_cell_formula_units_Z 42
_cell_length_a 14.439222
_cell_length_b 24.912533
_cell_length_c 14.166562
_cell_angle_alpha 90.000000
_cell_angle_beta 150.094871
_cell_angle_gamma 90.000000
_cell_volume 2540.669834
_symmetry_space_group_name_H-M "C 2/M"
_symmetry_group_IT_number 12
_symmetry_cell_setting 'monoclinic'
loop_
_space_group_symop_operation_xyz
x,y,z
-x,y,-z
-x,-y,-z
x,-y,z
1/2+x,1/2+y,z
1/2-x,1/2+y,-z
1/2-x,1/2-y,-z
1/2+x,1/2-y,z
loop_
_atom_site_type_symbol
_atom_site_label
_atom_site_fract_x
_atom_site_fract_y
_atom_site_fract_z
Si Si1 0.819307 0.438670 0.971590
Si Si2 0.636087 0.297418 0.540186
Si Si3 0.519972 0.749434 0.905154
Si Si4 0.729491 0.084800 0.294430
Si Si5 0.000000 0.000000 0.500000
Si Si6 0.158665 0.828412 0.878772
O O1 0.774665 0.500000 0.957467
O O2 0.796588 0.433325 0.837763
O O3 0.700649 0.391483 0.913326
O O4 0.038576 0.427179 0.179456
O O5 0.500000 0.273863 0.500000
O O6 0.717183 0.353347 0.652950
O O7 0.509966 0.312322 0.339610
O O8 0.815507 0.260930 0.682669
O O9 0.609883 0.697233 0.936464
O O10 0.500000 0.746381 0.000000
O O11 0.657957 0.798266 0.999555
O O12 0.896877 0.046947 0.472513
#
# Coordination Sequence:
#
# PCOD9218942 Si02
#       6
#     8   8   8   8   2   8
#     4  11  19  33  47  73 110 143 180 212 259 319
#     4  12  20  33  54  79 114 142 173 217 264 325
#     4  11  22  39  57  77 108 139 186 229 268 313
#     4  11  19  27  47  72 110 144 171 204 253 324
#     4  12  16  26  36  76 104 150 170 188 252 316
#     4  11  23  36  56  81 106 146 179 221 273 319
#
# _framework density 16.531074
#
# number of rings (size 3 to 8) (size 9 to 14) (size 15 to 20)
#    0.000    0.762    8.571    1.143    0.000    0.000 
#    0.000    0.000    0.000    0.571    0.000    0.000 
#    0.000    2.286    0.000    0.000    0.000    0.000 
#
# Total GULP energy -116933.242078 kJ/mol
# GULP energy per Si atom -5568.249623 kJ/mol
# Density = 1.649345 g / cm^3
# Si number density = 16.531074 Si / 1000 Ang^3
#
#
#
# Elastic Constant Matrix: (Units=GPa)
#
#
# Indices 1 2 3 4 5 6 
#
# 1 79.1926 47.1606 25.5766 0.0000 14.6816 0.0000
# 2 47.1606 100.8596 12.5625 0.0000 15.3977 0.0000
# 3 25.5766 12.5625 75.8521 0.0001 23.7035 0.0001
# 4 0.0000 0.0000 0.0001 25.2544 0.0000 0.7403
# 5 14.6816 15.3977 23.7035 0.0000 18.7474 0.0000
# 6 0.0000 0.0000 0.0001 0.7403 0.0000 21.4073
#
#
#
# Elastic Compliance Matrix: (Units=1/GPa)
#
#
# Indices 1 2 3 4 5 6 
#
# 1 0.019370 -0.008034 -0.004170 0.000000 -0.003298 0.000000
# 2 -0.008034 0.014804 0.003456 0.000000 -0.010237 0.000000
# 3 -0.004170 0.003456 0.022953 0.000000 -0.028593 0.000000
# 4 0.000000 0.000000 0.000000 0.039637 0.000000 -0.001371
# 5 -0.003298 -0.010237 -0.028593 0.000000 0.100484 0.000000
# 6 0.000000 0.000000 0.000000 -0.001371 0.000000 0.046760
#
#
# Mechanical properties :
#
#
# Convention : Reuss Voigt Hill
#
# Bulk Modulus (GPa) = 25.23339 47.38930 36.31135
# Shear Modulus (GPa) = 18.20068 24.45544 21.32806
#
# Velocity S-wave (km/s) = 3.32173 3.85042 3.59580
# Velocity P-wave (km/s) = 5.47806 6.96396 6.26522
#
# Compressibility (1/GPa) = 0.03963003
#
# Stress axis : x y z
#
# Youngs Moduli (GPa) = 51.62532 67.54989 43.56808
#
# Poissons Ratio (x) = 0.54272 0.18169
# Poissons Ratio (y) = 0.41478 -0.15058
# Poissons Ratio (z) = 0.21529 -0.23347
#
# Static dielectric constant tensor:
#      x y z
#    x 1.547920 0.000000 0.039030 
#    y 0.000000 1.556940 0.000000 
#    z 0.039030 0.000000 1.722340 
# 
# From -- ./inp_files/217790.got.cif
#   From: 2010.05.17/outbox.cif.g08.bks.cpg/sg12_109_cif.got.tgz:217790.got - 2010.06.03 13:09:07.
