data_PCOD9218816
_publ_section_title
;
Structure prediction by ZEFSAII (Michael W. Deem and Ramdas Pophale) SiO2 
 PCOD9218816
Probable space group: C 2/M
;
_chemical_formula_sum "Si O2"
_cell_formula_units_Z 36
_cell_length_a 8.496669
_cell_length_b 18.611689
_cell_length_c 17.467079
_cell_angle_alpha 90.000000
_cell_angle_beta 53.140914
_cell_angle_gamma 90.000000
_cell_volume 2210.070916
_symmetry_space_group_name_H-M "C 2/M"
_symmetry_group_IT_number 12
_symmetry_cell_setting 'monoclinic'
loop_
_space_group_symop_operation_xyz
x,y,z
-x,y,-z
-x,-y,-z
x,-y,z
1/2+x,1/2+y,z
1/2-x,1/2+y,-z
1/2-x,1/2-y,-z
1/2+x,1/2-y,z
loop_
_atom_site_type_symbol
_atom_site_label
_atom_site_fract_x
_atom_site_fract_y
_atom_site_fract_z
Si Si1 0.913732 0.713569 0.864032
Si Si2 0.785296 0.416193 0.601711
Si Si3 0.207631 0.308691 0.264505
Si Si4 0.934658 0.197217 0.434206
Si Si5 0.000000 0.705660 0.000000
O O1 0.900975 0.677348 0.784491
O O2 0.696128 0.746294 0.937560
O O3 0.072443 0.778152 0.812236
O O4 0.974774 0.669932 0.923144
O O5 0.736541 0.500000 0.620294
O O6 0.792737 0.377733 0.681578
O O7 0.633471 0.370315 0.595467
O O8 0.000000 0.408719 0.500000
O O9 0.095603 0.244603 0.342433
O O10 0.750000 0.250000 0.500000
O O11 0.000000 0.175823 0.500000
#
# Coordination Sequence:
#
# PCOD9218816 Si02
#       5
#     8   8   8   8   4
#     4   9  17  27  51  77 107 124 166 211 270 298
#     4  11  23  36  49  74 111 144 175 218 257 294
#     4  11  17  30  52  78  96 139 176 209 244 312
#     4  12  19  32  53  75 103 139 179 217 252 299
#     4   8  16  30  42  82 112 120 146 228 274 302
#
# _framework density 16.289069000000001
#
# number of rings (size 3 to 8) (size 9 to 14) (size 15 to 20)
#    0.000    1.556    6.667    0.000    0.000    0.444 
#    0.000    0.000    0.000    0.000    0.000   29.556 
#    0.000    0.000    0.000    0.000    0.000    0.000 
#
# Total GULP energy -100219.591693 kJ/mol
# GULP energy per Si atom -5567.755094 kJ/mol
# Density = 1.625199 g / cm^3
# Si number density = 16.289069 Si / 1000 Ang^3
#
#
#
# Elastic Constant Matrix: (Units=GPa)
#
#
# Indices 1 2 3 4 5 6 
#
# 1 123.2333 41.6564 47.9121 0.0000 41.0726 0.0000
# 2 41.6564 92.6764 30.8954 0.0000 14.4420 0.0000
# 3 47.9121 30.8954 82.8594 0.0000 16.8707 0.0000
# 4 0.0000 0.0000 0.0000 3.1718 0.0000 3.7163
# 5 41.0726 14.4420 16.8707 0.0000 64.3368 0.0000
# 6 0.0000 0.0000 0.0000 3.7163 0.0000 13.0956
#
#
#
# Elastic Compliance Matrix: (Units=1/GPa)
#
#
# Indices 1 2 3 4 5 6 
#
# 1 0.013400 -0.003280 -0.005212 0.000000 -0.006452 0.000000
# 2 -0.003280 0.013293 -0.003041 0.000000 -0.000092 0.000000
# 3 -0.005212 -0.003041 0.016268 0.000000 -0.000256 0.000000
# 4 0.000000 0.000000 0.000000 0.472334 0.000000 -0.134040
# 5 -0.006452 -0.000092 -0.000256 0.000000 0.019750 0.000000
# 6 0.000000 0.000000 0.000000 -0.134040 0.000000 0.114399
#
#
# Mechanical properties :
#
#
# Convention : Reuss Voigt Hill
#
# Bulk Modulus (GPa) = 50.26279 59.96632 55.11456
# Shear Modulus (GPa) = 7.36224 28.00786 17.68505
#
# Velocity S-wave (km/s) = 2.12827 4.15110 3.29857
# Velocity P-wave (km/s) = 6.07973 7.73752 6.95817
#
# Compressibility (1/GPa) = 0.01989543
#
# Stress axis : x y z
#
# Youngs Moduli (GPa) = 74.62659 75.22876 61.46973
#
# Poissons Ratio (x) = 0.24677 0.32036
# Poissons Ratio (y) = 0.24480 0.18692
# Poissons Ratio (z) = 0.38893 0.22876
#
# Static dielectric constant tensor:
#      x y z
#    x 1.593300 0.000000 0.037760 
#    y 0.000000 1.488860 0.000000 
#    z 0.037760 0.000000 1.617980 
# 
# From -- ./inp_files/193949.got.cif
#   From: 2010.05.17/outbox.cif.g08.bks.cpg/sg12_97_cif.got.tgz:193949.got - 2010.06.03 13:09:07.
