data_PCOD9218833
_publ_section_title
;
Structure prediction by ZEFSAII (Michael W. Deem and Ramdas Pophale) SiO2 
 PCOD9218833
Probable space group: C 2/M
;
_chemical_formula_sum "Si O2"
_cell_formula_units_Z 40
_cell_length_a 19.189254
_cell_length_b 25.929250
_cell_length_c 8.450470
_cell_angle_alpha 90.000000
_cell_angle_beta 148.418936
_cell_angle_gamma 90.000000
_cell_volume 2201.988880
_symmetry_space_group_name_H-M "C 2/M"
_symmetry_group_IT_number 12
_symmetry_cell_setting 'monoclinic'
loop_
_space_group_symop_operation_xyz
x,y,z
-x,y,-z
-x,-y,-z
x,-y,z
1/2+x,1/2+y,z
1/2-x,1/2+y,-z
1/2-x,1/2-y,-z
1/2+x,1/2-y,z
loop_
_atom_site_type_symbol
_atom_site_label
_atom_site_fract_x
_atom_site_fract_y
_atom_site_fract_z
Si Si1 0.525710 0.212873 0.735135
Si Si2 0.729772 0.000000 0.362518
Si Si3 0.205546 0.220086 0.574106
Si Si4 0.654221 0.391176 0.344921
Si Si5 0.045460 0.500000 0.324543
Si Si6 0.419769 0.107167 0.676523
O O1 0.500000 0.211349 0.500000
O O2 0.429573 0.254604 0.628573
O O3 0.485039 0.158131 0.733142
O O4 0.676215 0.225969 0.071762
O O5 0.812704 0.947255 0.517003
O O6 0.644962 0.000000 0.363044
O O7 0.612310 0.000000 0.009220
O O8 0.250000 0.250000 0.500000
O O9 0.183733 0.159360 0.504805
O O10 0.764872 0.385581 0.420072
O O11 0.500000 0.390256 0.000000
O O12 0.070207 0.558738 0.424369
O O13 0.500000 0.096325 0.000000
#
# Coordination Sequence:
#
# PCOD9218833 Si02
#       6
#     8   4   8   8   4   8
#     4  12  25  39  56  85 118 149 186 239 294 345
#     4   9  15  28  48  84 119 131 176 241 293 320
#     4  12  22  40  61  82 110 151 197 234 280 344
#     4  11  20  31  55  87 111 142 188 236 282 327
#     4   9  14  28  57  84 107 148 187 243 279 325
#     4  11  17  36  58  81 112 150 192 234 282 338
#
# _framework density 18.165396000000001
#
# number of rings (size 3 to 8) (size 9 to 14) (size 15 to 20)
#    0.000    1.000    8.000    2.700    0.000    0.000 
#    0.000    0.500    0.000    0.000    0.000    0.700 
#    0.000    0.000    0.000    0.000    0.000    0.000 
#
# Total GULP energy -111440.081252 kJ/mol
# GULP energy per Si atom -5572.004063 kJ/mol
# Density = 1.812405 g / cm^3
# Si number density = 18.165396 Si / 1000 Ang^3
#
#
#
# Elastic Constant Matrix: (Units=GPa)
#
#
# Indices 1 2 3 4 5 6 
#
# 1 24.9236 10.1559 11.0355 0.0000 -3.5438 0.0000
# 2 10.1559 129.6785 17.0752 0.0000 -2.5057 0.0000
# 3 11.0355 17.0752 123.3563 0.0000 13.9923 0.0000
# 4 0.0000 0.0000 0.0000 30.3523 0.0000 10.7138
# 5 -3.5438 -2.5057 13.9923 0.0000 25.3104 0.0000
# 6 0.0000 0.0000 0.0000 10.7138 0.0000 4.8493
#
#
#
# Elastic Compliance Matrix: (Units=1/GPa)
#
#
# Indices 1 2 3 4 5 6 
#
# 1 0.044455 -0.002717 -0.004563 0.000000 0.008478 0.000000
# 2 -0.002717 0.008072 -0.000983 0.000000 0.000962 0.000000
# 3 -0.004563 -0.000983 0.009319 0.000000 -0.005888 0.000000
# 4 0.000000 0.000000 0.000000 0.149661 0.000000 -0.330653
# 5 0.008478 0.000962 -0.005888 0.000000 0.044047 0.000000
# 6 0.000000 0.000000 0.000000 -0.330653 0.000000 0.936742
#
#
# Mechanical properties :
#
#
# Convention : Reuss Voigt Hill
#
# Bulk Modulus (GPa) = 22.06516 39.38797 30.72657
# Shear Modulus (GPa) = 4.08521 28.08186 16.08353
#
# Velocity S-wave (km/s) = 1.50126 3.93606 2.97879
# Velocity P-wave (km/s) = 3.89592 6.51051 5.36493
#
# Compressibility (1/GPa) = 0.04532031
#
# Stress axis : x y z
#
# Youngs Moduli (GPa) = 22.49452 123.88106 107.31049
#
# Poissons Ratio (x) = 0.33658 0.48961
# Poissons Ratio (y) = 0.06112 0.10554
# Poissons Ratio (z) = 0.10263 0.12183
#
# Static dielectric constant tensor:
#      x y z
#    x 1.629720 0.000000 -0.019520 
#    y 0.000000 1.682630 0.000000 
#    z -0.019520 0.000000 1.615760 
# 
# From -- ./inp_files/40440.got.cif
#   From: 2010.05.17/outbox.cif.g08.bks.cpg/sg12_21_cif.got.tgz:40440.got - 2010.06.03 13:09:07.
