data_PCOD9218497
_publ_section_title
;
Structure prediction by ZEFSAII (Michael W. Deem and Ramdas Pophale) SiO2 
 PCOD9218497
Probable space group: C 2/M
;
_chemical_formula_sum "Si O2"
_cell_formula_units_Z 54
_cell_length_a 17.497207
_cell_length_b 26.561175
_cell_length_c 5.386623
_cell_angle_alpha 90.000000
_cell_angle_beta 67.410164
_cell_angle_gamma 90.000000
_cell_volume 2311.347570
_symmetry_space_group_name_H-M "C 2/M"
_symmetry_group_IT_number 12
_symmetry_cell_setting 'monoclinic'
loop_
_space_group_symop_operation_xyz
x,y,z
-x,y,-z
-x,-y,-z
x,-y,z
1/2+x,1/2+y,z
1/2-x,1/2+y,-z
1/2-x,1/2-y,-z
1/2+x,1/2-y,z
loop_
_atom_site_type_symbol
_atom_site_label
_atom_site_fract_x
_atom_site_fract_y
_atom_site_fract_z
Si Si1 0.750815 0.716678 0.752987
Si Si2 0.362034 0.412543 0.586524
Si Si3 0.929211 0.712064 0.410494
Si Si4 0.234366 0.939528 0.793182
Si Si5 0.586795 0.941882 0.244295
Si Si6 0.000000 0.000000 0.500000
Si Si7 0.911631 0.820908 0.220441
Si Si8 0.500000 0.125040 0.000000
O O1 0.750000 0.750000 0.500000
O O2 0.843369 0.695470 0.638795
O O3 0.673508 0.678883 0.833909
O O4 0.750000 0.750000 0.000000
O O5 0.302026 0.423878 0.427306
O O6 0.433487 0.455098 0.499034
O O7 0.395466 0.356298 0.479818
O O8 0.315168 0.417924 0.906806
O O9 0.917502 0.760738 0.253088
O O10 0.000000 0.731921 0.500000
O O11 0.965268 0.662743 0.245012
O O12 0.331584 0.928065 0.705216
O O13 0.224305 0.000000 0.822334
O O14 0.500000 0.937745 0.500000
O O15 0.572818 0.908367 0.020822
O O16 0.596308 0.000000 0.157238
O O17 0.000000 0.837826 0.000000
#
# Coordination Sequence:
#
# PCOD9218497 Si02
#       8
#     8   8   8   8   8   2   8   4
#     4  10  24  46  74 104 146 196 250 315 375 447
#     4  12  29  46  81 111 152 200 256 328 390 470
#     4  11  25  45  74 103 153 197 257 312 379 460
#     4  11  25  51  76 116 155 199 252 316 396 468
#     4  10  25  47  79 114 158 201 252 314 385 474
#     4  12  28  54  80 110 154 188 274 316 416 464
#     4  11  26  47  72 110 148 205 256 319 386 456
#     4  12  25  44  74 114 146 215 248 320 382 458
#
# _framework density 23.362991999999998
#
# number of rings (size 3 to 8) (size 9 to 14) (size 15 to 20)
#    0.000    1.037    2.222    1.556    9.333    4.148 
#    0.000    0.000    0.000    0.000    0.000    0.000 
#    0.000    0.000    0.000    0.000    0.000    0.000 
#
# Total GULP energy -150638.023335 kJ/mol
# GULP energy per Si atom -5579.186049 kJ/mol
# Density = 2.330982 g / cm^3
# Si number density = 23.362992 Si / 1000 Ang^3
#
#
#
# Elastic Constant Matrix: (Units=GPa)
#
#
# Indices 1 2 3 4 5 6 
#
# 1 164.2787 9.5636 26.9735 0.0000 -6.4001 0.0000
# 2 9.5636 97.6442 5.9268 0.0000 6.7879 0.0000
# 3 26.9735 5.9268 74.4837 0.0000 2.9351 0.0000
# 4 0.0000 0.0000 0.0000 876.8909 0.0000 1049.9163
# 5 -6.4001 6.7879 2.9351 0.0000 40.7349 0.0000
# 6 0.0000 0.0000 0.0000 1049.9163 0.0000 1203.3753
#
#
#
# Elastic Compliance Matrix: (Units=1/GPa)
#
#
# Indices 1 2 3 4 5 6 
#
# 1 0.006563 -0.000589 -0.002381 0.000000 0.001301 0.000000
# 2 -0.000589 0.010457 -0.000548 0.000000 -0.001796 0.000000
# 3 -0.002381 -0.000548 0.014384 0.000000 -0.001319 0.000000
# 4 0.000000 0.000000 0.000000 -0.025552 0.000000 0.022293
# 5 0.001301 -0.001796 -0.001319 0.000000 0.025148 0.000000
# 6 0.000000 0.000000 0.000000 0.022293 0.000000 -0.018619
#
#
# Mechanical properties :
#
#
# Convention : Reuss Voigt Hill
#
# Bulk Modulus (GPa) = 41.03784 46.81494 43.92639
# Shear Modulus (GPa) = 181.56201 443.79639 312.67920
#
# Velocity S-wave (km/s) = 8.82509 13.79744 11.58127
# Velocity P-wave (km/s) = 11.02027 16.55015 14.05976
#
# Compressibility (1/GPa) = 0.02436775
#
# Stress axis : x y z
#
# Youngs Moduli (GPa) = 152.36594 95.62957 69.52326
#
# Poissons Ratio (x) = 0.05630 0.16555
# Poissons Ratio (y) = 0.08970 0.03811
# Poissons Ratio (z) = 0.36281 0.05242
#
# Static dielectric constant tensor:
#      x y z
#    x 1.928200 0.000000 0.018840 
#    y 0.000000 1.866260 0.000000 
#    z 0.018840 0.000000 1.934700 
# 
# From -- ./inp_files/17659.got.cif
#   From: 2010.05.17/outbox.cif.g08.bks.cpg/sg12_9_cif.got.tgz:17659.got - 2010.06.03 13:09:07.
