data_PCOD9218872
_publ_section_title
;
Structure prediction by ZEFSAII (Michael W. Deem and Ramdas Pophale) SiO2 
 PCOD9218872
Probable space group: C 2/M
;
_chemical_formula_sum "Si O2"
_cell_formula_units_Z 58
_cell_length_a 12.225697
_cell_length_b 19.192016
_cell_length_c 21.314643
_cell_angle_alpha 90.000000
_cell_angle_beta 37.079065
_cell_angle_gamma 90.000000
_cell_volume 3015.292682
_symmetry_space_group_name_H-M "C 2/M"
_symmetry_group_IT_number 12
_symmetry_cell_setting 'monoclinic'
loop_
_space_group_symop_operation_xyz
x,y,z
-x,y,-z
-x,-y,-z
x,-y,z
1/2+x,1/2+y,z
1/2-x,1/2+y,-z
1/2-x,1/2-y,-z
1/2+x,1/2-y,z
loop_
_atom_site_type_symbol
_atom_site_label
_atom_site_fract_x
_atom_site_fract_y
_atom_site_fract_z
Si Si1 0.624588 0.581560 0.191900
Si Si2 0.233018 0.628168 0.344530
Si Si3 0.500000 0.000000 0.500000
Si Si4 0.432510 0.176040 0.707539
Si Si5 0.762718 0.322265 0.229660
Si Si6 0.169755 0.665130 0.994131
Si Si7 0.790897 0.211346 0.605154
Si Si8 0.704564 0.318202 0.930319
O O1 0.605293 0.500000 0.204152
O O2 0.447432 0.615443 0.241056
O O3 0.657104 0.614916 0.245240
O O4 0.792799 0.604471 0.071722
O O5 0.151487 0.562628 0.418589
O O6 0.130489 0.632797 0.324240
O O7 0.213176 0.704220 0.386104
O O8 0.345705 0.252168 0.736724
O O9 0.647458 0.185559 0.618938
O O10 0.338304 0.153068 0.815784
O O11 0.774060 0.321449 0.299251
O O12 0.962827 0.320194 0.108149
O O13 0.270226 0.648397 0.013150
O O14 0.242694 0.736246 0.928270
O O15 0.000000 0.191518 0.500000
O O16 0.500000 0.323993 0.000000
#
# Coordination Sequence:
#
# PCOD9218872 Si02
#       8
#     8   8   2   8   8   8   8   8
#     4  12  24  41  62  90 133 171 217 254 316 394
#     4  11  24  41  66  93 126 170 214 267 321 379
#     4  12  24  48  64  88 130 172 230 254 320 390
#     4  11  21  38  64  96 129 161 207 277 324 375
#     4  11  22  37  61  94 132 162 208 264 329 379
#     4  11  21  33  57  93 125 167 207 256 322 389
#     4  11  23  41  66  98 126 159 212 278 329 376
#     4  11  18  32  59  89 126 158 198 260 324 378
#
# _framework density 19.235279999999999
#
# number of rings (size 3 to 8) (size 9 to 14) (size 15 to 20)
#    0.000    0.828    6.897    1.241    3.862    4.414 
#    0.000    0.000    3.034    1.655    0.000    0.000 
#    0.000    0.000    0.000    0.000    0.000    0.000 
#
# Total GULP energy -161673.509540 kJ/mol
# GULP energy per Si atom -5574.948605 kJ/mol
# Density = 1.919150 g / cm^3
# Si number density = 19.235280 Si / 1000 Ang^3
#
#
#
# Elastic Constant Matrix: (Units=GPa)
#
#
# Indices 1 2 3 4 5 6 
#
# 1 104.9325 19.1318 0.7607 0.0058 -21.5767 -0.0029
# 2 19.1318 53.5408 7.3170 -0.0078 -4.0494 0.0019
# 3 0.7607 7.3170 47.9009 -0.0140 -31.6194 0.0024
# 4 0.0058 -0.0078 -0.0140 17.3645 0.0039 -2.5558
# 5 -21.5767 -4.0494 -31.6194 0.0039 28.4738 -0.0001
# 6 -0.0029 0.0019 0.0024 -2.5558 -0.0001 6.4679
#
#
#
# Elastic Compliance Matrix: (Units=1/GPa)
#
#
# Indices 1 2 3 4 5 6 
#
# 1 0.026368 -0.010669 0.050187 0.000010 0.074195 0.000001
# 2 -0.010669 0.023422 -0.024521 0.000001 -0.031983 -0.000002
# 3 0.050187 -0.024521 0.174649 0.000060 0.228487 -0.000010
# 4 0.000010 0.000001 0.000060 0.061145 0.000066 0.024161
# 5 0.074195 -0.031983 0.228487 0.000066 0.340523 -0.000013
# 6 0.000001 -0.000002 -0.000010 0.024161 -0.000013 0.164158
#
#
# Mechanical properties :
#
#
# Convention : Reuss Voigt Hill
#
# Bulk Modulus (GPa) = 3.93030 28.97702 16.45366
# Shear Modulus (GPa) = 5.91659 22.40555 14.16107
#
# Velocity S-wave (km/s) = 1.75573 3.41664 2.71625
# Velocity P-wave (km/s) = 2.48150 5.53731 4.29067
#
# Compressibility (1/GPa) = 0.25443321
#
# Stress axis : x y z
#
# Youngs Moduli (GPa) = 37.92529 42.69515 5.72576
#
# Poissons Ratio (x) = 0.45552 -0.28736
# Poissons Ratio (y) = 0.40463 0.14040
# Poissons Ratio (z) = -1.90336 1.04691
#
# Static dielectric constant tensor:
#      x y z
#    x 1.728110 0.000000 -0.003430 
#    y 0.000000 1.630440 0.000000 
#    z -0.003430 0.000000 1.723580 
# 
# From -- ./inp_files/306373.got.cif
#   From: 2010.05.17/outbox.cif.g08.bks.cpg/sg12_154_cif.got.tgz:306373.got - 2010.06.03 13:09:07.
