data_PCOD9218316
_publ_section_title
;
Structure prediction by ZEFSAII (Michael W. Deem and Ramdas Pophale) SiO2 
 PCOD9218316
Probable space group: C 2/M
;
_chemical_formula_sum "Si O2"
_cell_formula_units_Z 38
_cell_length_a 21.409694
_cell_length_b 14.504754
_cell_length_c 18.141005
_cell_angle_alpha 90.000000
_cell_angle_beta 161.159609
_cell_angle_gamma 90.000000
_cell_volume 1819.259057
_symmetry_space_group_name_H-M "C 2/M"
_symmetry_group_IT_number 12
_symmetry_cell_setting 'monoclinic'
loop_
_space_group_symop_operation_xyz
x,y,z
-x,y,-z
-x,-y,-z
x,-y,z
1/2+x,1/2+y,z
1/2-x,1/2+y,-z
1/2-x,1/2-y,-z
1/2+x,1/2-y,z
loop_
_atom_site_type_symbol
_atom_site_label
_atom_site_fract_x
_atom_site_fract_y
_atom_site_fract_z
Si Si1 0.263895 0.393096 0.568698
Si Si2 0.413594 0.778280 0.241888
Si Si3 0.500000 0.500000 0.000000
Si Si4 0.666928 0.601429 0.528509
Si Si5 0.149934 0.168142 0.077622
Si Si6 0.000000 0.331947 0.000000
O O1 0.280011 0.500000 0.612798
O O2 0.281641 0.390789 0.500624
O O3 0.447241 0.340533 0.806805
O O4 0.069633 0.345452 0.378799
O O5 0.523682 0.684594 0.386954
O O6 0.250000 0.750000 0.000000
O O7 0.317676 0.827347 0.204908
O O8 0.358276 0.581922 0.876627
O O9 0.579913 0.500000 0.443524
O O10 0.863364 0.611272 0.793693
O O11 0.138422 0.263155 0.108943
#
# Coordination Sequence:
#
# PCOD9218316 Si02
#       6
#     8   8   2   8   8   4
#     4  11  23  43  71 102 135 182 232 292 354 418
#     4  12  24  41  73 103 138 182 239 291 348 422
#     4  10  24  44  68 104 146 180 216 296 360 428
#     4  11  24  44  70  99 140 185 237 292 349 413
#     4  11  23  43  70  98 142 181 229 285 359 420
#     4  11  23  45  65  96 140 190 226 284 354 414
#
# _framework density 20.887623999999999
#
# number of rings (size 3 to 8) (size 9 to 14) (size 15 to 20)
#    0.000    0.842    5.263    2.211    1.474    1.684 
#    0.000    4.211    0.000    0.000    0.000    0.000 
#    0.000    0.000    0.000    0.000    0.000    0.000 
#
# Total GULP energy -106068.616898 kJ/mol
# GULP energy per Si atom -5582.558784 kJ/mol
# Density = 2.084008 g / cm^3
# Si number density = 20.887624 Si / 1000 Ang^3
#
#
#
# Elastic Constant Matrix: (Units=GPa)
#
#
# Indices 1 2 3 4 5 6 
#
# 1 86.3971 39.6602 17.5915 0.0143 17.0772 0.0023
# 2 39.6602 102.6458 12.4712 0.0008 18.4045 0.0036
# 3 17.5915 12.4712 56.1276 -0.0062 7.7974 0.0164
# 4 0.0143 0.0008 -0.0062 10.9331 0.0076 -0.6252
# 5 17.0772 18.4045 7.7974 0.0076 41.4568 0.0051
# 6 0.0023 0.0036 0.0164 -0.6252 0.0051 22.3681
#
#
#
# Elastic Compliance Matrix: (Units=1/GPa)
#
#
# Indices 1 2 3 4 5 6 
#
# 1 0.015131 -0.004834 -0.003184 -0.000019 -0.003488 0.000002
# 2 -0.004834 0.012298 -0.000755 0.000007 -0.003326 0.000000
# 3 -0.003184 -0.000755 0.019257 0.000016 -0.001975 -0.000013
# 4 -0.000019 0.000007 0.000016 0.091612 -0.000016 0.002560
# 5 -0.003488 -0.003326 -0.001975 -0.000016 0.027407 -0.000004
# 6 0.000002 0.000000 -0.000013 0.002560 -0.000004 0.044778
#
#
# Mechanical properties :
#
#
# Convention : Reuss Voigt Hill
#
# Bulk Modulus (GPa) = 34.31758 42.73515 38.52636
# Shear Modulus (GPa) = 21.03114 26.64810 23.83962
#
# Velocity S-wave (km/s) = 3.17657 3.57569 3.38202
# Velocity P-wave (km/s) = 5.46986 6.12792 5.80822
#
# Compressibility (1/GPa) = 0.02913958
#
# Stress axis : x y z
#
# Youngs Moduli (GPa) = 66.08826 81.31236 51.93022
#
# Poissons Ratio (x) = 0.39308 0.16533
# Poissons Ratio (y) = 0.31948 0.03923
# Poissons Ratio (z) = 0.21041 0.06142
#
# Static dielectric constant tensor:
#      x y z
#    x 1.798950 0.000000 -0.083910 
#    y 0.000000 1.746980 0.000000 
#    z -0.083910 0.000000 1.765300 
# 
# From -- ./inp_files/284662.got.cif
#   From: 2010.05.17/outbox.cif.g08.bks.cpg/sg12_143_cif.got.tgz:284662.got - 2010.06.03 13:09:07.
