data_PCOD9218528
_publ_section_title
;
Structure prediction by ZEFSAII (Michael W. Deem and Ramdas Pophale) SiO2 
 PCOD9218528
Probable space group: C 2/M
;
_chemical_formula_sum "Si O2"
_cell_formula_units_Z 28
_cell_length_a 5.239206
_cell_length_b 27.808805
_cell_length_c 8.034833
_cell_angle_alpha 90.000000
_cell_angle_beta 106.381743
_cell_angle_gamma 90.000000
_cell_volume 1123.119926
_symmetry_space_group_name_H-M "C 2/M"
_symmetry_group_IT_number 12
_symmetry_cell_setting 'monoclinic'
loop_
_space_group_symop_operation_xyz
x,y,z
-x,y,-z
-x,-y,-z
x,-y,z
1/2+x,1/2+y,z
1/2-x,1/2+y,-z
1/2-x,1/2-y,-z
1/2+x,1/2-y,z
loop_
_atom_site_type_symbol
_atom_site_label
_atom_site_fract_x
_atom_site_fract_y
_atom_site_fract_z
Si Si1 0.000000 0.667208 0.500000
Si Si2 0.798336 0.500000 0.620345
Si Si3 0.456545 0.282227 0.754999
Si Si4 0.500000 0.371246 0.000000
Si Si5 0.991597 0.404205 0.194085
O O1 0.731732 0.698107 0.429636
O O2 0.048018 0.635278 0.344622
O O3 0.500000 0.500000 0.500000
O O4 0.000000 0.500000 0.500000
O O5 0.858200 0.452487 0.738121
O O6 0.721112 0.250169 0.793266
O O7 0.546918 0.330501 0.866027
O O8 0.674028 0.408246 0.141670
O O9 0.000000 0.388910 0.000000
#
# Coordination Sequence:
#
# PCOD9218528 Si02
#       5
#     4   4   8   4   8
#     4  10  24  47  72 112 148 202 256 311 368 444
#     4  12  29  53  82 115 153 197 247 310 385 461
#     4  11  24  44  70 104 153 203 252 311 375 434
#     4  10  26  43  74 112 148 198 254 313 368 452
#     4  11  26  49  78 111 152 199 247 314 377 457
#
# _framework density 24.930554000000001
#
# number of rings (size 3 to 8) (size 9 to 14) (size 15 to 20)
#    0.000    1.143    1.429    2.143   12.000    0.571 
#    5.143    0.000    0.000    0.000    0.000    0.000 
#    0.000    0.000    0.000    0.000    0.000    0.000 
#
# Total GULP energy -77979.330644 kJ/mol
# GULP energy per Si atom -5569.952189 kJ/mol
# Density = 2.487381 g / cm^3
# Si number density = 24.930554 Si / 1000 Ang^3
#
#
#
# Elastic Constant Matrix: (Units=GPa)
#
#
# Indices 1 2 3 4 5 6 
#
# 1 131.4008 86.4479 52.4048 0.0000 15.0879 0.0000
# 2 86.4479 122.8564 80.0932 0.0000 38.4246 0.0000
# 3 52.4048 80.0932 170.2294 0.0000 6.8145 0.0000
# 4 0.0000 0.0000 0.0000 49.1618 0.0000 12.8559
# 5 15.0879 38.4246 6.8145 0.0000 43.9507 0.0000
# 6 0.0000 0.0000 0.0000 12.8559 0.0000 19.4497
#
#
#
# Elastic Compliance Matrix: (Units=1/GPa)
#
#
# Indices 1 2 3 4 5 6 
#
# 1 0.015380 -0.013901 0.001540 0.000000 0.006635 0.000000
# 2 -0.013901 0.030178 -0.009111 0.000000 -0.020199 0.000000
# 3 0.001540 -0.009111 0.009448 0.000000 0.005972 0.000000
# 4 0.000000 0.000000 0.000000 0.024592 0.000000 -0.016255
# 5 0.006635 -0.020199 0.005972 0.000000 0.037208 0.000000
# 6 0.000000 0.000000 0.000000 -0.016255 0.000000 0.062159
#
#
# Mechanical properties :
#
#
# Convention : Reuss Voigt Hill
#
# Bulk Modulus (GPa) = 82.90284 95.81983 89.36133
# Shear Modulus (GPa) = 22.13088 36.21516 29.17302
#
# Velocity S-wave (km/s) = 2.98266 3.81549 3.42449
# Velocity P-wave (km/s) = 6.72216 7.61109 7.18040
#
# Compressibility (1/GPa) = 0.01206231
#
# Stress axis : x y z
#
# Youngs Moduli (GPa) = 65.02089 33.13654 105.84419
#
# Poissons Ratio (x) = 0.46064 -0.16303
# Poissons Ratio (y) = 0.90387 0.96433
# Poissons Ratio (z) = -0.10015 0.30190
#
# Static dielectric constant tensor:
#      x y z
#    x 0.184160 0.000000 -0.669670 
#    y 0.000000 1.893930 0.000000 
#    z -0.669670 0.000000 1.985790 
# 
# From -- ./inp_files/34396.got.cif
#   From: 2010.05.17/outbox.cif.g08.bks.cpg/sg12_18_cif.got.tgz:34396.got - 2010.06.03 13:09:07.
