data_PCOD9218136
_publ_section_title
;
Structure prediction by ZEFSAII (Michael W. Deem and Ramdas Pophale) SiO2 
 PCOD9218136
Probable space group: C 2/M
;
_chemical_formula_sum "Si O2"
_cell_formula_units_Z 24
_cell_length_a 8.967122
_cell_length_b 17.831704
_cell_length_c 10.739457
_cell_angle_alpha 90.000000
_cell_angle_beta 41.097043
_cell_angle_gamma 90.000000
_cell_volume 1128.797139
_symmetry_space_group_name_H-M "C 2/M"
_symmetry_group_IT_number 12
_symmetry_cell_setting 'monoclinic'
loop_
_space_group_symop_operation_xyz
x,y,z
-x,y,-z
-x,-y,-z
x,-y,z
1/2+x,1/2+y,z
1/2-x,1/2+y,-z
1/2-x,1/2-y,-z
1/2+x,1/2-y,z
loop_
_atom_site_type_symbol
_atom_site_label
_atom_site_fract_x
_atom_site_fract_y
_atom_site_fract_z
Si Si1 0.000000 0.745257 0.500000
Si Si2 0.123501 0.500000 0.288368
Si Si3 0.454959 0.338322 0.290092
Si Si4 0.864852 0.000000 0.458616
Si Si5 0.000000 0.123888 0.000000
O O1 0.795075 0.695310 0.577892
O O2 0.063590 0.796411 0.340340
O O3 0.285077 0.428867 0.166791
O O4 0.000000 0.500000 0.500000
O O5 0.902680 0.500000 0.340841
O O6 0.430409 0.425407 0.341914
O O7 0.565104 0.332037 0.084276
O O8 0.000000 0.000000 0.500000
#
# Coordination Sequence:
#
# PCOD9218136 Si02
#       5
#     4   4   8   4   4
#     4  10  24  42  68  90 140 190 208 276 352 396
#     4  11  20  39  68 101 140 171 216 286 348 389
#     4  11  22  42  66 100 132 176 230 272 338 405
#     4  12  22  40  72  98 127 178 224 280 333 393
#     4  11  22  38  72 104 126 177 234 272 332 411
#
# _framework density 21.261571
#
# number of rings (size 3 to 8) (size 9 to 14) (size 15 to 20)
#    0.000    1.000    5.000    3.000    0.000    1.333 
#    0.000    3.333    0.000    0.000    0.000    0.000 
#    0.000    0.000    0.000    0.000    0.000    0.000 
#
# Total GULP energy -67024.654285 kJ/mol
# GULP energy per Si atom -5585.387857 kJ/mol
# Density = 2.121318 g / cm^3
# Si number density = 21.261571 Si / 1000 Ang^3
#
#
#
# Elastic Constant Matrix: (Units=GPa)
#
#
# Indices 1 2 3 4 5 6 
#
# 1 141.9287 26.8563 37.3123 0.0001 30.9699 -0.0001
# 2 26.8563 101.1568 26.4230 0.0000 28.6488 0.0000
# 3 37.3123 26.4230 116.1981 0.0002 32.7026 -0.0003
# 4 0.0001 0.0000 0.0002 0.0759 -0.0001 37.9136
# 5 30.9699 28.6488 32.7026 -0.0001 51.3956 0.0002
# 6 -0.0001 0.0000 -0.0003 37.9136 0.0002 7.1615
#
#
#
# Elastic Compliance Matrix: (Units=1/GPa)
#
#
# Indices 1 2 3 4 5 6 
#
# 1 0.008386 -0.000802 -0.001479 0.000000 -0.003665 0.000000
# 2 -0.000802 0.011913 -0.000875 0.000000 -0.005600 0.000000
# 3 -0.001479 -0.000875 0.010831 0.000000 -0.005513 0.000000
# 4 0.000000 0.000000 0.000000 -0.004984 0.000000 0.026386
# 5 -0.003665 -0.005600 -0.005513 0.000000 0.028295 0.000000
# 6 0.000000 0.000000 0.000000 0.026386 0.000000 -0.000053
#
#
# Mechanical properties :
#
#
# Convention : Reuss Voigt Hill
#
# Bulk Modulus (GPa) = 40.29297 60.05185 50.17241
# Shear Modulus (GPa) = 72.49034 29.63940 51.06487
#
# Velocity S-wave (km/s) = 5.84539 3.73773 4.90608
# Velocity P-wave (km/s) = 8.03432 6.85078 7.46604
#
# Compressibility (1/GPa) = 0.02481823
#
# Stress axis : x y z
#
# Youngs Moduli (GPa) = 119.24435 83.93945 92.32350
#
# Poissons Ratio (x) = 0.06733 0.13654
# Poissons Ratio (y) = 0.09565 0.08081
# Poissons Ratio (z) = 0.17636 0.07347
#
# Static dielectric constant tensor:
#      x y z
#    x 1.801830 0.000000 0.037390 
#    y 0.000000 1.803070 0.000000 
#    z 0.037390 0.000000 1.810160 
# 
# From -- ./inp_files/37481.got.cif
#   From: 2010.05.17/outbox.cif.g08.bks.cpg/sg12_19_cif.got.tgz:37481.got - 2010.06.03 13:09:07.
