data_PCOD9218107
_publ_section_title
;
Structure prediction by ZEFSAII (Michael W. Deem and Ramdas Pophale) SiO2 
 PCOD9218107
Probable space group: C 2/M
;
_chemical_formula_sum "Si O2"
_cell_formula_units_Z 64
_cell_length_a 9.460958
_cell_length_b 25.801970
_cell_length_c 15.743250
_cell_angle_alpha 90.000000
_cell_angle_beta 51.401494
_cell_angle_gamma 90.000000
_cell_volume 3003.528598
_symmetry_space_group_name_H-M "C 2/M"
_symmetry_group_IT_number 12
_symmetry_cell_setting 'monoclinic'
loop_
_space_group_symop_operation_xyz
x,y,z
-x,y,-z
-x,-y,-z
x,-y,z
1/2+x,1/2+y,z
1/2-x,1/2+y,-z
1/2-x,1/2-y,-z
1/2+x,1/2-y,z
loop_
_atom_site_type_symbol
_atom_site_label
_atom_site_fract_x
_atom_site_fract_y
_atom_site_fract_z
Si Si1 0.792767 0.937511 0.857364
Si Si2 0.095427 0.177302 0.595102
Si Si3 0.067719 0.438079 0.099903
Si Si4 0.595122 0.312683 0.879713
Si Si5 0.693678 0.605729 0.700631
Si Si6 0.236263 0.657227 0.637221
Si Si7 0.959940 0.257693 0.786538
Si Si8 0.497946 0.059732 0.315676
O O1 0.633832 0.920064 0.852039
O O2 0.995878 0.919678 0.765857
O O3 0.796526 0.000000 0.854461
O O4 0.717263 0.918522 0.977556
O O5 0.912326 0.150042 0.629361
O O6 0.029450 0.223111 0.681175
O O7 0.216612 0.139946 0.608007
O O8 0.201171 0.189880 0.469311
O O9 0.064548 0.500000 0.087193
O O10 0.099759 0.431234 0.186994
O O11 0.674786 0.356046 0.787926
O O12 0.759481 0.276487 0.845862
O O13 0.470401 0.277501 0.866028
O O14 0.500000 0.332875 0.000000
O O15 0.860508 0.569190 0.661693
O O16 0.156572 0.603348 0.631639
O O17 0.088128 0.691665 0.741329
O O18 0.433336 0.000000 0.340386
#
# Coordination Sequence:
#
# PCOD9218107 Si02
#       8
#     8   8   8   8   8   8   8   8
#     4   9  17  33  56  82 117 166 215 258 296 356
#     4  10  24  42  65  95 118 161 213 265 314 377
#     4   8  17  33  55  82 114 159 217 260 301 352
#     4  11  24  40  62  94 132 166 200 245 306 378
#     4  11  23  37  56  89 132 160 210 250 312 370
#     4  11  22  43  69  91 122 160 218 260 316 375
#     4  11  21  44  66  94 129 160 204 257 314 370
#     4  11  23  39  60  90 128 167 206 260 317 369
#
# _framework density 21.30827
#
# number of rings (size 3 to 8) (size 9 to 14) (size 15 to 20)
#    0.000    1.750    2.500    2.625    1.750    0.500 
#    0.000    5.625    0.000    0.000    0.000    0.000 
#    0.000    0.000    0.000    0.000    0.000    0.000 
#
# Total GULP energy -178639.147682 kJ/mol
# GULP energy per Si atom -5582.473365 kJ/mol
# Density = 2.125977 g / cm^3
# Si number density = 21.308270 Si / 1000 Ang^3
#
#
#
# Elastic Constant Matrix: (Units=GPa)
#
#
# Indices 1 2 3 4 5 6 
#
# 1 85.9029 15.8372 -3.4067 0.0000 7.8268 0.0000
# 2 15.8372 46.3435 -7.3275 0.0000 0.8006 0.0000
# 3 -3.4067 -7.3275 32.8154 0.0000 17.7412 0.0000
# 4 0.0000 0.0000 0.0000 18.5701 0.0000 -3.5772
# 5 7.8268 0.8006 17.7412 0.0000 23.5183 0.0000
# 6 0.0000 0.0000 0.0000 -3.5772 0.0000 33.6203
#
#
#
# Elastic Compliance Matrix: (Units=1/GPa)
#
#
# Indices 1 2 3 4 5 6 
#
# 1 0.013224 -0.003613 0.004861 0.000000 -0.007945 0.000000
# 2 -0.003613 0.024200 0.008146 0.000000 -0.005767 0.000000
# 3 0.004861 0.008146 0.057115 0.000000 -0.044980 0.000000
# 4 0.000000 0.000000 0.000000 0.054977 0.000000 0.005850
# 5 -0.007945 -0.005767 -0.044980 0.000000 0.079292 0.000000
# 6 0.000000 0.000000 0.000000 0.005850 0.000000 0.030366
#
#
# Mechanical properties :
#
#
# Convention : Reuss Voigt Hill
#
# Bulk Modulus (GPa) = 8.82388 19.47420 14.14904
# Shear Modulus (GPa) = 17.97518 25.80564 21.89041
#
# Velocity S-wave (km/s) = 2.90759 3.48381 3.20866
# Velocity P-wave (km/s) = 3.92711 5.03405 4.51463
#
# Compressibility (1/GPa) = 0.11332877
#
# Stress axis : x y z
#
# Youngs Moduli (GPa) = 75.62086 41.32155 17.50849
#
# Poissons Ratio (x) = 0.14930 -0.08512
# Poissons Ratio (y) = 0.27323 -0.14263
# Poissons Ratio (z) = -0.36762 -0.33662
#
# Static dielectric constant tensor:
#      x y z
#    x 1.761900 0.000000 0.015160 
#    y 0.000000 1.772410 0.000000 
#    z 0.015160 0.000000 1.770310 
# 
# From -- ./inp_files/201302.got.cif
#   From: 2010.05.17/outbox.cif.g08.bks.cpg/sg12_101_cif.got.tgz:201302.got - 2010.06.03 13:09:07.
