data_PCOD9218405
_publ_section_title
;
Structure prediction by ZEFSAII (Michael W. Deem and Ramdas Pophale) SiO2 
 PCOD9218405
Probable space group: C 2/M
;
_chemical_formula_sum "Si O2"
_cell_formula_units_Z 36
_cell_length_a 16.694292
_cell_length_b 17.808597
_cell_length_c 15.506650
_cell_angle_alpha 90.000000
_cell_angle_beta 20.187173
_cell_angle_gamma 90.000000
_cell_volume 1590.910187
_symmetry_space_group_name_H-M "C 2/M"
_symmetry_group_IT_number 12
_symmetry_cell_setting 'monoclinic'
loop_
_space_group_symop_operation_xyz
x,y,z
-x,y,-z
-x,-y,-z
x,-y,z
1/2+x,1/2+y,z
1/2-x,1/2+y,-z
1/2-x,1/2-y,-z
1/2+x,1/2-y,z
loop_
_atom_site_type_symbol
_atom_site_label
_atom_site_fract_x
_atom_site_fract_y
_atom_site_fract_z
Si Si1 0.117841 0.584097 0.974323
Si Si2 0.738027 0.500000 0.815614
Si Si3 0.228576 0.918267 0.518422
Si Si4 0.982069 0.367266 0.619430
Si Si5 0.909456 0.208947 0.769018
O O1 0.226498 0.500000 0.862460
O O2 0.283760 0.653194 0.829090
O O3 0.000000 0.594730 0.000000
O O4 0.932832 0.583482 0.239811
O O5 0.000000 0.500000 0.500000
O O6 0.757044 0.423212 0.852166
O O7 0.500000 0.500000 0.000000
O O8 0.334351 0.910594 0.506702
O O9 0.078627 0.846066 0.648663
O O10 0.112311 0.000000 0.627615
O O11 0.000000 0.358623 0.500000
O O12 0.007123 0.281985 0.624648
O O13 0.750000 0.250000 0.000000
#
# Coordination Sequence:
#
# PCOD9218405 Si02
#       5
#     8   4   8   8   8
#     4  10  24  45  68  98 135 182 238 290 355 430
#     4  10  24  48  70 108 147 193 247 295 370 450
#     4  11  24  47  71  97 143 185 238 295 360 436
#     4  11  25  45  69 104 141 185 236 303 364 440
#     4  12  26  42  70 104 138 184 235 298 368 427
#
# _framework density 22.628558000000002
#
# number of rings (size 3 to 8) (size 9 to 14) (size 15 to 20)
#    0.000    1.111    3.333    1.333    3.111    4.444 
#    2.000    3.333    0.000    0.000    0.000    0.000 
#    0.000    0.000    0.000    0.000    0.000    0.000 
#
# Total GULP energy -100343.393848 kJ/mol
# GULP energy per Si atom -5574.632992 kJ/mol
# Density = 2.257705 g / cm^3
# Si number density = 22.628558 Si / 1000 Ang^3
#
#
#
# Elastic Constant Matrix: (Units=GPa)
#
#
# Indices 1 2 3 4 5 6 
#
# 1 160.4831 53.3233 24.9575 0.0124 -24.7249 0.0323
# 2 53.3233 219.4591 32.5469 -0.1247 -36.5189 0.0575
# 3 24.9575 32.5469 33.5858 -0.0942 -17.8431 -0.0569
# 4 0.0124 -0.1247 -0.0942 28.2739 -0.0332 -24.2915
# 5 -24.7249 -36.5189 -17.8431 -0.0332 44.4636 -0.0378
# 6 0.0323 0.0575 -0.0569 -24.2915 -0.0378 25.2080
#
#
#
# Elastic Compliance Matrix: (Units=1/GPa)
#
#
# Indices 1 2 3 4 5 6 
#
# 1 0.007394 -0.000952 -0.003564 -0.000162 0.001899 -0.000168
# 2 -0.000952 0.005761 -0.003359 0.000029 0.002854 0.000012
# 3 -0.003564 -0.003359 0.042154 0.001449 0.012178 0.001522
# 4 -0.000162 0.000029 0.001449 0.205582 0.000837 0.198111
# 5 0.001899 0.002854 0.012178 0.000837 0.030779 0.000872
# 6 -0.000168 0.000012 0.001522 0.198111 0.000872 0.230583
#
#
# Mechanical properties :
#
#
# Convention : Reuss Voigt Hill
#
# Bulk Modulus (GPa) = 25.27779 70.57594 47.92686
# Shear Modulus (GPa) = 9.07128 39.76912 24.42020
#
# Velocity S-wave (km/s) = 2.00436 4.19677 3.28865
# Velocity P-wave (km/s) = 4.06837 7.39868 5.97043
#
# Compressibility (1/GPa) = 0.03956042
#
# Stress axis : x y z
#
# Youngs Moduli (GPa) = 135.23664 173.57674 23.72243
#
# Poissons Ratio (x) = 0.16527 0.08454
# Poissons Ratio (y) = 0.12876 0.07968
# Poissons Ratio (z) = 0.48195 0.58302
#
# Static dielectric constant tensor:
#      x y z
#    x 1.688810 -0.000440 -0.075070 
#    y -0.000440 1.824390 -0.000410 
#    z -0.075070 -0.000410 1.834690 
# 
# From -- ./inp_files/278647.got.cif
#   From: 2010.05.17/outbox.cif.g08.bks.cpg/sg12_140_cif.got.tgz:278647.got - 2010.06.03 13:09:07.
