data_PCOD9218332
_publ_section_title
;
Structure prediction by ZEFSAII (Michael W. Deem and Ramdas Pophale) SiO2 
 PCOD9218332
Probable space group: C 2/M
;
_chemical_formula_sum "Si O2"
_cell_formula_units_Z 48
_cell_length_a 8.639390
_cell_length_b 31.637587
_cell_length_c 17.064380
_cell_angle_alpha 90.000000
_cell_angle_beta 30.141713
_cell_angle_gamma 90.000000
_cell_volume 2342.082351
_symmetry_space_group_name_H-M "C 2/M"
_symmetry_group_IT_number 12
_symmetry_cell_setting 'monoclinic'
loop_
_space_group_symop_operation_xyz
x,y,z
-x,y,-z
-x,-y,-z
x,-y,z
1/2+x,1/2+y,z
1/2-x,1/2+y,-z
1/2-x,1/2-y,-z
1/2+x,1/2-y,z
loop_
_atom_site_type_symbol
_atom_site_label
_atom_site_fract_x
_atom_site_fract_y
_atom_site_fract_z
Si Si1 0.862743 0.412533 0.730252
Si Si2 0.268866 0.500000 0.173615
Si Si3 0.722224 0.149379 0.675569
Si Si4 0.266883 0.703488 0.028258
Si Si5 0.864453 0.000000 0.318468
Si Si6 0.413084 0.410712 0.371655
Si Si7 0.844614 0.872815 0.879630
O O1 0.916962 0.456462 0.749999
O O2 0.501748 0.406867 0.868755
O O3 0.965024 0.371952 0.733781
O O4 0.083019 0.414394 0.557912
O O5 0.388855 0.500000 0.212708
O O6 0.500000 0.500000 0.000000
O O7 0.560164 0.184832 0.798421
O O8 0.000000 0.165814 0.500000
O O9 0.859434 0.109790 0.664151
O O10 0.500000 0.702721 0.000000
O O11 0.250000 0.750000 0.000000
O O12 0.357537 0.671105 0.919420
O O13 0.500000 0.000000 0.500000
O O14 0.993985 0.956673 0.299997
O O15 0.439557 0.376585 0.290656
O O16 0.500000 0.881568 0.000000
#
# Coordination Sequence:
#
# PCOD9218332 Si02
#       7
#     8   4   8   8   4   8   8
#     4  11  23  44  64  96 137 189 224 284 341 396
#     4  12  26  35  64  99 142 181 242 285 336 399
#     4  10  24  44  70 101 137 176 230 276 347 419
#     4  12  26  47  72  99 135 175 217 286 356 420
#     4  12  20  41  64  99 141 190 242 282 335 396
#     4  11  22  41  70  96 136 188 235 278 332 410
#     4  12  23  39  69 100 132 171 230 276 336 410
#
# _framework density 20.494581
#
# number of rings (size 3 to 8) (size 9 to 14) (size 15 to 20)
#    0.000    0.667    6.667    1.000    2.333    0.667 
#    0.000    6.667    0.000    0.000    0.000    0.000 
#    0.000    0.000    0.000    0.000    0.000    0.000 
#
# Total GULP energy -133909.674966 kJ/mol
# GULP energy per Si atom -5579.569790 kJ/mol
# Density = 2.044793 g / cm^3
# Si number density = 20.494581 Si / 1000 Ang^3
#
#
#
# Elastic Constant Matrix: (Units=GPa)
#
#
# Indices 1 2 3 4 5 6 
#
# 1 76.4258 34.1711 48.4028 0.0000 -2.8570 0.0000
# 2 34.1711 148.7426 77.3519 0.0000 12.1632 0.0000
# 3 48.4028 77.3519 117.6750 0.0000 21.3925 0.0000
# 4 0.0000 0.0000 0.0000 29.0177 0.0000 12.2879
# 5 -2.8570 12.1632 21.3925 0.0000 45.8458 0.0000
# 6 0.0000 0.0000 0.0000 12.2879 0.0000 35.9171
#
#
#
# Elastic Compliance Matrix: (Units=1/GPa)
#
#
# Indices 1 2 3 4 5 6 
#
# 1 0.018781 -0.000351 -0.008440 0.000000 0.005202 0.000000
# 2 -0.000351 0.010230 -0.006647 0.000000 0.000366 0.000000
# 3 -0.008440 -0.006647 0.017608 0.000000 -0.006979 0.000000
# 4 0.000000 0.000000 0.000000 0.040300 0.000000 -0.013787
# 5 0.005202 0.000366 -0.006979 0.000000 0.025296 0.000000
# 6 0.000000 0.000000 0.000000 -0.013787 0.000000 0.032559
#
#
# Mechanical properties :
#
#
# Convention : Reuss Voigt Hill
#
# Bulk Modulus (GPa) = 63.51932 73.63278 68.57605
# Shear Modulus (GPa) = 27.63982 34.35063 30.99522
#
# Velocity S-wave (km/s) = 3.67637 4.09844 3.89313
# Velocity P-wave (km/s) = 7.00581 7.64213 7.33088
#
# Compressibility (1/GPa) = 0.01574324
#
# Stress axis : x y z
#
# Youngs Moduli (GPa) = 53.24404 97.74798 56.79338
#
# Poissons Ratio (x) = 0.03429 0.47936
# Poissons Ratio (y) = 0.01868 0.37750
# Poissons Ratio (z) = 0.44940 0.64973
#
# Static dielectric constant tensor:
#      x y z
#    x 1.834350 0.000000 -0.006680 
#    y 0.000000 1.694570 0.000000 
#    z -0.006680 0.000000 1.739880 
# 
# From -- ./inp_files/260257.got.cif
#   From: 2010.05.17/outbox.cif.g08.bks.cpg/sg12_131_cif.got.tgz:260257.got - 2010.06.03 13:09:07.
