data_PCOD9218388
_publ_section_title
;
Structure prediction by ZEFSAII (Michael W. Deem and Ramdas Pophale) SiO2 
 PCOD9218388
Probable space group: C 2/M
;
_chemical_formula_sum "Si O2"
_cell_formula_units_Z 40
_cell_length_a 24.043691
_cell_length_b 8.883252
_cell_length_c 9.669913
_cell_angle_alpha 90.000000
_cell_angle_beta 75.930215
_cell_angle_gamma 90.000000
_cell_volume 2003.399581
_symmetry_space_group_name_H-M "C 2/M"
_symmetry_group_IT_number 12
_symmetry_cell_setting 'monoclinic'
loop_
_space_group_symop_operation_xyz
x,y,z
-x,y,-z
-x,-y,-z
x,-y,z
1/2+x,1/2+y,z
1/2-x,1/2+y,-z
1/2-x,1/2-y,-z
1/2+x,1/2-y,z
loop_
_atom_site_type_symbol
_atom_site_label
_atom_site_fract_x
_atom_site_fract_y
_atom_site_fract_z
Si Si1 0.268395 0.322462 0.845483
Si Si2 0.479460 0.319692 0.858999
Si Si3 0.418414 0.679448 0.417516
Si Si4 0.890544 0.320920 0.719383
Si Si5 0.698391 0.822107 0.618081
O O1 0.279778 0.500000 0.853970
O O2 0.326233 0.244030 0.756715
O O3 0.217721 0.304718 0.764862
O O4 0.250000 0.250000 0.000000
O O5 0.469249 0.500000 0.866426
O O6 0.529686 0.288079 0.717996
O O7 0.423374 0.237304 0.835572
O O8 0.500000 0.275410 0.000000
O O9 0.415517 0.500000 0.440139
O O10 0.422494 0.757172 0.564365
O O11 0.360062 0.739061 0.383828
O O12 0.889272 0.500000 0.716531
O O13 0.750000 0.750000 0.500000
O O14 0.693296 0.000000 0.589782
#
# Coordination Sequence:
#
# PCOD9218388 Si02
#       5
#     8   8   8   8   8
#     4  11  25  43  65  95 132 171 212 260 318 380
#     4  10  24  45  67  94 126 166 212 264 324 382
#     4  11  23  41  67  95 127 169 215 265 318 379
#     4  12  25  42  66  95 128 169 215 264 318 378
#     4  11  23  40  65  96 130 167 212 260 314 379
#
# _framework density 19.966062000000001
#
# number of rings (size 3 to 8) (size 9 to 14) (size 15 to 20)
#    0.000    1.000    2.000    4.200    2.800    6.800 
#    0.000    0.000    0.000    0.000    0.000    0.000 
#    0.000    0.000    0.000    0.000    0.000    0.000 
#
# Total GULP energy -111924.503866 kJ/mol
# GULP energy per Si atom -5596.225193 kJ/mol
# Density = 1.992062 g / cm^3
# Si number density = 19.966062 Si / 1000 Ang^3
#
#
#
# Elastic Constant Matrix: (Units=GPa)
#
#
# Indices 1 2 3 4 5 6 
#
# 1 79.0407 27.2212 11.4140 0.0000 19.5620 0.0000
# 2 27.2212 67.0166 42.7462 0.0000 11.7523 0.0000
# 3 11.4140 42.7462 106.1649 0.0000 16.1761 0.0000
# 4 0.0000 0.0000 0.0000 31.0476 0.0000 7.9732
# 5 19.5620 11.7523 16.1761 0.0000 30.1561 0.0000
# 6 0.0000 0.0000 0.0000 7.9732 0.0000 28.5347
#
#
#
# Elastic Compliance Matrix: (Units=1/GPa)
#
#
# Indices 1 2 3 4 5 6 
#
# 1 0.017022 -0.006714 0.002349 0.000000 -0.009685 0.000000
# 2 -0.006714 0.023134 -0.008584 0.000000 -0.000056 0.000000
# 3 0.002349 -0.008584 0.013444 0.000000 -0.005390 0.000000
# 4 0.000000 0.000000 0.000000 0.034699 0.000000 -0.009696
# 5 -0.009685 -0.000056 -0.005390 0.000000 0.042357 0.000000
# 6 0.000000 0.000000 0.000000 -0.009696 0.000000 0.037754
#
#
# Mechanical properties :
#
#
# Convention : Reuss Voigt Hill
#
# Bulk Modulus (GPa) = 36.09875 46.10943 41.10409
# Shear Modulus (GPa) = 24.56497 29.33707 26.95102
#
# Velocity S-wave (km/s) = 3.51142 3.83736 3.67800
# Velocity P-wave (km/s) = 5.87872 6.54048 6.21841
#
# Compressibility (1/GPa) = 0.02770179
#
# Stress axis : x y z
#
# Youngs Moduli (GPa) = 58.74832 43.22650 74.38020
#
# Poissons Ratio (x) = 0.29021 -0.17472
# Poissons Ratio (y) = 0.39442 0.63851
# Poissons Ratio (z) = -0.13800 0.37107
#
# Static dielectric constant tensor:
#      x y z
#    x 1.676380 0.000000 0.008540 
#    y 0.000000 1.666870 0.000000 
#    z 0.008540 0.000000 1.696250 
# 
# From -- ./inp_files/92718.got.cif
#   From: 2010.05.17/outbox.cif.g08.bks.cpg/sg12_47_cif.got.tgz:92718.got - 2010.06.03 13:09:07.
