data_PCOD9218204
_publ_section_title
;
Structure prediction by ZEFSAII (Michael W. Deem and Ramdas Pophale) SiO2 
 PCOD9218204
Probable space group: C 2/M
;
_chemical_formula_sum "Si O2"
_cell_formula_units_Z 64
_cell_length_a 19.803433
_cell_length_b 15.177589
_cell_length_c 11.898784
_cell_angle_alpha 90.000000
_cell_angle_beta 49.094034
_cell_angle_gamma 90.000000
_cell_volume 2702.989053
_symmetry_space_group_name_H-M "C 2/M"
_symmetry_group_IT_number 12
_symmetry_cell_setting 'monoclinic'
loop_
_space_group_symop_operation_xyz
x,y,z
-x,y,-z
-x,-y,-z
x,-y,z
1/2+x,1/2+y,z
1/2-x,1/2+y,-z
1/2-x,1/2-y,-z
1/2+x,1/2-y,z
loop_
_atom_site_type_symbol
_atom_site_label
_atom_site_fract_x
_atom_site_fract_y
_atom_site_fract_z
Si Si1 0.803538 0.338634 0.909244
Si Si2 0.899547 0.871369 0.080217
Si Si3 0.736522 0.594737 0.584548
Si Si4 0.124794 0.906079 0.151057
Si Si5 0.649141 0.215362 0.391171
Si Si6 0.586084 0.180745 0.849604
Si Si7 0.010118 0.729208 0.275517
Si Si8 0.721234 0.599973 0.350850
O O1 0.820366 0.337101 0.754750
O O2 0.905482 0.335170 0.839336
O O3 0.750000 0.250000 0.000000
O O4 0.733175 0.402655 0.046970
O O5 0.838268 0.910571 0.241023
O O6 0.889855 0.765534 0.100173
O O7 0.877449 0.902886 0.981805
O O8 0.000000 0.892332 0.000000
O O9 0.786483 0.500000 0.525776
O O10 0.794035 0.675871 0.566771
O O11 0.691625 0.607479 0.513292
O O12 0.059951 0.822754 0.246668
O O13 0.089685 0.000000 0.231323
O O14 0.549933 0.207514 0.550441
O O15 0.673476 0.317960 0.342993
O O16 0.553125 0.221270 0.765635
O O17 0.673053 0.120671 0.753301
O O18 0.500000 0.136884 0.000000
O O19 0.704869 0.500000 0.330471
#
# Coordination Sequence:
#
# PCOD9218204 Si02
#       8
#     8   8   8   8   8   8   8   8
#     4  10  24  43  66  90 118 169 220 264 320 380
#     4  11  20  34  59  94 126 162 196 254 327 388
#     4  11  22  36  60  95 130 163 201 257 327 391
#     4  11  22  39  63  97 131 160 208 273 328 382
#     4  12  22  42  66  90 131 173 211 268 319 384
#     4  11  20  38  64  90 126 165 210 263 312 382
#     4  11  23  41  65  92 121 174 218 253 319 389
#     4  11  24  39  61  95 131 170 211 255 319 390
#
# _framework density 23.677491
#
# number of rings (size 3 to 8) (size 9 to 14) (size 15 to 20)
#    0.000    1.000    6.250    1.875    1.750    1.750 
#    0.000    3.750    0.000    5.250    0.000    0.000 
#    0.000    0.000    0.000    0.000    0.000    0.000 
#
# Total GULP energy -178594.547708 kJ/mol
# GULP energy per Si atom -5581.079616 kJ/mol
# Density = 2.362360 g / cm^3
# Si number density = 23.677491 Si / 1000 Ang^3
#
#
#
# Elastic Constant Matrix: (Units=GPa)
#
#
# Indices 1 2 3 4 5 6 
#
# 1 62.2469 -0.4133 15.9291 0.0000 6.7364 0.0000
# 2 -0.4133 67.3618 -9.8244 0.0000 -1.4742 0.0000
# 3 15.9291 -9.8244 115.0020 0.0000 -11.1293 0.0000
# 4 0.0000 0.0000 0.0000 13.7470 0.0000 -3.7986
# 5 6.7364 -1.4742 -11.1293 0.0000 38.4701 0.0000
# 6 0.0000 0.0000 0.0000 -3.7986 0.0000 33.1410
#
#
#
# Elastic Compliance Matrix: (Units=1/GPa)
#
#
# Indices 1 2 3 4 5 6 
#
# 1 0.017190 -0.000384 -0.002784 0.000000 -0.003830 0.000000
# 2 -0.000384 0.015077 0.001444 0.000000 0.001063 0.000000
# 3 -0.002784 0.001444 0.009524 0.000000 0.003298 0.000000
# 4 0.000000 0.000000 0.000000 0.075123 0.000000 0.008610
# 5 -0.003830 0.001063 0.003298 0.000000 0.027660 0.000000
# 6 0.000000 0.000000 0.000000 0.008610 0.000000 0.031161
#
#
# Mechanical properties :
#
#
# Convention : Reuss Voigt Hill
#
# Bulk Modulus (GPa) = 26.08218 28.44370 27.26294
# Shear Modulus (GPa) = 26.04665 32.99957 29.52311
#
# Velocity S-wave (km/s) = 3.32031 3.73729 3.53496
# Velocity P-wave (km/s) = 5.07334 5.53735 5.31042
#
# Compressibility (1/GPa) = 0.03834035
#
# Stress axis : x y z
#
# Youngs Moduli (GPa) = 58.17482 66.32743 105.00104
#
# Poissons Ratio (x) = 0.02550 0.29237
# Poissons Ratio (y) = 0.02237 -0.15163
# Poissons Ratio (z) = 0.16199 -0.09578
#
# Static dielectric constant tensor:
#      x y z
#    x 1.944890 0.000000 -0.010130 
#    y 0.000000 1.970920 0.000000 
#    z -0.010130 0.000000 1.906510 
# 
# From -- ./inp_files/240660.got.cif
#   From: 2010.05.17/outbox.cif.g08.bks.cpg/sg12_121_cif.got.tgz:240660.got - 2010.06.03 13:09:07.
