data_PCOD9218432
_publ_section_title
;
Structure prediction by ZEFSAII (Michael W. Deem and Ramdas Pophale) SiO2 
 PCOD9218432
Probable space group: C 2/M
;
_chemical_formula_sum "Si O2"
_cell_formula_units_Z 28
_cell_length_a 17.708192
_cell_length_b 14.297763
_cell_length_c 5.520020
_cell_angle_alpha 90.000000
_cell_angle_beta 58.627705
_cell_angle_gamma 90.000000
_cell_volume 1193.274760
_symmetry_space_group_name_H-M "C 2/M"
_symmetry_group_IT_number 12
_symmetry_cell_setting 'monoclinic'
loop_
_space_group_symop_operation_xyz
x,y,z
-x,y,-z
-x,-y,-z
x,-y,z
1/2+x,1/2+y,z
1/2-x,1/2+y,-z
1/2-x,1/2-y,-z
1/2+x,1/2-y,z
loop_
_atom_site_type_symbol
_atom_site_label
_atom_site_fract_x
_atom_site_fract_y
_atom_site_fract_z
Si Si1 0.803589 0.163076 0.018278
Si Si2 0.898561 0.000000 0.568843
Si Si3 0.261002 0.500000 0.419160
Si Si4 0.548799 0.797967 0.172078
Si Si5 0.087015 0.500000 0.030341
O O1 0.750997 0.094570 0.282162
O O2 0.750000 0.250000 0.000000
O O3 0.849423 0.092110 0.753962
O O4 0.881888 0.218577 0.015109
O O5 0.000000 0.000000 0.500000
O O6 0.862730 0.000000 0.351198
O O7 0.181456 0.500000 0.740669
O O8 0.500000 0.766537 0.500000
O O9 0.500000 0.810981 0.000000
O O10 0.584261 0.902066 0.176846
O O11 0.000000 0.500000 0.000000
#
# Coordination Sequence:
#
# PCOD9218432 Si02
#       5
#     8   4   4   8   4
#     4  11  27  44  76 108 154 199 263 324 392 469
#     4  11  26  47  73 109 158 208 261 324 394 478
#     4  11  27  49  75 112 156 202 262 329 400 467
#     4  11  26  46  75 109 151 201 261 317 388 471
#     4  10  24  45  74 105 153 202 256 326 394 466
#
# _framework density 23.464839000000001
#
# number of rings (size 3 to 8) (size 9 to 14) (size 15 to 20)
#    0.000    1.143    0.000    3.000   16.000    4.571 
#    0.000    0.000    0.000    0.000    0.000    0.000 
#    0.000    0.000    0.000    0.000    0.000    0.000 
#
# Total GULP energy -78122.479840 kJ/mol
# GULP energy per Si atom -5580.177131 kJ/mol
# Density = 2.341143 g / cm^3
# Si number density = 23.464839 Si / 1000 Ang^3
#
#
#
# Elastic Constant Matrix: (Units=GPa)
#
#
# Indices 1 2 3 4 5 6 
#
# 1 117.0907 49.0710 34.3161 0.0000 4.1428 0.0000
# 2 49.0710 183.4250 15.6786 0.0000 -7.5000 0.0000
# 3 34.3161 15.6786 72.3076 0.0000 -11.5724 0.0000
# 4 0.0000 0.0000 0.0000 15.4030 0.0000 13.6939
# 5 4.1428 -7.5000 -11.5724 0.0000 27.3173 0.0000
# 6 0.0000 0.0000 0.0000 13.6939 0.0000 46.3988
#
#
#
# Elastic Compliance Matrix: (Units=1/GPa)
#
#
# Indices 1 2 3 4 5 6 
#
# 1 0.011550 -0.002807 -0.005660 0.000000 -0.004920 0.000000
# 2 -0.002807 0.006267 0.000340 0.000000 0.002290 0.000000
# 3 -0.005660 0.000340 0.017802 0.000000 0.008493 0.000000
# 4 0.000000 0.000000 0.000000 0.088017 0.000000 -0.025977
# 5 -0.004920 0.002290 0.008493 0.000000 0.041580 0.000000
# 6 0.000000 0.000000 0.000000 -0.025977 0.000000 0.029219
#
#
# Mechanical properties :
#
#
# Convention : Reuss Voigt Hill
#
# Bulk Modulus (GPa) = 51.64267 63.43942 57.54105
# Shear Modulus (GPa) = 23.02620 36.07431 29.55026
#
# Velocity S-wave (km/s) = 3.13598 3.92519 3.55257
# Velocity P-wave (km/s) = 5.93033 6.90199 6.43453
#
# Compressibility (1/GPa) = 0.01936383
#
# Stress axis : x y z
#
# Youngs Moduli (GPa) = 86.58189 159.55503 56.17491
#
# Poissons Ratio (x) = 0.44791 0.31795
# Poissons Ratio (y) = 0.24306 -0.01909
# Poissons Ratio (z) = 0.49006 -0.05423
#
# Static dielectric constant tensor:
#      x y z
#    x 2.025130 0.000000 -0.033870 
#    y 0.000000 2.020000 0.000000 
#    z -0.033870 0.000000 1.855260 
# 
# From -- ./inp_files/14468.got.cif
#   From: 2010.05.17/outbox.cif.g08.bks.cpg/sg12_8_cif.got.tgz:14468.got - 2010.06.03 13:09:07.
