data_PCOD9218602
_publ_section_title
;
Structure prediction by ZEFSAII (Michael W. Deem and Ramdas Pophale) SiO2 
 PCOD9218602
Probable space group: C 2/M
;
_chemical_formula_sum "Si O2"
_cell_formula_units_Z 32
_cell_length_a 14.439148
_cell_length_b 10.315738
_cell_length_c 16.338055
_cell_angle_alpha 90.000000
_cell_angle_beta 142.679367
_cell_angle_gamma 90.000000
_cell_volume 1475.406722
_symmetry_space_group_name_H-M "C 2/M"
_symmetry_group_IT_number 12
_symmetry_cell_setting 'monoclinic'
loop_
_space_group_symop_operation_xyz
x,y,z
-x,y,-z
-x,-y,-z
x,-y,z
1/2+x,1/2+y,z
1/2-x,1/2+y,-z
1/2-x,1/2-y,-z
1/2+x,1/2-y,z
loop_
_atom_site_type_symbol
_atom_site_label
_atom_site_fract_x
_atom_site_fract_y
_atom_site_fract_z
Si Si1 0.956310 0.784812 0.379337
Si Si2 0.560288 0.000000 0.664982
Si Si3 0.593887 0.216997 0.144499
Si Si4 0.633072 0.500000 0.411020
Si Si5 0.068454 0.500000 0.262863
Si Si6 0.623965 0.500000 0.211715
O O1 0.014366 0.636890 0.411870
O O2 0.773270 0.785907 0.247044
O O3 0.000000 0.834271 0.500000
O O4 0.035124 0.874526 0.368092
O O5 0.570532 0.000000 0.770474
O O6 0.719714 0.000000 0.729885
O O7 0.546129 0.364215 0.133379
O O8 0.571350 0.124248 0.206304
O O9 0.500000 0.171836 0.000000
O O10 0.784185 0.500000 0.573609
O O11 0.658393 0.500000 0.332272
#
# Coordination Sequence:
#
# PCOD9218602 Si02
#       6
#     8   4   8   4   4   4
#     4  11  22  42  64  97 130 168 216 264 323 377
#     4  10  25  39  63  99 129 169 214 271 314 381
#     4  11  24  45  68  96 132 171 214 265 325 390
#     4  12  24  40  67  99 132 168 217 271 322 380
#     4  12  24  40  66 100 131 170 217 267 325 377
#     4  10  25  45  64  97 132 174 212 268 327 377
#
# _framework density 21.688934
#
# number of rings (size 3 to 8) (size 9 to 14) (size 15 to 20)
#    0.000    1.000    2.500    3.750    7.000    2.000 
#    0.000   16.250    0.000    0.000    0.000    0.000 
#    0.000    0.000    0.000    0.000    0.000    0.000 
#
# Total GULP energy -89514.846544 kJ/mol
# GULP energy per Si atom -5594.677909 kJ/mol
# Density = 2.163957 g / cm^3
# Si number density = 21.688934 Si / 1000 Ang^3
#
#
#
# Elastic Constant Matrix: (Units=GPa)
#
#
# Indices 1 2 3 4 5 6 
#
# 1 144.4353 53.6192 43.2732 0.0000 -34.0768 0.0000
# 2 53.6192 125.6531 -1.7804 0.0000 -12.9909 0.0000
# 3 43.2732 -1.7804 111.9747 0.0000 -15.7012 0.0000
# 4 0.0000 0.0000 0.0000 11.9218 0.0000 -9.1412
# 5 -34.0768 -12.9909 -15.7012 0.0000 33.2251 0.0000
# 6 0.0000 0.0000 0.0000 -9.1412 0.0000 16.9279
#
#
#
# Elastic Compliance Matrix: (Units=1/GPa)
#
#
# Indices 1 2 3 4 5 6 
#
# 1 0.011432 -0.004036 -0.003276 0.000000 0.008599 0.000000
# 2 -0.004036 0.009760 0.001788 0.000000 0.000522 0.000000
# 3 -0.003276 0.001788 0.010551 0.000000 0.002325 0.000000
# 4 0.000000 0.000000 0.000000 0.143154 0.000000 0.077304
# 5 0.008599 0.000522 0.002325 0.000000 0.040220 0.000000
# 6 0.000000 0.000000 0.000000 0.077304 0.000000 0.100819
#
#
# Mechanical properties :
#
#
# Convention : Reuss Voigt Hill
#
# Bulk Modulus (GPa) = 48.32146 63.58745 55.95445
# Shear Modulus (GPa) = 14.97533 31.54505 23.26019
#
# Velocity S-wave (km/s) = 2.63051 3.81784 3.27837
# Velocity P-wave (km/s) = 5.61728 6.98685 6.33916
#
# Compressibility (1/GPa) = 0.02069474
#
# Stress axis : x y z
#
# Youngs Moduli (GPa) = 87.47327 102.46056 94.77600
#
# Poissons Ratio (x) = 0.41351 0.31053
# Poissons Ratio (y) = 0.35302 -0.16946
# Poissons Ratio (z) = 0.28660 -0.18320
#
# Static dielectric constant tensor:
#      x y z
#    x 1.799910 0.000000 0.020290 
#    y 0.000000 1.839630 0.000000 
#    z 0.020290 0.000000 1.745990 
# 
# From -- ./inp_files/213147.got.cif
#   From: 2010.05.17/outbox.cif.g08.bks.cpg/sg12_107_cif.got.tgz:213147.got - 2010.06.03 13:09:07.
