data_PCOD9218397
_publ_section_title
;
Structure prediction by ZEFSAII (Michael W. Deem and Ramdas Pophale) SiO2 
 PCOD9218397
Probable space group: C 2/M
;
_chemical_formula_sum "Si O2"
_cell_formula_units_Z 40
_cell_length_a 12.595568
_cell_length_b 16.254191
_cell_length_c 8.969292
_cell_angle_alpha 90.000000
_cell_angle_beta 98.108355
_cell_angle_gamma 90.000000
_cell_volume 1817.932833
_symmetry_space_group_name_H-M "C 2/M"
_symmetry_group_IT_number 12
_symmetry_cell_setting 'monoclinic'
loop_
_space_group_symop_operation_xyz
x,y,z
-x,y,-z
-x,-y,-z
x,-y,z
1/2+x,1/2+y,z
1/2-x,1/2+y,-z
1/2-x,1/2-y,-z
1/2+x,1/2-y,z
loop_
_atom_site_type_symbol
_atom_site_label
_atom_site_fract_x
_atom_site_fract_y
_atom_site_fract_z
Si Si1 0.874101 0.907891 0.652740
Si Si2 0.213931 0.098454 0.043542
Si Si3 0.760394 0.822244 0.380674
Si Si4 0.911936 0.649635 0.892284
Si Si5 0.941577 0.198612 0.189196
O O1 0.815440 0.894101 0.486055
O O2 0.973848 0.848659 0.691746
O O3 0.914273 0.000000 0.675549
O O4 0.797527 0.892583 0.781020
O O5 0.313664 0.147395 0.991696
O O6 0.108515 0.139540 0.948500
O O7 0.220942 0.000000 0.010220
O O8 0.750000 0.750000 0.500000
O O9 0.656620 0.858483 0.274551
O O10 0.839470 0.784703 0.272371
O O11 0.990608 0.724760 0.858083
O O12 0.000000 0.595113 0.000000
#
# Coordination Sequence:
#
# PCOD9218397 Si02
#       5
#     8   8   8   8   8
#     4  11  23  42  68 100 136 175 220 279 346 403
#     4  10  24  45  68 101 141 178 225 279 337 406
#     4  11  25  41  62  97 142 170 220 279 338 394
#     4  11  25  42  69  99 133 180 228 272 334 403
#     4  11  23  40  69 103 131 176 222 282 334 405
#
# _framework density 22.003011999999998
#
# number of rings (size 3 to 8) (size 9 to 14) (size 15 to 20)
#    0.000    1.200    2.000    3.000    2.800    9.200 
#    0.000    0.000    0.000    2.400    0.000    0.000 
#    0.000    0.000    0.000    0.000    0.000    0.000 
#
# Total GULP energy -111416.605640 kJ/mol
# GULP energy per Si atom -5570.830282 kJ/mol
# Density = 2.195293 g / cm^3
# Si number density = 22.003012 Si / 1000 Ang^3
#
#
#
# Elastic Constant Matrix: (Units=GPa)
#
#
# Indices 1 2 3 4 5 6 
#
# 1 130.2561 32.4644 46.2387 0.0000 22.5708 0.0000
# 2 32.4644 82.0407 24.1083 0.0000 -7.9500 0.0000
# 3 46.2387 24.1083 117.1544 0.0000 19.4554 0.0000
# 4 0.0000 0.0000 0.0000 27.3336 0.0000 3.1834
# 5 22.5708 -7.9500 19.4554 0.0000 51.4878 0.0000
# 6 0.0000 0.0000 0.0000 3.1834 0.0000 -8.6171
#
#
#
# Elastic Compliance Matrix: (Units=1/GPa)
#
#
# Indices 1 2 3 4 5 6 
#
# 1 0.010221 -0.003673 -0.002603 0.000000 -0.004064 0.000000
# 2 -0.003673 0.014812 -0.002396 0.000000 0.004803 0.000000
# 3 -0.002603 -0.002396 0.010593 0.000000 -0.003231 0.000000
# 4 0.000000 0.000000 0.000000 0.035076 0.000000 0.012958
# 5 -0.004064 0.004803 -0.003231 0.000000 0.023166 0.000000
# 6 0.000000 0.000000 0.000000 0.012958 0.000000 -0.111261
#
#
# Mechanical properties :
#
#
# Convention : Reuss Voigt Hill
#
# Bulk Modulus (GPa) = 54.70132 59.45267 57.07699
# Shear Modulus (GPa) = 827.05106 29.15017 428.10062
#
# Velocity S-wave (km/s) = 19.40868 3.64377 13.96377
# Velocity P-wave (km/s) = 22.96034 6.69191 16.91093
#
# Compressibility (1/GPa) = 0.01828109
#
# Stress axis : x y z
#
# Youngs Moduli (GPa) = 97.83707 67.51233 94.40358
#
# Poissons Ratio (x) = 0.24800 0.24575
# Poissons Ratio (y) = 0.35940 0.22617
# Poissons Ratio (z) = 0.25469 0.16175
#
# Static dielectric constant tensor:
#      x y z
#    x 1.819450 0.000000 0.014430 
#    y 0.000000 1.854660 0.000000 
#    z 0.014430 0.000000 1.875990 
# 
# From -- ./inp_files/46900.got.cif
#   From: 2010.05.17/outbox.cif.g08.bks.cpg/sg12_24_cif.got.tgz:46900.got - 2010.06.03 13:09:07.
