data_PCOD9218335
_publ_section_title
;
Structure prediction by ZEFSAII (Michael W. Deem and Ramdas Pophale) SiO2 
 PCOD9218335
Probable space group: C 2/M
;
_chemical_formula_sum "Si O2"
_cell_formula_units_Z 32
_cell_length_a 14.501145
_cell_length_b 11.202448
_cell_length_c 8.538992
_cell_angle_alpha 90.000000
_cell_angle_beta 74.653306
_cell_angle_gamma 90.000000
_cell_volume 1337.682186
_symmetry_space_group_name_H-M "C 2/M"
_symmetry_group_IT_number 12
_symmetry_cell_setting 'monoclinic'
loop_
_space_group_symop_operation_xyz
x,y,z
-x,y,-z
-x,-y,-z
x,-y,z
1/2+x,1/2+y,z
1/2-x,1/2+y,-z
1/2-x,1/2-y,-z
1/2+x,1/2-y,z
loop_
_atom_site_type_symbol
_atom_site_label
_atom_site_fract_x
_atom_site_fract_y
_atom_site_fract_z
Si Si1 0.548091 0.628413 0.647464
Si Si2 0.912161 0.770754 0.945579
Si Si3 0.328833 0.129821 0.399515
Si Si4 0.234552 0.701653 0.236809
O O1 0.500000 0.631659 0.500000
O O2 0.599278 0.500000 0.636012
O O3 0.467775 0.633520 0.816966
O O4 0.603238 0.754340 0.635026
O O5 0.851443 0.694166 0.847944
O O6 0.832036 0.823823 0.098118
O O7 0.000000 0.709211 0.000000
O O8 0.250924 0.164166 0.301295
O O9 0.287519 0.131901 0.594196
O O10 0.371135 0.000000 0.349271
#
# Coordination Sequence:
#
# PCOD9218335 Si02
#       4
#     8   8   8   8
#     4  11  24  45  73 104 143 189 243 295 351 422
#     4  11  22  45  72 103 143 187 240 295 351 419
#     4  11  24  46  74 104 145 187 237 296 358 424
#     4  10  24  44  70 106 144 186 238 292 360 423
#
# _framework density 23.921976999999998
#
# number of rings (size 3 to 8) (size 9 to 14) (size 15 to 20)
#    0.000    1.250    5.000    0.000    0.000    7.000 
#    0.000    6.250    0.000    0.000    0.000    0.000 
#    0.000    0.000    0.000    0.000    0.000    0.000 
#
# Total GULP energy -89234.256330 kJ/mol
# GULP energy per Si atom -5577.141021 kJ/mol
# Density = 2.386753 g / cm^3
# Si number density = 23.921977 Si / 1000 Ang^3
#
#
#
# Elastic Constant Matrix: (Units=GPa)
#
#
# Indices 1 2 3 4 5 6 
#
# 1 168.9520 49.3871 52.8170 0.0000 17.0860 0.0000
# 2 49.3871 173.6793 35.1203 0.0000 -9.4314 0.0000
# 3 52.8170 35.1203 163.0379 0.0000 2.7576 0.0000
# 4 0.0000 0.0000 0.0000 -8.4657 0.0000 -6.6030
# 5 17.0860 -9.4314 2.7576 0.0000 40.6075 0.0000
# 6 0.0000 0.0000 0.0000 -6.6030 0.0000 26.5970
#
#
#
# Elastic Compliance Matrix: (Units=1/GPa)
#
#
# Indices 1 2 3 4 5 6 
#
# 1 0.007430 -0.001908 -0.001938 0.000000 -0.003438 0.000000
# 2 -0.001908 0.006601 -0.000844 0.000000 0.002393 0.000000
# 3 -0.001938 -0.000844 0.006941 0.000000 0.000148 0.000000
# 4 0.000000 0.000000 0.000000 -0.098962 0.000000 -0.024568
# 5 -0.003438 0.002393 0.000148 0.000000 0.026618 0.000000
# 6 0.000000 0.000000 0.000000 -0.024568 0.000000 0.031499
#
#
# Mechanical properties :
#
#
# Convention : Reuss Voigt Hill
#
# Bulk Modulus (GPa) = 86.26824 86.70200 86.48512
# Shear Modulus (GPa) = -754.22492 36.30408 -358.96042
#
# Velocity S-wave (km/s) = -17.77554 3.89987 -12.26297
# Velocity P-wave (km/s) = 19.62530 7.52336 12.81701
#
# Compressibility (1/GPa) = 0.01159175
#
# Stress axis : x y z
#
# Youngs Moduli (GPa) = 134.59111 151.49515 144.07701
#
# Poissons Ratio (x) = 0.28899 0.27921
# Poissons Ratio (y) = 0.25674 0.12166
# Poissons Ratio (z) = 0.26082 0.12793
#
# Static dielectric constant tensor:
#      x y z
#    x 2.049710 0.000000 -0.004390 
#    y 0.000000 1.873850 0.000000 
#    z -0.004390 0.000000 1.944720 
# 
# From -- ./inp_files/56794.got.cif
#   From: 2010.05.17/outbox.cif.g08.bks.cpg/sg12_29_cif.got.tgz:56794.got - 2010.06.03 13:09:07.
