data_PCOD9218852
_publ_section_title
;
Structure prediction by ZEFSAII (Michael W. Deem and Ramdas Pophale) SiO2 
 PCOD9218852
Probable space group: C 2/M
;
_chemical_formula_sum "Si O2"
_cell_formula_units_Z 60
_cell_length_a 14.593962
_cell_length_b 18.974897
_cell_length_c 21.111576
_cell_angle_alpha 90.000000
_cell_angle_beta 41.877575
_cell_angle_gamma 90.000000
_cell_volume 3902.575921
_symmetry_space_group_name_H-M "C 2/M"
_symmetry_group_IT_number 12
_symmetry_cell_setting 'monoclinic'
loop_
_space_group_symop_operation_xyz
x,y,z
-x,y,-z
-x,-y,-z
x,-y,z
1/2+x,1/2+y,z
1/2-x,1/2+y,-z
1/2-x,1/2-y,-z
1/2+x,1/2-y,z
loop_
_atom_site_type_symbol
_atom_site_label
_atom_site_fract_x
_atom_site_fract_y
_atom_site_fract_z
Si Si1 0.564334 0.766197 0.365988
Si Si2 0.772559 0.082140 0.100248
Si Si3 0.141724 0.196266 0.729593
Si Si4 0.019660 0.684563 0.248136
Si Si5 0.468759 0.581286 0.121284
Si Si6 0.780787 0.322663 0.523584
Si Si7 0.270197 0.917730 0.414797
Si Si8 0.500000 0.354052 0.500000
O O1 0.719081 0.784914 0.304583
O O2 0.550957 0.771398 0.296707
O O3 0.444598 0.819688 0.451028
O O4 0.527465 0.695658 0.424471
O O5 0.650486 0.138082 0.162014
O O6 0.855982 0.089288 0.123328
O O7 0.726181 0.000000 0.120201
O O8 0.884382 0.094124 0.987516
O O9 0.039010 0.261828 0.773580
O O10 0.066690 0.133527 0.804203
O O11 0.196596 0.178507 0.631177
O O12 0.896683 0.630007 0.326368
O O13 0.464820 0.500000 0.143965
O O14 0.750000 0.250000 0.500000
O O15 0.744535 0.388575 0.498724
O O16 0.135090 0.899106 0.444227
O O17 0.300949 0.000000 0.397306
#
# Coordination Sequence:
#
# PCOD9218852 Si02
#       8
#     8   8   8   8   8   8   8   4
#     4  11  18  31  50  74 100 137 174 206 249 305
#     4   9  18  36  54  73 107 136 163 216 273 309
#     4  12  19  32  55  77 101 134 176 212 251 311
#     4  11  20  32  54  79 101 134 172 214 256 303
#     4   9  20  35  54  77 101 135 172 212 267 316
#     4  11  18  34  49  69 101 144 170 203 256 299
#     4  11  22  32  48  77 105 136 176 212 248 302
#     4  12  17  34  50  68 107 144 170 210 253 300
#
# _framework density 15.374459999999999
#
# number of rings (size 3 to 8) (size 9 to 14) (size 15 to 20)
#    0.000    1.333    8.000    1.400    0.000    1.067 
#    0.000    0.000    0.000    2.400    0.000    0.000 
#    0.000    2.133    0.000    0.000    0.000    0.000 
#
# Total GULP energy -167218.505561 kJ/mol
# GULP energy per Si atom -5573.950185 kJ/mol
# Density = 1.533947 g / cm^3
# Si number density = 15.374460 Si / 1000 Ang^3
#
#
#
# Elastic Constant Matrix: (Units=GPa)
#
#
# Indices 1 2 3 4 5 6 
#
# 1 87.8456 52.4102 42.8633 0.0000 -11.4434 0.0000
# 2 52.4102 100.2195 52.9617 0.0000 0.4182 0.0000
# 3 42.8633 52.9617 82.3862 0.0002 -6.2555 0.0000
# 4 0.0000 0.0000 0.0002 29.5480 -0.0001 -1.6450
# 5 -11.4434 0.4182 -6.2555 -0.0001 25.6522 0.0000
# 6 0.0000 0.0000 0.0000 -1.6450 0.0000 20.3191
#
#
#
# Elastic Compliance Matrix: (Units=1/GPa)
#
#
# Indices 1 2 3 4 5 6 
#
# 1 0.019119 -0.007690 -0.004429 0.000000 0.007574 0.000000
# 2 -0.007690 0.018385 -0.008254 0.000000 -0.005743 0.000000
# 3 -0.004429 -0.008254 0.019979 0.000000 0.003031 0.000000
# 4 0.000000 0.000000 0.000000 0.033996 0.000000 0.002752
# 5 0.007574 -0.005743 0.003031 0.000000 0.043195 0.000000
# 6 0.000000 0.000000 0.000000 0.002752 0.000000 0.049438
#
#
# Mechanical properties :
#
#
# Convention : Reuss Voigt Hill
#
# Bulk Modulus (GPa) = 59.74597 62.99130 61.36863
# Shear Modulus (GPa) = 21.69797 23.25160 22.47478
#
# Velocity S-wave (km/s) = 3.76080 3.89312 3.82753
# Velocity P-wave (km/s) = 7.60283 7.82744 7.71595
#
# Compressibility (1/GPa) = 0.01673753
#
# Stress axis : x y z
#
# Youngs Moduli (GPa) = 52.30407 54.39089 50.05365
#
# Poissons Ratio (x) = 0.41824 0.22168
# Poissons Ratio (y) = 0.40219 0.41316
# Poissons Ratio (z) = 0.23164 0.44896
#
# Static dielectric constant tensor:
#      x y z
#    x 1.532400 0.000000 -0.009380 
#    y 0.000000 1.499810 0.000000 
#    z -0.009380 0.000000 1.508650 
# 
# From -- ./inp_files/340413.got.cif
#   From: 2010.05.17/outbox.cif.g08.bks.cpg/sg12_171_cif.got.tgz:340413.got - 2010.06.03 13:09:07.
