data_PCOD9218194
_publ_section_title
;
Structure prediction by ZEFSAII (Michael W. Deem and Ramdas Pophale) SiO2 
 PCOD9218194
Probable space group: C 2/M
;
_chemical_formula_sum "Si O2"
_cell_formula_units_Z 48
_cell_length_a 19.418847
_cell_length_b 11.554060
_cell_length_c 13.078858
_cell_angle_alpha 90.000000
_cell_angle_beta 59.499561
_cell_angle_gamma 90.000000
_cell_volume 2528.403084
_symmetry_space_group_name_H-M "C 2/M"
_symmetry_group_IT_number 12
_symmetry_cell_setting 'monoclinic'
loop_
_space_group_symop_operation_xyz
x,y,z
-x,y,-z
-x,-y,-z
x,-y,z
1/2+x,1/2+y,z
1/2-x,1/2+y,-z
1/2-x,1/2-y,-z
1/2+x,1/2-y,z
loop_
_atom_site_type_symbol
_atom_site_label
_atom_site_fract_x
_atom_site_fract_y
_atom_site_fract_z
Si Si1 0.083216 0.000000 0.794705
Si Si2 0.904965 0.000000 0.970651
Si Si3 0.913243 0.136738 0.517529
Si Si4 0.240949 0.636974 0.725791
Si Si5 0.014331 0.636643 0.105614
Si Si6 0.323639 0.253059 0.019848
Si Si7 0.125573 0.239588 0.668660
O O1 0.125826 0.886781 0.720003
O O2 0.082913 0.000000 0.916786
O O3 0.987756 0.000000 0.844334
O O4 0.857928 0.117770 0.987611
O O5 0.837021 0.147367 0.650098
O O6 0.890700 0.215924 0.437806
O O7 0.000000 0.164329 0.500000
O O8 0.916270 0.000000 0.484115
O O9 0.220937 0.500000 0.750879
O O10 0.203588 0.709244 0.847457
O O11 0.201613 0.687376 0.651125
O O12 0.002259 0.500000 0.114988
O O13 0.950690 0.695920 0.226181
O O14 0.103914 0.669701 0.066975
O O15 0.000000 0.680455 0.000000
O O16 0.250000 0.250000 0.000000
#
# Coordination Sequence:
#
# PCOD9218194 Si02
#       7
#     4   4   8   8   8   8   8
#     4  11  20  36  65  92 122 158 207 262 306 360
#     4  11  22  40  58  94 129 166 206 253 318 367
#     4  10  24  43  65  92 124 163 209 264 322 371
#     4  11  24  43  65  91 125 169 215 259 309 375
#     4  11  22  40  65  93 127 167 207 251 310 378
#     4  12  26  39  61  95 132 168 203 257 312 377
#     4  12  21  40  66  95 121 162 212 259 310 366
#
# _framework density 18.984314999999999
#
# number of rings (size 3 to 8) (size 9 to 14) (size 15 to 20)
#    0.000    0.833    5.833    1.500    4.667    0.000 
#    0.000    0.000    1.833    2.000    0.000    0.000 
#    0.000    0.000    0.000    0.000    0.000    0.000 
#
# Total GULP energy -134062.934046 kJ/mol
# GULP energy per Si atom -5585.955585 kJ/mol
# Density = 1.894111 g / cm^3
# Si number density = 18.984315 Si / 1000 Ang^3
#
#
#
# Elastic Constant Matrix: (Units=GPa)
#
#
# Indices 1 2 3 4 5 6 
#
# 1 110.1716 11.3122 8.7718 0.0000 -11.1474 0.0000
# 2 11.3122 81.3880 11.3210 0.0000 -5.6058 0.0000
# 3 8.7718 11.3210 33.7227 0.0000 -10.0297 0.0000
# 4 0.0000 0.0000 0.0000 -252.0702 0.0000 -115.8335
# 5 -11.1474 -5.6058 -10.0297 0.0000 28.9067 0.0000
# 6 0.0000 0.0000 0.0000 -115.8335 0.0000 -41.8347
#
#
#
# Elastic Compliance Matrix: (Units=1/GPa)
#
#
# Indices 1 2 3 4 5 6 
#
# 1 0.009585 -0.000945 -0.001261 0.000000 0.003076 0.000000
# 2 -0.000945 0.013014 -0.003881 0.000000 0.000813 0.000000
# 3 -0.001261 -0.003881 0.034474 0.000000 0.010722 0.000000
# 4 0.000000 0.000000 0.000000 0.014566 0.000000 -0.040330
# 5 0.003076 0.000813 0.010722 0.000000 0.039658 0.000000
# 6 0.000000 0.000000 0.000000 -0.040330 0.000000 0.087765
#
#
# Mechanical properties :
#
#
# Convention : Reuss Voigt Hill
#
# Bulk Modulus (GPa) = 22.27294 32.01027 27.14161
# Shear Modulus (GPa) = 22.10407 -40.07451 -8.98522
#
# Velocity S-wave (km/s) = 3.41593 -4.59947 -2.17790
# Velocity P-wave (km/s) = 5.22646 3.36285 2.82906
#
# Compressibility (1/GPa) = 0.04489752
#
# Stress axis : x y z
#
# Youngs Moduli (GPa) = 104.32534 76.84004 29.00769
#
# Poissons Ratio (x) = 0.07261 0.03659
# Poissons Ratio (y) = 0.09859 0.11259
# Poissons Ratio (z) = 0.13159 0.29825
#
# Static dielectric constant tensor:
#      x y z
#    x 1.677300 0.000000 -0.003410 
#    y 0.000000 1.638870 0.000000 
#    z -0.003410 0.000000 1.670970 
# 
# From -- ./inp_files/154240.got.cif
#   From: 2010.05.17/outbox.cif.g08.bks.cpg/sg12_78_cif.got.tgz:154240.got - 2010.06.03 13:09:07.
