data_PCOD9218168
_publ_section_title
;
Structure prediction by ZEFSAII (Michael W. Deem and Ramdas Pophale) SiO2 
 PCOD9218168
Probable space group: C 2/M
;
_chemical_formula_sum "Si O2"
_cell_formula_units_Z 56
_cell_length_a 24.372436
_cell_length_b 24.841090
_cell_length_c 5.048188
_cell_angle_alpha 90.000000
_cell_angle_beta 116.889059
_cell_angle_gamma 90.000000
_cell_volume 2725.922068
_symmetry_space_group_name_H-M "C 2/M"
_symmetry_group_IT_number 12
_symmetry_cell_setting 'monoclinic'
loop_
_space_group_symop_operation_xyz
x,y,z
-x,y,-z
-x,-y,-z
x,-y,z
1/2+x,1/2+y,z
1/2-x,1/2+y,-z
1/2-x,1/2-y,-z
1/2+x,1/2-y,z
loop_
_atom_site_type_symbol
_atom_site_label
_atom_site_fract_x
_atom_site_fract_y
_atom_site_fract_z
Si Si1 0.651120 0.866241 0.536851
Si Si2 0.882856 0.735373 0.804637
Si Si3 0.571511 0.303727 0.594050
Si Si4 0.040676 0.560843 0.327944
Si Si5 0.273867 0.202900 0.870316
Si Si6 0.673428 0.613976 0.672889
Si Si7 0.267799 0.563432 0.679159
O O1 0.609670 0.826935 0.261635
O O2 0.603334 0.909630 0.532441
O O3 0.679411 0.831738 0.841096
O O4 0.706982 0.898458 0.515566
O O5 0.912507 0.770077 0.635375
O O6 0.905987 0.764880 0.119105
O O7 0.809781 0.729076 0.702944
O O8 0.500000 0.314189 0.500000
O O9 0.610518 0.358777 0.639240
O O10 0.056446 0.500000 0.279581
O O11 0.000000 0.560142 0.500000
O O12 0.000000 0.584414 0.000000
O O13 0.250000 0.250000 0.000000
O O14 0.216309 0.164895 0.690894
O O15 0.680500 0.577557 0.427886
O O16 0.704544 0.581063 0.978531
O O17 0.252691 0.500000 0.637302
#
# Coordination Sequence:
#
# PCOD9218168 Si02
#       7
#     8   8   8   8   8   8   8
#     4  11  24  39  63  93 129 167 208 257 322 368
#     4  12  23  41  63  95 129 170 208 259 303 382
#     4  12  27  44  64  93 132 174 215 257 310 380
#     4  10  24  43  62  83 117 169 221 264 306 361
#     4  11  22  40  64  96 130 166 208 253 319 378
#     4  11  23  41  68  91 128 168 207 256 325 384
#     4  11  24  41  67  99 126 157 208 273 326 378
#
# _framework density 20.543507000000002
#
# number of rings (size 3 to 8) (size 9 to 14) (size 15 to 20)
#    0.000    0.857    4.286    2.143    4.000    2.857 
#    0.000    2.857    0.000    2.571    0.000    0.000 
#    0.000    0.000    0.000    0.000    0.000    0.000 
#
# Total GULP energy -156213.886309 kJ/mol
# GULP energy per Si atom -5579.067368 kJ/mol
# Density = 2.049675 g / cm^3
# Si number density = 20.543507 Si / 1000 Ang^3
#
#
#
# Elastic Constant Matrix: (Units=GPa)
#
#
# Indices 1 2 3 4 5 6 
#
# 1 124.9951 38.4949 30.7573 0.0000 1.0176 0.0000
# 2 38.4949 94.5525 16.4206 0.0000 5.5854 0.0000
# 3 30.7573 16.4206 64.6091 0.0000 -18.1273 0.0000
# 4 0.0000 0.0000 0.0000 -34.1138 0.0000 353.0664
# 5 1.0176 5.5854 -18.1273 0.0000 39.5652 0.0000
# 6 0.0000 0.0000 0.0000 353.0664 0.0000-2203.2299
#
#
#
# Elastic Compliance Matrix: (Units=1/GPa)
#
#
# Indices 1 2 3 4 5 6 
#
# 1 0.010122 -0.003224 -0.004527 0.000000 -0.001879 0.000000
# 2 -0.003224 0.012473 -0.002417 0.000000 -0.002785 0.000000
# 3 -0.004527 -0.002417 0.021086 0.000000 0.010118 0.000000
# 4 0.000000 0.000000 0.000000 0.044514 0.000000 0.007133
# 5 -0.001879 -0.002785 0.010118 0.000000 0.030352 0.000000
# 6 0.000000 0.000000 0.000000 0.007133 0.000000 0.000689
#
#
# Mechanical properties :
#
#
# Convention : Reuss Voigt Hill
#
# Bulk Modulus (GPa) = 42.83306 50.61136 46.72221
# Shear Modulus (GPa) = 33.93215 -426.32346 -196.19566
#
# Velocity S-wave (km/s) = 4.06855 -14.42126 -9.78314
# Velocity P-wave (km/s) = 6.55484 15.89363 10.23820
#
# Compressibility (1/GPa) = 0.02334645
#
# Stress axis : x y z
#
# Youngs Moduli (GPa) = 98.79121 80.17375 47.42556
#
# Poissons Ratio (x) = 0.25848 0.21468
# Poissons Ratio (y) = 0.31850 0.11461
# Poissons Ratio (z) = 0.44719 0.19375
#
# Static dielectric constant tensor:
#      x y z
#    x 1.488590 0.000000 0.004950 
#    y 0.000000 1.776840 0.000000 
#    z 0.004950 0.000000 1.783640 
# 
# From -- ./inp_files/21930.got.cif
#   From: 2010.05.17/outbox.cif.g08.bks.cpg/sg12_11_cif.got.tgz:21930.got - 2010.06.03 13:09:07.
