data_PCOD9218962
_publ_section_title
;
Structure prediction by ZEFSAII (Michael W. Deem and Ramdas Pophale) SiO2 
 PCOD9218962
Probable space group: C 2/M
;
_chemical_formula_sum "Si O2"
_cell_formula_units_Z 56
_cell_length_a 13.861000
_cell_length_b 26.922981
_cell_length_c 8.692654
_cell_angle_alpha 90.000000
_cell_angle_beta 113.831403
_cell_angle_gamma 90.000000
_cell_volume 2967.337808
_symmetry_space_group_name_H-M "C 2/M"
_symmetry_group_IT_number 12
_symmetry_cell_setting 'monoclinic'
loop_
_space_group_symop_operation_xyz
x,y,z
-x,y,-z
-x,-y,-z
x,-y,z
1/2+x,1/2+y,z
1/2-x,1/2+y,-z
1/2-x,1/2-y,-z
1/2+x,1/2-y,z
loop_
_atom_site_type_symbol
_atom_site_label
_atom_site_fract_x
_atom_site_fract_y
_atom_site_fract_z
Si Si1 0.078944 0.626896 0.249425
Si Si2 0.099676 0.294705 0.881090
Si Si3 0.328118 0.850959 0.356811
Si Si4 0.428625 0.944205 0.297858
Si Si5 0.040942 0.815217 0.859316
Si Si6 0.726766 0.652118 0.801353
Si Si7 0.670635 0.297284 0.446353
O O1 0.110418 0.640580 0.444393
O O2 0.184557 0.616238 0.220126
O O3 0.009407 0.675101 0.158947
O O4 0.001904 0.579917 0.213453
O O5 0.124387 0.307776 0.719020
O O6 0.098813 0.237382 0.922748
O O7 0.195087 0.317840 0.038188
O O8 0.339915 0.902535 0.272403
O O9 0.215736 0.834223 0.344296
O O10 0.500000 0.946430 0.500000
O O11 0.392796 0.000000 0.242055
O O12 0.120963 0.854839 0.833888
O O13 0.950143 0.795520 0.683090
O O14 0.000000 0.831734 0.000000
O O15 0.684009 0.680878 0.624494
O O16 0.750000 0.250000 0.500000
#
# Coordination Sequence:
#
# PCOD9218962 Si02
#       7
#     8   8   8   8   8   8   8
#     4   9  18  31  49  73 100 129 160 197 247 300
#     4  11  19  32  49  69  96 131 167 205 248 294
#     4   9  18  31  49  73 101 132 167 204 249 299
#     4   8  14  27  50  78 103 126 156 198 249 305
#     4  12  23  34  47  67  94 131 177 214 244 288
#     4  11  22  33  47  68  96 131 166 207 252 291
#     4  11  21  34  49  70  98 134 176 214 249 289
#
# _framework density 18.872136000000001
#
# number of rings (size 3 to 8) (size 9 to 14) (size 15 to 20)
#    0.000    1.857    0.000    7.714    0.000    1.143 
#    0.000    0.000    0.000    6.857    0.000    1.000 
#    0.000   12.571    0.000    0.857    0.000    0.286 
#
# Total GULP energy -155872.044226 kJ/mol
# GULP energy per Si atom -5566.858722 kJ/mol
# Density = 1.882918 g / cm^3
# Si number density = 18.872136 Si / 1000 Ang^3
#
#
#
# Elastic Constant Matrix: (Units=GPa)
#
#
# Indices 1 2 3 4 5 6 
#
# 1 107.2884 28.3204 36.4515 0.0000 -26.2498 0.0000
# 2 28.3204 50.7818 -1.0704 0.0000 -15.5650 0.0000
# 3 36.4515 -1.0704 50.3350 0.0000 -2.0271 0.0000
# 4 0.0000 0.0000 0.0000 2.4652 0.0000 7.4875
# 5 -26.2498 -15.5650 -2.0271 0.0000 39.6201 0.0000
# 6 0.0000 0.0000 0.0000 7.4875 0.0000 1.6055
#
#
#
# Elastic Compliance Matrix: (Units=1/GPa)
#
#
# Indices 1 2 3 4 5 6 
#
# 1 0.017545 -0.007598 -0.012545 0.000000 0.007998 0.000000
# 2 -0.007598 0.025713 0.006266 0.000000 0.005388 0.000000
# 3 -0.012545 0.006266 0.028909 0.000000 -0.004371 0.000000
# 4 0.000000 0.000000 0.000000 -0.030814 0.000000 0.143702
# 5 0.007998 0.005388 -0.004371 0.000000 0.032432 0.000000
# 6 0.000000 0.000000 0.000000 0.143702 0.000000 -0.047312
#
#
# Mechanical properties :
#
#
# Convention : Reuss Voigt Hill
#
# Bulk Modulus (GPa) = 22.51600 37.31202 29.91401
# Shear Modulus (GPa) = 72.43014 18.38507 45.40761
#
# Velocity S-wave (km/s) = 6.20183 3.12459 4.91049
# Velocity P-wave (km/s) = 7.95238 5.72986 6.93079
#
# Compressibility (1/GPa) = 0.04441285
#
# Stress axis : x y z
#
# Youngs Moduli (GPa) = 56.99510 38.89096 34.59102
#
# Poissons Ratio (x) = 0.29549 0.43396
# Poissons Ratio (y) = 0.43304 -0.21675
# Poissons Ratio (z) = 0.71503 -0.24369
#
# Static dielectric constant tensor:
#      x y z
#    x 1.780310 0.000000 0.006950 
#    y 0.000000 1.652720 0.000000 
#    z 0.006950 0.000000 1.736840 
# 
# From -- ./inp_files/54313.got.cif
#   From: 2010.05.17/outbox.cif.g08.bks.cpg/sg12_28_cif.got.tgz:54313.got - 2010.06.03 13:09:07.
