data_PCOD9218082
_publ_section_title
;
Structure prediction by ZEFSAII (Michael W. Deem and Ramdas Pophale) SiO2 
 PCOD9218082
Probable space group: C 2/M
;
_chemical_formula_sum "Si O2"
_cell_formula_units_Z 52
_cell_length_a 9.604058
_cell_length_b 14.795485
_cell_length_c 19.561432
_cell_angle_alpha 90.000000
_cell_angle_beta 73.625638
_cell_angle_gamma 90.000000
_cell_volume 2666.874283
_symmetry_space_group_name_H-M "C 2/M"
_symmetry_group_IT_number 12
_symmetry_cell_setting 'monoclinic'
loop_
_space_group_symop_operation_xyz
x,y,z
-x,y,-z
-x,-y,-z
x,-y,z
1/2+x,1/2+y,z
1/2-x,1/2+y,-z
1/2-x,1/2-y,-z
1/2+x,1/2-y,z
loop_
_atom_site_type_symbol
_atom_site_label
_atom_site_fract_x
_atom_site_fract_y
_atom_site_fract_z
Si Si1 0.334325 0.398363 0.279640
Si Si2 0.811507 0.605175 0.296512
Si Si3 0.847962 0.000000 0.930885
Si Si4 0.371332 0.153772 0.800826
Si Si5 0.698812 0.275962 0.598899
Si Si6 0.635404 0.359518 0.181359
Si Si7 0.500000 0.227057 0.500000
Si Si8 0.301634 0.500000 0.094171
O O1 0.282779 0.500000 0.296837
O O2 0.212283 0.340428 0.259635
O O3 0.376364 0.347939 0.342007
O O4 0.473728 0.396780 0.212938
O O5 0.793444 0.500000 0.321634
O O6 0.793043 0.679602 0.360586
O O7 0.710597 0.622465 0.244129
O O8 0.971069 0.618435 0.241673
O O9 0.801501 0.914544 0.890973
O O10 0.024100 0.000000 0.917582
O O11 0.781610 0.000000 0.015421
O O12 0.374533 0.253350 0.831059
O O13 0.279079 0.085171 0.859758
O O14 0.598465 0.272662 0.545474
O O15 0.862152 0.313064 0.560862
#
# Coordination Sequence:
#
# PCOD9218082 Si02
#       8
#     8   8   4   8   8   8   4   4
#     4  12  21  39  67  95 119 163 217 258 308 361
#     4  12  23  37  65  99 123 153 209 270 316 341
#     4  11  24  43  63  89 133 174 205 251 321 383
#     4  12  21  38  63  94 124 160 211 266 306 366
#     4  11  22  42  62  92 123 170 200 256 317 370
#     4  12  21  38  63  94 124 160 211 266 306 366
#     4  10  24  42  62  86 136 164 198 246 322 394
#     4  11  24  43  63  89 133 174 205 251 321 383
#
# _framework density 19.498481999999999
#
# number of rings (size 3 to 8) (size 9 to 14) (size 15 to 20)
#    0.000    0.462    7.692    1.846    0.000    0.615 
#    0.000    6.154    0.000    0.000    0.000    0.000 
#    0.000    0.000    0.000    0.000    0.000    0.000 
#
# Total GULP energy -144889.677138 kJ/mol
# GULP energy per Si atom -5572.679890 kJ/mol
# Density = 1.945410 g / cm^3
# Si number density = 19.498482 Si / 1000 Ang^3
#
#
#
# Elastic Constant Matrix: (Units=GPa)
#
#
# Indices 1 2 3 4 5 6 
#
# 1 87.1010 -10.0558 6.1607 0.0000 4.4162 0.0000
# 2 -10.0558 117.3726 26.2232 0.0000 -0.8314 0.0000
# 3 6.1607 26.2232 98.3642 0.0000 6.1096 0.0000
# 4 0.0000 0.0000 0.0000 -5.2802 0.0000 -6.9251
# 5 4.4162 -0.8314 6.1096 0.0000 31.7564 0.0000
# 6 0.0000 0.0000 0.0000 -6.9251 0.0000 10.0112
#
#
#
# Elastic Compliance Matrix: (Units=1/GPa)
#
#
# Indices 1 2 3 4 5 6 
#
# 1 0.011762 0.001215 -0.000973 0.000000 -0.001417 0.000000
# 2 0.001215 0.009201 -0.002564 0.000000 0.000565 0.000000
# 3 -0.000973 -0.002564 0.011038 0.000000 -0.002056 0.000000
# 4 0.000000 0.000000 0.000000 -0.099300 0.000000 -0.068689
# 5 -0.001417 0.000565 -0.002056 0.000000 0.032097 0.000000
# 6 0.000000 0.000000 0.000000 -0.068689 0.000000 0.052374
#
#
# Mechanical properties :
#
#
# Convention : Reuss Voigt Hill
#
# Bulk Modulus (GPa) = 36.55279 38.61045 37.58162
# Shear Modulus (GPa) = 161.63196 25.99812 93.81504
#
# Velocity S-wave (km/s) = 9.11453 3.65546 6.94395
# Velocity P-wave (km/s) = 11.38215 6.13687 9.14370
#
# Compressibility (1/GPa) = 0.02735769
#
# Stress axis : x y z
#
# Youngs Moduli (GPa) = 85.02094 108.68577 90.59242
#
# Poissons Ratio (x) = -0.13205 0.08811
# Poissons Ratio (y) = -0.10330 0.23229
# Poissons Ratio (z) = 0.08269 0.27868
#
# Static dielectric constant tensor:
#      x y z
#    x 1.718100 0.000000 -0.007570 
#    y 0.000000 1.676810 0.000000 
#    z -0.007570 0.000000 1.722940 
# 
# From -- ./inp_files/299860.got.cif
#   From: 2010.05.17/outbox.cif.g08.bks.cpg/sg12_150_cif.got.tgz:299860.got - 2010.06.03 13:09:07.
