data_PCOD9218114
_publ_section_title
;
Structure prediction by ZEFSAII (Michael W. Deem and Ramdas Pophale) SiO2 
 PCOD9218114
Probable space group: C 2/M
;
_chemical_formula_sum "Si O2"
_cell_formula_units_Z 36
_cell_length_a 8.893364
_cell_length_b 19.642787
_cell_length_c 16.737360
_cell_angle_alpha 90.000000
_cell_angle_beta 146.239378
_cell_angle_gamma 90.000000
_cell_volume 1624.858602
_symmetry_space_group_name_H-M "C 2/M"
_symmetry_group_IT_number 12
_symmetry_cell_setting 'monoclinic'
loop_
_space_group_symop_operation_xyz
x,y,z
-x,y,-z
-x,-y,-z
x,-y,z
1/2+x,1/2+y,z
1/2-x,1/2+y,-z
1/2-x,1/2-y,-z
1/2+x,1/2-y,z
loop_
_atom_site_type_symbol
_atom_site_label
_atom_site_fract_x
_atom_site_fract_y
_atom_site_fract_z
Si Si1 0.500000 0.735863 0.000000
Si Si2 0.073981 0.775868 0.201750
Si Si3 0.057185 0.500000 0.809562
Si Si4 0.799197 0.103787 0.644226
Si Si5 0.668510 0.370700 0.654968
Si Si6 0.513201 0.500000 0.143804
O O1 0.403950 0.696572 0.878903
O O2 0.241142 0.778296 0.913474
O O3 0.233584 0.820866 0.334376
O O4 0.176031 0.698175 0.250128
O O5 0.242866 0.500000 0.812547
O O6 0.873676 0.432531 0.730025
O O7 0.245869 0.500000 0.971734
O O8 0.500000 0.074997 0.500000
O O9 0.958551 0.063149 0.783184
O O10 0.966396 0.107269 0.636634
O O11 0.500000 0.357178 0.500000
#
# Coordination Sequence:
#
# PCOD9218114 Si02
#       6
#     4   8   4   8   8   4
#     4  10  24  42  66 108 144 174 224 286 344 398
#     4  11  25  42  74 102 142 178 230 280 344 402
#     4  11  28  47  74 101 135 179 228 281 342 409
#     4  12  27  46  70 101 140 183 227 282 341 405
#     4  12  27  46  70 101 140 183 227 282 341 405
#     4  11  28  47  74 101 135 179 228 281 342 409
#
# _framework density 22.155775999999999
#
# number of rings (size 3 to 8) (size 9 to 14) (size 15 to 20)
#    0.000    0.667    2.222    3.333   12.444    3.556 
#    0.000    0.000    0.000    0.000    0.000    0.000 
#    0.000    0.000    0.000    0.000    0.000    0.000 
#
# Total GULP energy -100726.078616 kJ/mol
# GULP energy per Si atom -5595.893256 kJ/mol
# Density = 2.210535 g / cm^3
# Si number density = 22.155776 Si / 1000 Ang^3
#
#
#
# Elastic Constant Matrix: (Units=GPa)
#
#
# Indices 1 2 3 4 5 6 
#
# 1 138.5903 27.0159 60.4501 0.0132 -23.3502 0.0046
# 2 27.0159 92.5407 25.6951 0.0126 7.1617 0.0057
# 3 60.4501 25.6951 137.7036 0.0228 -14.5656 0.0132
# 4 0.0132 0.0126 0.0228 11.0622 0.0119 -5.9013
# 5 -23.3502 7.1617 -14.5656 0.0119 40.1226 0.0052
# 6 0.0046 0.0057 0.0132 -5.9013 0.0052 14.1513
#
#
#
# Elastic Compliance Matrix: (Units=1/GPa)
#
#
# Indices 1 2 3 4 5 6 
#
# 1 0.010013 -0.002359 -0.003426 -0.000010 0.005005 -0.000005
# 2 -0.002359 0.012291 -0.001700 -0.000005 -0.004184 -0.000003
# 3 -0.003426 -0.001700 0.009260 -0.000024 0.001671 -0.000017
# 4 -0.000010 -0.000005 -0.000024 0.116262 -0.000055 0.048483
# 5 0.005005 -0.004184 0.001671 -0.000055 0.029190 -0.000035
# 6 -0.000005 -0.000003 -0.000017 0.048483 -0.000035 0.090883
#
#
# Mechanical properties :
#
#
# Convention : Reuss Voigt Hill
#
# Bulk Modulus (GPa) = 60.26752 66.12854 63.19803
# Shear Modulus (GPa) = 17.33702 30.11214 23.72458
#
# Velocity S-wave (km/s) = 2.80037 3.69061 3.27587
# Velocity P-wave (km/s) = 6.14140 6.93345 6.54941
#
# Compressibility (1/GPa) = 0.01659269
#
# Stress axis : x y z
#
# Youngs Moduli (GPa) = 99.87094 81.36234 107.99146
#
# Poissons Ratio (x) = 0.19195 0.36997
# Poissons Ratio (y) = 0.23561 0.18362
# Poissons Ratio (z) = 0.34215 0.13834
#
# Static dielectric constant tensor:
#      x y z
#    x 1.780900 0.000000 -0.018890 
#    y 0.000000 1.824700 0.000000 
#    z -0.018890 0.000000 1.800550 
# 
# From -- ./inp_files/197628.got.cif
#   From: 2010.05.17/outbox.cif.g08.bks.cpg/sg12_99_cif.got.tgz:197628.got - 2010.06.03 13:09:07.
