data_PCOD9218189
_publ_section_title
;
Structure prediction by ZEFSAII (Michael W. Deem and Ramdas Pophale) SiO2 
 PCOD9218189
Probable space group: C 2/M
;
_chemical_formula_sum "Si O2"
_cell_formula_units_Z 48
_cell_length_a 12.378144
_cell_length_b 25.848298
_cell_length_c 14.837627
_cell_angle_alpha 90.000000
_cell_angle_beta 29.765796
_cell_angle_gamma 90.000000
_cell_volume 2356.853327
_symmetry_space_group_name_H-M "C 2/M"
_symmetry_group_IT_number 12
_symmetry_cell_setting 'monoclinic'
loop_
_space_group_symop_operation_xyz
x,y,z
-x,y,-z
-x,-y,-z
x,-y,z
1/2+x,1/2+y,z
1/2-x,1/2+y,-z
1/2-x,1/2-y,-z
1/2+x,1/2-y,z
loop_
_atom_site_type_symbol
_atom_site_label
_atom_site_fract_x
_atom_site_fract_y
_atom_site_fract_z
Si Si1 0.910119 0.937555 0.467181
Si Si2 0.293122 0.255517 0.715034
Si Si3 0.888607 0.901230 0.865740
Si Si4 0.275979 0.866604 0.716555
Si Si5 0.086199 0.441684 0.223273
Si Si6 0.317299 0.793436 0.019623
O O1 0.655819 0.925413 0.632831
O O2 0.000000 0.919361 0.500000
O O3 0.039456 0.916436 0.286788
O O4 0.928779 0.000000 0.453501
O O5 0.500000 0.260841 0.500000
O O6 0.238030 0.194233 0.764842
O O7 0.326805 0.280285 0.788070
O O8 0.074803 0.285155 0.843801
O O9 0.742167 0.850122 0.967815
O O10 0.092772 0.888322 0.782285
O O11 0.741635 0.942370 0.024051
O O12 0.500000 0.868969 0.500000
O O13 0.310067 0.901701 0.780311
O O14 0.071889 0.500000 0.272627
O O15 0.250000 0.750000 0.000000
#
# Coordination Sequence:
#
# PCOD9218189 Si02
#       6
#     8   8   8   8   8   8
#     4  10  24  46  68  96 136 175 220 276 329 392
#     4  10  24  43  64  93 132 174 222 271 332 391
#     4  12  24  41  69  97 134 174 224 272 331 395
#     4  11  22  43  68  99 134 177 217 271 337 399
#     4  11  25  42  69 104 135 175 220 270 336 401
#     4  11  23  40  63  95 128 173 220 272 326 388
#
# _framework density 20.366137999999999
#
# number of rings (size 3 to 8) (size 9 to 14) (size 15 to 20)
#    0.000    1.167    3.333    2.000    2.333    8.333 
#    0.000    2.500    0.000    0.000    0.000    0.000 
#    0.000    0.000    0.000    0.000    0.000    0.000 
#
# Total GULP energy -134055.517081 kJ/mol
# GULP energy per Si atom -5585.646545 kJ/mol
# Density = 2.031978 g / cm^3
# Si number density = 20.366138 Si / 1000 Ang^3
#
#
#
# Elastic Constant Matrix: (Units=GPa)
#
#
# Indices 1 2 3 4 5 6 
#
# 1 130.6992 58.0386 46.1327 -0.0104 2.8698 0.0035
# 2 58.0386 83.4734 40.4898 -0.0022 -4.1857 0.0021
# 3 46.1327 40.4898 122.3035 -0.0242 2.1218 0.0109
# 4 -0.0104 -0.0022 -0.0242 28.9991 0.0160 5.6986
# 5 2.8698 -4.1857 2.1218 0.0160 19.7546 -0.0092
# 6 0.0035 0.0021 0.0109 5.6986 -0.0092 29.6887
#
#
#
# Elastic Compliance Matrix: (Units=1/GPa)
#
#
# Indices 1 2 3 4 5 6 
#
# 1 0.011644 -0.007319 -0.001917 0.000004 -0.003037 -0.000002
# 2 -0.007319 0.019123 -0.003666 -0.000008 0.005509 0.000004
# 3 -0.001917 -0.003666 0.010140 0.000009 -0.001587 -0.000006
# 4 0.000004 -0.000008 0.000009 0.035835 -0.000036 -0.006878
# 5 -0.003037 0.005509 -0.001587 -0.000036 0.052400 0.000024
# 6 -0.000002 0.000004 -0.000006 -0.006878 0.000024 0.035003
#
#
# Mechanical properties :
#
#
# Convention : Reuss Voigt Hill
#
# Bulk Modulus (GPa) = 66.20155 69.53314 67.86735
# Shear Modulus (GPa) = 25.64312 28.47615 27.05964
#
# Velocity S-wave (km/s) = 3.55224 3.74332 3.64903
# Velocity P-wave (km/s) = 7.02857 7.27317 7.15191
#
# Compressibility (1/GPa) = 0.01510539
#
# Stress axis : x y z
#
# Youngs Moduli (GPa) = 85.87862 52.29306 98.61504
#
# Poissons Ratio (x) = 0.38273 0.18900
# Poissons Ratio (y) = 0.62853 0.36150
# Poissons Ratio (z) = 0.16459 0.19169
#
# Static dielectric constant tensor:
#      x y z
#    x 1.727200 0.000000 0.006270 
#    y 0.000000 1.703040 0.000000 
#    z 0.006270 0.000000 1.716540 
# 
# From -- ./inp_files/209264.got.cif
#   From: 2010.05.17/outbox.cif.g08.bks.cpg/sg12_105_cif.got.tgz:209264.got - 2010.06.03 13:09:07.
