data_PCOD9218570
_publ_section_title
;
Structure prediction by ZEFSAII (Michael W. Deem and Ramdas Pophale) SiO2 
 PCOD9218570
Probable space group: C 2/M
;
_chemical_formula_sum "Si O2"
_cell_formula_units_Z 32
_cell_length_a 7.269215
_cell_length_b 13.678764
_cell_length_c 11.852384
_cell_angle_alpha 90.000000
_cell_angle_beta 104.763479
_cell_angle_gamma 90.000000
_cell_volume 1139.620566
_symmetry_space_group_name_H-M "C 2/M"
_symmetry_group_IT_number 12
_symmetry_cell_setting 'monoclinic'
loop_
_space_group_symop_operation_xyz
x,y,z
-x,y,-z
-x,-y,-z
x,-y,z
1/2+x,1/2+y,z
1/2-x,1/2+y,-z
1/2-x,1/2-y,-z
1/2+x,1/2-y,z
loop_
_atom_site_type_symbol
_atom_site_label
_atom_site_fract_x
_atom_site_fract_y
_atom_site_fract_z
Si Si1 0.291753 0.883150 0.615099
Si Si2 0.358874 0.193252 0.188315
Si Si3 0.305650 0.608550 0.043933
Si Si4 0.128766 0.883490 0.356001
O O1 0.455571 0.829023 0.708209
O O2 0.270759 0.856421 0.480114
O O3 0.084661 0.861844 0.635926
O O4 0.324765 0.000000 0.626282
O O5 0.355527 0.125748 0.076044
O O6 0.195314 0.157466 0.247827
O O7 0.309205 0.299538 0.128510
O O8 0.294012 0.500000 0.094118
O O9 0.500000 0.612635 0.000000
O O10 0.138693 0.000000 0.348682
#
# Coordination Sequence:
#
# PCOD9218570 Si02
#       4
#     8   8   8   8
#     4   9  18  35  68 121 170 206 256 320 390 470
#     4  11  21  41  79 113 147 207 265 320 392 475
#     4  10  24  48  74 109 153 202 264 333 390 454
#     4   9  18  35  68 120 171 207 253 324 394 460
#
# _framework density 28.079521
#
# number of rings (size 3 to 8) (size 9 to 14) (size 15 to 20)
#    0.000    2.250    0.000    4.500    0.000    2.000 
#    9.000    3.750    0.000   34.500    0.000    3.500 
#    0.000    0.000    0.000    0.000    0.000    0.000 
#
# Total GULP energy -89898.464434 kJ/mol
# GULP energy per Si atom -5618.654027 kJ/mol
# Density = 2.801561 g / cm^3
# Si number density = 28.079521 Si / 1000 Ang^3
#
#
#
# Elastic Constant Matrix: (Units=GPa)
#
#
# Indices 1 2 3 4 5 6 
#
# 1 93.7504 32.9145 74.9612 0.0000 14.8636 0.0000
# 2 32.9145 211.9208 83.3669 0.0000 -3.7416 0.0000
# 3 74.9612 83.3669 255.4015 0.0000 23.7668 0.0000
# 4 0.0000 0.0000 0.0000 53.4367 0.0000 -0.8921
# 5 14.8636 -3.7416 23.7668 0.0000 67.2422 0.0000
# 6 0.0000 0.0000 0.0000 -0.8921 0.0000 33.2863
#
#
#
# Elastic Compliance Matrix: (Units=1/GPa)
#
#
# Indices 1 2 3 4 5 6 
#
# 1 0.014232 -0.000767 -0.003754 0.000000 -0.001862 0.000000
# 2 -0.000767 0.005516 -0.001675 0.000000 0.001068 0.000000
# 3 -0.003754 -0.001675 0.005682 0.000000 -0.001272 0.000000
# 4 0.000000 0.000000 0.000000 0.018722 0.000000 0.000502
# 5 -0.001862 0.001068 -0.001272 0.000000 0.015792 0.000000
# 6 0.000000 0.000000 0.000000 0.000502 0.000000 0.030056
#
#
# Mechanical properties :
#
#
# Convention : Reuss Voigt Hill
#
# Bulk Modulus (GPa) = 76.68874 104.83974 90.76424
# Shear Modulus (GPa) = 46.84411 55.44839 51.14625
#
# Velocity S-wave (km/s) = 4.08887 4.44857 4.27251
# Velocity P-wave (km/s) = 7.04716 7.98775 7.53215
#
# Compressibility (1/GPa) = 0.01303972
#
# Stress axis : x y z
#
# Youngs Moduli (GPa) = 70.26216 181.30717 175.99001
#
# Poissons Ratio (x) = 0.13901 0.66062
# Poissons Ratio (y) = 0.05387 0.29473
# Poissons Ratio (z) = 0.26375 0.30364
#
# Static dielectric constant tensor:
#      x y z
#    x 2.275360 0.000000 0.055010 
#    y 0.000000 2.194140 0.000000 
#    z 0.055010 0.000000 2.151990 
# 
# From -- ./inp_files/117747.got.cif
#   From: 2010.05.17/outbox.cif.g08.bks.cpg/sg12_59_cif.got.tgz:117747.got - 2010.06.03 13:09:07.
