data_PCOD9218747
_publ_section_title
;
Structure prediction by ZEFSAII (Michael W. Deem and Ramdas Pophale) SiO2 
 PCOD9218747
Probable space group: C 2/M
;
_chemical_formula_sum "Si O2"
_cell_formula_units_Z 34
_cell_length_a 20.456920
_cell_length_b 9.687336
_cell_length_c 17.040393
_cell_angle_alpha 90.000000
_cell_angle_beta 25.663766
_cell_angle_gamma 90.000000
_cell_volume 1462.519027
_symmetry_space_group_name_H-M "C 2/M"
_symmetry_group_IT_number 12
_symmetry_cell_setting 'monoclinic'
loop_
_space_group_symop_operation_xyz
x,y,z
-x,y,-z
-x,-y,-z
x,-y,z
1/2+x,1/2+y,z
1/2-x,1/2+y,-z
1/2-x,1/2-y,-z
1/2+x,1/2-y,z
loop_
_atom_site_type_symbol
_atom_site_label
_atom_site_fract_x
_atom_site_fract_y
_atom_site_fract_z
Si Si1 0.262171 0.500000 0.918767
Si Si2 0.789781 0.000000 0.358857
Si Si3 0.660922 0.218838 0.781625
Si Si4 0.000000 0.500000 0.500000
Si Si5 0.404827 0.000000 0.277665
Si Si6 0.374295 0.500000 0.970050
Si Si7 0.316482 0.240371 0.762864
O O1 0.283777 0.500000 0.987723
O O2 0.333212 0.359276 0.808169
O O3 0.086213 0.500000 0.085208
O O4 0.795042 0.129142 0.294771
O O5 0.660859 0.000000 0.563609
O O6 0.947718 0.000000 0.234721
O O7 0.651672 0.128149 0.713509
O O8 0.783405 0.184028 0.715958
O O9 0.500000 0.206510 0.000000
O O10 0.057317 0.623273 0.378430
O O11 0.328643 0.640150 0.064504
#
# Coordination Sequence:
#
# PCOD9218747 Si02
#       7
#     4   4   8   2   4   4   8
#     4  12  24  42  69  99 143 187 224 282 354 420
#     4  12  24  40  66 102 138 184 234 285 339 402
#     4  12  22  43  73  96 133 182 234 283 338 408
#     4  10  26  44  62  98 132 166 232 294 328 412
#     4  12  26  42  68 112 142 173 233 292 346 396
#     4  11  23  41  63  96 143 190 227 273 350 416
#     4  11  24  43  70  97 131 185 238 278 345 415
#
# _framework density 23.247558999999999
#
# number of rings (size 3 to 8) (size 9 to 14) (size 15 to 20)
#    0.000    0.471    4.706    4.235    0.000    6.118 
#    0.000    0.000    0.000    0.000    0.000    0.000 
#    0.000    0.000    0.000    0.000    0.000    0.000 
#
# Total GULP energy -94843.970013 kJ/mol
# GULP energy per Si atom -5579.057060 kJ/mol
# Density = 2.319465 g / cm^3
# Si number density = 23.247559 Si / 1000 Ang^3
#
#
#
# Elastic Constant Matrix: (Units=GPa)
#
#
# Indices 1 2 3 4 5 6 
#
# 1 86.0965 -9.7844 -19.5732 0.0000 6.0386 0.0000
# 2 -9.7844 102.0762 23.8016 0.0000 7.1945 0.0000
# 3 -19.5732 23.8016 70.4787 0.0000 20.4982 0.0000
# 4 0.0000 0.0000 0.0000 49.9544 0.0000 16.0683
# 5 6.0386 7.1945 20.4982 0.0000 33.3192 0.0000
# 6 0.0000 0.0000 0.0000 16.0683 0.0000 26.1419
#
#
#
# Elastic Compliance Matrix: (Units=1/GPa)
#
#
# Indices 1 2 3 4 5 6 
#
# 1 0.013242 0.000463 0.005174 0.000000 -0.005683 0.000000
# 2 0.000463 0.010651 -0.003380 0.000000 -0.000305 0.000000
# 3 0.005174 -0.003380 0.020494 0.000000 -0.012816 0.000000
# 4 0.000000 0.000000 0.000000 0.024951 0.000000 -0.015337
# 5 -0.005683 -0.000305 -0.012816 0.000000 0.038993 0.000000
# 6 0.000000 0.000000 0.000000 -0.015337 0.000000 0.047679
#
#
# Mechanical properties :
#
#
# Convention : Reuss Voigt Hill
#
# Bulk Modulus (GPa) = 20.44854 27.50438 23.97646
# Shear Modulus (GPa) = 29.79800 39.49692 34.64746
#
# Velocity S-wave (km/s) = 3.58406 4.12633 3.86472
# Velocity P-wave (km/s) = 5.09337 5.87868 5.50006
#
# Compressibility (1/GPa) = 0.04890324
#
# Stress axis : x y z
#
# Youngs Moduli (GPa) = 75.51497 93.89213 48.79377
#
# Poissons Ratio (x) = -0.04351 -0.25246
# Poissons Ratio (y) = -0.03500 0.16490
# Poissons Ratio (z) = -0.39072 0.31731
#
# Static dielectric constant tensor:
#      x y z
#    x 1.838850 0.000000 -0.054760 
#    y 0.000000 1.680040 0.000000 
#    z -0.054760 0.000000 1.911500 
# 
# From -- ./inp_files/171338.got.cif
#   From: 2010.05.17/outbox.cif.g08.bks.cpg/sg12_86_cif.got.tgz:171338.got - 2010.06.03 13:09:07.
