data_PCOD9218933
_publ_section_title
;
Structure prediction by ZEFSAII (Michael W. Deem and Ramdas Pophale) SiO2 
 PCOD9218933
Probable space group: C 2/M
;
_chemical_formula_sum "Si O2"
_cell_formula_units_Z 48
_cell_length_a 22.910021
_cell_length_b 16.921523
_cell_length_c 8.968291
_cell_angle_alpha 90.000000
_cell_angle_beta 49.315236
_cell_angle_gamma 90.000000
_cell_volume 2636.453413
_symmetry_space_group_name_H-M "C 2/M"
_symmetry_group_IT_number 12
_symmetry_cell_setting 'monoclinic'
loop_
_space_group_symop_operation_xyz
x,y,z
-x,y,-z
-x,-y,-z
x,-y,z
1/2+x,1/2+y,z
1/2-x,1/2+y,-z
1/2-x,1/2-y,-z
1/2+x,1/2-y,z
loop_
_atom_site_type_symbol
_atom_site_label
_atom_site_fract_x
_atom_site_fract_y
_atom_site_fract_z
Si Si1 0.776610 0.092025 0.333883
Si Si2 0.552297 0.774840 0.553941
Si Si3 0.175175 0.329438 0.754401
Si Si4 0.466878 0.909748 0.886441
Si Si5 0.228463 0.279578 0.199455
Si Si6 0.919242 0.821081 0.213120
O O1 0.710154 0.124707 0.555404
O O2 0.771405 0.142820 0.190807
O O3 0.856920 0.112007 0.282147
O O4 0.767022 0.000000 0.324150
O O5 0.500000 0.756165 0.500000
O O6 0.512425 0.846848 0.710399
O O7 0.638084 0.796004 0.359840
O O8 0.562160 0.700929 0.648279
O O9 0.244177 0.288288 0.730042
O O10 0.120507 0.258556 0.787555
O O11 0.121915 0.383542 0.947237
O O12 0.474223 0.000000 0.820683
O O13 0.500000 0.906536 0.000000
O O14 0.250000 0.250000 0.000000
O O15 0.000000 0.836381 0.000000
#
# Coordination Sequence:
#
# PCOD9218933 Si02
#       6
#     8   8   8   8   8   8
#     4  11  23  40  66  93 123 158 204 265 310 349
#     4  12  22  37  59  89 121 161 199 246 304 360
#     4  11  18  39  65  89 118 162 207 249 299 365
#     4  11  21  35  59  92 125 154 192 250 316 367
#     4  11  23  39  62  90 123 164 209 246 300 376
#     4  11  20  39  64  89 117 157 215 250 289 367
#
# _framework density 18.206277
#
# number of rings (size 3 to 8) (size 9 to 14) (size 15 to 20)
#    0.000    0.833    6.667    2.500    2.333    2.667 
#    0.000    3.333    0.000    0.500    0.000    0.000 
#    0.000    0.000    0.000    0.000    0.000    0.000 
#
# Total GULP energy -134060.291363 kJ/mol
# GULP energy per Si atom -5585.845473 kJ/mol
# Density = 1.816484 g / cm^3
# Si number density = 18.206277 Si / 1000 Ang^3
#
#
#
# Elastic Constant Matrix: (Units=GPa)
#
#
# Indices 1 2 3 4 5 6 
#
# 1 101.1363 22.1333 26.9604 0.0000 -0.5943 0.0000
# 2 22.1333 89.5218 32.7523 0.0000 5.6185 0.0000
# 3 26.9604 32.7523 105.4106 0.0000 -8.5306 0.0000
# 4 0.0000 0.0000 0.0000 13.0240 0.0000 -4.5379
# 5 -0.5943 5.6185 -8.5306 0.0000 38.5213 0.0000
# 6 0.0000 0.0000 0.0000 -4.5379 0.0000 16.9985
#
#
#
# Elastic Compliance Matrix: (Units=1/GPa)
#
#
# Indices 1 2 3 4 5 6 
#
# 1 0.010887 -0.001883 -0.002203 0.000000 -0.000045 0.000000
# 2 -0.001883 0.013223 -0.003854 0.000000 -0.002811 0.000000
# 3 -0.002203 -0.003854 0.011497 0.000000 0.003074 0.000000
# 4 0.000000 0.000000 0.000000 0.084655 0.000000 0.022599
# 5 -0.000045 -0.002811 0.003074 0.000000 0.027050 0.000000
# 6 0.000000 0.000000 0.000000 0.022599 0.000000 0.064862
#
#
# Mechanical properties :
#
#
# Convention : Reuss Voigt Hill
#
# Bulk Modulus (GPa) = 50.69616 51.08454 50.89035
# Shear Modulus (GPa) = 21.31033 27.99029 24.65031
#
# Velocity S-wave (km/s) = 3.42496 3.92522 3.68359
# Velocity P-wave (km/s) = 6.59896 6.97587 6.79003
#
# Compressibility (1/GPa) = 0.01972536
#
# Stress axis : x y z
#
# Youngs Moduli (GPa) = 91.85509 75.62846 86.98242
#
# Poissons Ratio (x) = 0.14239 0.19163
# Poissons Ratio (y) = 0.17294 0.33526
# Poissons Ratio (z) = 0.20237 0.29150
#
# Static dielectric constant tensor:
#      x y z
#    x 1.643430 0.000000 -0.007320 
#    y 0.000000 1.615150 0.000000 
#    z -0.007320 0.000000 1.636740 
# 
# From -- ./inp_files/74554.got.cif
#   From: 2010.05.17/outbox.cif.g08.bks.cpg/sg12_38_cif.got.tgz:74554.got - 2010.06.03 13:09:07.
