data_PCOD9218937
_publ_section_title
;
Structure prediction by ZEFSAII (Michael W. Deem and Ramdas Pophale) SiO2 
 PCOD9218937
Probable space group: C 2/M
;
_chemical_formula_sum "Si O2"
_cell_formula_units_Z 64
_cell_length_a 14.092701
_cell_length_b 29.252220
_cell_length_c 9.470047
_cell_angle_alpha 90.000000
_cell_angle_beta 47.203507
_cell_angle_gamma 90.000000
_cell_volume 2864.613364
_symmetry_space_group_name_H-M "C 2/M"
_symmetry_group_IT_number 12
_symmetry_cell_setting 'monoclinic'
loop_
_space_group_symop_operation_xyz
x,y,z
-x,y,-z
-x,-y,-z
x,-y,z
1/2+x,1/2+y,z
1/2-x,1/2+y,-z
1/2-x,1/2-y,-z
1/2+x,1/2-y,z
loop_
_atom_site_type_symbol
_atom_site_label
_atom_site_fract_x
_atom_site_fract_y
_atom_site_fract_z
Si Si1 0.164517 0.687456 0.592968
Si Si2 0.261051 0.154348 0.925864
Si Si3 0.654448 0.128171 0.850538
Si Si4 0.877750 0.400565 0.546752
Si Si5 0.064348 0.198319 0.782923
Si Si6 0.434561 0.759685 0.721565
Si Si7 0.285446 0.447117 0.525460
Si Si8 0.995596 0.099144 0.160765
O O1 0.203483 0.671528 0.708765
O O2 0.107147 0.641315 0.579384
O O3 0.285031 0.711436 0.392513
O O4 0.038637 0.718502 0.724472
O O5 0.327097 0.128617 0.729351
O O6 0.306829 0.208295 0.856789
O O7 0.314837 0.139640 0.021346
O O8 0.125885 0.126497 0.058147
O O9 0.725912 0.084807 0.708005
O O10 0.500000 0.122602 0.000000
O O11 0.790470 0.435290 0.544907
O O12 0.000000 0.423926 0.500000
O O13 0.958982 0.209324 0.764202
O O14 0.095949 0.143674 0.754800
O O15 0.000000 0.209259 0.000000
O O16 0.500000 0.761765 0.500000
O O17 0.272853 0.500000 0.572302
O O18 0.433414 0.433222 0.339901
O O19 0.000000 0.077543 0.000000
#
# Coordination Sequence:
#
# PCOD9218937 Si02
#       8
#     8   8   8   8   8   8   8   8
#     4  11  20  44  66  94 136 190 232 282 357 421
#     4  12  22  40  70  99 133 186 244 281 353 417
#     4  11  23  42  73 101 141 187 229 289 364 441
#     4  11  18  40  73  99 134 180 233 288 358 425
#     4  11  25  42  64  95 141 189 234 291 359 417
#     4  12  25  40  65 103 139 181 248 303 335 418
#     4  11  25  47  75 106 140 183 236 298 367 441
#     4  11  23  46  71  95 139 190 235 294 356 430
#
# _framework density 22.341584000000001
#
# number of rings (size 3 to 8) (size 9 to 14) (size 15 to 20)
#    0.000    0.750    7.500    1.875    1.750    2.750 
#    0.000    1.875    0.000    0.000    0.000    0.000 
#    0.000    0.000    0.000    0.000    0.000    0.000 
#
# Total GULP energy -178147.309126 kJ/mol
# GULP energy per Si atom -5567.103410 kJ/mol
# Density = 2.229073 g / cm^3
# Si number density = 22.341584 Si / 1000 Ang^3
#
#
#
# Elastic Constant Matrix: (Units=GPa)
#
#
# Indices 1 2 3 4 5 6 
#
# 1 64.6806 -0.7223 16.4487 0.0000 11.2022 0.0000
# 2 -0.7223 39.8109 25.4913 0.0000 12.8373 0.0000
# 3 16.4487 25.4913 95.8713 0.0000 14.8353 0.0000
# 4 0.0000 0.0000 0.0000 14.9021 0.0000 -2.1346
# 5 11.2022 12.8373 14.8353 0.0000 44.6617 0.0000
# 6 0.0000 0.0000 0.0000 -2.1346 0.0000 10.9176
#
#
#
# Elastic Compliance Matrix: (Units=1/GPa)
#
#
# Indices 1 2 3 4 5 6 
#
# 1 0.017078 0.003788 -0.003274 0.000000 -0.004285 0.000000
# 2 0.003788 0.032926 -0.008215 0.000000 -0.007685 0.000000
# 3 -0.003274 -0.008215 0.013372 0.000000 -0.001259 0.000000
# 4 0.000000 0.000000 0.000000 0.069038 0.000000 0.013498
# 5 -0.004285 -0.007685 -0.001259 0.000000 0.026092 0.000000
# 6 0.000000 0.000000 0.000000 0.013498 0.000000 0.094235
#
#
# Mechanical properties :
#
#
# Convention : Reuss Voigt Hill
#
# Bulk Modulus (GPa) = 20.84550 31.42203 26.13377
# Shear Modulus (GPa) = 17.59730 24.70595 21.15163
#
# Velocity S-wave (km/s) = 2.80955 3.32901 3.08025
# Velocity P-wave (km/s) = 4.45818 5.37320 4.93694
#
# Compressibility (1/GPa) = 0.04797197
#
# Stress axis : x y z
#
# Youngs Moduli (GPa) = 58.55618 30.37113 74.78519
#
# Poissons Ratio (x) = -0.11504 0.24486
# Poissons Ratio (y) = -0.22181 0.61439
# Poissons Ratio (z) = 0.19172 0.24951
#
# Static dielectric constant tensor:
#      x y z
#    x 1.943850 0.000000 -0.095340 
#    y 0.000000 2.018600 0.000000 
#    z -0.095340 0.000000 1.961250 
# 
# From -- ./inp_files/68611.got.cif
#   From: 2010.05.17/outbox.cif.g08.bks.cpg/sg12_35_cif.got.tgz:68611.got - 2010.06.03 13:09:07.
