data_PCOD9218358
_publ_section_title
;
Structure prediction by ZEFSAII (Michael W. Deem and Ramdas Pophale) SiO2 
 PCOD9218358
Probable space group: C 2/M
;
_chemical_formula_sum "Si O2"
_cell_formula_units_Z 46
_cell_length_a 9.493180
_cell_length_b 15.766129
_cell_length_c 12.089481
_cell_angle_alpha 90.000000
_cell_angle_beta 102.665929
_cell_angle_gamma 90.000000
_cell_volume 1765.408528
_symmetry_space_group_name_H-M "C 2/M"
_symmetry_group_IT_number 12
_symmetry_cell_setting 'monoclinic'
loop_
_space_group_symop_operation_xyz
x,y,z
-x,y,-z
-x,-y,-z
x,-y,z
1/2+x,1/2+y,z
1/2-x,1/2+y,-z
1/2-x,1/2-y,-z
1/2+x,1/2-y,z
loop_
_atom_site_type_symbol
_atom_site_label
_atom_site_fract_x
_atom_site_fract_y
_atom_site_fract_z
Si Si1 0.684133 0.652377 0.614125
Si Si2 0.564186 0.329787 0.166802
Si Si3 0.075248 0.500000 0.723298
Si Si4 0.691991 0.842787 0.610800
Si Si5 0.500000 0.500000 0.500000
Si Si6 0.931482 0.360828 0.841150
Si Si7 0.206991 0.903196 0.982238
O O1 0.624896 0.748720 0.617394
O O2 0.766258 0.649702 0.510111
O O3 0.573289 0.575504 0.589050
O O4 0.801010 0.637526 0.728954
O O5 0.661043 0.344258 0.290877
O O6 0.509846 0.234002 0.151352
O O7 0.667775 0.344829 0.079207
O O8 0.427525 0.389657 0.125256
O O9 0.104890 0.423886 0.637255
O O10 0.042572 0.427202 0.812237
O O11 0.148125 0.382290 0.058181
O O12 0.202161 0.000000 0.019583
#
# Coordination Sequence:
#
# PCOD9218358 Si02
#       7
#     8   8   4   8   2   8   8
#     4  10  25  44  70 108 139 190 233 298 361 432
#     4  10  24  44  72  98 141 191 243 304 369 433
#     4  12  26  45  73 106 148 200 235 305 368 442
#     4  10  25  46  68 104 147 189 241 289 365 446
#     4  12  24  40  76 108 138 178 242 292 346 424
#     4  11  25  45  68 105 145 188 238 302 373 436
#     4  11  24  46  73 102 139 194 250 315 363 436
#
# _framework density 26.056293
#
# number of rings (size 3 to 8) (size 9 to 14) (size 15 to 20)
#    0.000    1.391    0.870    2.609    9.739    4.174 
#    0.000    0.870    0.000    0.000    0.000    0.000 
#    0.000    0.000    0.000    0.000    0.000    0.000 
#
# Total GULP energy -128304.180994 kJ/mol
# GULP energy per Si atom -5578.442652 kJ/mol
# Density = 2.599699 g / cm^3
# Si number density = 26.056293 Si / 1000 Ang^3
#
#
#
# Elastic Constant Matrix: (Units=GPa)
#
#
# Indices 1 2 3 4 5 6 
#
# 1 94.2674 56.2356 44.0370 0.0000 -20.4767 0.0000
# 2 56.2356 243.0303 42.3194 0.0000 -10.0113 0.0000
# 3 44.0370 42.3194 109.1268 0.0000 -13.9366 0.0000
# 4 0.0000 0.0000 0.0000 16.6898 0.0000 -24.9727
# 5 -20.4767 -10.0113 -13.9366 0.0000 61.9123 0.0000
# 6 0.0000 0.0000 0.0000 -24.9727 0.0000 22.0625
#
#
#
# Elastic Compliance Matrix: (Units=1/GPa)
#
#
# Indices 1 2 3 4 5 6 
#
# 1 0.015051 -0.002529 -0.004643 0.000000 0.003524 0.000000
# 2 -0.002529 0.004845 -0.000891 0.000000 -0.000254 0.000000
# 3 -0.004643 -0.000891 0.011499 0.000000 0.000909 0.000000
# 4 0.000000 0.000000 0.000000 -0.086378 0.000000 -0.097772
# 5 0.003524 -0.000254 0.000909 0.000000 0.017481 0.000000
# 6 0.000000 0.000000 0.000000 -0.097772 0.000000 -0.065343
#
#
# Mechanical properties :
#
#
# Convention : Reuss Voigt Hill
#
# Bulk Modulus (GPa) = 65.49064 81.28984 73.39024
# Shear Modulus (GPa) = -61.25119 40.38840 -10.43140
#
# Velocity S-wave (km/s) = -4.85369 3.94133 -2.00302
# Velocity P-wave (km/s) = 2.49443 7.20955 4.78306
#
# Compressibility (1/GPa) = 0.01526936
#
# Stress axis : x y z
#
# Youngs Moduli (GPa) = 66.43942 206.41727 86.96653
#
# Poissons Ratio (x) = 0.52205 0.40378
# Poissons Ratio (y) = 0.16803 0.07744
# Poissons Ratio (z) = 0.30848 0.18381
#
# Static dielectric constant tensor:
#      x y z
#    x 2.081190 0.000000 0.059760 
#    y 0.000000 1.931250 0.000000 
#    z 0.059760 0.000000 2.064730 
# 
# From -- ./inp_files/205160.got.cif
#   From: 2010.05.17/outbox.cif.g08.bks.cpg/sg12_103_cif.got.tgz:205160.got - 2010.06.03 13:09:07.
