data_PCOD9218097
_publ_section_title
;
Structure prediction by ZEFSAII (Michael W. Deem and Ramdas Pophale) SiO2 
 PCOD9218097
Probable space group: C 2/M
;
_chemical_formula_sum "Si O2"
_cell_formula_units_Z 30
_cell_length_a 5.047566
_cell_length_b 12.181140
_cell_length_c 22.844224
_cell_angle_alpha 90.000000
_cell_angle_beta 91.068532
_cell_angle_gamma 90.000000
_cell_volume 1404.335333
_symmetry_space_group_name_H-M "C 2/M"
_symmetry_group_IT_number 12
_symmetry_cell_setting 'monoclinic'
loop_
_space_group_symop_operation_xyz
x,y,z
-x,y,-z
-x,-y,-z
x,-y,z
1/2+x,1/2+y,z
1/2-x,1/2+y,-z
1/2-x,1/2-y,-z
1/2+x,1/2-y,z
loop_
_atom_site_type_symbol
_atom_site_label
_atom_site_fract_x
_atom_site_fract_y
_atom_site_fract_z
Si Si1 0.753268 0.500000 0.542146
Si Si2 0.500000 0.500000 0.000000
Si Si3 0.175240 0.321366 0.358230
Si Si4 0.215261 0.500000 0.816278
Si Si5 0.731858 0.176891 0.915783
Si Si6 0.791410 0.000000 0.261418
O O1 0.500000 0.500000 0.500000
O O2 0.763305 0.395204 0.584939
O O3 0.000000 0.500000 0.500000
O O4 0.682708 0.595649 0.032400
O O5 0.373107 0.218362 0.358184
O O6 0.234855 0.395007 0.301763
O O7 0.266916 0.606266 0.856643
O O8 0.413122 0.500000 0.762393
O O9 0.914380 0.500000 0.792907
O O10 0.433629 0.220972 0.917290
#
# Coordination Sequence:
#
# PCOD9218097 Si02
#       6
#     4   2   8   4   8   4
#     4  11  24  41  62  91 124 156 200 251 296 355
#     4  10  24  42  64  90 124 160 200 250 300 360
#     4  11  24  41  63  90 121 161 202 244 301 358
#     4  11  24  40  62  91 122 157 202 251 298 355
#     4  11  24  41  63  91 122 159 202 247 302 359
#     4  11  24  42  62  90 124 158 202 251 296 355
#
# _framework density 21.36242
#
# number of rings (size 3 to 8) (size 9 to 14) (size 15 to 20)
#    0.000    1.067    0.000    5.600    0.000   18.133 
#    0.000    0.000    0.000    0.000    0.000    0.000 
#    0.000    0.000    0.000    0.000    0.000    0.000 
#
# Total GULP energy -83745.564058 kJ/mol
# GULP energy per Si atom -5583.037604 kJ/mol
# Density = 2.131380 g / cm^3
# Si number density = 21.362420 Si / 1000 Ang^3
#
#
#
# Elastic Constant Matrix: (Units=GPa)
#
#
# Indices 1 2 3 4 5 6 
#
# 1 67.6784 -11.0417 4.2015 0.0000 -0.2952 0.0000
# 2 -11.0417 67.8070 29.9618 0.0000 0.0799 0.0000
# 3 4.2015 29.9618 70.0559 0.0000 8.4766 0.0000
# 4 0.0000 0.0000 0.0000 0.6511 0.0000 0.2368
# 5 -0.2952 0.0799 8.4766 0.0000 42.9592 0.0000
# 6 0.0000 0.0000 0.0000 0.2368 0.0000 11.6582
#
#
#
# Elastic Compliance Matrix: (Units=1/GPa)
#
#
# Indices 1 2 3 4 5 6 
#
# 1 0.015536 0.003666 -0.002573 0.000000 0.000608 0.000000
# 2 0.003666 0.019149 -0.008614 0.000000 0.001689 0.000000
# 3 -0.002573 -0.008614 0.018556 0.000000 -0.003663 0.000000
# 4 0.000000 0.000000 0.000000 1.547253 0.000000 -0.031427
# 5 0.000608 0.001689 -0.003663 0.000000 0.024002 0.000000
# 6 0.000000 0.000000 0.000000 -0.031427 0.000000 0.086415
#
#
# Mechanical properties :
#
#
# Convention : Reuss Voigt Hill
#
# Bulk Modulus (GPa) = 26.17855 27.97606 27.07730
# Shear Modulus (GPa) = 2.87573 23.21500 13.04537
#
# Velocity S-wave (km/s) = 1.16150 3.30012 2.47385
# Velocity P-wave (km/s) = 3.75232 5.25789 4.56757
#
# Compressibility (1/GPa) = 0.03819921
#
# Stress axis : x y z
#
# Youngs Moduli (GPa) = 64.36530 52.22193 53.89101
#
# Poissons Ratio (x) = -0.19146 0.13868
# Poissons Ratio (y) = -0.23598 0.46422
# Poissons Ratio (z) = 0.16563 0.44984
#
# Static dielectric constant tensor:
#      x y z
#    x 1.700290 0.000000 -0.013700 
#    y 0.000000 1.746130 0.000000 
#    z -0.013700 0.000000 1.750650 
# 
# From -- ./inp_files/297292.got.cif
#   From: 2010.05.17/outbox.cif.g08.bks.cpg/sg12_149_cif.got.tgz:297292.got - 2010.06.03 13:09:07.
