data_PCOD9218793
_publ_section_title
;
Structure prediction by ZEFSAII (Michael W. Deem and Ramdas Pophale) SiO2 
 PCOD9218793
Probable space group: C 2/M
;
_chemical_formula_sum "Si O2"
_cell_formula_units_Z 56
_cell_length_a 16.116716
_cell_length_b 17.258052
_cell_length_c 14.884906
_cell_angle_alpha 90.000000
_cell_angle_beta 142.583316
_cell_angle_gamma 90.000000
_cell_volume 2515.575124
_symmetry_space_group_name_H-M "C 2/M"
_symmetry_group_IT_number 12
_symmetry_cell_setting 'monoclinic'
loop_
_space_group_symop_operation_xyz
x,y,z
-x,y,-z
-x,-y,-z
x,-y,z
1/2+x,1/2+y,z
1/2-x,1/2+y,-z
1/2-x,1/2-y,-z
1/2+x,1/2-y,z
loop_
_atom_site_type_symbol
_atom_site_label
_atom_site_fract_x
_atom_site_fract_y
_atom_site_fract_z
Si Si1 0.000000 0.370905 0.500000
Si Si2 0.301544 0.586992 0.772058
Si Si3 0.292302 0.694754 0.932465
Si Si4 0.526519 0.807581 0.327874
Si Si5 0.303801 0.873329 0.880688
Si Si6 0.045769 0.855241 0.269846
Si Si7 0.571756 0.500000 0.733935
Si Si8 0.092099 0.589494 0.219529
O O1 0.862316 0.417422 0.365561
O O2 0.034452 0.322921 0.440389
O O3 0.357810 0.500000 0.827658
O O4 0.333665 0.641913 0.883380
O O5 0.354164 0.626117 0.726437
O O6 0.136941 0.680747 0.829564
O O7 0.294993 0.784306 0.905018
O O8 0.399899 0.668582 0.099591
O O9 0.580029 0.721966 0.353397
O O10 0.597168 0.865738 0.318232
O O11 0.180723 0.931060 0.797004
O O12 0.322134 0.873797 0.788402
O O13 0.438366 0.905908 0.046605
O O14 0.029623 0.931471 0.314689
O O15 0.130407 0.500000 0.263830
#
# Coordination Sequence:
#
# PCOD9218793 Si02
#       8
#     4   8   8   8   8   8   4   8
#     4  10  27  50  70  89 124 178 234 289 318 384
#     4  11  25  44  66  95 132 177 226 276 330 389
#     4  11  23  37  63  98 141 174 210 265 335 405
#     4  11  23  42  67  97 129 176 224 274 328 390
#     4  11  20  38  56  94 140 177 204 258 323 397
#     4  12  23  39  65 102 136 172 214 269 342 405
#     4  12  22  35  63  92 138 168 206 263 321 403
#     4  11  21  33  58  93 128 173 221 254 315 386
#
# _framework density 22.261310999999999
#
# number of rings (size 3 to 8) (size 9 to 14) (size 15 to 20)
#    0.000    0.857    5.000    3.214    3.000    4.000 
#    0.000    0.000    0.000    0.429    0.000    0.000 
#    0.000    0.000    0.000    0.000    0.000    0.000 
#
# Total GULP energy -156046.922493 kJ/mol
# GULP energy per Si atom -5573.104375 kJ/mol
# Density = 2.221064 g / cm^3
# Si number density = 22.261311 Si / 1000 Ang^3
#
#
#
# Elastic Constant Matrix: (Units=GPa)
#
#
# Indices 1 2 3 4 5 6 
#
# 1 115.9257 46.3329 13.1934 0.0001 -25.4346 0.0000
# 2 46.3329 161.7798 17.2781 0.0000 -29.6773 0.0000
# 3 13.1934 17.2781 37.0312 0.0001 -12.5022 0.0000
# 4 0.0001 0.0000 0.0001 13.0502 0.0001 -13.3291
# 5 -25.4346 -29.6773 -12.5022 0.0001 37.9573 0.0000
# 6 0.0000 0.0000 0.0000 -13.3291 0.0000 51.8336
#
#
#
# Elastic Compliance Matrix: (Units=1/GPa)
#
#
# Indices 1 2 3 4 5 6 
#
# 1 0.010697 -0.001981 -0.001114 0.000000 0.005252 0.000000
# 2 -0.001981 0.007673 -0.001459 0.000000 0.004191 0.000000
# 3 -0.001114 -0.001459 0.030878 0.000000 0.008283 0.000000
# 4 0.000000 0.000000 0.000000 0.103923 0.000000 0.026724
# 5 0.005252 0.004191 0.008283 0.000000 0.035870 0.000000
# 6 0.000000 0.000000 0.000000 0.026724 0.000000 0.026165
#
#
# Mechanical properties :
#
#
# Convention : Reuss Voigt Hill
#
# Bulk Modulus (GPa) = 24.91238 52.03838 38.47538
# Shear Modulus (GPa) = 21.03539 36.43037 28.73288
#
# Velocity S-wave (km/s) = 3.07731 4.04974 3.59654
# Velocity P-wave (km/s) = 4.88279 6.73009 5.87944
#
# Compressibility (1/GPa) = 0.04014068
#
# Stress axis : x y z
#
# Youngs Moduli (GPa) = 93.48289 130.32095 32.38507
#
# Poissons Ratio (x) = 0.25819 0.03606
# Poissons Ratio (y) = 0.18521 0.04726
# Poissons Ratio (z) = 0.10410 0.19019
#
# Static dielectric constant tensor:
#      x y z
#    x 1.813200 0.000000 0.004920 
#    y 0.000000 1.772220 0.000000 
#    z 0.004920 0.000000 1.931610 
# 
# From -- ./inp_files/216457.got.cif
#   From: 2010.05.17/outbox.cif.g08.bks.cpg/sg12_109_cif.got.tgz:216457.got - 2010.06.03 13:09:07.
