data_PCOD9218170
_publ_section_title
;
Structure prediction by ZEFSAII (Michael W. Deem and Ramdas Pophale) SiO2 
 PCOD9218170
Probable space group: C 2/M
;
_chemical_formula_sum "Si O2"
_cell_formula_units_Z 56
_cell_length_a 22.381178
_cell_length_b 19.192690
_cell_length_c 19.275769
_cell_angle_alpha 90.000000
_cell_angle_beta 17.590920
_cell_angle_gamma 90.000000
_cell_volume 2502.372863
_symmetry_space_group_name_H-M "C 2/M"
_symmetry_group_IT_number 12
_symmetry_cell_setting 'monoclinic'
loop_
_space_group_symop_operation_xyz
x,y,z
-x,y,-z
-x,-y,-z
x,-y,z
1/2+x,1/2+y,z
1/2-x,1/2+y,-z
1/2-x,1/2-y,-z
1/2+x,1/2-y,z
loop_
_atom_site_type_symbol
_atom_site_label
_atom_site_fract_x
_atom_site_fract_y
_atom_site_fract_z
Si Si1 0.730252 0.079757 0.105923
Si Si2 0.346321 0.780800 0.032184
Si Si3 0.383039 0.884411 0.190948
Si Si4 0.956252 0.315127 0.323731
Si Si5 0.884019 0.758099 0.535782
Si Si6 0.826607 0.922099 0.440658
Si Si7 0.165494 0.149043 0.868224
O O1 0.586648 0.134502 0.228150
O O2 0.756168 0.098470 0.158735
O O3 0.661906 0.000000 0.174428
O O4 0.942744 0.085708 0.832499
O O5 0.423293 0.714112 0.989646
O O6 0.109957 0.778393 0.300277
O O7 0.447769 0.849924 0.948620
O O8 0.410364 0.778346 0.881694
O O9 0.262651 0.821527 0.287434
O O10 0.231958 0.918073 0.413020
O O11 0.500000 0.922862 0.000000
O O12 0.866822 0.257572 0.473228
O O13 0.793152 0.362895 0.467401
O O14 0.822632 0.688676 0.645270
O O15 0.767993 0.000000 0.481327
O O16 0.000000 0.118604 0.000000
#
# Coordination Sequence:
#
# PCOD9218170 Si02
#       7
#     8   8   8   8   8   8   8
#     4  11  25  45  64  86 122 168 213 252 293 361
#     4  11  22  37  60  93 125 156 195 251 309 361
#     4  11  23  37  60  94 123 157 197 248 309 372
#     4  11  24  38  67  93 118 161 207 254 305 363
#     4  12  22  37  61  92 129 157 191 252 315 361
#     4  10  24  43  62  85 120 162 208 254 299 358
#     4  12  23  40  61  91 130 161 200 253 306 367
#
# _framework density 22.378758999999999
#
# number of rings (size 3 to 8) (size 9 to 14) (size 15 to 20)
#    0.000    0.857    4.286    3.000    2.000    1.714 
#    0.000    2.143    0.000    0.000    0.000    8.000 
#    0.000    0.000    0.000    0.000    0.000    0.000 
#
# Total GULP energy -156645.879578 kJ/mol
# GULP energy per Si atom -5594.495699 kJ/mol
# Density = 2.232782 g / cm^3
# Si number density = 22.378759 Si / 1000 Ang^3
#
#
#
# Elastic Constant Matrix: (Units=GPa)
#
#
# Indices 1 2 3 4 5 6 
#
# 1 97.2492 7.9100 26.9312 0.0409 21.3574 -0.0131
# 2 7.9100 57.1569 15.7849 0.0362 5.7257 -0.0117
# 3 26.9312 15.7849 109.1965 0.0258 18.1070 -0.0242
# 4 0.0409 0.0362 0.0258 11.2646 -0.0340 -2.2075
# 5 21.3574 5.7257 18.1070 -0.0340 43.6175 0.0131
# 6 -0.0131 -0.0117 -0.0242 -2.2075 0.0131 13.0739
#
#
#
# Elastic Compliance Matrix: (Units=1/GPa)
#
#
# Indices 1 2 3 4 5 6 
#
# 1 0.011984 -0.000597 -0.002050 -0.000051 -0.004938 0.000004
# 2 -0.000597 0.018332 -0.002311 -0.000054 -0.001155 0.000004
# 3 -0.002050 -0.002311 0.010504 -0.000015 -0.003053 0.000016
# 4 -0.000051 -0.000054 -0.000015 0.091813 0.000105 0.015502
# 5 -0.004938 -0.001155 -0.003053 0.000105 0.026764 -0.000021
# 6 0.000004 0.000004 0.000016 0.015502 -0.000021 0.079106
#
#
# Mechanical properties :
#
#
# Convention : Reuss Voigt Hill
#
# Bulk Modulus (GPa) = 32.36037 40.53943 36.44990
# Shear Modulus (GPa) = 19.32585 27.78963 23.55774
#
# Velocity S-wave (km/s) = 2.94186 3.52772 3.24803
# Velocity P-wave (km/s) = 5.10207 5.89471 5.51265
#
# Compressibility (1/GPa) = 0.03090199
#
# Stress axis : x y z
#
# Youngs Moduli (GPa) = 83.44591 54.54834 95.20316
#
# Poissons Ratio (x) = 0.03259 0.19520
# Poissons Ratio (y) = 0.04986 0.22004
# Poissons Ratio (z) = 0.17109 0.12607
#
# Static dielectric constant tensor:
#      x y z
#    x 1.865730 -0.000020 0.016980 
#    y -0.000020 1.807700 0.000020 
#    z 0.016980 0.000020 1.833900 
# 
# From -- ./inp_files/285995.got.cif
#   From: 2010.05.17/outbox.cif.g08.bks.cpg/sg12_143_cif.got.tgz:285995.got - 2010.06.03 13:09:07.
