data_PCOD9218345
_publ_section_title
;
Structure prediction by ZEFSAII (Michael W. Deem and Ramdas Pophale) SiO2 
 PCOD9218345
Probable space group: C 2/M
;
_chemical_formula_sum "Si O2"
_cell_formula_units_Z 16
_cell_length_a 5.319204
_cell_length_b 20.226044
_cell_length_c 5.584254
_cell_angle_alpha 90.000000
_cell_angle_beta 86.114919
_cell_angle_gamma 90.000000
_cell_volume 599.409444
_symmetry_space_group_name_H-M "C 2/M"
_symmetry_group_IT_number 12
_symmetry_cell_setting 'monoclinic'
loop_
_space_group_symop_operation_xyz
x,y,z
-x,y,-z
-x,-y,-z
x,-y,z
1/2+x,1/2+y,z
1/2-x,1/2+y,-z
1/2-x,1/2-y,-z
1/2+x,1/2-y,z
loop_
_atom_site_type_symbol
_atom_site_label
_atom_site_fract_x
_atom_site_fract_y
_atom_site_fract_z
Si Si1 0.256452 0.324137 0.391156
Si Si2 0.235290 0.500000 0.668182
Si Si3 0.500000 0.113525 0.000000
O O1 0.500000 0.353564 0.500000
O O2 0.250000 0.250000 0.500000
O O3 0.201347 0.336830 0.117564
O O4 0.000000 0.356058 0.500000
O O5 0.500000 0.500000 0.500000
O O6 0.000000 0.500000 0.500000
O O7 0.183051 0.562764 0.845541
#
# Coordination Sequence:
#
# PCOD9218345 Si02
#       3
#     8   4   4
#     4  10  24  44  71 113 155 197 255 308 378 477
#     4  11  28  51  75 112 151 201 272 323 377 460
#     4  11  26  48  82 110 156 211 248 324 400 443
#
# _framework density 26.692938999999999
#
# number of rings (size 3 to 8) (size 9 to 14) (size 15 to 20)
#    0.000    1.500    0.000    1.500    0.000   26.000 
#    0.000    3.750    0.000    3.000    0.000    0.000 
#    0.000    0.000    0.000    0.000    0.000    0.000 
#
# Total GULP energy -44553.267201 kJ/mol
# GULP energy per Si atom -5569.158400 kJ/mol
# Density = 2.663218 g / cm^3
# Si number density = 26.692939 Si / 1000 Ang^3
#
#
#
# Elastic Constant Matrix: (Units=GPa)
#
#
# Indices 1 2 3 4 5 6 
#
# 1 293.2741 38.2478 83.7997 0.0000 25.1157 0.0000
# 2 38.2478 214.6669 97.3419 0.0000 19.3903 0.0000
# 3 83.7997 97.3419 122.0949 0.0000 30.9896 0.0000
# 4 0.0000 0.0000 0.0000 72.9205 0.0000 13.7509
# 5 25.1157 19.3903 30.9896 0.0000 82.8109 0.0000
# 6 0.0000 0.0000 0.0000 13.7509 0.0000 12.2147
#
#
#
# Elastic Compliance Matrix: (Units=1/GPa)
#
#
# Indices 1 2 3 4 5 6 
#
# 1 0.004353 0.000901 -0.003666 0.000000 -0.000159 0.000000
# 2 0.000901 0.007503 -0.006723 0.000000 0.000486 0.000000
# 3 -0.003666 -0.006723 0.017000 0.000000 -0.003676 0.000000
# 4 0.000000 0.000000 0.000000 0.017409 0.000000 -0.019599
# 5 -0.000159 0.000486 -0.003676 0.000000 0.013386 0.000000
# 6 0.000000 0.000000 0.000000 -0.019599 0.000000 0.103932
#
#
# Mechanical properties :
#
#
# Convention : Reuss Voigt Hill
#
# Bulk Modulus (GPa) = 101.22166 118.75720 109.98943
# Shear Modulus (GPa) = 26.90310 60.96566 43.93438
#
# Velocity S-wave (km/s) = 3.17815 4.78427 4.06139
# Velocity P-wave (km/s) = 7.17430 8.66635 7.95538
#
# Compressibility (1/GPa) = 0.00987931
#
# Stress axis : x y z
#
# Youngs Moduli (GPa) = 229.70571 133.28503 58.82475
#
# Poissons Ratio (x) = -0.12010 0.21564
# Poissons Ratio (y) = -0.20697 0.39550
# Poissons Ratio (z) = 0.84206 0.89613
#
# Static dielectric constant tensor:
#      x y z
#    x 2.301830 0.000000 0.402840 
#    y 0.000000 3.244120 0.000000 
#    z 0.402840 0.000000 3.798770 
# 
# From -- ./inp_files/602.got.cif
#   From: 2010.05.17/outbox.cif.g08.bks.cpg/sg12_1_cif.got.tgz:602.got - 2010.06.03 13:09:07.
