data_PCOD9218885
_publ_section_title
;
Structure prediction by ZEFSAII (Michael W. Deem and Ramdas Pophale) SiO2 
 PCOD9218885
Probable space group: C 2/M
;
_chemical_formula_sum "Si O2"
_cell_formula_units_Z 32
_cell_length_a 17.245600
_cell_length_b 14.791531
_cell_length_c 7.002685
_cell_angle_alpha 90.000000
_cell_angle_beta 127.537169
_cell_angle_gamma 90.000000
_cell_volume 1416.466649
_symmetry_space_group_name_H-M "C 2/M"
_symmetry_group_IT_number 12
_symmetry_cell_setting 'monoclinic'
loop_
_space_group_symop_operation_xyz
x,y,z
-x,y,-z
-x,-y,-z
x,-y,z
1/2+x,1/2+y,z
1/2-x,1/2+y,-z
1/2-x,1/2-y,-z
1/2+x,1/2-y,z
loop_
_atom_site_type_symbol
_atom_site_label
_atom_site_fract_x
_atom_site_fract_y
_atom_site_fract_z
Si Si1 0.927072 0.500000 0.513148
Si Si2 0.770703 0.653253 0.287999
Si Si3 0.627189 0.500000 0.007490
Si Si4 0.580584 0.000000 0.992730
Si Si5 0.254354 0.642965 0.295535
Si Si6 0.090164 0.000000 0.413434
O O1 0.869394 0.595024 0.420145
O O2 0.951825 0.500000 0.297390
O O3 0.949901 0.500000 0.804827
O O4 0.691168 0.589282 0.068170
O O5 0.749487 0.652835 0.481433
O O6 0.765442 0.757683 0.225675
O O7 0.608341 0.500000 0.209394
O O8 0.525578 0.500000 0.746436
O O9 0.655213 0.912589 0.099030
O O10 0.351879 0.584539 0.414095
#
# Coordination Sequence:
#
# PCOD9218885 Si02
#       6
#     4   8   4   4   8   4
#     4  11  22  36  53  75 111 145 173 213 262 319
#     4   9  17  31  48  76 102 132 170 214 262 299
#     4   8  14  25  40  63 102 129 154 197 253 310
#     4  11  18  34  53  79 103 137 179 216 261 306
#     4   9  17  29  51  76 104 125 169 227 254 302
#     4   8  14  25  40  68  98 124 153 203 263 294
#
# _framework density 22.591426999999999
#
# number of rings (size 3 to 8) (size 9 to 14) (size 15 to 20)
#    0.000    2.750    2.500    1.500    0.000    2.000 
#    4.500    1.250    0.000    0.000    0.000    8.750 
#    0.000    0.000    0.000    0.000    0.000    0.000 
#
# Total GULP energy -89200.098380 kJ/mol
# GULP energy per Si atom -5575.006149 kJ/mol
# Density = 2.254001 g / cm^3
# Si number density = 22.591427 Si / 1000 Ang^3
#
#
#
# Elastic Constant Matrix: (Units=GPa)
#
#
# Indices 1 2 3 4 5 6 
#
# 1 88.7723 79.4687 76.2729 0.0000 15.8794 0.0000
# 2 79.4687 274.3325 109.7957 0.0000 46.7125 0.0000
# 3 76.2729 109.7957 216.5168 0.0000 13.2556 0.0000
# 4 0.0000 0.0000 0.0000 1.2763 0.0000 -4.8832
# 5 15.8794 46.7125 13.2556 0.0000 57.0838 0.0000
# 6 0.0000 0.0000 0.0000 -4.8832 0.0000 8.0407
#
#
#
# Elastic Compliance Matrix: (Units=1/GPa)
#
#
# Indices 1 2 3 4 5 6 
#
# 1 0.018516 -0.003195 -0.004816 0.000000 -0.001418 0.000000
# 2 -0.003195 0.005808 -0.001606 0.000000 -0.003491 0.000000
# 3 -0.004816 -0.001606 0.007067 0.000000 0.001013 0.000000
# 4 0.000000 0.000000 0.000000 -0.591954 0.000000 -0.359501
# 5 -0.001418 -0.003491 0.001013 0.000000 0.020534 0.000000
# 6 0.000000 0.000000 0.000000 -0.359501 0.000000 -0.093963
#
#
# Mechanical properties :
#
#
# Convention : Reuss Voigt Hill
#
# Bulk Modulus (GPa) = 82.24900 123.41070 102.82985
# Shear Modulus (GPa) = -8.18725 34.21914 13.01594
#
# Velocity S-wave (km/s) = -1.90576 3.89613 2.40291
# Velocity P-wave (km/s) = 5.62527 8.65942 7.30169
#
# Compressibility (1/GPa) = 0.01215820
#
# Stress axis : x y z
#
# Youngs Moduli (GPa) = 54.00669 172.17888 141.49365
#
# Poissons Ratio (x) = 0.55009 0.68141
# Poissons Ratio (y) = 0.17255 0.22724
# Poissons Ratio (z) = 0.26009 0.27652
#
# Static dielectric constant tensor:
#      x y z
#    x 1.983890 0.000000 -0.182260 
#    y 0.000000 1.738910 0.000000 
#    z -0.182260 0.000000 1.960410 
# 
# From -- ./inp_files/57867.got.cif
#   From: 2010.05.17/outbox.cif.g08.bks.cpg/sg12_29_cif.got.tgz:57867.got - 2010.06.03 13:09:07.
