data_PCOD9218251
_publ_section_title
;
Structure prediction by ZEFSAII (Michael W. Deem and Ramdas Pophale) SiO2 
 PCOD9218251
Probable space group: C 2/M
;
_chemical_formula_sum "Si O2"
_cell_formula_units_Z 28
_cell_length_a 8.194867
_cell_length_b 14.650249
_cell_length_c 11.727578
_cell_angle_alpha 90.000000
_cell_angle_beta 120.113510
_cell_angle_gamma 90.000000
_cell_volume 1217.945888
_symmetry_space_group_name_H-M "C 2/M"
_symmetry_group_IT_number 12
_symmetry_cell_setting 'monoclinic'
loop_
_space_group_symop_operation_xyz
x,y,z
-x,y,-z
-x,-y,-z
x,-y,z
1/2+x,1/2+y,z
1/2-x,1/2+y,-z
1/2-x,1/2-y,-z
1/2+x,1/2-y,z
loop_
_atom_site_type_symbol
_atom_site_label
_atom_site_fract_x
_atom_site_fract_y
_atom_site_fract_z
Si Si1 0.324604 0.500000 0.680247
Si Si2 0.091953 0.500000 0.367104
Si Si3 0.572594 0.810326 0.403099
Si Si4 0.500000 0.798902 0.000000
Si Si5 0.907139 0.827972 0.182760
O O1 0.244704 0.500000 0.523934
O O2 0.452526 0.411663 0.747922
O O3 0.134138 0.500000 0.688529
O O4 0.118610 0.395522 0.336053
O O5 0.500000 0.847688 0.500000
O O6 0.750000 0.750000 0.500000
O O7 0.424072 0.742636 0.293867
O O8 0.308663 0.855089 0.915240
O O9 0.528965 0.731736 0.903045
#
# Coordination Sequence:
#
# PCOD9218251 Si02
#       5
#     4   4   8   4   8
#     4  11  20  38  64  92 126 159 211 249 314 372
#     4  11  20  38  60  99 124 163 198 248 319 392
#     4  12  21  38  65  93 126 157 199 257 315 366
#     4  10  24  44  62  86 126 172 218 246 306 350
#     4  11  23  42  65  92 125 169 207 260 298 374
#
# _framework density 22.989526999999999
#
# number of rings (size 3 to 8) (size 9 to 14) (size 15 to 20)
#    0.000    0.857    5.714    3.429    0.000    1.143 
#    0.000   12.857    0.000    0.000    0.000    0.000 
#    0.000    0.000    0.000    0.000    0.000    0.000 
#
# Total GULP energy -78174.119009 kJ/mol
# GULP energy per Si atom -5583.865644 kJ/mol
# Density = 2.293720 g / cm^3
# Si number density = 22.989527 Si / 1000 Ang^3
#
#
#
# Elastic Constant Matrix: (Units=GPa)
#
#
# Indices 1 2 3 4 5 6 
#
# 1 57.7966 17.6979 47.5466 0.0000 22.2267 0.0000
# 2 17.6979 145.8712 45.0110 0.0000 24.1061 0.0000
# 3 47.5466 45.0110 119.6949 0.0000 40.0841 0.0000
# 4 0.0000 0.0000 0.0000 33.5095 0.0000 19.7255
# 5 22.2267 24.1061 40.0841 0.0000 58.1396 0.0000
# 6 0.0000 0.0000 0.0000 19.7255 0.0000 31.8873
#
#
#
# Elastic Compliance Matrix: (Units=1/GPa)
#
#
# Indices 1 2 3 4 5 6 
#
# 1 0.026313 0.000301 -0.009303 0.000000 -0.003770 0.000000
# 2 0.000301 0.007870 -0.002533 0.000000 -0.001632 0.000000
# 3 -0.009303 -0.002533 0.014900 0.000000 -0.005666 0.000000
# 4 0.000000 0.000000 0.000000 0.046933 0.000000 -0.029033
# 5 -0.003770 -0.001632 -0.005666 0.000000 0.023225 0.000000
# 6 0.000000 0.000000 0.000000 -0.029033 0.000000 0.049320
#
#
# Mechanical properties :
#
#
# Convention : Reuss Voigt Hill
#
# Bulk Modulus (GPa) = 38.44050 60.43042 49.43546
# Shear Modulus (GPa) = 24.96257 38.91441 31.93849
#
# Velocity S-wave (km/s) = 3.29876 4.11871 3.73132
# Velocity P-wave (km/s) = 5.59162 6.99725 6.33355
#
# Compressibility (1/GPa) = 0.02601423
#
# Stress axis : x y z
#
# Youngs Moduli (GPa) = 38.00419 127.06469 67.11485
#
# Poissons Ratio (x) = -0.03828 0.62436
# Poissons Ratio (y) = -0.01145 0.16997
# Poissons Ratio (z) = 0.35355 0.32180
#
# Static dielectric constant tensor:
#      x y z
#    x 1.923740 0.000000 -0.037910 
#    y 0.000000 1.883620 0.000000 
#    z -0.037910 0.000000 1.846370 
# 
# From -- ./inp_files/194329.got.cif
#   From: 2010.05.17/outbox.cif.g08.bks.cpg/sg12_98_cif.got.tgz:194329.got - 2010.06.03 13:09:07.
