data_PCOD9218162
_publ_section_title
;
Structure prediction by ZEFSAII (Michael W. Deem and Ramdas Pophale) SiO2 
 PCOD9218162
Probable space group: C 2/M
;
_chemical_formula_sum "Si O2"
_cell_formula_units_Z 44
_cell_length_a 28.944700
_cell_length_b 9.175748
_cell_length_c 13.973338
_cell_angle_alpha 90.000000
_cell_angle_beta 29.444910
_cell_angle_gamma 90.000000
_cell_volume 1824.360364
_symmetry_space_group_name_H-M "C 2/M"
_symmetry_group_IT_number 12
_symmetry_cell_setting 'monoclinic'
loop_
_space_group_symop_operation_xyz
x,y,z
-x,y,-z
-x,-y,-z
x,-y,z
1/2+x,1/2+y,z
1/2-x,1/2+y,-z
1/2-x,1/2-y,-z
1/2+x,1/2-y,z
loop_
_atom_site_type_symbol
_atom_site_label
_atom_site_fract_x
_atom_site_fract_y
_atom_site_fract_z
Si Si1 0.272600 0.000000 0.419969
Si Si2 0.630413 0.325984 0.313309
Si Si3 0.783817 0.660812 0.680049
Si Si4 0.883573 0.254810 0.311961
Si Si5 0.574548 0.334094 0.044048
Si Si6 0.560676 0.174326 0.265374
O O1 0.189572 0.876287 0.562326
O O2 0.353249 0.874043 0.290818
O O3 0.623289 0.500000 0.315204
O O4 0.706001 0.282047 0.257040
O O5 0.637185 0.245299 0.199165
O O6 0.536031 0.253756 0.528481
O O7 0.793766 0.500000 0.707424
O O8 0.859973 0.677231 0.459801
O O9 0.681697 0.664940 0.814876
O O10 0.991080 0.204740 0.123519
O O11 0.555973 0.500000 0.113376
O O12 0.575647 0.222967 0.130194
O O13 0.556129 0.000000 0.284893
#
# Coordination Sequence:
#
# PCOD9218162 Si02
#       6
#     4   8   8   8   8   8
#     4  10  24  42  74  92 128 164 212 260 344 382
#     4  11  22  38  63  95 132 176 221 266 315 373
#     4  11  24  42  67  97 133 175 216 264 321 384
#     4  11  22  46  67 100 124 170 207 272 320 399
#     4  11  24  42  67  97 133 175 216 264 321 384
#     4  11  22  38  63  95 132 176 221 266 315 373
#
# _framework density 24.118041000000002
#
# number of rings (size 3 to 8) (size 9 to 14) (size 15 to 20)
#    0.000    1.091    3.636    4.364    2.545    1.455 
#    0.000    5.455    0.000    0.000    0.000    0.000 
#    0.000    0.000    0.000    0.000    0.000    0.000 
#
# Total GULP energy -122546.848948 kJ/mol
# GULP energy per Si atom -5570.311316 kJ/mol
# Density = 2.406315 g / cm^3
# Si number density = 24.118041 Si / 1000 Ang^3
#
#
#
# Elastic Constant Matrix: (Units=GPa)
#
#
# Indices 1 2 3 4 5 6 
#
# 1 77.7400 46.5226 26.5038 0.0000 -15.8734 0.0000
# 2 46.5226 230.7828 13.3952 0.0000 -14.9638 0.0000
# 3 26.5038 13.3952 78.9648 0.0000 -33.5728 0.0000
# 4 0.0000 0.0000 0.0000 16.1683 0.0000 -30.5765
# 5 -15.8734 -14.9638 -33.5728 0.0000 49.0489 0.0000
# 6 0.0000 0.0000 0.0000 -30.5765 0.0000 -38.3743
#
#
#
# Elastic Compliance Matrix: (Units=1/GPa)
#
#
# Indices 1 2 3 4 5 6 
#
# 1 0.016428 -0.002965 -0.004422 0.000000 0.001385 0.000000
# 2 -0.002965 0.004959 0.000549 0.000000 0.000929 0.000000
# 3 -0.004422 0.000549 0.019066 0.000000 0.011787 0.000000
# 4 0.000000 0.000000 0.000000 0.024672 0.000000 -0.019659
# 5 0.001385 0.000929 0.011787 0.000000 0.029187 0.000000
# 6 0.000000 0.000000 0.000000 -0.019659 0.000000 -0.010395
#
#
# Mechanical properties :
#
#
# Convention : Reuss Voigt Hill
#
# Bulk Modulus (GPa) = 37.34519 62.25899 49.80209
# Shear Modulus (GPa) = 46.93932 25.43966 36.18949
#
# Velocity S-wave (km/s) = 4.41640 3.25129 3.87785
# Velocity P-wave (km/s) = 6.44392 6.32177 6.38314
#
# Compressibility (1/GPa) = 0.02677721
#
# Stress axis : x y z
#
# Youngs Moduli (GPa) = 60.87033 201.64519 52.44861
#
# Poissons Ratio (x) = 0.59793 0.23193
# Poissons Ratio (y) = 0.18050 -0.02880
# Poissons Ratio (z) = 0.26917 -0.11071
#
# Static dielectric constant tensor:
#      x y z
#    x 1.993440 0.000000 -0.002240 
#    y 0.000000 1.883530 0.000000 
#    z -0.002240 0.000000 1.957930 
# 
# From -- ./inp_files/294986.got.cif
#   From: 2010.05.17/outbox.cif.g08.bks.cpg/sg12_148_cif.got.tgz:294986.got - 2010.06.03 13:09:07.
