data_PCOD9218365
_publ_section_title
;
Structure prediction by ZEFSAII (Michael W. Deem and Ramdas Pophale) SiO2 
 PCOD9218365
Probable space group: C 2/M
;
_chemical_formula_sum "Si O2"
_cell_formula_units_Z 28
_cell_length_a 8.658047
_cell_length_b 17.669847
_cell_length_c 7.949685
_cell_angle_alpha 90.000000
_cell_angle_beta 92.330817
_cell_angle_gamma 90.000000
_cell_volume 1215.187219
_symmetry_space_group_name_H-M "C 2/M"
_symmetry_group_IT_number 12
_symmetry_cell_setting 'monoclinic'
loop_
_space_group_symop_operation_xyz
x,y,z
-x,y,-z
-x,-y,-z
x,-y,z
1/2+x,1/2+y,z
1/2-x,1/2+y,-z
1/2-x,1/2-y,-z
1/2+x,1/2-y,z
loop_
_atom_site_type_symbol
_atom_site_label
_atom_site_fract_x
_atom_site_fract_y
_atom_site_fract_z
Si Si1 0.089945 0.342582 0.330490
Si Si2 0.000000 0.879685 0.000000
Si Si3 0.888722 0.000000 0.763674
Si Si4 0.236284 0.000000 0.619597
Si Si5 0.841550 0.753024 0.176454
O O1 0.170106 0.424467 0.324366
O O2 0.220123 0.277754 0.312651
O O3 0.000000 0.337044 0.500000
O O4 0.950922 0.319003 0.200114
O O5 0.124117 0.930809 0.104835
O O6 0.944768 0.826743 0.148623
O O7 0.067582 0.000000 0.702063
O O8 0.789576 0.000000 0.587038
O O9 0.750000 0.750000 0.000000
#
# Coordination Sequence:
#
# PCOD9218365 Si02
#       5
#     8   4   4   4   8
#     4  12  27  47  73 108 148 192 243 298 367 431
#     4  11  22  44  74 103 136 190 244 289 358 432
#     4  10  24  44  76 101 147 195 241 293 369 435
#     4  11  25  48  71 108 148 192 241 300 359 433
#     4  12  25  47  73 107 144 188 242 305 363 429
#
# _framework density 23.041716000000001
#
# number of rings (size 3 to 8) (size 9 to 14) (size 15 to 20)
#    0.000    0.571    5.714    1.286    4.000    2.286 
#    0.000    2.857    0.000    0.000    0.000    0.000 
#    0.000    0.000    0.000    0.000    0.000    0.000 
#
# Total GULP energy -78088.729384 kJ/mol
# GULP energy per Si atom -5577.766385 kJ/mol
# Density = 2.298927 g / cm^3
# Si number density = 23.041716 Si / 1000 Ang^3
#
#
#
# Elastic Constant Matrix: (Units=GPa)
#
#
# Indices 1 2 3 4 5 6 
#
# 1 116.9501 57.9706 30.6226 0.0000 -2.1625 0.0000
# 2 57.9706 112.5988 61.7405 0.0000 34.5400 0.0000
# 3 30.6226 61.7405 99.0648 0.0000 19.9187 0.0000
# 4 0.0000 0.0000 0.0000 22.9490 0.0000 7.2288
# 5 -2.1625 34.5400 19.9187 0.0000 54.2596 0.0000
# 6 0.0000 0.0000 0.0000 7.2288 0.0000 26.2019
#
#
#
# Elastic Compliance Matrix: (Units=1/GPa)
#
#
# Indices 1 2 3 4 5 6 
#
# 1 0.012823 -0.008475 0.000141 0.000000 0.005854 0.000000
# 2 -0.008475 0.021134 -0.008399 0.000000 -0.010708 0.000000
# 3 0.000141 -0.008399 0.015342 0.000000 -0.000280 0.000000
# 4 0.000000 0.000000 0.000000 0.047722 0.000000 -0.013166
# 5 0.005854 -0.010708 -0.000280 0.000000 0.025582 0.000000
# 6 0.000000 0.000000 0.000000 -0.013166 0.000000 0.041798
#
#
# Mechanical properties :
#
#
# Convention : Reuss Voigt Hill
#
# Bulk Modulus (GPa) = 63.15824 69.92012 66.53918
# Shear Modulus (GPa) = 24.61308 32.56741 28.59024
#
# Velocity S-wave (km/s) = 3.27187 3.76361 3.52633
# Velocity P-wave (km/s) = 6.46092 7.02120 6.74688
#
# Compressibility (1/GPa) = 0.01583325
#
# Stress axis : x y z
#
# Youngs Moduli (GPa) = 77.98580 47.31654 65.18248
#
# Poissons Ratio (x) = 0.40100 -0.00919
# Poissons Ratio (y) = 0.66091 0.54746
# Poissons Ratio (z) = -0.01099 0.39740
#
# Static dielectric constant tensor:
#      x y z
#    x 2.124750 0.000000 0.017050 
#    y 0.000000 1.971010 0.000000 
#    z 0.017050 0.000000 1.895770 
# 
# From -- ./inp_files/37339.got.cif
#   From: 2010.05.17/outbox.cif.g08.bks.cpg/sg12_19_cif.got.tgz:37339.got - 2010.06.03 13:09:07.
