data_PCOD9218599
_publ_section_title
;
Structure prediction by ZEFSAII (Michael W. Deem and Ramdas Pophale) SiO2 
 PCOD9218599
Probable space group: C 2/M
;
_chemical_formula_sum "Si O2"
_cell_formula_units_Z 64
_cell_length_a 13.099577
_cell_length_b 21.318570
_cell_length_c 13.200777
_cell_angle_alpha 90.000000
_cell_angle_beta 121.556455
_cell_angle_gamma 90.000000
_cell_volume 3141.362842
_symmetry_space_group_name_H-M "C 2/M"
_symmetry_group_IT_number 12
_symmetry_cell_setting 'monoclinic'
loop_
_space_group_symop_operation_xyz
x,y,z
-x,y,-z
-x,-y,-z
x,-y,z
1/2+x,1/2+y,z
1/2-x,1/2+y,-z
1/2-x,1/2-y,-z
1/2+x,1/2-y,z
loop_
_atom_site_type_symbol
_atom_site_label
_atom_site_fract_x
_atom_site_fract_y
_atom_site_fract_z
Si Si1 0.555960 0.276412 0.274646
Si Si2 0.640354 0.385736 0.054838
Si Si3 0.337973 0.360890 0.148108
Si Si4 0.263231 0.636991 0.516068
Si Si5 0.304775 0.070847 0.320400
Si Si6 0.369258 0.572511 0.380244
Si Si7 0.636315 0.760485 0.103785
Si Si8 0.994597 0.317678 0.389781
O O1 0.464631 0.327984 0.185373
O O2 0.644441 0.309343 0.400438
O O3 0.631389 0.245736 0.223496
O O4 0.467122 0.228160 0.284311
O O5 0.714665 0.419983 0.180686
O O6 0.661365 0.310434 0.079274
O O7 0.500000 0.398688 0.000000
O O8 0.685209 0.401475 0.964748
O O9 0.361315 0.396632 0.265585
O O10 0.232051 0.310598 0.113201
O O11 0.261106 0.587481 0.608096
O O12 0.291513 0.608263 0.422797
O O13 0.129315 0.661848 0.439968
O O14 0.407606 0.123389 0.358254
O O15 0.351722 0.000000 0.348179
O O16 0.500000 0.575238 0.500000
O O17 0.333889 0.500000 0.353691
O O18 0.500000 0.776933 0.000000
O O19 0.000000 0.282348 0.500000
#
# Coordination Sequence:
#
# PCOD9218599 Si02
#       8
#     8   8   8   8   8   8   8   8
#     4  12  22  38  64  96 130 161 210 262 322 390
#     4  11  22  43  62  96 129 162 215 264 328 378
#     4  12  24  40  66  88 130 166 206 268 319 377
#     4  11  22  43  64  94 127 167 211 262 315 382
#     4  11  24  43  67  95 129 172 218 264 323 387
#     4  11  25  43  63  90 123 166 216 260 314 379
#     4  11  23  39  63  96 127 168 211 260 327 392
#     4  10  25  38  62  97 132 166 202 258 322 389
#
# _framework density 20.373322999999999
#
# number of rings (size 3 to 8) (size 9 to 14) (size 15 to 20)
#    0.000    0.875    5.000    2.625    5.250    3.500 
#    0.000    0.000    0.000    0.375    0.000    0.000 
#    0.000    0.000    0.000    0.000    0.000    0.000 
#
# Total GULP energy -178800.990560 kJ/mol
# GULP energy per Si atom -5587.530955 kJ/mol
# Density = 2.032695 g / cm^3
# Si number density = 20.373323 Si / 1000 Ang^3
#
#
#
# Elastic Constant Matrix: (Units=GPa)
#
#
# Indices 1 2 3 4 5 6 
#
# 1 74.1050 10.5515 16.9299 0.0000 -15.2986 0.0000
# 2 10.5515 49.2633 23.2063 0.0000 -9.4547 0.0000
# 3 16.9299 23.2063 100.0666 0.0000 -27.7761 0.0000
# 4 0.0000 0.0000 0.0000 3.8626 0.0000 6.4710
# 5 -15.2986 -9.4547 -27.7761 0.0000 47.3609 0.0000
# 6 0.0000 0.0000 0.0000 6.4710 0.0000 -6.3668
#
#
#
# Elastic Compliance Matrix: (Units=1/GPa)
#
#
# Indices 1 2 3 4 5 6 
#
# 1 0.014786 -0.001971 -0.000989 0.000000 0.003803 0.000000
# 2 -0.001971 0.023171 -0.004698 0.000000 0.001234 0.000000
# 3 -0.000989 -0.004698 0.013021 0.000000 0.006379 0.000000
# 4 0.000000 0.000000 0.000000 0.095790 0.000000 0.097358
# 5 0.003803 0.001234 0.006379 0.000000 0.026330 0.000000
# 6 0.000000 0.000000 0.000000 0.097358 0.000000 -0.058114
#
#
# Mechanical properties :
#
#
# Convention : Reuss Voigt Hill
#
# Bulk Modulus (GPa) = 28.04081 36.09002 32.06542
# Shear Modulus (GPa) = 35.16507 20.48783 27.82645
#
# Velocity S-wave (km/s) = 4.15907 3.17459 3.69972
# Velocity P-wave (km/s) = 6.07101 5.58482 5.83298
#
# Compressibility (1/GPa) = 0.03566231
#
# Stress axis : x y z
#
# Youngs Moduli (GPa) = 67.63149 43.15747 76.80047
#
# Poissons Ratio (x) = 0.08508 0.07595
# Poissons Ratio (y) = 0.13332 0.36077
# Poissons Ratio (z) = 0.06688 0.20273
#
# Static dielectric constant tensor:
#      x y z
#    x 1.753850 0.000000 -0.033760 
#    y 0.000000 1.747800 0.000000 
#    z -0.033760 0.000000 1.784790 
# 
# From -- ./inp_files/135965.got.cif
#   From: 2010.05.17/outbox.cif.g08.bks.cpg/sg12_68_cif.got.tgz:135965.got - 2010.06.03 13:09:07.
