data_PCOD9218628
_publ_section_title
;
Structure prediction by ZEFSAII (Michael W. Deem and Ramdas Pophale) SiO2 
 PCOD9218628
Probable space group: C 2/M
;
_chemical_formula_sum "Si O2"
_cell_formula_units_Z 44
_cell_length_a 18.284753
_cell_length_b 8.239725
_cell_length_c 17.244728
_cell_angle_alpha 90.000000
_cell_angle_beta 57.121070
_cell_angle_gamma 90.000000
_cell_volume 2181.946748
_symmetry_space_group_name_H-M "C 2/M"
_symmetry_group_IT_number 12
_symmetry_cell_setting 'monoclinic'
loop_
_space_group_symop_operation_xyz
x,y,z
-x,y,-z
-x,-y,-z
x,-y,z
1/2+x,1/2+y,z
1/2-x,1/2+y,-z
1/2-x,1/2-y,-z
1/2+x,1/2-y,z
loop_
_atom_site_type_symbol
_atom_site_label
_atom_site_fract_x
_atom_site_fract_y
_atom_site_fract_z
Si Si1 0.665470 0.742576 0.710005
Si Si2 0.880549 0.000000 0.708888
Si Si3 0.485898 0.694645 0.098967
Si Si4 0.271637 0.177540 0.797703
Si Si5 0.917090 0.000000 0.362786
Si Si6 0.302099 0.500000 0.582642
Si Si7 0.830569 0.305295 0.005329
O O1 0.587635 0.795222 0.813320
O O2 0.731286 0.665879 0.735252
O O3 0.613291 0.646868 0.674504
O O4 0.733168 0.854689 0.626420
O O5 0.834300 0.834340 0.765459
O O6 0.860331 0.000000 0.627812
O O7 0.981165 0.000000 0.674832
O O8 0.466711 0.500000 0.116585
O O9 0.500000 0.735272 0.000000
O O10 0.580082 0.735457 0.079890
O O11 0.191748 0.218668 0.900580
O O12 0.309166 0.000000 0.797088
O O13 0.862438 0.000000 0.473372
O O14 0.834699 0.500000 0.010769
O O15 0.750000 0.250000 0.000000
#
# Coordination Sequence:
#
# PCOD9218628 Si02
#       7
#     8   4   8   8   4   4   8
#     4  11  23  41  70  99 131 176 227 284 346 407
#     4  10  25  42  71 101 137 177 231 279 355 416
#     4  11  22  38  62  94 132 172 218 269 329 400
#     4  11  21  44  67  97 139 185 224 274 343 410
#     4  12  23  46  71  98 134 173 232 296 351 404
#     4  10  25  46  70  96 134 181 228 288 355 419
#     4  12  26  40  61  92 137 182 228 270 327 403
#
# _framework density 20.165478
#
# number of rings (size 3 to 8) (size 9 to 14) (size 15 to 20)
#    0.000    0.909    4.545    2.455    3.818    0.364 
#    1.636    0.000    0.000    2.182    0.000    0.000 
#    0.000    0.000    0.000    0.000    0.000    0.000 
#
# Total GULP energy -122635.398494 kJ/mol
# GULP energy per Si atom -5574.336295 kJ/mol
# Density = 2.011958 g / cm^3
# Si number density = 20.165478 Si / 1000 Ang^3
#
#
#
# Elastic Constant Matrix: (Units=GPa)
#
#
# Indices 1 2 3 4 5 6 
#
# 1 117.8881 32.5114 30.9934 0.0000 -25.4287 0.0001
# 2 32.5114 111.1572 38.4801 0.0001 -15.1312 0.0001
# 3 30.9934 38.4801 114.3954 0.0000 -17.1451 0.0000
# 4 0.0000 0.0001 0.0000 22.6958 0.0000 8.2343
# 5 -25.4287 -15.1312 -17.1451 0.0000 36.5179 0.0000
# 6 0.0001 0.0001 0.0000 8.2343 0.0000 38.7543
#
#
#
# Elastic Compliance Matrix: (Units=1/GPa)
#
#
# Indices 1 2 3 4 5 6 
#
# 1 0.010642 -0.001820 -0.001370 0.000000 0.006013 0.000000
# 2 -0.001820 0.010768 -0.002851 0.000000 0.001856 0.000000
# 3 -0.001370 -0.002851 0.010490 0.000000 0.002790 0.000000
# 4 0.000000 0.000000 0.000000 0.047741 0.000000 -0.010144
# 5 0.006013 0.001856 0.002790 0.000000 0.033650 0.000000
# 6 0.000000 0.000000 0.000000 -0.010144 0.000000 0.027959
#
#
# Mechanical properties :
#
#
# Convention : Reuss Voigt Hill
#
# Bulk Modulus (GPa) = 50.45780 60.82339 55.64059
# Shear Modulus (GPa) = 31.26234 35.69064 33.47649
#
# Velocity S-wave (km/s) = 3.94164 4.21157 4.07884
# Velocity P-wave (km/s) = 6.76695 7.34012 7.05935
#
# Compressibility (1/GPa) = 0.01981854
#
# Stress axis : x y z
#
# Youngs Moduli (GPa) = 93.97067 92.86686 95.33011
#
# Poissons Ratio (x) = 0.16899 0.13059
# Poissons Ratio (y) = 0.17100 0.27178
# Poissons Ratio (z) = 0.12872 0.26476
#
# Static dielectric constant tensor:
#      x y z
#    x 1.805540 0.000000 0.042470 
#    y 0.000000 1.737370 0.000000 
#    z 0.042470 0.000000 1.694470 
# 
# From -- ./inp_files/274857.got.cif
#   From: 2010.05.17/outbox.cif.g08.bks.cpg/sg12_138_cif.got.tgz:274857.got - 2010.06.03 13:09:07.
