data_PCOD9218644
_publ_section_title
;
Structure prediction by ZEFSAII (Michael W. Deem and Ramdas Pophale) SiO2 
 PCOD9218644
Probable space group: C 2/M
;
_chemical_formula_sum "Si O2"
_cell_formula_units_Z 40
_cell_length_a 23.854779
_cell_length_b 8.296206
_cell_length_c 9.690660
_cell_angle_alpha 90.000000
_cell_angle_beta 75.396444
_cell_angle_gamma 90.000000
_cell_volume 1855.863866
_symmetry_space_group_name_H-M "C 2/M"
_symmetry_group_IT_number 12
_symmetry_cell_setting 'monoclinic'
loop_
_space_group_symop_operation_xyz
x,y,z
-x,y,-z
-x,-y,-z
x,-y,z
1/2+x,1/2+y,z
1/2-x,1/2+y,-z
1/2-x,1/2-y,-z
1/2+x,1/2-y,z
loop_
_atom_site_type_symbol
_atom_site_label
_atom_site_fract_x
_atom_site_fract_y
_atom_site_fract_z
Si Si1 0.825396 0.688643 0.576721
Si Si2 0.632362 0.690067 0.731525
Si Si3 0.767849 0.194642 0.140598
Si Si4 0.005083 0.310297 0.838187
Si Si5 0.443099 0.311440 0.621600
O O1 0.814710 0.500000 0.556306
O O2 0.829363 0.779324 0.428716
O O3 0.778286 0.749901 0.715459
O O4 0.887700 0.711994 0.610052
O O5 0.620483 0.500000 0.750138
O O6 0.669077 0.745187 0.841914
O O7 0.571350 0.778524 0.753230
O O8 0.767202 0.000000 0.141765
O O9 0.750000 0.250000 0.000000
O O10 0.992312 0.500000 0.834657
O O11 0.961215 0.215378 0.767857
O O12 0.000000 0.260213 0.000000
O O13 0.500000 0.262734 0.500000
O O14 0.431676 0.500000 0.600105
#
# Coordination Sequence:
#
# PCOD9218644 Si02
#       5
#     8   8   8   8   8
#     4  11  23  41  66  94 125 164 209 257 308 368
#     4  11  23  42  65  93 125 163 211 256 308 371
#     4  10  25  44  64  93 126 162 207 257 312 369
#     4  11  25  42  63  93 128 166 207 255 311 369
#     4  11  23  40  64  95 127 163 207 254 308 369
#
# _framework density 21.553307
#
# number of rings (size 3 to 8) (size 9 to 14) (size 15 to 20)
#    0.000    1.200    2.000    3.000    2.800    5.600 
#    0.000    0.000    0.000    0.000    0.000    0.000 
#    0.000    0.000    0.000    0.000    0.000    0.000 
#
# Total GULP energy -111898.771878 kJ/mol
# GULP energy per Si atom -5594.938594 kJ/mol
# Density = 2.150425 g / cm^3
# Si number density = 21.553307 Si / 1000 Ang^3
#
#
#
# Elastic Constant Matrix: (Units=GPa)
#
#
# Indices 1 2 3 4 5 6 
#
# 1 61.9789 -2.7292 11.7493 0.0000 22.6943 0.0000
# 2 -2.7292 10.4275 -9.3711 0.0000 1.5166 0.0000
# 3 11.7493 -9.3711 84.5740 0.0000 17.5686 0.0000
# 4 0.0000 0.0000 0.0000 34.5979 0.0000 2.7922
# 5 22.6943 1.5166 17.5686 0.0000 38.6464 0.0000
# 6 0.0000 0.0000 0.0000 2.7922 0.0000 15.5446
#
#
#
# Elastic Compliance Matrix: (Units=1/GPa)
#
#
# Indices 1 2 3 4 5 6 
#
# 1 0.021131 0.008016 0.000658 0.000000 -0.013022 0.000000
# 2 0.008016 0.113581 0.014770 0.000000 -0.015879 0.000000
# 3 0.000658 0.014770 0.014985 0.000000 -0.007778 0.000000
# 4 0.000000 0.000000 0.000000 0.029329 0.000000 -0.005268
# 5 -0.013022 -0.015879 -0.007778 0.000000 0.037682 0.000000
# 6 0.000000 0.000000 0.000000 -0.005268 0.000000 0.065277
#
#
# Mechanical properties :
#
#
# Convention : Reuss Voigt Hill
#
# Bulk Modulus (GPa) = 5.08687 17.36425 11.22556
# Shear Modulus (GPa) = 16.63195 28.24652 22.43923
#
# Velocity S-wave (km/s) = 2.78090 3.62407 3.23011
# Velocity P-wave (km/s) = 3.56040 5.05824 4.37391
#
# Compressibility (1/GPa) = 0.19658461
#
# Stress axis : x y z
#
# Youngs Moduli (GPa) = 47.32360 8.80426 66.73379
#
# Poissons Ratio (x) = -0.07057 -0.04389
# Poissons Ratio (y) = -0.37933 -0.98567
# Poissons Ratio (z) = -0.03113 -0.13004
#
# Static dielectric constant tensor:
#      x y z
#    x 1.773840 0.000000 -0.007670 
#    y 0.000000 1.729690 0.000000 
#    z -0.007670 0.000000 1.789500 
# 
# From -- ./inp_files/92781.got.cif
#   From: 2010.05.17/outbox.cif.g08.bks.cpg/sg12_47_cif.got.tgz:92781.got - 2010.06.03 13:09:07.
