data_PCOD9218146
_publ_section_title
;
Structure prediction by ZEFSAII (Michael W. Deem and Ramdas Pophale) SiO2 
 PCOD9218146
Probable space group: C 2/M
;
_chemical_formula_sum "Si O2"
_cell_formula_units_Z 36
_cell_length_a 8.642372
_cell_length_b 27.081316
_cell_length_c 10.820256
_cell_angle_alpha 90.000000
_cell_angle_beta 136.749447
_cell_angle_gamma 90.000000
_cell_volume 1735.206979
_symmetry_space_group_name_H-M "C 2/M"
_symmetry_group_IT_number 12
_symmetry_cell_setting 'monoclinic'
loop_
_space_group_symop_operation_xyz
x,y,z
-x,y,-z
-x,-y,-z
x,-y,z
1/2+x,1/2+y,z
1/2-x,1/2+y,-z
1/2-x,1/2-y,-z
1/2+x,1/2-y,z
loop_
_atom_site_type_symbol
_atom_site_label
_atom_site_fract_x
_atom_site_fract_y
_atom_site_fract_z
Si Si1 0.442397 0.500000 0.653750
Si Si2 0.500000 0.245973 0.500000
Si Si3 0.629362 0.394354 0.268035
Si Si4 0.348488 0.101338 0.124641
Si Si5 0.646883 0.823014 0.395431
Si Si6 0.604355 0.000000 0.224793
O O1 0.380966 0.450068 0.688130
O O2 0.277638 0.500000 0.440352
O O3 0.710456 0.500000 0.777398
O O4 0.537829 0.209031 0.636761
O O5 0.300789 0.282225 0.421111
O O6 0.776688 0.397277 0.228229
O O7 0.722590 0.356864 0.426455
O O8 0.372099 0.383207 0.079297
O O9 0.545702 0.141234 0.234232
O O10 0.449316 0.048589 0.144483
#
# Coordination Sequence:
#
# PCOD9218146 Si02
#       6
#     4   4   8   8   8   4
#     4  11  24  39  62  95 129 164 203 246 303 365
#     4  10  24  42  70  88 120 162 208 258 320 352
#     4  11  23  40  64  93 126 165 204 245 303 371
#     4  11  23  40  64  93 126 165 204 245 303 371
#     4  11  22  45  64  92 123 161 203 262 306 363
#     4  11  24  39  62  95 129 164 203 246 303 365
#
# _framework density 20.746804999999998
#
# number of rings (size 3 to 8) (size 9 to 14) (size 15 to 20)
#    0.000    1.111    4.444    1.333    3.111    4.444 
#    0.000    6.667    0.000    0.000    0.000    0.000 
#    0.000    0.000    0.000    0.000    0.000    0.000 
#
# Total GULP energy -100526.141892 kJ/mol
# GULP energy per Si atom -5584.785661 kJ/mol
# Density = 2.069958 g / cm^3
# Si number density = 20.746805 Si / 1000 Ang^3
#
#
#
# Elastic Constant Matrix: (Units=GPa)
#
#
# Indices 1 2 3 4 5 6 
#
# 1 44.9501 32.9559 17.7630 0.0000 10.0389 0.0000
# 2 32.9559 153.1511 46.7734 0.0000 4.5383 0.0000
# 3 17.7630 46.7734 102.0380 0.0000 4.6047 0.0000
# 4 0.0000 0.0000 0.0000 47.1293 0.0000 7.1873
# 5 10.0389 4.5383 4.6047 0.0000 22.8964 0.0000
# 6 0.0000 0.0000 0.0000 7.1873 0.0000 36.5251
#
#
#
# Elastic Compliance Matrix: (Units=1/GPa)
#
#
# Indices 1 2 3 4 5 6 
#
# 1 0.029604 -0.005366 -0.002176 0.000000 -0.011479 0.000000
# 2 -0.005366 0.008580 -0.003056 0.000000 0.001267 0.000000
# 3 -0.002176 -0.003056 0.011615 0.000000 -0.000776 0.000000
# 4 0.000000 0.000000 0.000000 0.021875 0.000000 -0.004304
# 5 -0.011479 0.001267 -0.000776 0.000000 0.048613 0.000000
# 6 0.000000 0.000000 0.000000 -0.004304 0.000000 0.028225
#
#
# Mechanical properties :
#
#
# Convention : Reuss Voigt Hill
#
# Bulk Modulus (GPa) = 34.96047 55.01375 44.98711
# Shear Modulus (GPa) = 27.89521 34.81995 31.35758
#
# Velocity S-wave (km/s) = 3.67080 4.10118 3.89194
# Velocity P-wave (km/s) = 5.90372 7.00004 6.47513
#
# Compressibility (1/GPa) = 0.02860373
#
# Stress axis : x y z
#
# Youngs Moduli (GPa) = 33.77886 116.55111 86.09584
#
# Poissons Ratio (x) = 0.62538 0.18734
# Poissons Ratio (y) = 0.18125 0.26311
# Poissons Ratio (z) = 0.07350 0.35619
#
# Static dielectric constant tensor:
#      x y z
#    x 1.795140 0.000000 -0.002820 
#    y 0.000000 1.724740 0.000000 
#    z -0.002820 0.000000 1.752320 
# 
# From -- ./inp_files/101305.got.cif
#   From: 2010.05.17/outbox.cif.g08.bks.cpg/sg12_51_cif.got.tgz:101305.got - 2010.06.03 13:09:07.
