data_PCOD9218725
_publ_section_title
;
Structure prediction by ZEFSAII (Michael W. Deem and Ramdas Pophale) SiO2 
 PCOD9218725
Probable space group: C 2/M
;
_chemical_formula_sum "Si O2"
_cell_formula_units_Z 56
_cell_length_a 26.210963
_cell_length_b 14.558536
_cell_length_c 15.197365
_cell_angle_alpha 90.000000
_cell_angle_beta 29.232083
_cell_angle_gamma 90.000000
_cell_volume 2832.035719
_symmetry_space_group_name_H-M "C 2/M"
_symmetry_group_IT_number 12
_symmetry_cell_setting 'monoclinic'
loop_
_space_group_symop_operation_xyz
x,y,z
-x,y,-z
-x,-y,-z
x,-y,z
1/2+x,1/2+y,z
1/2-x,1/2+y,-z
1/2-x,1/2-y,-z
1/2+x,1/2-y,z
loop_
_atom_site_type_symbol
_atom_site_label
_atom_site_fract_x
_atom_site_fract_y
_atom_site_fract_z
Si Si1 0.114557 0.833144 0.333394
Si Si2 0.952130 0.245046 0.303122
Si Si3 0.053764 0.608366 0.014298
Si Si4 0.201391 0.107967 0.390264
Si Si5 0.898037 0.903756 0.837200
Si Si6 0.333169 0.141555 0.783528
Si Si7 0.969312 0.601300 0.409978
O O1 0.140423 0.875120 0.388753
O O2 0.106616 0.898423 0.261768
O O3 0.189142 0.749461 0.196961
O O4 0.000000 0.786545 0.500000
O O5 0.853124 0.174042 0.454432
O O6 0.923141 0.320332 0.419246
O O7 0.997957 0.311092 0.156598
O O8 0.043317 0.180574 0.205852
O O9 0.046286 0.500000 0.057655
O O10 0.177187 0.628837 0.814342
O O11 0.000000 0.609559 0.000000
O O12 0.196391 0.000000 0.421180
O O13 0.949258 0.000000 0.786481
O O14 0.778143 0.903313 0.044353
O O15 0.400557 0.104156 0.601235
O O16 0.409352 0.123712 0.751391
O O17 0.963620 0.500000 0.380031
#
# Coordination Sequence:
#
# PCOD9218725 Si02
#       7
#     8   8   8   8   8   8   8
#     4  12  20  37  56  82 127 172 209 244 288 357
#     4  12  23  39  64  92 124 159 208 256 314 382
#     4  10  25  49  73  96 120 154 211 276 329 380
#     4  11  23  41  67  95 129 171 211 256 312 374
#     4  12  24  34  53  85 128 173 208 248 297 367
#     4  11  19  36  49  75 119 168 211 256 292 349
#     4  11  21  35  52  78 116 162 208 252 304 358
#
# _framework density 19.773762000000001
#
# number of rings (size 3 to 8) (size 9 to 14) (size 15 to 20)
#    0.000    0.714    5.714    4.286    2.000    1.143 
#    0.000    0.000    0.000    1.714    0.000    0.000 
#    0.000    0.000    0.000    0.000    0.000    0.000 
#
# Total GULP energy -156081.412598 kJ/mol
# GULP energy per Si atom -5574.336164 kJ/mol
# Density = 1.972876 g / cm^3
# Si number density = 19.773762 Si / 1000 Ang^3
#
#
#
# Elastic Constant Matrix: (Units=GPa)
#
#
# Indices 1 2 3 4 5 6 
#
# 1 46.1628 19.5008 33.6169 0.0000 -2.0263 0.0000
# 2 19.5008 161.6366 33.0035 0.0000 12.4429 0.0000
# 3 33.6169 33.0035 96.8756 0.0000 5.1214 0.0000
# 4 0.0000 0.0000 0.0000 64.7843 0.0000 17.4386
# 5 -2.0263 12.4429 5.1214 0.0000 15.3676 0.0000
# 6 0.0000 0.0000 0.0000 17.4386 0.0000 18.4596
#
#
#
# Elastic Compliance Matrix: (Units=1/GPa)
#
#
# Indices 1 2 3 4 5 6 
#
# 1 0.030552 -0.002298 -0.010312 0.000000 0.009326 0.000000
# 2 -0.002298 0.007175 -0.001347 0.000000 -0.005664 0.000000
# 3 -0.010312 -0.001347 0.014632 0.000000 -0.005145 0.000000
# 4 0.000000 0.000000 0.000000 0.020700 0.000000 -0.019555
# 5 0.009326 -0.005664 -0.005145 0.000000 0.072602 0.000000
# 6 0.000000 0.000000 0.000000 -0.019555 0.000000 0.072646
#
#
# Mechanical properties :
#
#
# Convention : Reuss Voigt Hill
#
# Bulk Modulus (GPa) = 40.91041 52.99081 46.95061
# Shear Modulus (GPa) = 19.65639 34.29254 26.97447
#
# Velocity S-wave (km/s) = 3.15630 4.16894 3.69745
# Velocity P-wave (km/s) = 5.83242 7.07320 6.48257
#
# Compressibility (1/GPa) = 0.02444366
#
# Stress axis : x y z
#
# Youngs Moduli (GPa) = 32.73085 139.37052 68.34377
#
# Poissons Ratio (x) = 0.32033 0.70476
# Poissons Ratio (y) = 0.07523 0.09209
# Poissons Ratio (z) = 0.33752 0.18779
#
# Static dielectric constant tensor:
#      x y z
#    x 1.671650 0.000000 0.017640 
#    y 0.000000 1.971000 0.000000 
#    z 0.017640 0.000000 1.759260 
# 
# From -- ./inp_files/240883.got.cif
#   From: 2010.05.17/outbox.cif.g08.bks.cpg/sg12_121_cif.got.tgz:240883.got - 2010.06.03 13:09:07.
