data_PCOD9218744
_publ_section_title
;
Structure prediction by ZEFSAII (Michael W. Deem and Ramdas Pophale) SiO2 
 PCOD9218744
Probable space group: C 2/M
;
_chemical_formula_sum "Si O2"
_cell_formula_units_Z 44
_cell_length_a 17.411528
_cell_length_b 26.681342
_cell_length_c 4.907283
_cell_angle_alpha 90.000000
_cell_angle_beta 50.887599
_cell_angle_gamma 90.000000
_cell_volume 1768.874190
_symmetry_space_group_name_H-M "C 2/M"
_symmetry_group_IT_number 12
_symmetry_cell_setting 'monoclinic'
loop_
_space_group_symop_operation_xyz
x,y,z
-x,y,-z
-x,-y,-z
x,-y,z
1/2+x,1/2+y,z
1/2-x,1/2+y,-z
1/2-x,1/2-y,-z
1/2+x,1/2-y,z
loop_
_atom_site_type_symbol
_atom_site_label
_atom_site_fract_x
_atom_site_fract_y
_atom_site_fract_z
Si Si1 0.934471 0.397294 0.882142
Si Si2 0.194019 0.000000 0.819969
Si Si3 0.604372 0.602739 0.117802
Si Si4 0.743251 0.158998 0.872837
Si Si5 0.750000 0.250000 0.000000
Si Si6 0.889694 0.789743 0.171837
Si Si7 0.332272 0.000000 0.015084
O O1 0.000000 0.372836 0.500000
O O2 0.835158 0.365222 0.148667
O O3 0.895732 0.449904 0.845594
O O4 0.000000 0.405177 0.000000
O O5 0.288476 0.000000 0.415649
O O6 0.132514 0.050708 0.914892
O O7 0.238985 0.000000 0.022246
O O8 0.500000 0.598404 0.500000
O O9 0.687786 0.616988 0.153389
O O10 0.602404 0.651268 0.928920
O O11 0.813381 0.205800 0.601944
O O12 0.698419 0.194074 0.204502
O O13 0.841881 0.240014 0.034354
O O14 0.000000 0.773149 0.000000
#
# Coordination Sequence:
#
# PCOD9218744 Si02
#       7
#     8   4   8   8   4   8   4
#     4  12  27  46  73 104 142 196 246 308 371 438
#     4  12  25  41  74 108 149 195 246 305 368 429
#     4  11  23  42  68 106 145 190 238 297 363 452
#     4  11  24  47  69 101 144 182 246 300 374 437
#     4  10  26  42  74 102 144 180 248 308 362 448
#     4  11  23  45  75 105 143 198 238 299 383 448
#     4  12  24  47  71 102 145 195 246 308 367 442
#
# _framework density 24.874576000000001
#
# number of rings (size 3 to 8) (size 9 to 14) (size 15 to 20)
#    0.000    0.727    3.636    3.545    5.091    0.727 
#    3.273    1.364    0.000    0.000    0.000    0.000 
#    0.000    0.000    0.000    0.000    0.000    0.000 
#
# Total GULP energy -122850.248167 kJ/mol
# GULP energy per Si atom -5584.102189 kJ/mol
# Density = 2.481796 g / cm^3
# Si number density = 24.874576 Si / 1000 Ang^3
#
#
#
# Elastic Constant Matrix: (Units=GPa)
#
#
# Indices 1 2 3 4 5 6 
#
# 1 144.5995 35.0776 25.3414 0.0000 -14.3239 0.0000
# 2 35.0776 97.3808 28.7066 0.0000 -32.0534 0.0000
# 3 25.3414 28.7066 89.9525 0.0000 -11.0507 0.0000
# 4 0.0000 0.0000 0.0000 0.6697 0.0000 -11.3621
# 5 -14.3239 -32.0534 -11.0507 0.0000 30.6455 0.0000
# 6 0.0000 0.0000 0.0000 -11.3621 0.0000 26.1279
#
#
#
# Elastic Compliance Matrix: (Units=1/GPa)
#
#
# Indices 1 2 3 4 5 6 
#
# 1 0.007758 -0.002063 -0.001409 0.000000 0.000960 0.000000
# 2 -0.002063 0.017096 -0.002926 0.000000 0.015862 0.000000
# 3 -0.001409 -0.002926 0.012547 0.000000 0.000805 0.000000
# 4 0.000000 0.000000 0.000000 -0.234123 0.000000 -0.101812
# 5 0.000960 0.015862 0.000805 0.000000 0.049961 0.000000
# 6 0.000000 0.000000 0.000000 -0.101812 0.000000 -0.006001
#
#
# Mechanical properties :
#
#
# Convention : Reuss Voigt Hill
#
# Bulk Modulus (GPa) = 40.64394 56.68709 48.66552
# Shear Modulus (GPa) = -37.94644 27.67577 -5.13533
#
# Velocity S-wave (km/s) = -3.91002 3.33920 -1.43839
# Velocity P-wave (km/s) = 2.00232 6.14050 4.10466
#
# Compressibility (1/GPa) = 0.02460391
#
# Stress axis : x y z
#
# Youngs Moduli (GPa) = 128.89539 58.49465 79.70241
#
# Poissons Ratio (x) = 0.12068 0.11232
# Poissons Ratio (y) = 0.26593 0.23320
# Poissons Ratio (z) = 0.18165 0.17115
#
# Static dielectric constant tensor:
#      x y z
#    x 1.953200 0.000000 -0.011420 
#    y 0.000000 2.018570 0.000000 
#    z -0.011420 0.000000 2.228130 
# 
# From -- ./inp_files/17577.got.cif
#   From: 2010.05.17/outbox.cif.g08.bks.cpg/sg12_9_cif.got.tgz:17577.got - 2010.06.03 13:09:07.
