data_PCOD9218909
_publ_section_title
;
Structure prediction by ZEFSAII (Michael W. Deem and Ramdas Pophale) SiO2 
 PCOD9218909
Probable space group: C 2/M
;
_chemical_formula_sum "Si O2"
_cell_formula_units_Z 64
_cell_length_a 8.311456
_cell_length_b 13.097235
_cell_length_c 28.946089
_cell_angle_alpha 90.000000
_cell_angle_beta 126.058604
_cell_angle_gamma 90.000000
_cell_volume 2547.306376
_symmetry_space_group_name_H-M "C 2/M"
_symmetry_group_IT_number 12
_symmetry_cell_setting 'monoclinic'
loop_
_space_group_symop_operation_xyz
x,y,z
-x,y,-z
-x,-y,-z
x,-y,z
1/2+x,1/2+y,z
1/2-x,1/2+y,-z
1/2-x,1/2-y,-z
1/2+x,1/2-y,z
loop_
_atom_site_type_symbol
_atom_site_label
_atom_site_fract_x
_atom_site_fract_y
_atom_site_fract_z
Si Si1 0.274573 0.376472 0.081633
Si Si2 0.590056 0.123868 0.852399
Si Si3 0.649713 0.377013 0.195011
Si Si4 0.280831 0.621106 0.265247
Si Si5 0.487926 0.119946 0.688109
Si Si6 0.967484 0.795282 0.543315
Si Si7 0.864010 0.806049 0.620971
Si Si8 0.683382 0.122277 0.967746
O O1 0.302483 0.500000 0.084300
O O2 0.428389 0.340309 0.146604
O O3 0.048019 0.362957 0.058404
O O4 0.304437 0.341247 0.033364
O O5 0.728333 0.140117 0.831544
O O6 0.363551 0.157368 0.801119
O O7 0.698133 0.159274 0.917605
O O8 0.574479 0.000000 0.854881
O O9 0.640065 0.500000 0.200148
O O10 0.790009 0.342778 0.260533
O O11 0.293372 0.500000 0.260778
O O12 0.151366 0.637956 0.290346
O O13 0.508254 0.654128 0.314021
O O14 0.412828 0.185125 0.632860
O O15 0.489097 0.000000 0.679454
O O16 0.750000 0.750000 0.500000
O O17 0.956578 0.853393 0.590228
O O18 0.000000 0.850623 0.500000
O O19 0.127454 0.702852 0.577197
O O20 0.723012 0.000000 0.972832
#
# Coordination Sequence:
#
# PCOD9218909 Si02
#       8
#     8   8   8   8   8   8   8   8
#     4   8  13  21  33  52  84 126 167 209 260 314
#     4   8  14  25  40  61  91 127 168 213 259 306
#     4   8  14  25  40  61  91 126 168 216 257 301
#     4   9  18  33  54  80 112 146 178 220 271 319
#     4   9  18  33  54  80 111 146 181 218 266 325
#     4   9  20  36  60  86 113 145 178 214 263 305
#     4  11  18  36  62  84 108 147 181 214 260 317
#     4   8  13  21  33  52  84 126 167 208 261 317
#
# _framework density 25.124579000000001
#
# number of rings (size 3 to 8) (size 9 to 14) (size 15 to 20)
#    0.000    3.250    1.250    2.250    0.000    0.500 
#    2.250    3.125    0.000   15.000    0.000    0.875 
#    0.000    0.000    0.000    0.000    0.000    0.000 
#
# Total GULP energy -178576.603241 kJ/mol
# GULP energy per Si atom -5580.518851 kJ/mol
# Density = 2.506739 g / cm^3
# Si number density = 25.124579 Si / 1000 Ang^3
#
#
#
# Elastic Constant Matrix: (Units=GPa)
#
#
# Indices 1 2 3 4 5 6 
#
# 1 38.1605 2.9879 32.1801 0.0000 4.5825 0.0000
# 2 2.9879 54.7538 22.9354 0.0000 0.3663 0.0000
# 3 32.1801 22.9354 122.7298 0.0000 20.2889 0.0000
# 4 0.0000 0.0000 0.0000 17.2077 0.0000 3.1115
# 5 4.5825 0.3663 20.2889 0.0000 45.9104 0.0000
# 6 0.0000 0.0000 0.0000 3.1115 0.0000 14.6797
#
#
#
# Elastic Compliance Matrix: (Units=1/GPa)
#
#
# Indices 1 2 3 4 5 6 
#
# 1 0.033875 0.002082 -0.009396 0.000000 0.000754 0.000000
# 2 0.002082 0.020051 -0.004566 0.000000 0.001650 0.000000
# 3 -0.009396 -0.004566 0.012195 0.000000 -0.004415 0.000000
# 4 0.000000 0.000000 0.000000 0.060430 0.000000 -0.012809
# 5 0.000754 0.001650 -0.004415 0.000000 0.023644 0.000000
# 6 0.000000 0.000000 0.000000 -0.012809 0.000000 0.070836
#
#
# Mechanical properties :
#
#
# Convention : Reuss Voigt Hill
#
# Bulk Modulus (GPa) = 23.60615 36.87232 30.23923
# Shear Modulus (GPa) = 19.31167 26.06227 22.68697
#
# Velocity S-wave (km/s) = 2.77544 3.22424 3.00822
# Velocity P-wave (km/s) = 4.43698 5.34496 4.91200
#
# Compressibility (1/GPa) = 0.04236185
#
# Stress axis : x y z
#
# Youngs Moduli (GPa) = 29.52035 49.87163 82.00267
#
# Poissons Ratio (x) = -0.10384 0.77049
# Poissons Ratio (y) = -0.06147 0.37441
# Poissons Ratio (z) = 0.27737 0.22771
#
# Static dielectric constant tensor:
#      x y z
#    x 1.993740 0.000000 -0.003240 
#    y 0.000000 2.073030 0.000000 
#    z -0.003240 0.000000 2.005510 
# 
# From -- ./inp_files/372593.got.cif
#   From: 2010.05.17/outbox.cif.g08.bks.cpg/sg12_187_cif.got.tgz:372593.got - 2010.06.03 13:09:07.
