data_PCOD9218963
_publ_section_title
;
Structure prediction by ZEFSAII (Michael W. Deem and Ramdas Pophale) SiO2 
 PCOD9218963
Probable space group: C 2/M
;
_chemical_formula_sum "Si O2"
_cell_formula_units_Z 56
_cell_length_a 12.528299
_cell_length_b 27.292196
_cell_length_c 9.052926
_cell_angle_alpha 90.000000
_cell_angle_beta 117.506781
_cell_angle_gamma 90.000000
_cell_volume 2745.501751
_symmetry_space_group_name_H-M "C 2/M"
_symmetry_group_IT_number 12
_symmetry_cell_setting 'monoclinic'
loop_
_space_group_symop_operation_xyz
x,y,z
-x,y,-z
-x,-y,-z
x,-y,z
1/2+x,1/2+y,z
1/2-x,1/2+y,-z
1/2-x,1/2-y,-z
1/2+x,1/2-y,z
loop_
_atom_site_type_symbol
_atom_site_label
_atom_site_fract_x
_atom_site_fract_y
_atom_site_fract_z
Si Si1 0.372648 0.306926 0.074198
Si Si2 0.483524 0.412753 0.148356
Si Si3 0.636885 0.556457 0.646282
Si Si4 0.160066 0.683190 0.696940
Si Si5 0.707223 0.623616 0.455006
Si Si6 0.983577 0.704326 0.827289
Si Si7 0.700295 0.289262 0.641434
O O1 0.447444 0.356077 0.105578
O O2 0.448611 0.256892 0.117388
O O3 0.318974 0.308232 0.204676
O O4 0.272205 0.307835 0.881809
O O5 0.383136 0.434957 0.192444
O O6 0.613567 0.409688 0.306799
O O7 0.500000 0.436603 0.000000
O O8 0.500000 0.566823 0.500000
O O9 0.664588 0.500000 0.633643
O O10 0.728074 0.592225 0.617909
O O11 0.194506 0.642023 0.599815
O O12 0.047962 0.675791 0.734644
O O13 0.146370 0.735104 0.604853
O O14 0.649367 0.673714 0.486021
O O15 0.843275 0.711977 0.710242
O O16 0.000000 0.680742 0.000000
#
# Coordination Sequence:
#
# PCOD9218963 Si02
#       7
#     8   8   8   8   8   8   8
#     4  11  19  33  54  75 109 150 195 219 260 316
#     4  11  20  34  58  81 106 144 182 222 267 327
#     4   9  20  38  57  81 110 138 170 221 286 338
#     4  11  21  33  52  79 109 150 194 225 260 317
#     4  11  22  35  52  79 112 143 180 221 273 325
#     4  11  19  32  51  73 107 154 187 229 260 293
#     4  11  21  34  50  75 111 150 189 225 264 314
#
# _framework density 20.396999999999998
#
# number of rings (size 3 to 8) (size 9 to 14) (size 15 to 20)
#    0.000    1.286    5.714    2.571    0.000    0.857 
#    0.000    0.000    0.000    0.000    0.000    2.000 
#    0.000    2.286    0.000    0.000    0.000    0.000 
#
# Total GULP energy -156370.909688 kJ/mol
# GULP energy per Si atom -5584.675346 kJ/mol
# Density = 2.035058 g / cm^3
# Si number density = 20.397000 Si / 1000 Ang^3
#
#
#
# Elastic Constant Matrix: (Units=GPa)
#
#
# Indices 1 2 3 4 5 6 
#
# 1 123.4644 28.1397 42.7177 0.0000 -49.6923 0.0000
# 2 28.1397 42.4618 5.4126 0.0000 -24.9568 0.0000
# 3 42.7177 5.4126 88.2625 0.0000 -32.6551 0.0000
# 4 0.0000 0.0000 0.0000 0.7124 0.0000 -1.0451
# 5 -49.6923 -24.9568 -32.6551 0.0000 51.6756 0.0000
# 6 0.0000 0.0000 0.0000 -1.0451 0.0000 19.1212
#
#
#
# Elastic Compliance Matrix: (Units=1/GPa)
#
#
# Indices 1 2 3 4 5 6 
#
# 1 0.013776 -0.002808 -0.002735 0.000000 0.010163 0.000000
# 2 -0.002808 0.035268 0.005872 0.000000 0.018043 0.000000
# 3 -0.002735 0.005872 0.016144 0.000000 0.010407 0.000000
# 4 0.000000 0.000000 0.000000 1.526147 0.000000 0.083418
# 5 0.010163 0.018043 0.010407 0.000000 0.044415 0.000000
# 6 0.000000 0.000000 0.000000 0.083418 0.000000 0.056857
#
#
# Mechanical properties :
#
#
# Convention : Reuss Voigt Hill
#
# Bulk Modulus (GPa) = 15.18706 45.19208 30.18957
# Shear Modulus (GPa) = 2.91733 26.16308 14.54020
#
# Velocity S-wave (km/s) = 1.19724 3.58536 2.67284
# Velocity P-wave (km/s) = 3.06155 6.27248 4.93544
#
# Compressibility (1/GPa) = 0.06584555
#
# Stress axis : x y z
#
# Youngs Moduli (GPa) = 72.58868 28.35471 61.94244
#
# Poissons Ratio (x) = 0.07961 0.16942
# Poissons Ratio (y) = 0.20380 -0.36370
# Poissons Ratio (z) = 0.19854 -0.16649
#
# Static dielectric constant tensor:
#      x y z
#    x 1.770490 0.000000 -0.036300 
#    y 0.000000 1.702480 0.000000 
#    z -0.036300 0.000000 1.846300 
# 
# From -- ./inp_files/54326.got.cif
#   From: 2010.05.17/outbox.cif.g08.bks.cpg/sg12_28_cif.got.tgz:54326.got - 2010.06.03 13:09:07.
