data_PCOD9218394
_publ_section_title
;
Structure prediction by ZEFSAII (Michael W. Deem and Ramdas Pophale) SiO2 
 PCOD9218394
Probable space group: C 2/M
;
_chemical_formula_sum "Si O2"
_cell_formula_units_Z 40
_cell_length_a 12.672991
_cell_length_b 13.783158
_cell_length_c 12.372244
_cell_angle_alpha 90.000000
_cell_angle_beta 45.707667
_cell_angle_gamma 90.000000
_cell_volume 1546.890776
_symmetry_space_group_name_H-M "C 2/M"
_symmetry_group_IT_number 12
_symmetry_cell_setting 'monoclinic'
loop_
_space_group_symop_operation_xyz
x,y,z
-x,y,-z
-x,-y,-z
x,-y,z
1/2+x,1/2+y,z
1/2-x,1/2+y,-z
1/2-x,1/2-y,-z
1/2+x,1/2-y,z
loop_
_atom_site_type_symbol
_atom_site_label
_atom_site_fract_x
_atom_site_fract_y
_atom_site_fract_z
Si Si1 0.231446 0.611701 0.268847
Si Si2 0.143403 0.393585 0.970542
Si Si3 0.954525 0.761011 0.209654
Si Si4 0.418394 0.110211 0.389814
Si Si5 0.457942 0.612825 0.648240
O O1 0.275682 0.500000 0.214996
O O2 0.367772 0.684746 0.176566
O O3 0.089393 0.634530 0.296846
O O4 0.167259 0.615985 0.436686
O O5 0.165146 0.500000 0.011599
O O6 0.283839 0.381912 0.794070
O O7 0.000000 0.402527 0.000000
O O8 0.100067 0.298606 0.070083
O O9 0.859579 0.678240 0.338045
O O10 0.981453 0.836080 0.287715
O O11 0.411634 0.000000 0.357486
O O12 0.500000 0.653809 0.500000
O O13 0.505645 0.500000 0.615165
#
# Coordination Sequence:
#
# PCOD9218394 Si02
#       5
#     8   8   8   8   8
#     4   9  20  38  58  92 138 181 225 282 342 405
#     4  10  24  45  67  97 140 184 227 280 348 417
#     4  12  22  36  72 100 131 176 239 282 343 416
#     4   9  20  37  58  91 139 182 226 281 341 407
#     4  10  24  45  68  99 140 180 227 289 347 406
#
# _framework density 25.858321
#
# number of rings (size 3 to 8) (size 9 to 14) (size 15 to 20)
#    0.000    2.000    0.000    3.600    5.600    1.600 
#    0.000    4.000    0.000    1.200    0.000    0.000 
#    0.000    0.000    0.000    0.000    0.000    0.000 
#
# Total GULP energy -111927.476085 kJ/mol
# GULP energy per Si atom -5596.373804 kJ/mol
# Density = 2.579947 g / cm^3
# Si number density = 25.858321 Si / 1000 Ang^3
#
#
#
# Elastic Constant Matrix: (Units=GPa)
#
#
# Indices 1 2 3 4 5 6 
#
# 1 88.0269 58.1628 24.6681 0.0000 -8.3319 0.0000
# 2 58.1628 143.0772 40.3869 0.0000 0.6334 0.0000
# 3 24.6681 40.3869 125.7492 0.0000 2.2058 0.0000
# 4 0.0000 0.0000 0.0000 33.9687 0.0000 10.3322
# 5 -8.3319 0.6334 2.2058 0.0000 35.0920 0.0000
# 6 0.0000 0.0000 0.0000 10.3322 0.0000 -0.8328
#
#
#
# Elastic Compliance Matrix: (Units=1/GPa)
#
#
# Indices 1 2 3 4 5 6 
#
# 1 0.016231 -0.006265 -0.001243 0.000000 0.004045 0.000000
# 2 -0.006265 0.010104 -0.001989 0.000000 -0.001545 0.000000
# 3 -0.001243 -0.001989 0.008849 0.000000 -0.000815 0.000000
# 4 0.000000 0.000000 0.000000 0.006167 0.000000 0.076509
# 5 0.004045 -0.001545 -0.000815 0.000000 0.029536 0.000000
# 6 0.000000 0.000000 0.000000 0.076509 0.000000 -0.251538
#
#
# Mechanical properties :
#
#
# Convention : Reuss Voigt Hill
#
# Bulk Modulus (GPa) = 61.76460 67.03210 64.39835
# Shear Modulus (GPa) = -31.99823 29.22127 -1.38848
#
# Velocity S-wave (km/s) = -3.52155 3.36527 -0.73357
# Velocity P-wave (km/s) = 2.72076 6.40931 4.92350
#
# Compressibility (1/GPa) = 0.01619050
#
# Stress axis : x y z
#
# Youngs Moduli (GPa) = 61.61065 98.96642 113.00364
#
# Poissons Ratio (x) = 0.62005 0.14044
# Poissons Ratio (y) = 0.38600 0.22478
# Poissons Ratio (z) = 0.07657 0.19685
#
# Static dielectric constant tensor:
#      x y z
#    x 2.011100 0.000000 -0.032090 
#    y 0.000000 2.134170 0.000000 
#    z -0.032090 0.000000 2.025510 
# 
# From -- ./inp_files/214581.got.cif
#   From: 2010.05.17/outbox.cif.g08.bks.cpg/sg12_108_cif.got.tgz:214581.got - 2010.06.03 13:09:07.
