data_PCOD9218662
_publ_section_title
;
Structure prediction by ZEFSAII (Michael W. Deem and Ramdas Pophale) SiO2 
 PCOD9218662
Probable space group: C 2/M
;
_chemical_formula_sum "Si O2"
_cell_formula_units_Z 56
_cell_length_a 22.190017
_cell_length_b 17.143044
_cell_length_c 22.512622
_cell_angle_alpha 90.000000
_cell_angle_beta 16.193202
_cell_angle_gamma 90.000000
_cell_volume 2388.276543
_symmetry_space_group_name_H-M "C 2/M"
_symmetry_group_IT_number 12
_symmetry_cell_setting 'monoclinic'
loop_
_space_group_symop_operation_xyz
x,y,z
-x,y,-z
-x,-y,-z
x,-y,z
1/2+x,1/2+y,z
1/2-x,1/2+y,-z
1/2-x,1/2-y,-z
1/2+x,1/2-y,z
loop_
_atom_site_type_symbol
_atom_site_label
_atom_site_fract_x
_atom_site_fract_y
_atom_site_fract_z
Si Si1 0.899860 0.798632 0.211817
Si Si2 0.304534 0.151587 0.049707
Si Si3 0.730684 0.638384 0.245382
Si Si4 0.216570 0.327016 0.262557
Si Si5 0.877834 0.779328 0.435598
Si Si6 0.240496 0.593881 0.110843
Si Si7 0.579350 0.086722 0.691013
O O1 0.879057 0.833553 0.165491
O O2 0.681669 0.773717 0.451670
O O3 0.014061 0.714028 0.101603
O O4 0.042158 0.859837 0.114518
O O5 0.205868 0.111594 0.201018
O O6 0.127070 0.208648 0.189949
O O7 0.394985 0.093798 0.915555
O O8 0.500000 0.616103 0.500000
O O9 0.714787 0.732757 0.257713
O O10 0.000000 0.620160 0.000000
O O11 0.213275 0.372975 0.203422
O O12 0.000000 0.353565 0.500000
O O13 0.750000 0.750000 0.500000
O O14 0.772032 0.864876 0.537759
O O15 0.266679 0.500000 0.085853
O O16 0.041670 0.613231 0.254970
O O17 0.653412 0.000000 0.609715
#
# Coordination Sequence:
#
# PCOD9218662 Si02
#       7
#     8   8   8   8   8   8   8
#     4  11  22  39  61  97 130 167 228 285 343 401
#     4  11  22  40  68  96 128 172 222 286 349 417
#     4  11  21  37  65 104 139 173 220 287 359 420
#     4  11  22  36  61  91 135 176 226 284 348 410
#     4  11  23  38  68  98 126 172 230 289 345 412
#     4  11  23  42  62  87 135 188 228 277 342 419
#     4  10  25  45  65  95 136 177 226 283 345 415
#
# _framework density 23.447870999999999
#
# number of rings (size 3 to 8) (size 9 to 14) (size 15 to 20)
#    0.000    1.143    2.857    3.857    4.000    4.286 
#    0.000    0.714    0.000    0.857    0.000    0.000 
#    0.000    0.000    0.000    0.000    0.000    0.000 
#
# Total GULP energy -155869.579802 kJ/mol
# GULP energy per Si atom -5566.770707 kJ/mol
# Density = 2.339450 g / cm^3
# Si number density = 23.447871 Si / 1000 Ang^3
#
#
#
# Elastic Constant Matrix: (Units=GPa)
#
#
# Indices 1 2 3 4 5 6 
#
# 1 118.9093 20.7053 25.9757 -0.0166 -5.7219 -0.0184
# 2 20.7053 46.7765 11.7060 -0.1812 -6.1974 0.0599
# 3 25.9757 11.7060 65.9382 -0.1876 -4.2672 0.0300
# 4 -0.0166 -0.1812 -0.1876 9.8371 -0.0171 1.5929
# 5 -5.7219 -6.1974 -4.2672 -0.0171 31.7858 0.0289
# 6 -0.0184 0.0599 0.0300 1.5929 0.0289 16.2416
#
#
#
# Elastic Compliance Matrix: (Units=1/GPa)
#
#
# Indices 1 2 3 4 5 6 
#
# 1 0.009733 -0.003425 -0.003184 -0.000113 0.000657 0.000039
# 2 -0.003425 0.024059 -0.002680 0.000415 0.003715 -0.000135
# 3 -0.003184 -0.002680 0.016973 0.000280 0.001183 -0.000055
# 4 -0.000113 0.000415 0.000280 0.103310 0.000163 -0.010135
# 5 0.000657 0.003715 0.001183 0.000163 0.032462 -0.000089
# 6 0.000039 -0.000135 -0.000055 -0.010135 -0.000089 0.062565
#
#
# Mechanical properties :
#
#
# Convention : Reuss Voigt Hill
#
# Bulk Modulus (GPa) = 31.06870 38.71088 34.88979
# Shear Modulus (GPa) = 17.95906 23.12202 20.54054
#
# Velocity S-wave (km/s) = 2.77052 3.14364 2.96296
# Velocity P-wave (km/s) = 4.84905 5.45177 5.15922
#
# Compressibility (1/GPa) = 0.03218673
#
# Stress axis : x y z
#
# Youngs Moduli (GPa) = 102.73975 41.56447 58.91611
#
# Poissons Ratio (x) = 0.14236 0.18760
# Poissons Ratio (y) = 0.35189 0.15791
# Poissons Ratio (z) = 0.32714 0.11140
#
# Static dielectric constant tensor:
#      x y z
#    x 1.921730 0.000830 0.154380 
#    y 0.000830 1.905930 -0.006050 
#    z 0.154380 -0.006050 0.858760 
# 
# From -- ./inp_files/322623.got.cif
#   From: 2010.05.17/outbox.cif.g08.bks.cpg/sg12_162_cif.got.tgz:322623.got - 2010.06.03 13:09:07.
