data_PCOD9218689
_publ_section_title
;
Structure prediction by ZEFSAII (Michael W. Deem and Ramdas Pophale) SiO2 
 PCOD9218689
Probable space group: C 2/M
;
_chemical_formula_sum "Si O2"
_cell_formula_units_Z 28
_cell_length_a 11.132918
_cell_length_b 21.421978
_cell_length_c 5.117310
_cell_angle_alpha 90.000000
_cell_angle_beta 74.788768
_cell_angle_gamma 90.000000
_cell_volume 1177.665364
_symmetry_space_group_name_H-M "C 2/M"
_symmetry_group_IT_number 12
_symmetry_cell_setting 'monoclinic'
loop_
_space_group_symop_operation_xyz
x,y,z
-x,y,-z
-x,-y,-z
x,-y,z
1/2+x,1/2+y,z
1/2-x,1/2+y,-z
1/2-x,1/2-y,-z
1/2+x,1/2-y,z
loop_
_atom_site_type_symbol
_atom_site_label
_atom_site_fract_x
_atom_site_fract_y
_atom_site_fract_z
Si Si1 0.500000 0.369857 0.000000
Si Si2 0.081842 0.601168 0.212428
Si Si3 0.690451 0.568628 0.243328
Si Si4 0.258425 0.318731 0.386431
O O1 0.441255 0.413020 0.808596
O O2 0.614227 0.327665 0.843683
O O3 0.137463 0.666572 0.281765
O O4 0.000000 0.575096 0.500000
O O5 0.207845 0.566993 0.049520
O O6 0.000000 0.604996 0.000000
O O7 0.688647 0.500000 0.368461
O O8 0.733456 0.625267 0.404981
O O9 0.250000 0.250000 0.500000
#
# Coordination Sequence:
#
# PCOD9218689 Si02
#       4
#     4   8   8   8
#     4  10  25  46  74 110 145 196 254 318 373 450
#     4  11  24  48  72 109 150 199 247 312 372 447
#     4  11  25  47  74 108 151 200 251 312 379 446
#     4  11  26  47  75 109 151 199 255 310 378 447
#
# _framework density 23.775853999999999
#
# number of rings (size 3 to 8) (size 9 to 14) (size 15 to 20)
#    0.000    1.143    2.857    1.286    0.000   17.143 
#    2.571    0.000    0.000    0.000    0.000    0.000 
#    0.000    0.000    0.000    0.000    0.000    0.000 
#
# Total GULP energy -78308.242603 kJ/mol
# GULP energy per Si atom -5593.445900 kJ/mol
# Density = 2.372174 g / cm^3
# Si number density = 23.775854 Si / 1000 Ang^3
#
#
#
# Elastic Constant Matrix: (Units=GPa)
#
#
# Indices 1 2 3 4 5 6 
#
# 1 120.9723 20.0850 37.7958 0.0000 10.4210 0.0000
# 2 20.0850 178.4111 40.3254 0.0000 11.7164 0.0000
# 3 37.7958 40.3254 130.1225 0.0000 -4.9760 0.0000
# 4 0.0000 0.0000 0.0000 20.5883 0.0000 11.3250
# 5 10.4210 11.7164 -4.9760 0.0000 57.7592 0.0000
# 6 0.0000 0.0000 0.0000 11.3250 0.0000 -0.5568
#
#
#
# Elastic Compliance Matrix: (Units=1/GPa)
#
#
# Indices 1 2 3 4 5 6 
#
# 1 0.009315 -0.000323 -0.002676 0.000000 -0.001846 0.000000
# 2 -0.000323 0.006151 -0.001864 0.000000 -0.001350 0.000000
# 3 -0.002676 -0.001864 0.009103 0.000000 0.001645 0.000000
# 4 0.000000 0.000000 0.000000 0.003985 0.000000 0.081056
# 5 -0.001846 -0.001350 0.001645 0.000000 0.018062 0.000000
# 6 0.000000 0.000000 0.000000 0.081056 0.000000 -0.147356
#
#
# Mechanical properties :
#
#
# Convention : Reuss Voigt Hill
#
# Bulk Modulus (GPa) = 67.37049 69.54648 68.45849
# Shear Modulus (GPa) = -58.09565 37.64480 -10.22542
#
# Velocity S-wave (km/s) = -4.94851 3.98341 -2.07608
# Velocity P-wave (km/s) = 2.06232 7.10431 4.80718
#
# Compressibility (1/GPa) = 0.01484329
#
# Stress axis : x y z
#
# Youngs Moduli (GPa) = 107.35280 162.56490 109.85267
#
# Poissons Ratio (x) = 0.05243 0.29400
# Poissons Ratio (y) = 0.03462 0.20480
# Poissons Ratio (z) = 0.28731 0.30307
#
# Static dielectric constant tensor:
#      x y z
#    x 1.901170 0.000000 -0.002690 
#    y 0.000000 1.881820 0.000000 
#    z -0.002690 0.000000 1.992630 
# 
# From -- ./inp_files/5632.got.cif
#   From: 2010.05.17/outbox.cif.g08.bks.cpg/sg12_3_cif.got.tgz:5632.got - 2010.06.03 13:09:07.
