data_PCOD9218557
_publ_section_title
;
Structure prediction by ZEFSAII (Michael W. Deem and Ramdas Pophale) SiO2 
 PCOD9218557
Probable space group: C 2/M
;
_chemical_formula_sum "Si O2"
_cell_formula_units_Z 30
_cell_length_a 8.976631
_cell_length_b 30.919989
_cell_length_c 4.926515
_cell_angle_alpha 90.000000
_cell_angle_beta 106.939066
_cell_angle_gamma 90.000000
_cell_volume 1308.066336
_symmetry_space_group_name_H-M "C 2/M"
_symmetry_group_IT_number 12
_symmetry_cell_setting 'monoclinic'
loop_
_space_group_symop_operation_xyz
x,y,z
-x,y,-z
-x,-y,-z
x,-y,z
1/2+x,1/2+y,z
1/2-x,1/2+y,-z
1/2-x,1/2-y,-z
1/2+x,1/2-y,z
loop_
_atom_site_type_symbol
_atom_site_label
_atom_site_fract_x
_atom_site_fract_y
_atom_site_fract_z
Si Si1 0.826821 0.139109 0.290823
Si Si2 0.000000 0.262130 0.000000
Si Si3 0.176004 0.546829 0.215789
Si Si4 0.500000 0.000000 0.500000
Si Si5 0.257045 0.193869 0.262050
O O1 0.768126 0.090165 0.234484
O O2 0.725832 0.168220 0.447529
O O3 0.000000 0.140379 0.500000
O O4 0.815415 0.160444 0.992238
O O5 0.130178 0.232248 0.215398
O O6 0.906859 0.287874 0.182615
O O7 0.758635 0.500000 0.848376
O O8 0.132540 0.537181 0.504708
O O9 0.000000 0.548051 0.000000
#
# Coordination Sequence:
#
# PCOD9218557 Si02
#       5
#     8   4   8   2   8
#     4  12  25  43  66 104 140 171 227 278 337 397
#     4  10  24  48  70  94 136 180 230 274 350 392
#     4   9  22  40  67  94 133 173 221 272 326 402
#     4   8  18  40  62  96 124 172 228 270 312 402
#     4  11  26  44  69 100 134 179 224 287 329 409
#
# _framework density 22.934615999999998
#
# number of rings (size 3 to 8) (size 9 to 14) (size 15 to 20)
#    0.800    0.800    2.667    0.000    5.600    8.000 
#    0.000    0.000    0.000    4.800    0.000    0.000 
#    0.000    0.000    0.000    0.000    0.000    0.000 
#
# Total GULP energy -83505.091787 kJ/mol
# GULP energy per Si atom -5567.006119 kJ/mol
# Density = 2.288242 g / cm^3
# Si number density = 22.934616 Si / 1000 Ang^3
#
#
#
# Elastic Constant Matrix: (Units=GPa)
#
#
# Indices 1 2 3 4 5 6 
#
# 1 104.4118 62.8802 0.7495 0.0000 -10.9911 0.0000
# 2 62.8802 148.3982 18.0836 0.0000 -8.9644 0.0000
# 3 0.7495 18.0836 72.6731 0.0000 -8.0814 0.0000
# 4 0.0000 0.0000 0.0000 34.7084 0.0000 8.2664
# 5 -10.9911 -8.9644 -8.0814 0.0000 25.4396 0.0000
# 6 0.0000 0.0000 0.0000 8.2664 0.0000 32.6233
#
#
#
# Elastic Compliance Matrix: (Units=1/GPa)
#
#
# Indices 1 2 3 4 5 6 
#
# 1 0.013418 -0.005635 0.001749 0.000000 0.004367 0.000000
# 2 -0.005635 0.009412 -0.002266 0.000000 0.000162 0.000000
# 3 0.001749 -0.002266 0.014825 0.000000 0.004667 0.000000
# 4 0.000000 0.000000 0.000000 0.030662 0.000000 -0.007769
# 5 0.004367 0.000162 0.004667 0.000000 0.042735 0.000000
# 6 0.000000 0.000000 0.000000 -0.007769 0.000000 0.032622
#
#
# Mechanical properties :
#
#
# Convention : Reuss Voigt Hill
#
# Bulk Modulus (GPa) = 39.44379 54.32329 46.88354
# Shear Modulus (GPa) = 30.40839 34.80558 32.60699
#
# Velocity S-wave (km/s) = 3.64520 3.89987 3.77468
# Velocity P-wave (km/s) = 5.91205 6.63447 6.28365
#
# Compressibility (1/GPa) = 0.02535254
#
# Stress axis : x y z
#
# Youngs Moduli (GPa) = 74.52538 106.24434 67.45354
#
# Poissons Ratio (x) = 0.59869 -0.11801
# Poissons Ratio (y) = 0.41995 0.15285
# Poissons Ratio (z) = -0.13038 0.24074
#
# Static dielectric constant tensor:
#      x y z
#    x 1.853990 0.000000 -0.006820 
#    y 0.000000 1.837310 0.000000 
#    z -0.006820 0.000000 2.058940 
# 
# From -- ./inp_files/3543.got.cif
#   From: 2010.05.17/outbox.cif.g08.bks.cpg/sg12_2_cif.got.tgz:3543.got - 2010.06.03 13:09:07.
