data_PCOD9218978
_publ_section_title
;
Structure prediction by ZEFSAII (Michael W. Deem and Ramdas Pophale) SiO2 
 PCOD9218978
Probable space group: C 2/M
;
_chemical_formula_sum "Si O2"
_cell_formula_units_Z 52
_cell_length_a 17.800074
_cell_length_b 24.886186
_cell_length_c 8.031071
_cell_angle_alpha 90.000000
_cell_angle_beta 133.125203
_cell_angle_gamma 90.000000
_cell_volume 2596.534880
_symmetry_space_group_name_H-M "C 2/M"
_symmetry_group_IT_number 12
_symmetry_cell_setting 'monoclinic'
loop_
_space_group_symop_operation_xyz
x,y,z
-x,y,-z
-x,-y,-z
x,-y,z
1/2+x,1/2+y,z
1/2-x,1/2+y,-z
1/2-x,1/2-y,-z
1/2+x,1/2-y,z
loop_
_atom_site_type_symbol
_atom_site_label
_atom_site_fract_x
_atom_site_fract_y
_atom_site_fract_z
Si Si1 0.209663 0.169580 0.724772
Si Si2 0.970321 0.233027 0.682636
Si Si3 0.837421 0.769903 0.814221
Si Si4 0.099317 0.938891 0.884300
Si Si5 0.000000 0.334403 0.500000
Si Si6 0.725671 0.140889 0.804298
Si Si7 0.871079 0.062156 0.474638
O O1 0.096018 0.196719 0.544511
O O2 0.290228 0.211867 0.775779
O O3 0.204640 0.112689 0.620250
O O4 0.242568 0.161350 0.964326
O O5 0.895110 0.231926 0.727853
O O6 0.995430 0.291604 0.645757
O O7 0.078260 0.213168 0.919738
O O8 0.746719 0.812625 0.702007
O O9 0.113558 0.938364 0.703976
O O10 0.980007 0.922631 0.725668
O O11 0.106642 0.000000 0.952220
O O12 0.191753 0.905718 0.104476
O O13 0.896095 0.368805 0.361839
O O14 0.844614 0.000000 0.479520
#
# Coordination Sequence:
#
# PCOD9218978 Si02
#       7
#     8   8   8   8   4   8   8
#     4  11  19  33  54  78 106 145 175 217 268 316
#     4  11  23  35  53  76 111 142 180 220 261 326
#     4  11  22  36  50  80 111 145 176 216 272 319
#     4   8  15  30  51  78 107 137 173 222 266 308
#     4  12  22  36  51  76 109 140 186 222 260 312
#     4  11  21  34  54  79 109 146 182 220 262 322
#     4   8  15  28  50  79 105 130 176 224 263 309
#
# _framework density 20.026689999999999
#
# number of rings (size 3 to 8) (size 9 to 14) (size 15 to 20)
#    0.000    1.846    3.077    3.692    0.000    2.462 
#    0.000    0.385    0.000    0.923    0.000    7.538 
#    0.000    0.000    0.000    0.000    0.000    0.000 
#
# Total GULP energy -144993.611994 kJ/mol
# GULP energy per Si atom -5576.677384 kJ/mol
# Density = 1.998111 g / cm^3
# Si number density = 20.026690 Si / 1000 Ang^3
#
#
#
# Elastic Constant Matrix: (Units=GPa)
#
#
# Indices 1 2 3 4 5 6 
#
# 1 75.1041 27.0813 21.1830 0.0000 21.8343 0.0000
# 2 27.0813 83.9403 14.1931 0.0000 20.1653 0.0000
# 3 21.1830 14.1931 73.4503 0.0000 16.7406 0.0000
# 4 0.0000 0.0000 0.0000 27.8224 0.0000 18.7250
# 5 21.8343 20.1653 16.7406 0.0000 25.2068 0.0000
# 6 0.0000 0.0000 0.0000 18.7250 0.0000 9.3751
#
#
#
# Elastic Compliance Matrix: (Units=1/GPa)
#
#
# Indices 1 2 3 4 5 6 
#
# 1 0.018472 -0.002596 -0.001947 0.000000 -0.012631 0.000000
# 2 -0.002596 0.015115 0.000084 0.000000 -0.009899 0.000000
# 3 -0.001947 0.000084 0.016251 0.000000 -0.009173 0.000000
# 4 0.000000 0.000000 0.000000 -0.104410 0.000000 0.208541
# 5 -0.012631 -0.009899 -0.009173 0.000000 0.064624 0.000000
# 6 0.000000 0.000000 0.000000 0.208541 0.000000 -0.309859
#
#
# Mechanical properties :
#
#
# Convention : Reuss Voigt Hill
#
# Bulk Modulus (GPa) = 24.43808 39.71217 32.07512
# Shear Modulus (GPa) = -18.03422 23.81668 2.89123
#
# Velocity S-wave (km/s) = -3.00410 3.45229 1.20284
# Velocity P-wave (km/s) = 0.44315 5.98028 4.24029
#
# Compressibility (1/GPa) = 0.04091975
#
# Stress axis : x y z
#
# Youngs Moduli (GPa) = 54.13560 66.16137 61.53600
#
# Poissons Ratio (x) = 0.17176 0.11980
# Poissons Ratio (y) = 0.14054 -0.00518
# Poissons Ratio (z) = 0.10540 -0.00557
#
# Static dielectric constant tensor:
#      x y z
#    x 1.728470 0.000000 -0.019200 
#    y 0.000000 1.736920 0.000000 
#    z -0.019200 0.000000 1.778710 
# 
# From -- ./inp_files/90717.got.cif
#   From: 2010.05.17/outbox.cif.g08.bks.cpg/sg12_46_cif.got.tgz:90717.got - 2010.06.03 13:09:07.
