data_PCOD9218111
_publ_section_title
;
Structure prediction by ZEFSAII (Michael W. Deem and Ramdas Pophale) SiO2 
 PCOD9218111
Probable space group: C 2/M
;
_chemical_formula_sum "Si O2"
_cell_formula_units_Z 42
_cell_length_a 7.811543
_cell_length_b 11.869764
_cell_length_c 18.281808
_cell_angle_alpha 90.000000
_cell_angle_beta 76.553517
_cell_angle_gamma 90.000000
_cell_volume 1648.643518
_symmetry_space_group_name_H-M "C 2/M"
_symmetry_group_IT_number 12
_symmetry_cell_setting 'monoclinic'
loop_
_space_group_symop_operation_xyz
x,y,z
-x,y,-z
-x,-y,-z
x,-y,z
1/2+x,1/2+y,z
1/2-x,1/2+y,-z
1/2-x,1/2-y,-z
1/2+x,1/2-y,z
loop_
_atom_site_type_symbol
_atom_site_label
_atom_site_fract_x
_atom_site_fract_y
_atom_site_fract_z
Si Si1 0.479812 0.881182 0.915143
Si Si2 0.440549 0.281237 0.647265
Si Si3 0.700403 0.131835 0.547780
Si Si4 0.192840 0.876645 0.734995
Si Si5 0.500000 0.500000 0.000000
Si Si6 0.125996 0.847976 0.122168
O O1 0.681689 0.882225 0.868668
O O2 0.368608 0.784503 0.891278
O O3 0.388612 0.000000 0.909359
O O4 0.500000 0.867944 0.000000
O O5 0.510703 0.170504 0.597141
O O6 0.331944 0.359583 0.603798
O O7 0.327598 0.226803 0.724110
O O8 0.597809 0.351784 0.666762
O O9 0.750000 0.250000 0.500000
O O10 0.703617 0.000000 0.520585
O O11 0.037129 0.874329 0.809207
O O12 0.276779 0.000000 0.729380
O O13 0.419813 0.403940 0.951095
#
# Coordination Sequence:
#
# PCOD9218111 Si02
#       6
#     8   8   8   8   2   8
#     4  11  24  41  60  87 119 160 205 265 334 402
#     4  10  24  42  65  97 135 176 227 272 319 391
#     4  11  24  43  70 104 140 178 220 270 326 388
#     4  11  22  42  65  90 127 177 222 273 331 393
#     4  12  24  40  68  96 132 160 222 290 340 404
#     4  12  24  42  65  93 127 167 218 278 344 398
#
# _framework density 25.475491000000002
#
# number of rings (size 3 to 8) (size 9 to 14) (size 15 to 20)
#    0.000    0.952    2.857    3.429    0.000    6.095 
#    0.000    4.762    0.000    0.000    0.000    0.000 
#    0.000    0.000    0.000    0.000    0.000    0.000 
#
# Total GULP energy -117205.845913 kJ/mol
# GULP energy per Si atom -5581.230758 kJ/mol
# Density = 2.541751 g / cm^3
# Si number density = 25.475491 Si / 1000 Ang^3
#
#
#
# Elastic Constant Matrix: (Units=GPa)
#
#
# Indices 1 2 3 4 5 6 
#
# 1 59.4666 9.1113 6.6804 0.0000 3.8871 0.0000
# 2 9.1113 203.3875 41.5393 0.0000 5.3891 0.0000
# 3 6.6804 41.5393 74.0769 0.0000 -19.5056 0.0000
# 4 0.0000 0.0000 0.0000 2361.0083 0.0000 1503.6423
# 5 3.8871 5.3891 -19.5056 0.0000 39.9494 0.0000
# 6 0.0000 0.0000 0.0000 1503.6423 0.0000 1008.2098
#
#
#
# Elastic Compliance Matrix: (Units=1/GPa)
#
#
# Indices 1 2 3 4 5 6 
#
# 1 0.017269 -0.000272 -0.002109 0.000000 -0.002673 0.000000
# 2 -0.000272 0.005804 -0.003935 0.000000 -0.002678 0.000000
# 3 -0.002109 -0.003935 0.018464 0.000000 0.009751 0.000000
# 4 0.000000 0.000000 0.000000 0.008440 0.000000 -0.012588
# 5 -0.002673 -0.002678 0.009751 0.000000 0.030414 0.000000
# 6 0.000000 0.000000 0.000000 -0.012588 0.000000 0.019765
#
#
# Mechanical properties :
#
#
# Convention : Reuss Voigt Hill
#
# Bulk Modulus (GPa) = 34.59566 50.17698 42.38632
# Shear Modulus (GPa) = 40.84196 700.47349 370.65773
#
# Velocity S-wave (km/s) = 4.00832 16.59990 12.07525
# Velocity P-wave (km/s) = 5.91876 19.67607 14.52893
#
# Compressibility (1/GPa) = 0.02890536
#
# Stress axis : x y z
#
# Youngs Moduli (GPa) = 57.90562 172.30937 54.16007
#
# Poissons Ratio (x) = 0.04689 0.11421
# Poissons Ratio (y) = 0.01576 0.21311
# Poissons Ratio (z) = 0.12210 0.67802
#
# Static dielectric constant tensor:
#      x y z
#    x 1.992160 0.000000 -0.108680 
#    y 0.000000 2.002960 0.000000 
#    z -0.108680 0.000000 2.129600 
# 
# From -- ./inp_files/299185.got.cif
#   From: 2010.05.17/outbox.cif.g08.bks.cpg/sg12_150_cif.got.tgz:299185.got - 2010.06.03 13:09:07.
