data_PCOD9218971
_publ_section_title
;
Structure prediction by ZEFSAII (Michael W. Deem and Ramdas Pophale) SiO2 
 PCOD9218971
Probable space group: C 2/M
;
_chemical_formula_sum "Si O2"
_cell_formula_units_Z 40
_cell_length_a 8.293906
_cell_length_b 20.119955
_cell_length_c 17.812204
_cell_angle_alpha 90.000000
_cell_angle_beta 136.386373
_cell_angle_gamma 90.000000
_cell_volume 2050.320601
_symmetry_space_group_name_H-M "C 2/M"
_symmetry_group_IT_number 12
_symmetry_cell_setting 'monoclinic'
loop_
_space_group_symop_operation_xyz
x,y,z
-x,y,-z
-x,-y,-z
x,-y,z
1/2+x,1/2+y,z
1/2-x,1/2+y,-z
1/2-x,1/2-y,-z
1/2+x,1/2-y,z
loop_
_atom_site_type_symbol
_atom_site_label
_atom_site_fract_x
_atom_site_fract_y
_atom_site_fract_z
Si Si1 0.991035 0.209058 0.078549
Si Si2 0.400462 0.572184 0.647204
Si Si3 0.457460 0.926404 0.609463
Si Si4 0.060105 0.195109 0.773978
Si Si5 0.737029 0.207599 0.418150
O O1 0.986176 0.171562 0.156339
O O2 0.207374 0.260589 0.152449
O O3 0.750000 0.250000 0.000000
O O4 0.000000 0.173822 0.000000
O O5 0.514785 0.500000 0.690370
O O6 0.259909 0.576478 0.522151
O O7 0.568309 0.632980 0.720838
O O8 0.192310 0.575450 0.638833
O O9 0.429911 0.856675 0.642290
O O10 0.448690 0.000000 0.643658
O O11 0.846015 0.240999 0.673397
O O12 0.750000 0.250000 0.500000
O O13 0.000000 0.183048 0.500000
#
# Coordination Sequence:
#
# PCOD9218971 Si02
#       5
#     8   8   8   8   8
#     4   9  20  36  54  75  97 127 169 228 279 311
#     4   9  17  30  51  75 105 146 180 204 250 317
#     4   9  18  32  46  69 113 156 178 203 245 303
#     4  11  19  32  55  78 104 135 176 217 264 312
#     4  12  22  31  49  81 114 140 175 214 253 311
#
# _framework density 19.509145
#
# number of rings (size 3 to 8) (size 9 to 14) (size 15 to 20)
#    0.000    2.000    2.000    4.800    0.000    0.400 
#    0.000    0.000    0.000    6.000    0.000    5.600 
#    0.000    0.000    0.000    0.000    0.000    0.000 
#
# Total GULP energy -111457.832728 kJ/mol
# GULP energy per Si atom -5572.891636 kJ/mol
# Density = 1.946474 g / cm^3
# Si number density = 19.509145 Si / 1000 Ang^3
#
#
#
# Elastic Constant Matrix: (Units=GPa)
#
#
# Indices 1 2 3 4 5 6 
#
# 1 33.1422 -10.0609 2.1037 0.0000 0.9795 0.0000
# 2 -10.0609 88.3755 3.7576 -0.0001 -4.4089 0.0000
# 3 2.1037 3.7576 64.8917 -0.0002 -1.8437 -0.0001
# 4 0.0000 -0.0001 -0.0002 11.5647 -0.0001 0.1776
# 5 0.9795 -4.4089 -1.8437 -0.0001 33.8508 0.0000
# 6 0.0000 0.0000 -0.0001 0.1776 0.0000 17.9382
#
#
#
# Elastic Compliance Matrix: (Units=1/GPa)
#
#
# Indices 1 2 3 4 5 6 
#
# 1 0.031359 0.003597 -0.001239 0.000000 -0.000506 0.000000
# 2 0.003597 0.011827 -0.000762 0.000000 0.001395 0.000000
# 3 -0.001239 -0.000762 0.015517 0.000000 0.000782 0.000000
# 4 0.000000 0.000000 0.000000 0.086483 0.000000 -0.000856
# 5 -0.000506 0.001395 0.000782 0.000000 0.029780 0.000000
# 6 0.000000 0.000000 0.000000 -0.000856 0.000000 0.055756
#
#
# Mechanical properties :
#
#
# Convention : Reuss Voigt Hill
#
# Bulk Modulus (GPa) = 16.15642 19.77891 17.96766
# Shear Modulus (GPa) = 20.14825 25.37800 22.76312
#
# Velocity S-wave (km/s) = 3.21714 3.61061 3.41954
# Velocity P-wave (km/s) = 4.70101 5.24807 4.98205
#
# Compressibility (1/GPa) = 0.06189490
#
# Stress axis : x y z
#
# Youngs Moduli (GPa) = 31.88906 84.55327 64.44628
#
# Poissons Ratio (x) = -0.30417 0.07987
# Poissons Ratio (y) = -0.11472 0.04910
# Poissons Ratio (z) = 0.03952 0.06442
#
# Static dielectric constant tensor:
#      x y z
#    x 1.755750 0.000000 -0.040810 
#    y 0.000000 1.714520 0.000000 
#    z -0.040810 0.000000 1.692180 
# 
# From -- ./inp_files/120039.got.cif
#   From: 2010.05.17/outbox.cif.g08.bks.cpg/sg12_61_cif.got.tgz:120039.got - 2010.06.03 13:09:07.
