data_PCOD9218597
_publ_section_title
;
Structure prediction by ZEFSAII (Michael W. Deem and Ramdas Pophale) SiO2 
 PCOD9218597
Probable space group: C 2/M
;
_chemical_formula_sum "Si O2"
_cell_formula_units_Z 38
_cell_length_a 9.170665
_cell_length_b 11.235619
_cell_length_c 14.019742
_cell_angle_alpha 90.000000
_cell_angle_beta 91.135193
_cell_angle_gamma 90.000000
_cell_volume 1444.284026
_symmetry_space_group_name_H-M "C 2/M"
_symmetry_group_IT_number 12
_symmetry_cell_setting 'monoclinic'
loop_
_space_group_symop_operation_xyz
x,y,z
-x,y,-z
-x,-y,-z
x,-y,z
1/2+x,1/2+y,z
1/2-x,1/2+y,-z
1/2-x,1/2-y,-z
1/2+x,1/2-y,z
loop_
_atom_site_type_symbol
_atom_site_label
_atom_site_fract_x
_atom_site_fract_y
_atom_site_fract_z
Si Si1 0.844196 0.319592 0.100754
Si Si2 0.995198 0.500000 0.243573
Si Si3 0.968305 0.858229 0.811547
Si Si4 0.737825 0.500000 0.623267
Si Si5 0.500000 0.000000 0.000000
Si Si6 0.980563 0.811895 0.602597
Si Si7 0.222014 0.500000 0.579925
O O1 0.951137 0.395810 0.171246
O O2 0.683332 0.338875 0.137093
O O3 0.903099 0.187813 0.118924
O O4 0.874450 0.392090 0.005274
O O5 0.889625 0.500000 0.334703
O O6 0.158306 0.500000 0.285090
O O7 0.964596 0.779653 0.713015
O O8 0.980755 0.000000 0.787444
O O9 0.628859 0.389027 0.613206
O O10 0.834038 0.500000 0.528688
O O11 0.833649 0.889268 0.588735
O O12 0.000000 0.745974 0.500000
#
# Coordination Sequence:
#
# PCOD9218597 Si02
#       7
#     8   4   8   4   2   8   4
#     4  11  26  44  78  98 140 183 221 293 362 419
#     4  11  19  39  58  99 136 179 232 301 338 408
#     4  12  23  46  70 105 142 188 232 283 345 410
#     4   9  18  25  58  96 125 187 245 280 332 401
#     4  10  24  58  74 110 138 168 228 296 360 436
#     4   9  17  34  60  90 141 196 235 284 329 387
#     4   9  14  32  56  81 136 191 228 293 343 372
#
# _framework density 26.310613
#
# number of rings (size 3 to 8) (size 9 to 14) (size 15 to 20)
#    0.000    1.684    6.316    1.579    2.947    0.842 
#    1.895    3.684    0.000    0.000    0.000    0.000 
#    0.000    0.000    0.000    0.000    0.000    0.000 
#
# Total GULP energy -105810.443621 kJ/mol
# GULP energy per Si atom -5568.970717 kJ/mol
# Density = 2.625073 g / cm^3
# Si number density = 26.310613 Si / 1000 Ang^3
#
#
#
# Elastic Constant Matrix: (Units=GPa)
#
#
# Indices 1 2 3 4 5 6 
#
# 1 119.9923 24.8635 62.4976 0.0000 0.8525 0.0000
# 2 24.8635 64.2933 28.4096 0.0000 7.0871 0.0000
# 3 62.4976 28.4096 112.4511 0.0000 -25.8413 0.0000
# 4 0.0000 0.0000 0.0000 -39.6777 0.0000 28.5753
# 5 0.8525 7.0871 -25.8413 0.0000 57.8003 0.0000
# 6 0.0000 0.0000 0.0000 28.5753 0.0000 -23.8665
#
#
#
# Elastic Compliance Matrix: (Units=1/GPa)
#
#
# Indices 1 2 3 4 5 6 
#
# 1 0.012451 -0.001181 -0.007390 0.000000 -0.003343 0.000000
# 2 -0.001181 0.018789 -0.005144 0.000000 -0.004586 0.000000
# 3 -0.007390 -0.005144 0.016126 0.000000 0.007950 0.000000
# 4 0.000000 0.000000 0.000000 -0.183001 0.000000 -0.219107
# 5 -0.003343 -0.004586 0.007950 0.000000 0.021467 0.000000
# 6 0.000000 0.000000 0.000000 -0.219107 0.000000 -0.304237
#
#
# Mechanical properties :
#
#
# Convention : Reuss Voigt Hill
#
# Bulk Modulus (GPa) = 50.16060 58.69758 54.42909
# Shear Modulus (GPa) = -13.00973 10.91561 -1.04706
#
# Velocity S-wave (km/s) = -2.22607 2.03906 -0.63153
# Velocity P-wave (km/s) = 3.53539 5.28219 4.49447
#
# Compressibility (1/GPa) = 0.01993597
#
# Stress axis : x y z
#
# Youngs Moduli (GPa) = 80.31230 53.22188 62.01039
#
# Poissons Ratio (x) = 0.06287 0.45825
# Poissons Ratio (y) = 0.09488 0.31900
# Poissons Ratio (z) = 0.59350 0.27379
#
# Static dielectric constant tensor:
#      x y z
#    x 1.954340 0.000000 -0.009960 
#    y 0.000000 2.214510 0.000000 
#    z -0.009960 0.000000 2.569840 
# 
# From -- ./inp_files/254669.got.cif
#   From: 2010.05.17/outbox.cif.g08.bks.cpg/sg12_128_cif.got.tgz:254669.got - 2010.06.03 13:09:07.
