data_PCOD9218361
_publ_section_title
;
Structure prediction by ZEFSAII (Michael W. Deem and Ramdas Pophale) SiO2 
 PCOD9218361
Probable space group: C 2/M
;
_chemical_formula_sum "Si O2"
_cell_formula_units_Z 32
_cell_length_a 15.924726
_cell_length_b 12.436003
_cell_length_c 7.153610
_cell_angle_alpha 90.000000
_cell_angle_beta 114.638952
_cell_angle_gamma 90.000000
_cell_volume 1287.714018
_symmetry_space_group_name_H-M "C 2/M"
_symmetry_group_IT_number 12
_symmetry_cell_setting 'monoclinic'
loop_
_space_group_symop_operation_xyz
x,y,z
-x,y,-z
-x,-y,-z
x,-y,z
1/2+x,1/2+y,z
1/2-x,1/2+y,-z
1/2-x,1/2-y,-z
1/2+x,1/2-y,z
loop_
_atom_site_type_symbol
_atom_site_label
_atom_site_fract_x
_atom_site_fract_y
_atom_site_fract_z
Si Si1 0.622894 0.500000 0.460131
Si Si2 0.657841 0.270791 0.039105
Si Si3 0.198959 0.621010 0.421095
Si Si4 0.081978 0.000000 0.866568
Si Si5 0.404849 0.881638 0.303027
O O1 0.691154 0.600194 0.486936
O O2 0.605345 0.500000 0.666116
O O3 0.529961 0.500000 0.251701
O O4 0.667293 0.206377 0.240438
O O5 0.750000 0.250000 0.000000
O O6 0.626572 0.394133 0.000385
O O7 0.584129 0.204858 0.846934
O O8 0.159975 0.500000 0.344571
O O9 0.168962 0.646107 0.603953
O O10 0.500000 0.888518 0.500000
O O11 0.379109 0.000000 0.203186
#
# Coordination Sequence:
#
# PCOD9218361 Si02
#       5
#     4   8   8   4   8
#     4   9  20  44  72 102 146 183 232 304 345 417
#     4  12  24  42  72 104 144 192 234 294 355 423
#     4   9  20  45  75 105 140 185 239 299 351 423
#     4  11  24  42  73 109 148 185 240 290 354 428
#     4  10  24  44  73 105 140 187 237 294 359 424
#
# _framework density 24.850238000000001
#
# number of rings (size 3 to 8) (size 9 to 14) (size 15 to 20)
#    0.750    1.000    2.500    0.750    5.250    2.000 
#    0.000    7.500    0.000    3.000    0.000    0.000 
#    0.000    0.000    0.000    0.000    0.000    0.000 
#
# Total GULP energy -89556.963475 kJ/mol
# GULP energy per Si atom -5597.310217 kJ/mol
# Density = 2.479368 g / cm^3
# Si number density = 24.850238 Si / 1000 Ang^3
#
#
#
# Elastic Constant Matrix: (Units=GPa)
#
#
# Indices 1 2 3 4 5 6 
#
# 1 104.9369 34.5726 39.8551 0.0000 1.5749 0.0000
# 2 34.5726 249.6263 118.9307 0.0000 12.2782 0.0000
# 3 39.8551 118.9307 132.0110 0.0000 8.0038 0.0000
# 4 0.0000 0.0000 0.0000 41.4586 0.0000 16.2008
# 5 1.5749 12.2782 8.0038 0.0000 36.5613 0.0000
# 6 0.0000 0.0000 0.0000 16.2008 0.0000 2.5674
#
#
#
# Elastic Compliance Matrix: (Units=1/GPa)
#
#
# Indices 1 2 3 4 5 6 
#
# 1 0.010767 0.000092 -0.003348 0.000000 0.000238 0.000000
# 2 0.000092 0.007055 -0.006323 0.000000 -0.000989 0.000000
# 3 -0.003348 -0.006323 0.014336 0.000000 -0.000870 0.000000
# 4 0.000000 0.000000 0.000000 -0.016456 0.000000 0.103836
# 5 0.000238 -0.000989 -0.000870 0.000000 0.027864 0.000000
# 6 0.000000 0.000000 0.000000 0.103836 0.000000 -0.265723
#
#
# Mechanical properties :
#
#
# Convention : Reuss Voigt Hill
#
# Bulk Modulus (GPa) = 76.93173 97.03233 86.98203
# Shear Modulus (GPa) = -25.16789 35.66519 5.24865
#
# Velocity S-wave (km/s) = -3.18588 3.79252 1.45489
# Velocity P-wave (km/s) = 4.18238 7.63605 6.15636
#
# Compressibility (1/GPa) = 0.01299854
#
# Stress axis : x y z
#
# Youngs Moduli (GPa) = 92.87428 141.75211 69.75590
#
# Poissons Ratio (x) = -0.01308 0.23356
# Poissons Ratio (y) = -0.00857 0.44110
# Poissons Ratio (z) = 0.31097 0.89637
#
# Static dielectric constant tensor:
#      x y z
#    x 2.074690 0.000000 0.042280 
#    y 0.000000 2.044050 0.000000 
#    z 0.042280 0.000000 1.943600 
# 
# From -- ./inp_files/19223.got.cif
#   From: 2010.05.17/outbox.cif.g08.bks.cpg/sg12_10_cif.got.tgz:19223.got - 2010.06.03 13:09:07.
