data_PCOD9218273
_publ_section_title
;
Structure prediction by ZEFSAII (Michael W. Deem and Ramdas Pophale) SiO2 
 PCOD9218273
Probable space group: C 2/M
;
_chemical_formula_sum "Si O2"
_cell_formula_units_Z 36
_cell_length_a 21.065119
_cell_length_b 14.939176
_cell_length_c 6.865099
_cell_angle_alpha 90.000000
_cell_angle_beta 122.895449
_cell_angle_gamma 90.000000
_cell_volume 1814.021310
_symmetry_space_group_name_H-M "C 2/M"
_symmetry_group_IT_number 12
_symmetry_cell_setting 'monoclinic'
loop_
_space_group_symop_operation_xyz
x,y,z
-x,y,-z
-x,-y,-z
x,-y,z
1/2+x,1/2+y,z
1/2-x,1/2+y,-z
1/2-x,1/2-y,-z
1/2+x,1/2-y,z
loop_
_atom_site_type_symbol
_atom_site_label
_atom_site_fract_x
_atom_site_fract_y
_atom_site_fract_z
Si Si1 0.454583 0.500000 0.224572
Si Si2 0.827056 0.500000 0.125633
Si Si3 0.408718 0.000000 0.871889
Si Si4 0.165891 0.000000 0.697007
Si Si5 0.655973 0.331498 0.416729
Si Si6 0.807220 0.633154 0.444799
Si Si7 0.000000 0.850357 0.000000
O O1 0.500000 0.500000 0.500000
O O2 0.367958 0.500000 0.143698
O O3 0.475708 0.414522 0.135339
O O4 0.821071 0.583804 0.263031
O O5 0.894147 0.500000 0.080828
O O6 0.755058 0.500000 0.864640
O O7 0.365254 0.915691 0.693783
O O8 0.500000 0.000000 0.000000
O O9 0.140581 0.911288 0.541880
O O10 0.721463 0.372075 0.386183
O O11 0.682993 0.239699 0.558090
O O12 0.577613 0.303344 0.184426
#
# Coordination Sequence:
#
# PCOD9218273 Si02
#       7
#     4   4   4   4   8   8   4
#     4  11  20  35  56  88 127 165 207 240 308 394
#     4  11  22  44  71  88 124 178 214 277 332 377
#     4  11  24  46  70  92 124 172 230 281 327 372
#     4  12  20  39  65  93 128 174 204 252 324 405
#     4  11  22  41  65  97 135 169 216 261 327 389
#     4  10  24  44  64  96 128 169 223 272 318 393
#     4  11  22  38  60  89 132 174 196 265 320 375
#
# _framework density 19.845412
#
# number of rings (size 3 to 8) (size 9 to 14) (size 15 to 20)
#    0.000    1.111    4.444    2.667    1.556    2.667 
#    4.000    2.222    0.000    0.000    0.000    0.000 
#    0.000    0.000    0.000    0.000    0.000    0.000 
#
# Total GULP energy -100372.961134 kJ/mol
# GULP energy per Si atom -5576.275619 kJ/mol
# Density = 1.980024 g / cm^3
# Si number density = 19.845412 Si / 1000 Ang^3
#
#
#
# Elastic Constant Matrix: (Units=GPa)
#
#
# Indices 1 2 3 4 5 6 
#
# 1 158.6221 26.0483 34.8330 0.0000 3.0507 0.0000
# 2 26.0483 96.3230 21.4358 0.0000 -15.2081 0.0000
# 3 34.8330 21.4358 68.7139 0.0000 -3.8790 0.0000
# 4 0.0000 0.0000 0.0000 8.2289 0.0000 13.3646
# 5 3.0507 -15.2081 -3.8790 0.0000 40.3647 0.0000
# 6 0.0000 0.0000 0.0000 13.3646 0.0000 7.2283
#
#
#
# Elastic Compliance Matrix: (Units=1/GPa)
#
#
# Indices 1 2 3 4 5 6 
#
# 1 0.007302 -0.001459 -0.003327 0.000000 -0.001421 0.000000
# 2 -0.001459 0.012090 -0.002784 0.000000 0.004398 0.000000
# 3 -0.003327 -0.002784 0.017156 0.000000 0.000851 0.000000
# 4 0.000000 0.000000 0.000000 -0.060675 0.000000 0.112183
# 5 -0.001421 0.004398 0.000851 0.000000 0.026620 0.000000
# 6 0.000000 0.000000 0.000000 0.112183 0.000000 -0.069074
#
#
# Mechanical properties :
#
#
# Convention : Reuss Voigt Hill
#
# Bulk Modulus (GPa) = 46.70841 54.25481 50.48161
# Shear Modulus (GPa) = -112.85154 27.25384 -42.79885
#
# Velocity S-wave (km/s) = -7.54909 3.70984 -4.64897
# Velocity P-wave (km/s) = 7.23863 6.76377 1.82335
#
# Compressibility (1/GPa) = 0.02140942
#
# Stress axis : x y z
#
# Youngs Moduli (GPa) = 136.95500 82.71242 58.28881
#
# Poissons Ratio (x) = 0.12065 0.19390
# Poissons Ratio (y) = 0.19977 0.16227
# Poissons Ratio (z) = 0.45560 0.23026
#
# Static dielectric constant tensor:
#      x y z
#    x 1.780660 0.000000 0.041980 
#    y 0.000000 1.671040 0.000000 
#    z 0.041980 0.000000 1.712660 
# 
# From -- ./inp_files/20304.got.cif
#   From: 2010.05.17/outbox.cif.g08.bks.cpg/sg12_11_cif.got.tgz:20304.got - 2010.06.03 13:09:07.
