data_PCOD9218401
_publ_section_title
;
Structure prediction by ZEFSAII (Michael W. Deem and Ramdas Pophale) SiO2 
 PCOD9218401
Probable space group: C 2/M
;
_chemical_formula_sum "Si O2"
_cell_formula_units_Z 28
_cell_length_a 13.294560
_cell_length_b 14.070581
_cell_length_c 7.669229
_cell_angle_alpha 90.000000
_cell_angle_beta 62.204100
_cell_angle_gamma 90.000000
_cell_volume 1269.087842
_symmetry_space_group_name_H-M "C 2/M"
_symmetry_group_IT_number 12
_symmetry_cell_setting 'monoclinic'
loop_
_space_group_symop_operation_xyz
x,y,z
-x,y,-z
-x,-y,-z
x,-y,z
1/2+x,1/2+y,z
1/2-x,1/2+y,-z
1/2-x,1/2-y,-z
1/2+x,1/2-y,z
loop_
_atom_site_type_symbol
_atom_site_label
_atom_site_fract_x
_atom_site_fract_y
_atom_site_fract_z
Si Si1 0.598369 0.500000 0.624782
Si Si2 0.197342 0.500000 0.299086
Si Si3 0.000000 0.163037 0.500000
Si Si4 0.354973 0.794786 0.814411
Si Si5 0.000000 0.655176 0.000000
Si Si6 0.837667 0.500000 0.280474
O O1 0.670138 0.500000 0.745229
O O2 0.525530 0.592697 0.640794
O O3 0.701543 0.500000 0.397007
O O4 0.168060 0.403448 0.222359
O O5 0.130973 0.500000 0.538811
O O6 0.107572 0.230413 0.377909
O O7 0.460285 0.790100 0.862633
O O8 0.250000 0.750000 0.000000
O O9 0.893993 0.589528 0.141883
#
# Coordination Sequence:
#
# PCOD9218401 Si02
#       6
#     4   4   4   8   4   4
#     4   9  23  43  71  95 135 183 227 278 334 407
#     4  10  24  45  68  94 136 183 217 287 336 398
#     4  11  24  45  70 100 138 187 222 279 350 394
#     4  12  27  42  70 104 139 176 233 280 339 408
#     4  11  22  36  64 101 134 174 224 279 332 401
#     4   9  19  39  68  89 136 172 225 268 337 395
#
# _framework density 22.063092000000001
#
# number of rings (size 3 to 8) (size 9 to 14) (size 15 to 20)
#    0.857    0.571    0.000    5.143    4.000    5.143 
#    0.000    1.429    0.000    0.000    0.000    0.000 
#    0.000    0.000    0.000    0.000    0.000    0.000 
#
# Total GULP energy -78197.973953 kJ/mol
# GULP energy per Si atom -5585.569568 kJ/mol
# Density = 2.201288 g / cm^3
# Si number density = 22.063092 Si / 1000 Ang^3
#
#
#
# Elastic Constant Matrix: (Units=GPa)
#
#
# Indices 1 2 3 4 5 6 
#
# 1 77.1693 35.5361 -9.2182 0.0000 17.9250 0.0000
# 2 35.5361 167.9156 43.5810 0.0000 3.1851 0.0000
# 3 -9.2182 43.5810 74.7844 0.0000 -4.6392 0.0000
# 4 0.0000 0.0000 0.0000 8.3072 0.0000 -0.4949
# 5 17.9250 3.1851 -4.6392 0.0000 44.6843 0.0000
# 6 0.0000 0.0000 0.0000 -0.4949 0.0000 17.0298
#
#
#
# Elastic Compliance Matrix: (Units=1/GPa)
#
#
# Indices 1 2 3 4 5 6 
#
# 1 0.017026 -0.004637 0.004427 0.000000 -0.006040 0.000000
# 2 -0.004637 0.008318 -0.005375 0.000000 0.000709 0.000000
# 3 0.004427 -0.005375 0.017073 0.000000 0.000380 0.000000
# 4 0.000000 0.000000 0.000000 0.120586 0.000000 0.003504
# 5 -0.006040 0.000709 0.000380 0.000000 0.024791 0.000000
# 6 0.000000 0.000000 0.000000 0.003504 0.000000 0.058822
#
#
# Mechanical properties :
#
#
# Convention : Reuss Voigt Hill
#
# Bulk Modulus (GPa) = 32.00492 51.07411 41.53951
# Shear Modulus (GPa) = 18.64249 30.66896 24.65573
#
# Velocity S-wave (km/s) = 2.90998 3.73239 3.34654
# Velocity P-wave (km/s) = 5.08215 6.46326 5.81386
#
# Compressibility (1/GPa) = 0.03124520
#
# Stress axis : x y z
#
# Youngs Moduli (GPa) = 58.73458 120.21468 58.57050
#
# Poissons Ratio (x) = 0.55749 -0.25926
# Poissons Ratio (y) = 0.27238 0.31483
# Poissons Ratio (z) = -0.25999 0.64618
#
# Static dielectric constant tensor:
#      x y z
#    x 1.860050 0.000000 0.035590 
#    y 0.000000 1.782370 0.000000 
#    z 0.035590 0.000000 1.777100 
# 
# From -- ./inp_files/56758.got.cif
#   From: 2010.05.17/outbox.cif.g08.bks.cpg/sg12_29_cif.got.tgz:56758.got - 2010.06.03 13:09:07.
