data_PCOD9218889
_publ_section_title
;
Structure prediction by ZEFSAII (Michael W. Deem and Ramdas Pophale) SiO2 
 PCOD9218889
Probable space group: C 2/M
;
_chemical_formula_sum "Si O2"
_cell_formula_units_Z 40
_cell_length_a 19.450068
_cell_length_b 11.287940
_cell_length_c 12.485646
_cell_angle_alpha 90.000000
_cell_angle_beta 53.812046
_cell_angle_gamma 90.000000
_cell_volume 2212.411063
_symmetry_space_group_name_H-M "C 2/M"
_symmetry_group_IT_number 12
_symmetry_cell_setting 'monoclinic'
loop_
_space_group_symop_operation_xyz
x,y,z
-x,y,-z
-x,-y,-z
x,-y,z
1/2+x,1/2+y,z
1/2-x,1/2+y,-z
1/2-x,1/2-y,-z
1/2+x,1/2-y,z
loop_
_atom_site_type_symbol
_atom_site_label
_atom_site_fract_x
_atom_site_fract_y
_atom_site_fract_z
Si Si1 0.448051 0.139081 0.652995
Si Si2 0.619589 0.861264 0.902578
Si Si3 0.650589 0.500000 0.899419
Si Si4 0.738465 0.228458 0.136854
Si Si5 0.518807 0.767888 0.801765
Si Si6 0.969648 0.000000 0.189253
O O1 0.500000 0.174515 0.500000
O O2 0.360101 0.209215 0.747395
O O3 0.503190 0.158923 0.709160
O O4 0.426840 0.000000 0.663374
O O5 0.716642 0.836111 0.842958
O O6 0.594703 0.811220 0.809195
O O7 0.599386 0.000000 0.927604
O O8 0.562072 0.792488 0.044438
O O9 0.707723 0.613458 0.875175
O O10 0.611772 0.500000 0.815648
O O11 0.561962 0.500000 0.046144
O O12 0.750000 0.250000 0.000000
O O13 0.530241 0.630411 0.759290
#
# Coordination Sequence:
#
# PCOD9218889 Si02
#       6
#     8   8   4   8   8   4
#     4  11  24  42  63  87 123 163 199 246 306 366
#     4  11  21  34  59  90 120 151 197 257 300 346
#     4  11  18  34  55  86 121 152 196 247 301 354
#     4  12  22  35  60  90 121 151 201 256 293 353
#     4  11  20  37  58  88 120 157 199 244 302 360
#     4  11  18  34  59  88 118 156 196 250 309 345
#
# _framework density 18.079822
#
# number of rings (size 3 to 8) (size 9 to 14) (size 15 to 20)
#    0.000    0.800    7.000    3.600    1.400    0.000 
#    1.800    1.500    0.000    0.000    0.000    0.000 
#    0.000    0.000    0.000    0.000    0.000    0.000 
#
# Total GULP energy -111565.521008 kJ/mol
# GULP energy per Si atom -5578.276050 kJ/mol
# Density = 1.803867 g / cm^3
# Si number density = 18.079822 Si / 1000 Ang^3
#
#
#
# Elastic Constant Matrix: (Units=GPa)
#
#
# Indices 1 2 3 4 5 6 
#
# 1 104.3770 15.2119 56.4648 0.0000 4.0796 0.0000
# 2 15.2119 88.0753 12.6170 0.0000 -9.2130 0.0000
# 3 56.4648 12.6170 94.3655 0.0000 3.3218 0.0000
# 4 0.0000 0.0000 0.0000 16.4534 0.0000 0.0050
# 5 4.0796 -9.2130 3.3218 0.0000 17.6081 0.0000
# 6 0.0000 0.0000 0.0000 0.0050 0.0000 35.0857
#
#
#
# Elastic Compliance Matrix: (Units=1/GPa)
#
#
# Indices 1 2 3 4 5 6 
#
# 1 0.014413 -0.001568 -0.008324 0.000000 -0.002590 0.000000
# 2 -0.001568 0.012508 -0.000984 0.000000 0.007093 0.000000
# 3 -0.008324 -0.000984 0.015764 0.000000 -0.001560 0.000000
# 4 0.000000 0.000000 0.000000 0.060778 0.000000 -0.000009
# 5 -0.002590 0.007093 -0.001560 0.000000 0.061398 0.000000
# 6 0.000000 0.000000 0.000000 -0.000009 0.000000 0.028502
#
#
# Mechanical properties :
#
#
# Convention : Reuss Voigt Hill
#
# Bulk Modulus (GPa) = 47.76835 50.60057 49.18446
# Shear Modulus (GPa) = 22.51336 27.33104 24.92220
#
# Velocity S-wave (km/s) = 3.53260 3.89226 3.71678
# Velocity P-wave (km/s) = 6.56636 6.94605 6.75888
#
# Compressibility (1/GPa) = 0.02093436
#
# Stress axis : x y z
#
# Youngs Moduli (GPa) = 69.38115 79.95116 63.43557
#
# Poissons Ratio (x) = 0.12535 0.52801
# Poissons Ratio (y) = 0.10878 0.06241
# Poissons Ratio (z) = 0.57749 0.07866
#
# Static dielectric constant tensor:
#      x y z
#    x 1.634320 0.000000 -0.007470 
#    y 0.000000 1.651140 0.000000 
#    z -0.007470 0.000000 1.591800 
# 
# From -- ./inp_files/153332.got.cif
#   From: 2010.05.17/outbox.cif.g08.bks.cpg/sg12_77_cif.got.tgz:153332.got - 2010.06.03 13:09:07.
