data_PCOD9218096
_publ_section_title
;
Structure prediction by ZEFSAII (Michael W. Deem and Ramdas Pophale) SiO2 
 PCOD9218096
Probable space group: C 2/M
;
_chemical_formula_sum "Si O2"
_cell_formula_units_Z 44
_cell_length_a 9.342397
_cell_length_b 25.742485
_cell_length_c 11.992379
_cell_angle_alpha 90.000000
_cell_angle_beta 125.902258
_cell_angle_gamma 90.000000
_cell_volume 2336.194981
_symmetry_space_group_name_H-M "C 2/M"
_symmetry_group_IT_number 12
_symmetry_cell_setting 'monoclinic'
loop_
_space_group_symop_operation_xyz
x,y,z
-x,y,-z
-x,-y,-z
x,-y,z
1/2+x,1/2+y,z
1/2-x,1/2+y,-z
1/2-x,1/2-y,-z
1/2+x,1/2-y,z
loop_
_atom_site_type_symbol
_atom_site_label
_atom_site_fract_x
_atom_site_fract_y
_atom_site_fract_z
Si Si1 0.150395 0.818265 0.888777
Si Si2 0.500000 0.244364 0.000000
Si Si3 0.855360 0.000000 0.773583
Si Si4 0.750939 0.500000 0.036393
Si Si5 0.041411 0.090784 0.335948
Si Si6 0.083014 0.393976 0.920214
Si Si7 0.233557 0.438175 0.354412
O O1 0.029630 0.779062 0.903257
O O2 0.036217 0.857346 0.758530
O O3 0.311944 0.786555 0.903953
O O4 0.258845 0.853924 0.027820
O O5 0.857064 0.052388 0.702328
O O6 0.724480 0.000000 0.818469
O O7 0.048209 0.000000 0.914802
O O8 0.832902 0.449602 0.021731
O O9 0.173537 0.092329 0.501681
O O10 0.869659 0.063303 0.312493
O O11 0.936760 0.405517 0.761201
O O12 0.000000 0.378315 0.000000
O O13 0.204024 0.500000 0.366324
#
# Coordination Sequence:
#
# PCOD9218096 Si02
#       7
#     8   4   4   4   8   8   8
#     4  11  22  40  65  88 112 153 195 264 300 356
#     4  10  24  42  64  90 110 138 214 264 320 328
#     4  11  20  34  49  87 122 159 192 229 282 355
#     4  11  23  29  53  86 126 151 196 236 273 352
#     4  11  20  35  58  83 121 160 191 225 294 353
#     4  12  21  35  59  89 118 157 195 238 286 349
#     4  11  20  33  55  89 127 160 190 228 268 357
#
# _framework density 18.834045
#
# number of rings (size 3 to 8) (size 9 to 14) (size 15 to 20)
#    0.000    0.909    7.273    0.818    2.545    0.000 
#    0.000    1.818    0.000   19.636    0.000    0.000 
#    0.000    0.000    0.000    0.000    0.000    0.000 
#
# Total GULP energy -122523.988495 kJ/mol
# GULP energy per Si atom -5569.272204 kJ/mol
# Density = 1.879118 g / cm^3
# Si number density = 18.834045 Si / 1000 Ang^3
#
#
#
# Elastic Constant Matrix: (Units=GPa)
#
#
# Indices 1 2 3 4 5 6 
#
# 1 52.4986 36.4697 20.7263 0.0000 -4.1611 0.0000
# 2 36.4697 109.2240 46.1348 0.0000 0.7492 0.0000
# 3 20.7263 46.1348 129.1131 0.0000 13.8779 0.0000
# 4 0.0000 0.0000 0.0000 16.1910 0.0000 -4.4577
# 5 -4.1611 0.7492 13.8779 0.0000 27.8676 0.0000
# 6 0.0000 0.0000 0.0000 -4.4577 0.0000 -1.0107
#
#
#
# Elastic Compliance Matrix: (Units=1/GPa)
#
#
# Indices 1 2 3 4 5 6 
#
# 1 0.025587 -0.007794 -0.001855 0.000000 0.004954 0.000000
# 2 -0.007794 0.013236 -0.003502 0.000000 0.000225 0.000000
# 3 -0.001855 -0.003502 0.009841 0.000000 -0.005083 0.000000
# 4 0.000000 0.000000 0.000000 0.027893 0.000000 -0.123019
# 5 0.004954 0.000225 -0.005083 0.000000 0.039149 0.000000
# 6 0.000000 0.000000 0.000000 -0.123019 0.000000 -0.446826
#
#
# Mechanical properties :
#
#
# Convention : Reuss Voigt Hill
#
# Bulk Modulus (GPa) = 44.72044 55.27748 49.99896
# Shear Modulus (GPa) = -16.81445 21.10992 2.14774
#
# Velocity S-wave (km/s) = -2.99117 3.35152 1.06903
# Velocity P-wave (km/s) = 3.44479 6.66261 5.30363
#
# Compressibility (1/GPa) = 0.02236114
#
# Stress axis : x y z
#
# Youngs Moduli (GPa) = 39.08160 75.55307 101.61770
#
# Poissons Ratio (x) = 0.58886 0.18850
# Poissons Ratio (y) = 0.30460 0.35590
# Poissons Ratio (z) = 0.07250 0.26462
#
# Static dielectric constant tensor:
#      x y z
#    x 1.708700 0.000000 -0.006230 
#    y 0.000000 1.650870 0.000000 
#    z -0.006230 0.000000 1.711240 
# 
# From -- ./inp_files/124885.got.cif
#   From: 2010.05.17/outbox.cif.g08.bks.cpg/sg12_63_cif.got.tgz:124885.got - 2010.06.03 13:09:07.
