data_PCOD9218296
_publ_section_title
;
Structure prediction by ZEFSAII (Michael W. Deem and Ramdas Pophale) SiO2 
 PCOD9218296
Probable space group: C 2/M
;
_chemical_formula_sum "Si O2"
_cell_formula_units_Z 44
_cell_length_a 20.117579
_cell_length_b 9.378959
_cell_length_c 14.168595
_cell_angle_alpha 90.000000
_cell_angle_beta 126.106532
_cell_angle_gamma 90.000000
_cell_volume 2159.866725
_symmetry_space_group_name_H-M "C 2/M"
_symmetry_group_IT_number 12
_symmetry_cell_setting 'monoclinic'
loop_
_space_group_symop_operation_xyz
x,y,z
-x,y,-z
-x,-y,-z
x,-y,z
1/2+x,1/2+y,z
1/2-x,1/2+y,-z
1/2-x,1/2-y,-z
1/2+x,1/2-y,z
loop_
_atom_site_type_symbol
_atom_site_label
_atom_site_fract_x
_atom_site_fract_y
_atom_site_fract_z
Si Si1 0.338681 0.744001 0.985612
Si Si2 0.890160 0.664057 0.825603
Si Si3 0.267905 0.000000 0.053936
Si Si4 0.222254 0.833313 0.570827
Si Si5 0.057329 0.332805 0.456329
Si Si6 0.498308 0.335714 0.225572
O O1 0.384881 0.791301 0.929634
O O2 0.269800 0.626129 0.909079
O O3 0.404765 0.672619 0.111655
O O4 0.300760 0.877307 0.007604
O O5 0.919247 0.500000 0.840340
O O6 0.798033 0.670911 0.706393
O O7 0.945589 0.768020 0.809349
O O8 0.250000 0.750000 0.500000
O O9 0.141609 0.753480 0.540863
O O10 0.204991 0.000000 0.535849
O O11 0.073850 0.500000 0.449869
O O12 0.000000 0.324085 0.500000
O O13 0.012710 0.260267 0.329800
O O14 0.520163 0.500000 0.262171
#
# Coordination Sequence:
#
# PCOD9218296 Si02
#       6
#     8   8   4   8   8   8
#     4  11  24  46  68 100 136 176 226 277 339 412
#     4  11  25  43  71 101 133 180 227 279 342 401
#     4  10  24  44  66  92 140 178 218 270 336 408
#     4  11  23  44  70  98 138 179 228 281 332 403
#     4  11  26  47  69 102 137 181 228 279 346 403
#     4  12  26  43  70 101 137 174 226 287 336 402
#
# _framework density 20.371627
#
# number of rings (size 3 to 8) (size 9 to 14) (size 15 to 20)
#    0.000    0.909    3.636    2.182    3.818    6.545 
#    3.273    0.000    0.000    0.000    0.000    0.000 
#    0.000    0.000    0.000    0.000    0.000    0.000 
#
# Total GULP energy -122511.975076 kJ/mol
# GULP energy per Si atom -5568.726140 kJ/mol
# Density = 2.032526 g / cm^3
# Si number density = 20.371627 Si / 1000 Ang^3
#
#
#
# Elastic Constant Matrix: (Units=GPa)
#
#
# Indices 1 2 3 4 5 6 
#
# 1 68.6079 56.3003 0.9061 0.0000 -13.6223 0.0000
# 2 56.3003 195.7353 21.8859 0.0000 -6.6186 0.0000
# 3 0.9061 21.8859 52.4569 0.0000 2.6600 0.0000
# 4 0.0000 0.0000 0.0000 20.9121 0.0000 -0.2221
# 5 -13.6223 -6.6186 2.6600 0.0000 18.5081 0.0000
# 6 0.0000 0.0000 0.0000 -0.2221 0.0000 41.9109
#
#
#
# Elastic Compliance Matrix: (Units=1/GPa)
#
#
# Indices 1 2 3 4 5 6 
#
# 1 0.022374 -0.006122 0.001454 0.000000 0.014069 0.000000
# 2 -0.006122 0.007129 -0.002790 0.000000 -0.001556 0.000000
# 3 0.001454 -0.002790 0.020347 0.000000 -0.002851 0.000000
# 4 0.000000 0.000000 0.000000 0.047822 0.000000 0.000253
# 5 0.014069 -0.001556 -0.002851 0.000000 0.064239 0.000000
# 6 0.000000 0.000000 0.000000 0.000253 0.000000 0.023861
#
#
# Mechanical properties :
#
#
# Convention : Reuss Voigt Hill
#
# Bulk Modulus (GPa) = 28.62502 52.77606 40.70054
# Shear Modulus (GPa) = 23.54793 32.11341 27.83067
#
# Velocity S-wave (km/s) = 3.40357 3.97467 3.70015
# Velocity P-wave (km/s) = 5.43393 6.85762 6.18686
#
# Compressibility (1/GPa) = 0.03493447
#
# Stress axis : x y z
#
# Youngs Moduli (GPa) = 44.69470 140.26630 49.14803
#
# Poissons Ratio (x) = 0.85877 -0.07149
# Poissons Ratio (y) = 0.27364 0.13711
# Poissons Ratio (z) = -0.06501 0.39132
#
# Static dielectric constant tensor:
#      x y z
#    x 1.724340 0.000000 0.053120 
#    y 0.000000 1.697400 0.000000 
#    z 0.053120 0.000000 1.737250 
# 
# From -- ./inp_files/230554.got.cif
#   From: 2010.05.17/outbox.cif.g08.bks.cpg/sg12_116_cif.got.tgz:230554.got - 2010.06.03 13:09:07.
