data_PCOD9218339
_publ_section_title
;
Structure prediction by ZEFSAII (Michael W. Deem and Ramdas Pophale) SiO2 
 PCOD9218339
Probable space group: C 2/M
;
_chemical_formula_sum "Si O2"
_cell_formula_units_Z 44
_cell_length_a 8.139900
_cell_length_b 24.524122
_cell_length_c 10.538230
_cell_angle_alpha 90.000000
_cell_angle_beta 111.002505
_cell_angle_gamma 90.000000
_cell_volume 1963.923917
_symmetry_space_group_name_H-M "C 2/M"
_symmetry_group_IT_number 12
_symmetry_cell_setting 'monoclinic'
loop_
_space_group_symop_operation_xyz
x,y,z
-x,y,-z
-x,-y,-z
x,-y,z
1/2+x,1/2+y,z
1/2-x,1/2+y,-z
1/2-x,1/2-y,-z
1/2+x,1/2-y,z
loop_
_atom_site_type_symbol
_atom_site_label
_atom_site_fract_x
_atom_site_fract_y
_atom_site_fract_z
Si Si1 0.296003 0.794342 0.174897
Si Si2 0.158757 0.886650 0.647160
Si Si3 0.327055 0.000000 0.619950
Si Si4 0.439274 0.390254 0.835456
Si Si5 0.000000 0.288857 0.000000
Si Si6 0.242213 0.500000 0.699970
Si Si7 0.889040 0.294367 0.584924
O O1 0.202964 0.842540 0.222953
O O2 0.148288 0.751229 0.097761
O O3 0.454321 0.766022 0.293297
O O4 0.393114 0.819539 0.078540
O O5 0.248988 0.945542 0.659676
O O6 0.088338 0.880346 0.770795
O O7 0.293626 0.839907 0.641196
O O8 0.000000 0.884306 0.500000
O O9 0.538550 0.000000 0.685725
O O10 0.266492 0.000000 0.455620
O O11 0.345819 0.447226 0.778159
O O12 0.500000 0.387544 0.000000
O O13 0.750000 0.250000 0.500000
O O14 0.000000 0.320044 0.500000
#
# Coordination Sequence:
#
# PCOD9218339 Si02
#       7
#     8   8   4   8   4   4   8
#     4  11  24  45  70  98 142 189 241 289 358 428
#     4  12  25  45  76 107 144 195 241 298 373 434
#     4  11  24  46  76 108 142 186 248 297 370 448
#     4  12  26  47  74 108 149 188 243 299 368 439
#     4  10  24  44  70  94 134 202 238 282 344 434
#     4  11  24  47  76 107 143 187 235 310 366 434
#     4  12  27  45  69 109 146 184 241 314 360 423
#
# _framework density 22.404126000000002
#
# number of rings (size 3 to 8) (size 9 to 14) (size 15 to 20)
#    0.000    0.545    2.727    4.909    5.091    1.455 
#    0.000    0.909    0.000    0.000    0.000    0.000 
#    0.000    0.000    0.000    0.000    0.000    0.000 
#
# Total GULP energy -123182.866793 kJ/mol
# GULP energy per Si atom -5599.221218 kJ/mol
# Density = 2.235313 g / cm^3
# Si number density = 22.404126 Si / 1000 Ang^3
#
#
#
# Elastic Constant Matrix: (Units=GPa)
#
#
# Indices 1 2 3 4 5 6 
#
# 1 206.4502 71.1662 73.3286 0.0000 -24.9489 0.0000
# 2 71.1662 119.4482 37.2431 0.0000 8.7892 0.0000
# 3 73.3286 37.2431 134.8060 0.0000 16.4340 0.0000
# 4 0.0000 0.0000 0.0000 19.2522 0.0000 -0.5532
# 5 -24.9489 8.7892 16.4340 0.0000 54.8143 0.0000
# 6 0.0000 0.0000 0.0000 -0.5532 0.0000 47.0850
#
#
#
# Elastic Compliance Matrix: (Units=1/GPa)
#
#
# Indices 1 2 3 4 5 6 
#
# 1 0.008447 -0.004164 -0.004146 0.000000 0.005756 0.000000
# 2 -0.004164 0.011242 -0.000405 0.000000 -0.003576 0.000000
# 3 -0.004146 -0.000405 0.010387 0.000000 -0.004936 0.000000
# 4 0.000000 0.000000 0.000000 0.051960 0.000000 0.000611
# 5 0.005756 -0.003576 -0.004936 0.000000 0.022917 0.000000
# 6 0.000000 0.000000 0.000000 0.000611 0.000000 0.021245
#
#
# Mechanical properties :
#
#
# Convention : Reuss Voigt Hill
#
# Bulk Modulus (GPa) = 79.07330 91.57556 85.32443
# Shear Modulus (GPa) = 33.81960 42.82806 38.32383
#
# Velocity S-wave (km/s) = 3.88948 4.37694 4.14039
# Velocity P-wave (km/s) = 7.45261 8.15516 7.81179
#
# Compressibility (1/GPa) = 0.01264649
#
# Stress axis : x y z
#
# Youngs Moduli (GPa) = 118.38150 88.95327 96.27234
#
# Poissons Ratio (x) = 0.37036 0.39918
# Poissons Ratio (y) = 0.49288 0.03900
# Poissons Ratio (z) = 0.49085 0.03603
#
# Static dielectric constant tensor:
#      x y z
#    x 1.842960 0.000000 -0.048610 
#    y 0.000000 1.749660 0.000000 
#    z -0.048610 0.000000 1.927300 
# 
# From -- ./inp_files/124494.got.cif
#   From: 2010.05.17/outbox.cif.g08.bks.cpg/sg12_63_cif.got.tgz:124494.got - 2010.06.03 13:09:07.
