data_PCOD9218171
_publ_section_title
;
Structure prediction by ZEFSAII (Michael W. Deem and Ramdas Pophale) SiO2 
 PCOD9218171
Probable space group: C 2/M
;
_chemical_formula_sum "Si O2"
_cell_formula_units_Z 60
_cell_length_a 21.705993
_cell_length_b 18.705881
_cell_length_c 11.781717
_cell_angle_alpha 90.000000
_cell_angle_beta 39.051644
_cell_angle_gamma 90.000000
_cell_volume 3013.846835
_symmetry_space_group_name_H-M "C 2/M"
_symmetry_group_IT_number 12
_symmetry_cell_setting 'monoclinic'
loop_
_space_group_symop_operation_xyz
x,y,z
-x,y,-z
-x,-y,-z
x,-y,z
1/2+x,1/2+y,z
1/2-x,1/2+y,-z
1/2-x,1/2-y,-z
1/2+x,1/2-y,z
loop_
_atom_site_type_symbol
_atom_site_label
_atom_site_fract_x
_atom_site_fract_y
_atom_site_fract_z
Si Si1 0.500000 0.633909 0.000000
Si Si2 0.212620 0.083999 0.321033
Si Si3 0.386622 0.865361 0.929649
Si Si4 0.396193 0.690245 0.690096
Si Si5 0.399507 0.086288 0.441164
Si Si6 0.321597 0.846575 0.772577
Si Si7 0.799100 0.915249 0.402548
Si Si8 0.886766 0.194620 0.958226
O O1 0.400810 0.596215 0.189054
O O2 0.536221 0.678355 0.055644
O O3 0.147262 0.129598 0.327557
O O4 0.197761 0.111310 0.471230
O O5 0.188537 0.000000 0.350584
O O6 0.322932 0.095678 0.116815
O O7 0.499702 0.888227 0.760693
O O8 0.339432 0.879532 0.871753
O O9 0.377859 0.780383 0.963702
O O10 0.500000 0.715518 0.500000
O O11 0.332412 0.761586 0.775818
O O12 0.412147 0.667650 0.796252
O O13 0.392122 0.120547 0.577282
O O14 0.301147 0.110438 0.514771
O O15 0.399750 0.000000 0.449158
O O16 0.212627 0.849617 0.878543
O O17 0.786030 0.000000 0.430597
#
# Coordination Sequence:
#
# PCOD9218171 Si02
#       8
#     4   8   8   8   8   8   8   8
#     4  12  23  44  68  92 123 158 220 268 314 378
#     4  11  23  40  63  91 126 170 216 260 315 386
#     4  11  22  42  64  92 135 167 206 263 324 381
#     4  11  21  40  64  90 127 166 207 262 326 376
#     4  11  24  41  65  98 130 172 221 261 315 380
#     4  11  20  42  65  92 130 167 210 264 319 377
#     4  10  24  43  62  88 128 170 208 260 327 384
#     4  11  22  40  65  96 122 166 211 261 323 380
#
# _framework density 19.908111000000002
#
# number of rings (size 3 to 8) (size 9 to 14) (size 15 to 20)
#    0.000    1.067    4.000    4.200    0.000    3.467 
#    0.000    5.333    0.000    0.000    0.000    0.000 
#    0.000    0.000    0.000    0.000    0.000    0.000 
#
# Total GULP energy -167309.826061 kJ/mol
# GULP energy per Si atom -5576.994202 kJ/mol
# Density = 1.986280 g / cm^3
# Si number density = 19.908111 Si / 1000 Ang^3
#
#
#
# Elastic Constant Matrix: (Units=GPa)
#
#
# Indices 1 2 3 4 5 6 
#
# 1 126.4054 25.3039 45.8669 0.0000 7.6367 0.0000
# 2 25.3039 39.2149 8.8206 0.0000 8.9960 0.0000
# 3 45.8669 8.8206 88.6427 0.0000 7.3639 0.0000
# 4 0.0000 0.0000 0.0000 31.7134 0.0000 -4.6384
# 5 7.6367 8.9960 7.3639 0.0000 39.8930 0.0000
# 6 0.0000 0.0000 0.0000 -4.6384 0.0000 25.4554
#
#
#
# Elastic Compliance Matrix: (Units=1/GPa)
#
#
# Indices 1 2 3 4 5 6 
#
# 1 0.010936 -0.005957 -0.005082 0.000000 0.000188 0.000000
# 2 -0.005957 0.030568 0.000526 0.000000 -0.005850 0.000000
# 3 -0.005082 0.000526 0.014002 0.000000 -0.001731 0.000000
# 4 0.000000 0.000000 0.000000 0.032396 0.000000 0.005903
# 5 0.000188 -0.005850 -0.001731 0.000000 0.026670 0.000000
# 6 0.000000 0.000000 0.000000 0.005903 0.000000 0.040360
#
#
# Mechanical properties :
#
#
# Convention : Reuss Voigt Hill
#
# Bulk Modulus (GPa) = 29.00044 46.02733 37.51389
# Shear Modulus (GPa) = 26.67391 31.03044 28.85218
#
# Velocity S-wave (km/s) = 3.66437 3.95230 3.81105
# Velocity P-wave (km/s) = 5.70107 6.63307 6.18465
#
# Compressibility (1/GPa) = 0.03448224
#
# Stress axis : x y z
#
# Youngs Moduli (GPa) = 91.44119 32.71419 71.41832
#
# Poissons Ratio (x) = 0.19487 0.36292
# Poissons Ratio (y) = 0.54469 -0.03760
# Poissons Ratio (z) = 0.46466 -0.01722
#
# Static dielectric constant tensor:
#      x y z
#    x 1.726580 0.000000 0.014130 
#    y 0.000000 1.667410 0.000000 
#    z 0.014130 0.000000 1.794090 
# 
# From -- ./inp_files/168965.got.cif
#   From: 2010.05.17/outbox.cif.g08.bks.cpg/sg12_85_cif.got.tgz:168965.got - 2010.06.03 13:09:07.
