data_PCOD9218040
_publ_section_title
;
Structure prediction by ZEFSAII (Michael W. Deem and Ramdas Pophale) SiO2 
 PCOD9218040
Probable space group: C 2/M
;
_chemical_formula_sum "Si O2"
_cell_formula_units_Z 32
_cell_length_a 22.867211
_cell_length_b 7.874294
_cell_length_c 23.549714
_cell_angle_alpha 90.000000
_cell_angle_beta 20.010286
_cell_angle_gamma 90.000000
_cell_volume 1451.029688
_symmetry_space_group_name_H-M "C 2/M"
_symmetry_group_IT_number 12
_symmetry_cell_setting 'monoclinic'
loop_
_space_group_symop_operation_xyz
x,y,z
-x,y,-z
-x,-y,-z
x,-y,z
1/2+x,1/2+y,z
1/2-x,1/2+y,-z
1/2-x,1/2-y,-z
1/2+x,1/2-y,z
loop_
_atom_site_type_symbol
_atom_site_label
_atom_site_fract_x
_atom_site_fract_y
_atom_site_fract_z
Si Si1 0.969744 0.197298 0.134535
Si Si2 0.710609 0.000000 0.758484
Si Si3 0.083346 0.202438 0.688390
Si Si4 0.123546 0.312272 0.221509
Si Si5 0.525746 0.500000 0.384030
O O1 0.897645 0.331077 0.155504
O O2 0.903717 0.249586 0.257514
O O3 0.921690 0.000000 0.166796
O O4 0.174873 0.203764 0.952175
O O5 0.801067 0.000000 0.736702
O O6 0.866717 0.000000 0.571181
O O7 0.250000 0.250000 0.500000
O O8 0.926651 0.288877 0.798378
O O9 0.058663 0.000000 0.709671
O O10 0.067558 0.500000 0.290979
O O11 0.029133 0.165953 0.342073
#
# Coordination Sequence:
#
# PCOD9218040 Si02
#       5
#     8   4   8   8   4
#     4  10  24  41  62  94 127 166 209 260 318 375
#     4  11  25  43  69  87 129 167 214 267 312 383
#     4  11  22  37  60  94 132 165 208 255 312 381
#     4  11  23  41  64  92 129 165 209 262 315 377
#     4  11  25  45  63  97 121 169 218 261 320 371
#
# _framework density 22.053305000000002
#
# number of rings (size 3 to 8) (size 9 to 14) (size 15 to 20)
#    0.000    1.250    1.250    3.750    3.500    6.000 
#    0.000    5.000    0.000    0.000    0.000    0.000 
#    0.000    0.000    0.000    0.000    0.000    0.000 
#
# Total GULP energy -89586.686847 kJ/mol
# GULP energy per Si atom -5599.167928 kJ/mol
# Density = 2.200311 g / cm^3
# Si number density = 22.053305 Si / 1000 Ang^3
#
#
#
# Elastic Constant Matrix: (Units=GPa)
#
#
# Indices 1 2 3 4 5 6 
#
# 1 93.0638 50.5965 5.0141 -0.0025 -19.9725 0.0005
# 2 50.5965 131.1597 22.7815 -0.0017 -7.2044 0.0019
# 3 5.0141 22.7815 51.5333 -0.0032 0.2984 0.0022
# 4 -0.0025 -0.0017 -0.0032 2.8700 0.0013 -11.7711
# 5 -19.9725 -7.2044 0.2984 0.0013 40.2105 0.0002
# 6 0.0005 0.0019 0.0022 -11.7711 0.0002 16.1769
#
#
#
# Elastic Compliance Matrix: (Units=1/GPa)
#
#
# Indices 1 2 3 4 5 6 
#
# 1 0.015170 -0.005667 0.000991 -0.000004 0.006512 -0.000003
# 2 -0.005667 0.010467 -0.004071 0.000003 -0.000909 0.000001
# 3 0.000991 -0.004071 0.021110 -0.000006 -0.000394 -0.000007
# 4 -0.000004 0.000003 -0.000006 -0.175585 0.000005 -0.127765
# 5 0.006512 -0.000909 -0.000394 0.000005 0.027944 0.000003
# 6 -0.000003 0.000001 -0.000007 -0.127765 0.000003 -0.031152
#
#
# Mechanical properties :
#
#
# Convention : Reuss Voigt Hill
#
# Bulk Modulus (GPa) = 34.18110 48.06011 41.12060
# Shear Modulus (GPa) = -47.70965 25.00913 -11.35026
#
# Velocity S-wave (km/s) = -4.65626 3.37119 -2.27110
# Velocity P-wave (km/s) = 3.65715 6.08221 3.43646
#
# Compressibility (1/GPa) = 0.02925594
#
# Stress axis : x y z
#
# Youngs Moduli (GPa) = 65.91810 95.53479 47.37022
#
# Poissons Ratio (x) = 0.54136 -0.04696
# Poissons Ratio (y) = 0.37353 0.19283
# Poissons Ratio (z) = -0.06534 0.38890
#
# Static dielectric constant tensor:
#      x y z
#    x 1.786930 0.000000 -0.015750 
#    y 0.000000 1.776280 0.000000 
#    z -0.015750 0.000000 1.815810 
# 
# From -- ./inp_files/92152.got.cif
#   From: 2010.05.17/outbox.cif.g08.bks.cpg/sg12_47_cif.got.tgz:92152.got - 2010.06.03 13:09:07.
