data_PCOD9218124
_publ_section_title
;
Structure prediction by ZEFSAII (Michael W. Deem and Ramdas Pophale) SiO2 
 PCOD9218124
Probable space group: C 2/M
;
_chemical_formula_sum "Si O2"
_cell_formula_units_Z 32
_cell_length_a 24.067726
_cell_length_b 7.825572
_cell_length_c 10.527270
_cell_angle_alpha 90.000000
_cell_angle_beta 125.431254
_cell_angle_gamma 90.000000
_cell_volume 1615.563975
_symmetry_space_group_name_H-M "C 2/M"
_symmetry_group_IT_number 12
_symmetry_cell_setting 'monoclinic'
loop_
_space_group_symop_operation_xyz
x,y,z
-x,y,-z
-x,-y,-z
x,-y,z
1/2+x,1/2+y,z
1/2-x,1/2+y,-z
1/2-x,1/2-y,-z
1/2+x,1/2-y,z
loop_
_atom_site_type_symbol
_atom_site_label
_atom_site_fract_x
_atom_site_fract_y
_atom_site_fract_z
Si Si1 0.384458 0.500000 0.836899
Si Si2 0.720573 0.803745 0.323518
Si Si3 0.046110 0.305762 0.686292
Si Si4 0.499290 0.500000 0.796298
Si Si5 0.299987 0.204274 0.182831
O O1 0.338192 0.667967 0.786856
O O2 0.424406 0.500000 0.756921
O O3 0.442734 0.500000 0.019366
O O4 0.750000 0.750000 0.500000
O O5 0.774969 0.787304 0.281024
O O6 0.697047 0.000000 0.298605
O O7 0.049741 0.500000 0.743261
O O8 0.122847 0.249692 0.752554
O O9 0.000000 0.310834 0.500000
O O10 0.012234 0.169954 0.733491
O O11 0.298132 0.000000 0.199081
O O12 0.250000 0.250000 0.000000
#
# Coordination Sequence:
#
# PCOD9218124 Si02
#       5
#     4   8   8   4   8
#     4  11  26  46  64 102 131 179 229 267 342 406
#     4  12  25  43  69  99 136 176 223 283 338 404
#     4  10  24  42  66  99 131 174 226 278 335 396
#     4  11  25  44  70  90 141 179 221 277 325 419
#     4  11  23  41  67 101 136 171 222 281 337 401
#
# _framework density 19.807326
#
# number of rings (size 3 to 8) (size 9 to 14) (size 15 to 20)
#    0.000    1.000    2.500    2.625    7.000    4.000 
#    0.000    2.500    0.000    0.000    0.000    0.000 
#    0.000    0.000    0.000    0.000    0.000    0.000 
#
# Total GULP energy -89476.558619 kJ/mol
# GULP energy per Si atom -5592.284914 kJ/mol
# Density = 1.976224 g / cm^3
# Si number density = 19.807326 Si / 1000 Ang^3
#
#
#
# Elastic Constant Matrix: (Units=GPa)
#
#
# Indices 1 2 3 4 5 6 
#
# 1 73.1246 27.8152 -24.3383 0.0000 -16.2537 0.0000
# 2 27.8152 124.1986 -16.1207 0.0000 -15.8495 0.0000
# 3 -24.3383 -16.1207 29.6351 0.0000 -12.9765 0.0000
# 4 0.0000 0.0000 0.0000 154.7918 0.0000 -21.2508
# 5 -16.2537 -15.8495 -12.9765 0.0000 38.2983 0.0000
# 6 0.0000 0.0000 0.0000 -21.2508 0.0000 27.8366
#
#
#
# Elastic Compliance Matrix: (Units=1/GPa)
#
#
# Indices 1 2 3 4 5 6 
#
# 1 0.032526 0.001416 0.039670 0.000000 0.027831 0.000000
# 2 0.001416 0.010128 0.010299 0.000000 0.008282 0.000000
# 3 0.039670 0.010299 0.095304 0.000000 0.053390 0.000000
# 4 0.000000 0.000000 0.000000 0.007217 0.000000 0.005509
# 5 0.027831 0.008282 0.053390 0.000000 0.059440 0.000000
# 6 0.000000 0.000000 0.000000 0.005509 0.000000 0.040130
#
#
# Mechanical properties :
#
#
# Convention : Reuss Voigt Hill
#
# Bulk Modulus (GPa) = 4.15405 22.40784 13.28094
# Shear Modulus (GPa) = 22.50053 60.15883 41.32968
#
# Velocity S-wave (km/s) = 3.37407 5.51706 4.57287
# Velocity P-wave (km/s) = 4.15703 7.20565 5.88228
#
# Compressibility (1/GPa) = 0.24072910
#
# Stress axis : x y z
#
# Youngs Moduli (GPa) = 30.74443 98.73441 10.49274
#
# Poissons Ratio (x) = -0.13984 -0.41625
# Poissons Ratio (y) = -0.04354 -0.10807
# Poissons Ratio (z) = -1.21963 -1.01689
#
# Static dielectric constant tensor:
#      x y z
#    x 1.683400 0.000000 -0.007860 
#    y 0.000000 1.698940 0.000000 
#    z -0.007860 0.000000 1.664640 
# 
# From -- ./inp_files/81728.got.cif
#   From: 2010.05.17/outbox.cif.g08.bks.cpg/sg12_41_cif.got.tgz:81728.got - 2010.06.03 13:09:07.
