data_PCOD9218015
_publ_section_title
;
Structure prediction by ZEFSAII (Michael W. Deem and Ramdas Pophale) SiO2 
 PCOD9218015
Probable space group: C 2/M
;
_chemical_formula_sum "Si O2"
_cell_formula_units_Z 52
_cell_length_a 19.939950
_cell_length_b 9.314565
_cell_length_c 18.091429
_cell_angle_alpha 90.000000
_cell_angle_beta 50.665871
_cell_angle_gamma 90.000000
_cell_volume 2598.956081
_symmetry_space_group_name_H-M "C 2/M"
_symmetry_group_IT_number 12
_symmetry_cell_setting 'monoclinic'
loop_
_space_group_symop_operation_xyz
x,y,z
-x,y,-z
-x,-y,-z
x,-y,z
1/2+x,1/2+y,z
1/2-x,1/2+y,-z
1/2-x,1/2-y,-z
1/2+x,1/2-y,z
loop_
_atom_site_type_symbol
_atom_site_label
_atom_site_fract_x
_atom_site_fract_y
_atom_site_fract_z
Si Si1 0.207968 0.500000 0.035055
Si Si2 0.038053 0.333439 0.621480
Si Si3 0.615463 0.171184 0.720478
Si Si4 0.913701 0.832009 0.108114
Si Si5 0.121352 0.164993 0.328448
Si Si6 0.706266 0.831578 0.405311
Si Si7 0.256992 0.241817 0.110912
O O1 0.220094 0.374626 0.090296
O O2 0.205801 0.625363 0.971812
O O3 0.010264 0.500000 0.631563
O O4 0.047579 0.302416 0.701812
O O5 0.133099 0.320208 0.519249
O O6 0.971554 0.230563 0.627050
O O7 0.585752 0.236078 0.818950
O O8 0.705998 0.247688 0.637969
O O9 0.628002 0.000000 0.717073
O O10 0.831913 0.793254 0.114474
O O11 0.090663 0.000000 0.867829
O O12 0.000000 0.809718 0.000000
O O13 0.165840 0.260666 0.360396
O O14 0.180776 0.175728 0.214149
O O15 0.115257 0.000000 0.356925
O O16 0.724587 0.000000 0.380528
#
# Coordination Sequence:
#
# PCOD9218015 Si02
#       7
#     4   8   8   8   8   8   8
#     4  10  24  40  68  90 128 162 220 260 324 378
#     4  10  25  45  64 100 135 173 223 275 330 390
#     4  11  24  43  68  98 134 176 223 272 328 389
#     4  11  25  45  68  95 131 173 220 265 323 395
#     4  12  25  41  68  99 136 171 220 274 332 392
#     4  11  23  42  71  96 132 178 221 270 333 396
#     4  11  23  45  64  97 125 173 210 271 322 389
#
# _framework density 20.008033000000001
#
# number of rings (size 3 to 8) (size 9 to 14) (size 15 to 20)
#    0.000    1.077    3.077    2.308    3.231    7.077 
#    2.769    0.000    0.000    0.000    0.000    0.000 
#    0.000    0.000    0.000    0.000    0.000    0.000 
#
# Total GULP energy -144896.150009 kJ/mol
# GULP energy per Si atom -5572.928846 kJ/mol
# Density = 1.996249 g / cm^3
# Si number density = 20.008033 Si / 1000 Ang^3
#
#
#
# Elastic Constant Matrix: (Units=GPa)
#
#
# Indices 1 2 3 4 5 6 
#
# 1 41.1494 30.8347 7.0339 0.0000 6.3900 0.0000
# 2 30.8347 108.7578 10.8148 0.0000 6.5421 -0.0001
# 3 7.0339 10.8148 39.3400 0.0000 9.4526 0.0000
# 4 0.0000 0.0000 0.0000 26.0561 0.0000 -2.1238
# 5 6.3900 6.5421 9.4526 0.0000 38.2856 0.0000
# 6 0.0000 -0.0001 0.0000 -2.1238 0.0000 21.1246
#
#
#
# Elastic Compliance Matrix: (Units=1/GPa)
#
#
# Indices 1 2 3 4 5 6 
#
# 1 0.031616 -0.008519 -0.002544 0.000000 -0.003193 0.000000
# 2 -0.008519 0.011787 -0.001674 0.000000 -0.000179 0.000000
# 3 -0.002544 -0.001674 0.027814 0.000000 -0.006157 0.000000
# 4 0.000000 0.000000 0.000000 0.038696 0.000000 0.003890
# 5 -0.003193 -0.000179 -0.006157 0.000000 0.028203 0.000000
# 6 0.000000 0.000000 0.000000 0.003890 0.000000 0.047729
#
#
# Mechanical properties :
#
#
# Convention : Reuss Voigt Hill
#
# Bulk Modulus (GPa) = 21.86106 31.84600 26.85353
# Shear Modulus (GPa) = 22.06867 26.46419 24.26643
#
# Velocity S-wave (km/s) = 3.32473 3.64081 3.48636
# Velocity P-wave (km/s) = 5.06837 5.79872 5.44580
#
# Compressibility (1/GPa) = 0.04574343
#
# Stress axis : x y z
#
# Youngs Moduli (GPa) = 31.62992 84.83813 35.95338
#
# Poissons Ratio (x) = 0.72270 0.09146
# Poissons Ratio (y) = 0.26944 0.06020
# Poissons Ratio (z) = 0.08046 0.14204
#
# Static dielectric constant tensor:
#      x y z
#    x 1.672180 0.000000 -0.012260 
#    y 0.000000 1.671650 0.000000 
#    z -0.012260 0.000000 1.719180 
# 
# From -- ./inp_files/282037.got.cif
#   From: 2010.05.17/outbox.cif.g08.bks.cpg/sg12_142_cif.got.tgz:282037.got - 2010.06.03 13:09:07.
