data_PCOD9218043
_publ_section_title
;
Structure prediction by ZEFSAII (Michael W. Deem and Ramdas Pophale) SiO2 
 PCOD9218043
Probable space group: C 2/M
;
_chemical_formula_sum "Si O2"
_cell_formula_units_Z 50
_cell_length_a 9.320547
_cell_length_b 26.806639
_cell_length_c 11.987469
_cell_angle_alpha 90.000000
_cell_angle_beta 130.713235
_cell_angle_gamma 90.000000
_cell_volume 2270.236603
_symmetry_space_group_name_H-M "C 2/M"
_symmetry_group_IT_number 12
_symmetry_cell_setting 'monoclinic'
loop_
_space_group_symop_operation_xyz
x,y,z
-x,y,-z
-x,-y,-z
x,-y,z
1/2+x,1/2+y,z
1/2-x,1/2+y,-z
1/2-x,1/2-y,-z
1/2+x,1/2-y,z
loop_
_atom_site_type_symbol
_atom_site_label
_atom_site_fract_x
_atom_site_fract_y
_atom_site_fract_z
Si Si1 0.013568 0.719607 0.190433
Si Si2 0.930383 0.620368 0.247324
Si Si3 0.298665 0.691862 0.158518
Si Si4 0.306664 0.416465 0.079574
Si Si5 0.269747 0.554605 0.684843
Si Si6 0.000000 0.500000 0.000000
Si Si7 0.713084 0.556531 0.573741
O O1 0.967852 0.679007 0.261898
O O2 0.978904 0.775314 0.215188
O O3 0.212429 0.709386 0.232034
O O4 0.858994 0.706499 0.015231
O O5 0.856714 0.597156 0.324481
O O6 0.122799 0.593241 0.305876
O O7 0.773956 0.604398 0.077578
O O8 0.326213 0.632819 0.166499
O O9 0.513466 0.439304 0.168799
O O10 0.160169 0.456272 0.053401
O O11 0.196064 0.500000 0.684202
O O12 0.274621 0.555818 0.553886
O O13 0.500000 0.569582 0.500000
O O14 0.751530 0.500000 0.636306
#
# Coordination Sequence:
#
# PCOD9218043 Si02
#       7
#     8   8   8   8   8   2   8
#     4   9  19  35  61  87 120 161 206 255 321 370
#     4  11  23  39  63  94 126 165 210 266 322 371
#     4   9  19  37  55  90 125 160 205 258 312 378
#     4  11  24  36  63  92 135 162 207 261 320 378
#     4  11  24  41  59  93 129 172 211 256 320 384
#     4  12  24  36  58  94 140 172 198 258 322 380
#     4  10  24  41  63  88 125 175 221 257 312 386
#
# _framework density 22.024135999999999
#
# number of rings (size 3 to 8) (size 9 to 14) (size 15 to 20)
#    0.000    1.760    0.800    3.360    8.960    1.920 
#    0.000    0.000    0.000    0.960    0.000    0.000 
#    0.000    0.000    0.000    0.000    0.000    0.000 
#
# Total GULP energy -139547.900638 kJ/mol
# GULP energy per Si atom -5581.916026 kJ/mol
# Density = 2.197401 g / cm^3
# Si number density = 22.024136 Si / 1000 Ang^3
#
#
#
# Elastic Constant Matrix: (Units=GPa)
#
#
# Indices 1 2 3 4 5 6 
#
# 1 110.4751 46.9506 -1.8742 0.0000 -9.6692 0.0000
# 2 46.9506 131.9865 1.5144 0.0000 -13.2637 0.0000
# 3 -1.8742 1.5144 28.2833 0.0000 2.0733 0.0000
# 4 0.0000 0.0000 0.0000 6.0590 0.0000 -15.0084
# 5 -9.6692 -13.2637 2.0733 0.0000 33.1239 0.0000
# 6 0.0000 0.0000 0.0000 -15.0084 0.0000 2.6439
#
#
#
# Elastic Compliance Matrix: (Units=1/GPa)
#
#
# Indices 1 2 3 4 5 6 
#
# 1 0.010770 -0.003677 0.000792 0.000000 0.001622 0.000000
# 2 -0.003677 0.009162 -0.000929 0.000000 0.002653 0.000000
# 3 0.000792 -0.000929 0.035633 0.000000 -0.002371 0.000000
# 4 0.000000 0.000000 0.000000 -0.012636 0.000000 -0.071731
# 5 0.001622 0.002653 -0.002371 0.000000 0.031874 0.000000
# 6 0.000000 0.000000 0.000000 -0.071731 0.000000 -0.028959
#
#
# Mechanical properties :
#
#
# Convention : Reuss Voigt Hill
#
# Bulk Modulus (GPa) = 20.86119 40.43628 30.64874
# Shear Modulus (GPa) = 71.99310 23.30897 47.65103
#
# Velocity S-wave (km/s) = 5.72357 3.25674 4.65648
# Velocity P-wave (km/s) = 7.29188 5.70453 6.54649
#
# Compressibility (1/GPa) = 0.04793589
#
# Stress axis : x y z
#
# Youngs Moduli (GPa) = 92.85072 109.14756 28.06422
#
# Poissons Ratio (x) = 0.40136 -0.02222
# Poissons Ratio (y) = 0.34143 0.02606
# Poissons Ratio (z) = -0.07351 0.10137
#
# Static dielectric constant tensor:
#      x y z
#    x 1.786850 0.000000 -0.023800 
#    y 0.000000 1.794590 0.000000 
#    z -0.023800 0.000000 1.903900 
# 
# From -- ./inp_files/124404.got.cif
#   From: 2010.05.17/outbox.cif.g08.bks.cpg/sg12_63_cif.got.tgz:124404.got - 2010.06.03 13:09:07.
