data_PCOD9218246
_publ_section_title
;
Structure prediction by ZEFSAII (Michael W. Deem and Ramdas Pophale) SiO2 
 PCOD9218246
Probable space group: C 2/M
;
_chemical_formula_sum "Si O2"
_cell_formula_units_Z 36
_cell_length_a 18.595044
_cell_length_b 7.382844
_cell_length_c 12.033688
_cell_angle_alpha 90.000000
_cell_angle_beta 52.912488
_cell_angle_gamma 90.000000
_cell_volume 1317.854963
_symmetry_space_group_name_H-M "C 2/M"
_symmetry_group_IT_number 12
_symmetry_cell_setting 'monoclinic'
loop_
_space_group_symop_operation_xyz
x,y,z
-x,y,-z
-x,-y,-z
x,-y,z
1/2+x,1/2+y,z
1/2-x,1/2+y,-z
1/2-x,1/2-y,-z
1/2+x,1/2-y,z
loop_
_atom_site_type_symbol
_atom_site_label
_atom_site_fract_x
_atom_site_fract_y
_atom_site_fract_z
Si Si1 0.446184 0.283776 0.208195
Si Si2 0.143200 0.220185 0.937410
Si Si3 0.172880 0.297309 0.486333
Si Si4 0.093592 0.712717 0.345087
Si Si5 0.699739 0.500000 0.146795
O O1 0.443992 0.500000 0.218269
O O2 0.373112 0.241708 0.179359
O O3 0.416017 0.209311 0.354671
O O4 0.544743 0.230582 0.076607
O O5 0.222200 0.339928 0.913621
O O6 0.159080 0.000000 0.939096
O O7 0.190537 0.500000 0.434342
O O8 0.250000 0.250000 0.500000
O O9 0.159621 0.203840 0.381201
O O10 0.106231 0.500000 0.307237
O O11 0.000000 0.726595 0.500000
O O12 0.118953 0.842270 0.221941
#
# Coordination Sequence:
#
# PCOD9218246 Si02
#       5
#     8   8   8   8   4
#     4   9  19  35  53  81 123 162 192 239 304 354
#     4   9  20  35  54  85 123 159 195 242 296 355
#     4  11  23  35  58  91 122 151 193 251 301 350
#     4  10  24  44  60  85 120 163 200 241 299 358
#     4  12  21  33  64  88 110 149 208 244 288 355
#
# _framework density 27.317119000000002
#
# number of rings (size 3 to 8) (size 9 to 14) (size 15 to 20)
#    0.000    2.000    0.000    4.333    9.333    4.444 
#    0.000    0.000    0.000    1.333    0.000    0.000 
#    0.000    0.000    0.000    0.000    0.000    0.000 
#
# Total GULP energy -100324.382340 kJ/mol
# GULP energy per Si atom -5573.576797 kJ/mol
# Density = 2.725494 g / cm^3
# Si number density = 27.317119 Si / 1000 Ang^3
#
#
#
# Elastic Constant Matrix: (Units=GPa)
#
#
# Indices 1 2 3 4 5 6 
#
# 1 82.9997 40.7126 36.0096 0.0000 -3.4959 -0.0001
# 2 40.7126 167.4554 13.4939 0.0001 -21.7457 -0.0002
# 3 36.0096 13.4939 87.2143 0.0000 -12.0047 0.0000
# 4 0.0000 0.0001 0.0000 65.3749 0.0000 -77.0839
# 5 -3.4959 -21.7457 -12.0047 0.0000 54.3236 0.0000
# 6 -0.0001 -0.0002 0.0000 -77.0839 0.0000 91.6865
#
#
#
# Elastic Compliance Matrix: (Units=1/GPa)
#
#
# Indices 1 2 3 4 5 6 
#
# 1 0.016661 -0.003767 -0.006556 0.000000 -0.001884 0.000000
# 2 -0.003767 0.007187 0.000831 0.000001 0.002818 0.000001
# 3 -0.006556 0.000831 0.014472 0.000000 0.003109 0.000000
# 4 0.000000 0.000001 0.000000 1.760781 0.000000 1.480347
# 5 -0.001884 0.002818 0.003109 0.000000 0.020102 0.000000
# 6 0.000000 0.000001 0.000000 1.480347 0.000000 1.255484
#
#
# Mechanical properties :
#
#
# Convention : Reuss Voigt Hill
#
# Bulk Modulus (GPa) = 51.71482 57.56682 54.64082
# Shear Modulus (GPa) = 1.61284 58.77389 30.19336
#
# Velocity S-wave (km/s) = 0.76922 4.64350 3.32820
# Velocity P-wave (km/s) = 4.44537 7.06178 5.90043
#
# Compressibility (1/GPa) = 0.01933682
#
# Stress axis : x y z
#
# Youngs Moduli (GPa) = 60.02095 139.14821 69.09877
#
# Poissons Ratio (x) = 0.52419 0.45298
# Poissons Ratio (y) = 0.22611 -0.05745
# Poissons Ratio (z) = 0.39347 -0.11568
#
# Static dielectric constant tensor:
#      x y z
#    x 0.769750 0.000000 -0.890030 
#    y 0.000000 2.035900 0.000000 
#    z -0.890030 0.000000 1.639580 
# 
# From -- ./inp_files/220079.got.cif
#   From: 2010.05.17/outbox.cif.g08.bks.cpg/sg12_111_cif.got.tgz:220079.got - 2010.06.03 13:09:07.
