data_PCOD9218620
_publ_section_title
;
Structure prediction by ZEFSAII (Michael W. Deem and Ramdas Pophale) SiO2 
 PCOD9218620
Probable space group: C 2/M
;
_chemical_formula_sum "Si O2"
_cell_formula_units_Z 36
_cell_length_a 20.840158
_cell_length_b 16.472145
_cell_length_c 12.007886
_cell_angle_alpha 90.000000
_cell_angle_beta 23.258731
_cell_angle_gamma 90.000000
_cell_volume 1627.747755
_symmetry_space_group_name_H-M "C 2/M"
_symmetry_group_IT_number 12
_symmetry_cell_setting 'monoclinic'
loop_
_space_group_symop_operation_xyz
x,y,z
-x,y,-z
-x,-y,-z
x,-y,z
1/2+x,1/2+y,z
1/2-x,1/2+y,-z
1/2-x,1/2-y,-z
1/2+x,1/2-y,z
loop_
_atom_site_type_symbol
_atom_site_label
_atom_site_fract_x
_atom_site_fract_y
_atom_site_fract_z
Si Si1 0.906883 0.719461 0.946792
Si Si2 0.183604 0.907268 0.242676
Si Si3 0.687353 0.150965 0.192996
Si Si4 0.176417 0.589819 0.452410
Si Si5 0.500000 0.663955 0.000000
O O1 0.053923 0.662884 0.674068
O O2 0.761107 0.655945 0.205789
O O3 0.820446 0.777979 0.994685
O O4 0.968281 0.776744 0.946718
O O5 0.000000 0.888824 0.500000
O O6 0.191037 0.000000 0.269443
O O7 0.284269 0.896012 0.967089
O O8 0.500000 0.179610 0.500000
O O9 0.711907 0.095986 0.263692
O O10 0.112261 0.500000 0.580541
O O11 0.340455 0.608417 0.258425
#
# Coordination Sequence:
#
# PCOD9218620 Si02
#       5
#     8   8   8   8   4
#     4  11  23  40  66  91 126 171 213 264 310 383
#     4  11  24  40  63  98 138 167 204 262 326 384
#     4  11  23  39  68  98 130 165 213 258 320 388
#     4  11  23  42  67  94 126 166 217 271 318 372
#     4  10  25  42  63  90 126 170 224 262 315 370
#
# _framework density 22.116447999999998
#
# number of rings (size 3 to 8) (size 9 to 14) (size 15 to 20)
#    0.000    1.111    2.222    3.667    6.222    0.889 
#    0.000    2.222    0.000    0.000    0.000    0.000 
#    0.000    0.000    0.000    0.000    0.000    0.000 
#
# Total GULP energy -100599.480227 kJ/mol
# GULP energy per Si atom -5588.860013 kJ/mol
# Density = 2.206611 g / cm^3
# Si number density = 22.116448 Si / 1000 Ang^3
#
#
#
# Elastic Constant Matrix: (Units=GPa)
#
#
# Indices 1 2 3 4 5 6 
#
# 1 83.5129 16.1293 9.7466 -0.0006 -25.8816 -0.0004
# 2 16.1293 101.9120 13.5821 -0.0013 -9.6673 -0.0001
# 3 9.7466 13.5821 100.8011 -0.0015 -24.9038 -0.0001
# 4 -0.0006 -0.0013 -0.0015 26.1280 0.0003 2.2203
# 5 -25.8816 -9.6673 -24.9038 0.0003 37.4276 0.0004
# 6 -0.0004 -0.0001 -0.0001 2.2203 0.0004 10.5055
#
#
#
# Elastic Compliance Matrix: (Units=1/GPa)
#
#
# Indices 1 2 3 4 5 6 
#
# 1 0.015644 -0.001596 0.001524 0.000000 0.011419 0.000000
# 2 -0.001596 0.010283 -0.001014 0.000000 0.000878 0.000000
# 3 0.001524 -0.001014 0.012094 0.000001 0.008838 0.000000
# 4 0.000000 0.000000 0.000001 0.038973 0.000000 -0.008237
# 5 0.011419 0.000878 0.008838 0.000000 0.040723 -0.000001
# 6 0.000000 0.000000 0.000000 -0.008237 -0.000001 0.096929
#
#
# Mechanical properties :
#
#
# Convention : Reuss Voigt Hill
#
# Bulk Modulus (GPa) = 27.89597 40.57132 34.23364
# Shear Modulus (GPa) = 21.85626 31.26342 26.55984
#
# Velocity S-wave (km/s) = 3.14703 3.76384 3.46917
# Velocity P-wave (km/s) = 5.08387 6.10516 5.61777
#
# Compressibility (1/GPa) = 0.03584747
#
# Stress axis : x y z
#
# Youngs Moduli (GPa) = 63.92413 97.24421 82.68894
#
# Poissons Ratio (x) = 0.15517 -0.12599
# Poissons Ratio (y) = 0.10200 0.08389
# Poissons Ratio (z) = -0.09740 0.09865
#
# Static dielectric constant tensor:
#      x y z
#    x 1.805320 0.000000 -0.006070 
#    y 0.000000 1.832090 0.000000 
#    z -0.006070 0.000000 1.858010 
# 
# From -- ./inp_files/241110.got.cif
#   From: 2010.05.17/outbox.cif.g08.bks.cpg/sg12_121_cif.got.tgz:241110.got - 2010.06.03 13:09:07.
