data_PCOD9218648
_publ_section_title
;
Structure prediction by ZEFSAII (Michael W. Deem and Ramdas Pophale) SiO2 
 PCOD9218648
Probable space group: C 2/M
;
_chemical_formula_sum "Si O2"
_cell_formula_units_Z 50
_cell_length_a 9.543175
_cell_length_b 24.845513
_cell_length_c 17.226374
_cell_angle_alpha 90.000000
_cell_angle_beta 37.628970
_cell_angle_gamma 90.000000
_cell_volume 2493.749892
_symmetry_space_group_name_H-M "C 2/M"
_symmetry_group_IT_number 12
_symmetry_cell_setting 'monoclinic'
loop_
_space_group_symop_operation_xyz
x,y,z
-x,y,-z
-x,-y,-z
x,-y,z
1/2+x,1/2+y,z
1/2-x,1/2+y,-z
1/2-x,1/2-y,-z
1/2+x,1/2-y,z
loop_
_atom_site_type_symbol
_atom_site_label
_atom_site_fract_x
_atom_site_fract_y
_atom_site_fract_z
Si Si1 0.885956 0.867723 0.342419
Si Si2 0.528832 0.852914 0.366483
Si Si3 0.134845 0.401583 0.152143
Si Si4 0.332696 0.935897 0.143274
Si Si5 0.836976 0.285291 0.891735
Si Si6 0.000000 0.000000 0.000000
Si Si7 0.664469 0.737421 0.270700
O O1 0.756442 0.862172 0.317530
O O2 0.686991 0.877058 0.492992
O O3 0.079917 0.912213 0.247693
O O4 0.013536 0.813800 0.314702
O O5 0.551868 0.879972 0.272342
O O6 0.518972 0.787620 0.367818
O O7 0.238382 0.347199 0.068588
O O8 0.302134 0.452068 0.085693
O O9 0.934776 0.418422 0.180982
O O10 0.326834 0.000000 0.140724
O O11 0.500000 0.916160 0.000000
O O12 0.750625 0.261422 0.848650
O O13 0.116944 0.280037 0.773429
O O14 0.750000 0.250000 0.000000
#
# Coordination Sequence:
#
# PCOD9218648 Si02
#       7
#     8   8   8   8   8   2   8
#     4  11  23  45  69  95 139 181 226 284 340 412
#     4  10  25  44  66 102 136 181 231 275 344 414
#     4  11  26  45  67 101 133 185 233 281 346 412
#     4  11  26  46  69 101 130 172 230 287 346 403
#     4  11  24  37  62 101 139 176 222 283 350 416
#     4  12  28  44  74  96 144 190 230 294 336 412
#     4  11  21  39  63  97 136 176 221 277 341 413
#
# _framework density 20.050125000000001
#
# number of rings (size 3 to 8) (size 9 to 14) (size 15 to 20)
#    0.000    1.120    4.000    0.960    8.960    0.640 
#    1.440    1.600    0.000    0.000    0.000    0.000 
#    0.000    0.000    0.000    0.000    0.000    0.000 
#
# Total GULP energy -139405.233881 kJ/mol
# GULP energy per Si atom -5576.209355 kJ/mol
# Density = 2.000449 g / cm^3
# Si number density = 20.050125 Si / 1000 Ang^3
#
#
#
# Elastic Constant Matrix: (Units=GPa)
#
#
# Indices 1 2 3 4 5 6 
#
# 1 112.5615 39.1377 37.8874 -0.0001 -3.8449 0.0000
# 2 39.1377 121.6615 29.3991 0.0000 0.4594 0.0000
# 3 37.8874 29.3991 53.0449 0.0001 -2.5755 0.0000
# 4 -0.0001 0.0000 0.0001 14.8457 0.0000 1.0976
# 5 -3.8449 0.4594 -2.5755 0.0000 26.3567 0.0000
# 6 0.0000 0.0000 0.0000 1.0976 0.0000 23.9135
#
#
#
# Elastic Compliance Matrix: (Units=1/GPa)
#
#
# Indices 1 2 3 4 5 6 
#
# 1 0.012170 -0.002114 -0.007468 0.000000 0.001082 0.000000
# 2 -0.002114 0.009870 -0.004002 0.000000 -0.000872 0.000000
# 3 -0.007468 -0.004002 0.026480 0.000000 0.001568 0.000000
# 4 0.000000 0.000000 0.000000 0.067589 0.000000 -0.003102
# 5 0.001082 -0.000872 0.001568 0.000000 0.038267 0.000000
# 6 0.000000 0.000000 0.000000 -0.003102 0.000000 0.041960
#
#
# Mechanical properties :
#
#
# Convention : Reuss Voigt Hill
#
# Bulk Modulus (GPa) = 46.83663 55.56849 51.20256
# Shear Modulus (GPa) = 21.68042 25.07943 23.37992
#
# Velocity S-wave (km/s) = 3.29190 3.54055 3.41849
# Velocity P-wave (km/s) = 6.15299 6.67001 6.41671
#
# Compressibility (1/GPa) = 0.02135081
#
# Stress axis : x y z
#
# Youngs Moduli (GPa) = 82.17038 101.31499 37.76390
#
# Poissons Ratio (x) = 0.21423 0.28202
# Poissons Ratio (y) = 0.17375 0.15115
# Poissons Ratio (z) = 0.61364 0.40551
#
# Static dielectric constant tensor:
#      x y z
#    x 1.699620 0.000000 -0.003900 
#    y 0.000000 1.698380 0.000000 
#    z -0.003900 0.000000 1.733680 
# 
# From -- ./inp_files/259688.got.cif
#   From: 2010.05.17/outbox.cif.g08.bks.cpg/sg12_130_cif.got.tgz:259688.got - 2010.06.03 13:09:07.
