data_PCOD9218943
_publ_section_title
;
Structure prediction by ZEFSAII (Michael W. Deem and Ramdas Pophale) SiO2 
 PCOD9218943
Probable space group: C 2/M
;
_chemical_formula_sum "Si O2"
_cell_formula_units_Z 56
_cell_length_a 23.013204
_cell_length_b 23.203212
_cell_length_c 7.377847
_cell_angle_alpha 90.000000
_cell_angle_beta 124.687387
_cell_angle_gamma 90.000000
_cell_volume 3239.432521
_symmetry_space_group_name_H-M "C 2/M"
_symmetry_group_IT_number 12
_symmetry_cell_setting 'monoclinic'
loop_
_space_group_symop_operation_xyz
x,y,z
-x,y,-z
-x,-y,-z
x,-y,z
1/2+x,1/2+y,z
1/2-x,1/2+y,-z
1/2-x,1/2-y,-z
1/2+x,1/2-y,z
loop_
_atom_site_type_symbol
_atom_site_label
_atom_site_fract_x
_atom_site_fract_y
_atom_site_fract_z
Si Si1 0.721072 0.655498 0.162889
Si Si2 0.162160 0.748759 0.572761
Si Si3 0.258277 0.153743 0.800697
Si Si4 0.124028 0.746678 0.926522
Si Si5 0.519697 0.811221 0.241509
Si Si6 0.715372 0.933084 0.459010
Si Si7 0.549460 0.064319 0.267679
O O1 0.777715 0.701054 0.343256
O O2 0.735972 0.598977 0.305900
O O3 0.740078 0.645887 0.982389
O O4 0.647417 0.691054 0.046053
O O5 0.194554 0.811027 0.591377
O O6 0.147281 0.750111 0.760218
O O7 0.090757 0.726058 0.361462
O O8 0.273391 0.096905 0.715037
O O9 0.326114 0.196143 0.905464
O O10 0.043864 0.725838 0.789341
O O11 0.529942 0.876136 0.337222
O O12 0.500000 0.821149 0.000000
O O13 0.632108 0.927854 0.362778
O O14 0.732419 0.000000 0.481897
O O15 0.542405 0.000000 0.341634
O O16 0.500000 0.061655 0.000000
#
# Coordination Sequence:
#
# PCOD9218943 Si02
#       7
#     8   8   8   8   8   8   8
#     4   9  19  35  51  74 103 132 167 217 260 302
#     4   9  18  33  49  71 103 133 163 214 263 305
#     4   9  19  34  52  73 101 133 168 214 263 300
#     4   9  19  32  50  73 101 134 168 208 264 303
#     4  11  19  27  48  78  99 134 170 206 250 304
#     4  11  21  33  54  75  99 141 178 209 250 297
#     4   9  18  31  45  67 104 142 176 206 237 287
#
# _framework density 17.286978999999999
#
# number of rings (size 3 to 8) (size 9 to 14) (size 15 to 20)
#    0.000    2.429    1.429    3.857    2.000    1.714 
#    0.000    0.000    0.000    2.571    0.000    2.000 
#    0.000    4.571    0.000    0.000    0.000    0.000 
#
# Total GULP energy -155959.704453 kJ/mol
# GULP energy per Si atom -5569.989445 kJ/mol
# Density = 1.724763 g / cm^3
# Si number density = 17.286979 Si / 1000 Ang^3
#
#
#
# Elastic Constant Matrix: (Units=GPa)
#
#
# Indices 1 2 3 4 5 6 
#
# 1 54.5000 41.9047 14.1037 0.0000 8.4324 0.0000
# 2 41.9047 126.4189 45.6148 0.0000 7.4685 0.0000
# 3 14.1037 45.6148 50.9066 0.0000 6.7605 0.0000
# 4 0.0000 0.0000 0.0000 19.3505 0.0000 0.5561
# 5 8.4324 7.4685 6.7605 0.0000 27.2766 0.0000
# 6 0.0000 0.0000 0.0000 0.5561 0.0000 24.6984
#
#
#
# Elastic Compliance Matrix: (Units=1/GPa)
#
#
# Indices 1 2 3 4 5 6 
#
# 1 0.025524 -0.008635 0.001448 0.000000 -0.005885 0.000000
# 2 -0.008635 0.014621 -0.010890 0.000000 0.001365 0.000000
# 3 0.001448 -0.010890 0.029640 0.000000 -0.004812 0.000000
# 4 0.000000 0.000000 0.000000 0.051712 0.000000 -0.001164
# 5 -0.005885 0.001365 -0.004812 0.000000 0.039300 0.000000
# 6 0.000000 0.000000 0.000000 -0.001164 0.000000 0.040515
#
#
# Mechanical properties :
#
#
# Convention : Reuss Voigt Hill
#
# Bulk Modulus (GPa) = 29.73565 48.34133 39.03849
# Shear Modulus (GPa) = 20.10636 22.94526 21.52581
#
# Velocity S-wave (km/s) = 3.41411 3.64718 3.53257
# Velocity P-wave (km/s) = 5.72539 6.76466 6.26661
#
# Compressibility (1/GPa) = 0.03362967
#
# Stress axis : x y z
#
# Youngs Moduli (GPa) = 39.17857 68.39273 33.73809
#
# Poissons Ratio (x) = 0.59059 -0.04884
# Poissons Ratio (y) = 0.33832 0.36742
# Poissons Ratio (z) = -0.05672 0.74482
#
# Static dielectric constant tensor:
#      x y z
#    x 1.531610 0.000000 -0.105000 
#    y 0.000000 1.619520 0.000000 
#    z -0.105000 0.000000 1.544320 
# 
# From -- ./inp_files/76885.got.cif
#   From: 2010.05.17/outbox.cif.g08.bks.cpg/sg12_39_cif.got.tgz:76885.got - 2010.06.03 13:09:07.
