data_PCOD9218517
_publ_section_title
;
Structure prediction by ZEFSAII (Michael W. Deem and Ramdas Pophale) SiO2 
 PCOD9218517
Probable space group: C 2/M
;
_chemical_formula_sum "Si O2"
_cell_formula_units_Z 38
_cell_length_a 9.047188
_cell_length_b 12.462087
_cell_length_c 15.396200
_cell_angle_alpha 90.000000
_cell_angle_beta 112.867018
_cell_angle_gamma 90.000000
_cell_volume 1599.449401
_symmetry_space_group_name_H-M "C 2/M"
_symmetry_group_IT_number 12
_symmetry_cell_setting 'monoclinic'
loop_
_space_group_symop_operation_xyz
x,y,z
-x,y,-z
-x,-y,-z
x,-y,z
1/2+x,1/2+y,z
1/2-x,1/2+y,-z
1/2-x,1/2-y,-z
1/2+x,1/2-y,z
loop_
_atom_site_type_symbol
_atom_site_label
_atom_site_fract_x
_atom_site_fract_y
_atom_site_fract_z
Si Si1 0.889896 0.619656 0.638254
Si Si2 0.778413 0.283041 0.298439
Si Si3 0.160262 0.000000 0.258004
Si Si4 0.071325 0.316388 0.103627
Si Si5 0.500000 0.000000 0.500000
Si Si6 0.327275 0.000000 0.109071
Si Si7 0.313508 0.500000 0.100237
O O1 0.895454 0.500000 0.682189
O O2 0.043165 0.694638 0.694020
O O3 0.915152 0.591831 0.543718
O O4 0.739846 0.684808 0.639915
O O5 0.720064 0.396591 0.323449
O O6 0.654633 0.260585 0.191351
O O7 0.257854 0.000000 0.189375
O O8 0.977646 0.000000 0.189441
O O9 0.211081 0.396726 0.104781
O O10 0.935965 0.394808 0.113364
O O11 0.000000 0.263724 0.000000
O O12 0.187924 0.000000 0.004366
#
# Coordination Sequence:
#
# PCOD9218517 Si02
#       7
#     8   8   4   8   2   4   4
#     4  10  24  47  70 103 130 169 210 270 332 398
#     4  12  23  40  69  94 140 174 217 273 320 386
#     4  12  22  34  51  92 125 165 219 265 327 376
#     4   9  20  37  57  84 123 181 227 264 318 371
#     4   8  22  50  76 100 134 162 206 264 342 406
#     4   9  19  36  55  75 125 172 220 284 321 356
#     4   9  19  33  52  81 115 166 234 280 314 369
#
# _framework density 23.758175000000001
#
# number of rings (size 3 to 8) (size 9 to 14) (size 15 to 20)
#    0.632    1.263    1.053    4.105    2.947    2.526 
#    1.895    5.263    0.000    1.895    0.000    0.000 
#    0.000    0.000    0.000    0.000    0.000    0.000 
#
# Total GULP energy -105968.073811 kJ/mol
# GULP energy per Si atom -5577.267043 kJ/mol
# Density = 2.370410 g / cm^3
# Si number density = 23.758175 Si / 1000 Ang^3
#
#
#
# Elastic Constant Matrix: (Units=GPa)
#
#
# Indices 1 2 3 4 5 6 
#
# 1 80.3499 23.1959 4.1867 0.0000 -1.8378 0.0000
# 2 23.1959 119.5608 20.5718 0.0000 -17.7617 0.0000
# 3 4.1867 20.5718 90.0265 0.0000 -13.2709 0.0000
# 4 0.0000 0.0000 0.0000 13.4506 0.0000 -27.8079
# 5 -1.8378 -17.7617 -13.2709 0.0000 26.4061 0.0000
# 6 0.0000 0.0000 0.0000 -27.8079 0.0000 4.9528
#
#
#
# Elastic Compliance Matrix: (Units=1/GPa)
#
#
# Indices 1 2 3 4 5 6 
#
# 1 0.013205 -0.002679 -0.000143 0.000000 -0.000955 0.000000
# 2 -0.002679 0.009979 -0.001289 0.000000 0.005878 0.000000
# 3 -0.000143 -0.001289 0.012182 0.000000 0.005245 0.000000
# 4 0.000000 0.000000 0.000000 -0.007009 0.000000 -0.039351
# 5 -0.000955 0.005878 0.005245 0.000000 0.044393 0.000000
# 6 0.000000 0.000000 0.000000 -0.039351 0.000000 -0.019034
#
#
# Mechanical properties :
#
#
# Convention : Reuss Voigt Hill
#
# Bulk Modulus (GPa) = 36.84086 42.87176 39.85631
# Shear Modulus (GPa) = 70.43634 25.09407 47.76521
#
# Velocity S-wave (km/s) = 5.45083 3.25349 4.48870
# Velocity P-wave (km/s) = 7.42669 5.67432 6.60884
#
# Compressibility (1/GPa) = 0.02714378
#
# Stress axis : x y z
#
# Youngs Moduli (GPa) = 75.73129 100.21336 82.08633
#
# Poissons Ratio (x) = 0.26848 0.01171
# Poissons Ratio (y) = 0.20289 0.10582
# Poissons Ratio (z) = 0.01080 0.12919
#
# Static dielectric constant tensor:
#      x y z
#    x 1.902940 0.000000 0.076240 
#    y 0.000000 2.000710 0.000000 
#    z 0.076240 0.000000 1.981650 
# 
# From -- ./inp_files/254718.got.cif
#   From: 2010.05.17/outbox.cif.g08.bks.cpg/sg12_128_cif.got.tgz:254718.got - 2010.06.03 13:09:07.
