data_PCOD9218224
_publ_section_title
;
Structure prediction by ZEFSAII (Michael W. Deem and Ramdas Pophale) SiO2 
 PCOD9218224
Probable space group: C 2/M
;
_chemical_formula_sum "Si O2"
_cell_formula_units_Z 42
_cell_length_a 18.222270
_cell_length_b 8.037675
_cell_length_c 14.094306
_cell_angle_alpha 90.000000
_cell_angle_beta 118.032271
_cell_angle_gamma 90.000000
_cell_volume 1822.138533
_symmetry_space_group_name_H-M "C 2/M"
_symmetry_group_IT_number 12
_symmetry_cell_setting 'monoclinic'
loop_
_space_group_symop_operation_xyz
x,y,z
-x,y,-z
-x,-y,-z
x,-y,z
1/2+x,1/2+y,z
1/2-x,1/2+y,-z
1/2-x,1/2-y,-z
1/2+x,1/2-y,z
loop_
_atom_site_type_symbol
_atom_site_label
_atom_site_fract_x
_atom_site_fract_y
_atom_site_fract_z
Si Si1 0.636402 0.310462 0.287422
Si Si2 0.019193 0.690173 0.907615
Si Si3 0.177827 0.312290 0.677234
Si Si4 0.073296 0.814823 0.452142
Si Si5 0.000000 0.500000 0.500000
Si Si6 0.175025 0.807879 0.886808
O O1 0.608245 0.500000 0.250816
O O2 0.567423 0.194342 0.200340
O O3 0.726769 0.296166 0.296823
O O4 0.633506 0.289256 0.398750
O O5 0.048856 0.500000 0.937661
O O6 0.089548 0.784068 0.891802
O O7 0.000000 0.760950 0.000000
O O8 0.144619 0.500000 0.629883
O O9 0.127448 0.188331 0.580646
O O10 0.172162 0.289019 0.785645
O O11 0.015978 0.652796 0.429049
O O12 0.034615 0.000000 0.416806
O O13 0.187772 0.000000 0.870504
O O14 0.250000 0.750000 0.000000
#
# Coordination Sequence:
#
# PCOD9218224 Si02
#       6
#     8   8   8   8   2   8
#     4  10  24  43  68  98 133 177 224 276 336 401
#     4  11  25  43  67  97 130 171 221 276 336 401
#     4  11  23  44  70  99 135 179 225 275 338 403
#     4  11  25  44  68 102 140 179 229 279 336 407
#     4  12  26  44  68 102 138 184 226 280 346 394
#     4  12  26  44  67  97 132 174 222 278 338 402
#
# _framework density 23.049838999999999
#
# number of rings (size 3 to 8) (size 9 to 14) (size 15 to 20)
#    0.000    0.952    0.952    4.857    4.000    6.095 
#    0.000    0.000    0.000    0.000    0.000    0.000 
#    0.000    0.000    0.000    0.000    0.000    0.000 
#
# Total GULP energy -117285.850579 kJ/mol
# GULP energy per Si atom -5585.040504 kJ/mol
# Density = 2.299738 g / cm^3
# Si number density = 23.049839 Si / 1000 Ang^3
#
#
#
# Elastic Constant Matrix: (Units=GPa)
#
#
# Indices 1 2 3 4 5 6 
#
# 1 118.1350 34.8435 30.1902 0.0000 -34.8310 0.0000
# 2 34.8435 128.6410 14.9866 0.0000 -0.6778 0.0000
# 3 30.1902 14.9866 115.6753 0.0000 -30.0161 0.0000
# 4 0.0000 0.0000 0.0000 35.1069 0.0000 -17.9234
# 5 -34.8310 -0.6778 -30.0161 0.0000 40.8259 0.0000
# 6 0.0000 0.0000 0.0000 -17.9234 0.0000 86.2235
#
#
#
# Elastic Compliance Matrix: (Units=1/GPa)
#
#
# Indices 1 2 3 4 5 6 
#
# 1 0.012613 -0.003349 -0.000099 0.000000 0.010632 0.000000
# 2 -0.003349 0.008801 -0.001198 0.000000 -0.003592 0.000000
# 3 -0.000099 -0.001198 0.010873 0.000000 0.007890 0.000000
# 4 0.000000 0.000000 0.000000 0.031866 0.000000 0.006624
# 5 0.010632 -0.003592 0.007890 0.000000 0.039306 0.000000
# 6 0.000000 0.000000 0.000000 0.006624 0.000000 0.012975
#
#
# Mechanical properties :
#
#
# Convention : Reuss Voigt Hill
#
# Bulk Modulus (GPa) = 43.48745 58.05467 50.77106
# Shear Modulus (GPa) = 37.48353 51.26001 44.37177
#
# Velocity S-wave (km/s) = 4.03699 4.72092 4.39228
# Velocity P-wave (km/s) = 6.37474 7.41332 6.91356
#
# Compressibility (1/GPa) = 0.02299514
#
# Stress axis : x y z
#
# Youngs Moduli (GPa) = 79.28515 113.61989 91.96827
#
# Poissons Ratio (x) = 0.38048 0.00911
# Poissons Ratio (y) = 0.26550 0.11021
# Poissons Ratio (z) = 0.00785 0.13616
#
# Static dielectric constant tensor:
#      x y z
#    x 1.799300 0.000000 -0.038020 
#    y 0.000000 1.854730 0.000000 
#    z -0.038020 0.000000 1.805450 
# 
# From -- ./inp_files/221153.got.cif
#   From: 2010.05.17/outbox.cif.g08.bks.cpg/sg12_111_cif.got.tgz:221153.got - 2010.06.03 13:09:07.
