data_PCOD9218180
_publ_section_title
;
Structure prediction by ZEFSAII (Michael W. Deem and Ramdas Pophale) SiO2 
 PCOD9218180
Probable space group: C 2/M
;
_chemical_formula_sum "Si O2"
_cell_formula_units_Z 40
_cell_length_a 18.467472
_cell_length_b 15.558142
_cell_length_c 12.360633
_cell_angle_alpha 90.000000
_cell_angle_beta 28.832043
_cell_angle_gamma 90.000000
_cell_volume 1712.665051
_symmetry_space_group_name_H-M "C 2/M"
_symmetry_group_IT_number 12
_symmetry_cell_setting 'monoclinic'
loop_
_space_group_symop_operation_xyz
x,y,z
-x,y,-z
-x,-y,-z
x,-y,z
1/2+x,1/2+y,z
1/2-x,1/2+y,-z
1/2-x,1/2-y,-z
1/2+x,1/2-y,z
loop_
_atom_site_type_symbol
_atom_site_label
_atom_site_fract_x
_atom_site_fract_y
_atom_site_fract_z
Si Si1 0.355711 0.901568 0.002414
Si Si2 0.365202 0.832043 0.594742
Si Si3 0.303890 0.599486 0.001058
Si Si4 0.125461 0.132329 0.481343
Si Si5 0.665099 0.158119 0.606621
O O1 0.310258 0.870449 0.942896
O O2 0.205223 0.902587 0.270104
O O3 0.410460 0.000000 0.925550
O O4 0.490415 0.842906 0.869232
O O5 0.500000 0.859902 0.500000
O O6 0.389994 0.733444 0.527848
O O7 0.339675 0.875569 0.511002
O O8 0.219824 0.845075 0.860715
O O9 0.270388 0.500000 0.071132
O O10 0.465512 0.603580 0.734040
O O11 0.240845 0.109068 0.426366
O O12 0.750000 0.250000 0.500000
#
# Coordination Sequence:
#
# PCOD9218180 Si02
#       5
#     8   8   8   8   8
#     4  11  23  43  71  99 136 183 229 278 343 414
#     4  11  23  42  71  94 133 185 232 277 339 410
#     4  11  25  44  70 104 141 181 231 286 342 408
#     4  11  25  41  68 102 140 175 228 285 343 403
#     4  10  24  43  64 101 135 178 227 284 335 409
#
# _framework density 23.355412999999999
#
# number of rings (size 3 to 8) (size 9 to 14) (size 15 to 20)
#    0.000    1.200    2.000    3.000    5.600    7.600 
#    0.000    1.000    0.000    0.000    0.000    0.000 
#    0.000    0.000    0.000    0.000    0.000    0.000 
#
# Total GULP energy -111677.754408 kJ/mol
# GULP energy per Si atom -5583.887720 kJ/mol
# Density = 2.330225 g / cm^3
# Si number density = 23.355413 Si / 1000 Ang^3
#
#
#
# Elastic Constant Matrix: (Units=GPa)
#
#
# Indices 1 2 3 4 5 6 
#
# 1 135.5316 -13.0151 36.4746 -0.0001 28.1244 0.0000
# 2 -13.0151 38.9172 9.5069 0.0000 8.3790 0.0000
# 3 36.4746 9.5069 118.1228 0.0000 8.3450 0.0000
# 4 -0.0001 0.0000 0.0000 34.6494 0.0000 -15.1450
# 5 28.1244 8.3790 8.3450 0.0000 41.5076 0.0000
# 6 0.0000 0.0000 0.0000 -15.1450 0.0000 38.8813
#
#
#
# Elastic Compliance Matrix: (Units=1/GPa)
#
#
# Indices 1 2 3 4 5 6 
#
# 1 0.010355 0.005858 -0.003134 0.000000 -0.007569 0.000000
# 2 0.005858 0.030562 -0.003604 0.000000 -0.009414 0.000000
# 3 -0.003134 -0.003604 0.009659 0.000000 0.000909 0.000000
# 4 0.000000 0.000000 0.000000 0.034782 0.000000 0.013548
# 5 -0.007569 -0.009414 0.000909 0.000000 0.030938 0.000000
# 6 0.000000 0.000000 0.000000 0.013548 0.000000 0.030997
#
#
# Mechanical properties :
#
#
# Convention : Reuss Voigt Hill
#
# Bulk Modulus (GPa) = 20.48453 39.83380 30.15917
# Shear Modulus (GPa) = 30.24341 40.31467 35.27904
#
# Velocity S-wave (km/s) = 3.60240 4.15919 3.89077
# Velocity P-wave (km/s) = 5.10812 6.33701 5.75546
#
# Compressibility (1/GPa) = 0.04881732
#
# Stress axis : x y z
#
# Youngs Moduli (GPa) = 96.57135 32.72033 103.52625
#
# Poissons Ratio (x) = -0.19168 0.32448
# Poissons Ratio (y) = -0.56574 0.37307
# Poissons Ratio (z) = 0.30268 0.11791
#
# Static dielectric constant tensor:
#      x y z
#    x 1.886150 0.000000 -0.007860 
#    y 0.000000 1.867080 0.000000 
#    z -0.007860 0.000000 1.916060 
# 
# From -- ./inp_files/158438.got.cif
#   From: 2010.05.17/outbox.cif.g08.bks.cpg/sg12_80_cif.got.tgz:158438.got - 2010.06.03 13:09:07.
