data_PCOD9218426
_publ_section_title
;
Structure prediction by ZEFSAII (Michael W. Deem and Ramdas Pophale) SiO2 
 PCOD9218426
Probable space group: C 2/M
;
_chemical_formula_sum "Si O2"
_cell_formula_units_Z 52
_cell_length_a 11.136294
_cell_length_b 20.336737
_cell_length_c 12.140865
_cell_angle_alpha 90.000000
_cell_angle_beta 110.247214
_cell_angle_gamma 90.000000
_cell_volume 2579.709471
_symmetry_space_group_name_H-M "C 2/M"
_symmetry_group_IT_number 12
_symmetry_cell_setting 'monoclinic'
loop_
_space_group_symop_operation_xyz
x,y,z
-x,y,-z
-x,-y,-z
x,-y,z
1/2+x,1/2+y,z
1/2-x,1/2+y,-z
1/2-x,1/2-y,-z
1/2+x,1/2-y,z
loop_
_atom_site_type_symbol
_atom_site_label
_atom_site_fract_x
_atom_site_fract_y
_atom_site_fract_z
Si Si1 0.986008 0.217284 0.367619
Si Si2 0.404286 0.857276 0.264427
Si Si3 0.215570 0.116561 0.787883
Si Si4 0.633328 0.801597 0.988903
Si Si5 0.486652 0.500000 0.261168
Si Si6 0.849088 0.574915 0.603420
Si Si7 0.812729 0.121588 0.647204
O O1 0.109743 0.188988 0.345404
O O2 0.000000 0.199329 0.500000
O O3 0.959970 0.293459 0.344377
O O4 0.868913 0.178640 0.276393
O O5 0.401936 0.837088 0.136599
O O6 0.501532 0.914051 0.329527
O O7 0.264799 0.874856 0.264419
O O8 0.283956 0.092502 0.698530
O O9 0.121998 0.058183 0.796113
O O10 0.311673 0.143916 0.909707
O O11 0.500000 0.773746 0.000000
O O12 0.750000 0.750000 0.000000
O O13 0.592154 0.559118 0.324330
O O14 0.821202 0.500000 0.567574
O O15 0.787550 0.616090 0.484972
#
# Coordination Sequence:
#
# PCOD9218426 Si02
#       7
#     8   8   8   8   4   8   8
#     4  11  23  40  70 104 141 176 230 293 360 423
#     4  12  28  43  66 104 143 186 234 294 358 425
#     4  11  23  44  70 108 132 181 240 294 344 420
#     4  12  27  49  75 102 145 193 245 296 359 423
#     4  10  24  45  71 102 138 185 237 284 355 427
#     4  12  24  43  72  99 146 183 233 284 357 432
#     4  11  25  42  70 104 145 181 230 292 360 431
#
# _framework density 20.157308
#
# number of rings (size 3 to 8) (size 9 to 14) (size 15 to 20)
#    0.000    0.615    6.154    1.385    5.385    2.462 
#    1.385    1.923    0.000    0.000    0.000    0.000 
#    0.000    0.000    0.000    0.000    0.000    0.000 
#
# Total GULP energy -144739.377296 kJ/mol
# GULP energy per Si atom -5566.899127 kJ/mol
# Density = 2.011143 g / cm^3
# Si number density = 20.157308 Si / 1000 Ang^3
#
#
#
# Elastic Constant Matrix: (Units=GPa)
#
#
# Indices 1 2 3 4 5 6 
#
# 1 -461.8147 1174.9471-2861.7633 0.0000 2339.1142 0.0000
# 2 1174.9471-2394.4049 6131.6443 0.0000-4907.8132 0.0000
# 3 -2861.7633 6131.6443********** 0.000012232.8230 0.0000
# 4 0.0000 0.0000 0.0000 24.3326 0.0000 14.2175
# 5 2339.1142-4907.813212232.8230 0.0000-9797.2446 0.0000
# 6 0.0000 0.0000 0.0000 14.2175 0.0000 14.7427
#
#
#
# Elastic Compliance Matrix: (Units=1/GPa)
#
#
# Indices 1 2 3 4 5 6 
#
# 1 0.017386 -0.000190 -0.011551 0.000000 -0.010177 0.000000
# 2 -0.000190 0.015640 -0.000538 0.000000 -0.008551 0.000000
# 3 -0.011551 -0.000538 0.019000 0.000000 0.021235 0.000000
# 4 0.000000 0.000000 0.000000 0.094149 0.000000 -0.090795
# 5 -0.010177 -0.008551 0.021235 0.000000 0.028266 0.000000
# 6 0.000000 0.000000 0.000000 -0.090795 0.000000 0.155392
#
#
# Mechanical properties :
#
#
# Convention : Reuss Voigt Hill
#
# Bulk Modulus (GPa) = 36.40462 -1016.88109 -490.23824
# Shear Modulus (GPa) = 13.75342 -3450.72817 -1718.48738
#
# Velocity S-wave (km/s) = 2.61493 -41.41999 -29.22993
# Velocity P-wave (km/s) = 5.21695 52.84937 37.18762
#
# Compressibility (1/GPa) = 0.02746904
#
# Stress axis : x y z
#
# Youngs Moduli (GPa) = 57.51875 63.93783 52.63110
#
# Poissons Ratio (x) = 0.01213 0.60794
# Poissons Ratio (y) = 0.01091 0.02830
# Poissons Ratio (z) = 0.66440 0.03438
#
# Static dielectric constant tensor:
#      x y z
#    x 1.766550 0.000000 0.016320 
#    y 0.000000 1.696010 0.000000 
#    z 0.016320 0.000000 1.632430 
# 
# From -- ./inp_files/134048.got.cif
#   From: 2010.05.17/outbox.cif.g08.bks.cpg/sg12_68_cif.got.tgz:134048.got - 2010.06.03 13:09:07.
