data_PCOD9218233
_publ_section_title
;
Structure prediction by ZEFSAII (Michael W. Deem and Ramdas Pophale) SiO2 
 PCOD9218233
Probable space group: C 2/M
;
_chemical_formula_sum "Si O2"
_cell_formula_units_Z 44
_cell_length_a 7.836434
_cell_length_b 22.845243
_cell_length_c 12.680313
_cell_angle_alpha 90.000000
_cell_angle_beta 126.759118
_cell_angle_gamma 90.000000
_cell_volume 1818.706953
_symmetry_space_group_name_H-M "C 2/M"
_symmetry_group_IT_number 12
_symmetry_cell_setting 'monoclinic'
loop_
_space_group_symop_operation_xyz
x,y,z
-x,y,-z
-x,-y,-z
x,-y,z
1/2+x,1/2+y,z
1/2-x,1/2+y,-z
1/2-x,1/2-y,-z
1/2+x,1/2-y,z
loop_
_atom_site_type_symbol
_atom_site_label
_atom_site_fract_x
_atom_site_fract_y
_atom_site_fract_z
Si Si1 0.000000 0.298469 0.000000
Si Si2 0.899530 0.500000 0.076310
Si Si3 0.885687 0.715612 0.739504
Si Si4 0.873623 0.116616 0.057168
Si Si5 0.539652 0.336875 0.325172
Si Si6 0.267163 0.000000 0.615307
Si Si7 0.093271 0.622916 0.417190
O O1 0.019425 0.261914 0.114261
O O2 0.187359 0.341313 0.030230
O O3 0.116725 0.500000 0.227074
O O4 0.745190 0.556814 0.023157
O O5 0.000000 0.500000 0.000000
O O6 0.689309 0.680302 0.714591
O O7 0.851108 0.775089 0.664673
O O8 0.997466 0.668364 0.703390
O O9 0.023515 0.119092 0.218654
O O10 0.000000 0.136105 0.000000
O O11 0.665031 0.359965 0.470554
O O12 0.382110 0.943301 0.608767
O O13 0.000000 0.000000 0.500000
O O14 0.000000 0.628485 0.500000
#
# Coordination Sequence:
#
# PCOD9218233 Si02
#       7
#     4   4   8   8   8   4   8
#     4  10  24  43  70 106 152 189 258 314 378 460
#     4  12  27  50  80 111 155 206 251 323 391 464
#     4  11  24  45  70 107 149 201 247 318 384 451
#     4  11  26  44  75 109 152 204 255 312 385 454
#     4  11  26  43  75 106 152 199 257 316 384 464
#     4  12  29  50  82 110 152 198 256 324 387 460
#     4  12  27  47  74 106 149 197 260 319 383 464
#
# _framework density 24.193010999999998
#
# number of rings (size 3 to 8) (size 9 to 14) (size 15 to 20)
#    0.000    0.727    0.909    4.909   14.000    1.455 
#    0.000    0.000    0.000    0.000    0.000    0.000 
#    0.000    0.000    0.000    0.000    0.000    0.000 
#
# Total GULP energy -122656.795401 kJ/mol
# GULP energy per Si atom -5575.308882 kJ/mol
# Density = 2.413795 g / cm^3
# Si number density = 24.193011 Si / 1000 Ang^3
#
#
#
# Elastic Constant Matrix: (Units=GPa)
#
#
# Indices 1 2 3 4 5 6 
#
# 1 131.3612 24.7147 38.1821 0.0000 -34.5290 0.0000
# 2 24.7147 115.0188 49.1005 0.0000 -14.8093 0.0000
# 3 38.1821 49.1005 134.9238 0.0000 -34.4780 0.0000
# 4 0.0000 0.0000 0.0000 52.9874 0.0000 -38.2754
# 5 -34.5290 -14.8093 -34.4780 0.0000 38.4579 0.0000
# 6 0.0000 0.0000 0.0000 -38.2754 0.0000 94.6315
#
#
#
# Elastic Compliance Matrix: (Units=1/GPa)
#
#
# Indices 1 2 3 4 5 6 
#
# 1 0.010097 -0.000930 -0.000381 0.000000 0.008366 0.000000
# 2 -0.000930 0.010397 -0.003516 0.000000 0.000017 0.000000
# 3 -0.000381 -0.003516 0.010852 0.000000 0.008032 0.000000
# 4 0.000000 0.000000 0.000000 0.026662 0.000000 0.010784
# 5 0.008366 0.000017 0.008032 0.000000 0.040721 0.000000
# 6 0.000000 0.000000 0.000000 0.010784 0.000000 0.014929
#
#
# Mechanical properties :
#
#
# Convention : Reuss Voigt Hill
#
# Bulk Modulus (GPa) = 46.10098 67.25539 56.67818
# Shear Modulus (GPa) = 38.30120 55.16911 46.73515
#
# Velocity S-wave (km/s) = 3.98320 4.78051 4.39995
# Velocity P-wave (km/s) = 6.34440 7.63746 7.02076
#
# Compressibility (1/GPa) = 0.02169152
#
# Stress axis : x y z
#
# Youngs Moduli (GPa) = 99.03536 96.17936 92.15158
#
# Poissons Ratio (x) = 0.08942 0.03514
# Poissons Ratio (y) = 0.09208 0.32404
# Poissons Ratio (z) = 0.03776 0.33820
#
# Static dielectric constant tensor:
#      x y z
#    x 2.008640 0.000000 0.135370 
#    y 0.000000 1.999540 0.000000 
#    z 0.135370 0.000000 2.155570 
# 
# From -- ./inp_files/122699.got.cif
#   From: 2010.05.17/outbox.cif.g08.bks.cpg/sg12_62_cif.got.tgz:122699.got - 2010.06.03 13:09:07.
