data_PCOD9218023
_publ_section_title
;
Structure prediction by ZEFSAII (Michael W. Deem and Ramdas Pophale) SiO2 
 PCOD9218023
Probable space group: C 2/M
;
_chemical_formula_sum "Si O2"
_cell_formula_units_Z 38
_cell_length_a 8.954902
_cell_length_b 26.287041
_cell_length_c 7.878982
_cell_angle_alpha 90.000000
_cell_angle_beta 73.010214
_cell_angle_gamma 90.000000
_cell_volume 1773.750889
_symmetry_space_group_name_H-M "C 2/M"
_symmetry_group_IT_number 12
_symmetry_cell_setting 'monoclinic'
loop_
_space_group_symop_operation_xyz
x,y,z
-x,y,-z
-x,-y,-z
x,-y,z
1/2+x,1/2+y,z
1/2-x,1/2+y,-z
1/2-x,1/2-y,-z
1/2+x,1/2-y,z
loop_
_atom_site_type_symbol
_atom_site_label
_atom_site_fract_x
_atom_site_fract_y
_atom_site_fract_z
Si Si1 0.327464 0.112579 0.646706
Si Si2 0.500000 0.756967 0.500000
Si Si3 0.809082 0.500000 0.573429
Si Si4 0.821766 0.396514 0.031766
Si Si5 0.265870 0.178655 0.365877
Si Si6 0.122992 0.000000 0.107028
Si Si7 0.500000 0.500000 0.500000
O O1 0.500000 0.113247 0.500000
O O2 0.316048 0.129297 0.846068
O O3 0.225262 0.144218 0.545749
O O4 0.279039 0.053999 0.669609
O O5 0.580178 0.791027 0.619991
O O6 0.634601 0.720935 0.382301
O O7 0.702676 0.500000 0.440047
O O8 0.000000 0.500000 0.500000
O O9 0.783769 0.357433 0.197362
O O10 0.719368 0.447391 0.074205
O O11 0.000000 0.412815 0.000000
O O12 0.006664 0.000000 0.302491
O O13 0.000000 0.000000 0.000000
#
# Coordination Sequence:
#
# PCOD9218023 Si02
#       7
#     8   4   4   8   8   4   2
#     4  11  21  41  68 100 144 176 234 287 339 432
#     4  10  24  47  72  94 140 172 232 309 354 416
#     4  10  24  40  70 106 140 196 236 281 344 428
#     4  12  24  42  72 104 139 189 235 276 350 429
#     4  11  23  46  70 102 132 180 233 293 361 422
#     4  12  29  45  64 110 156 184 238 289 337 430
#     4  12  24  44  64  92 146 200 238 282 346 396
#
# _framework density 21.423527
#
# number of rings (size 3 to 8) (size 9 to 14) (size 15 to 20)
#    0.000    0.842    3.158    3.474    2.947    5.053 
#    0.000   11.579    0.000    0.000    0.000    0.000 
#    0.000    0.000    0.000    0.000    0.000    0.000 
#
# Total GULP energy -105767.730383 kJ/mol
# GULP energy per Si atom -5566.722652 kJ/mol
# Density = 2.137477 g / cm^3
# Si number density = 21.423527 Si / 1000 Ang^3
#
#
#
# Elastic Constant Matrix: (Units=GPa)
#
#
# Indices 1 2 3 4 5 6 
#
# 1 119.4454 72.9521 52.9996 0.0000 12.1703 0.0000
# 2 72.9521 161.7523 77.0832 0.0000 4.2186 0.0000
# 3 52.9996 77.0832 205.6830 0.0000 23.0376 0.0000
# 4 0.0000 0.0000 0.0000 20.7664 0.0000 -27.8165
# 5 12.1703 4.2186 23.0376 0.0000 28.3534 0.0000
# 6 0.0000 0.0000 0.0000 -27.8165 0.0000 36.0248
#
#
#
# Elastic Compliance Matrix: (Units=1/GPa)
#
#
# Indices 1 2 3 4 5 6 
#
# 1 0.012183 -0.004995 -0.000842 0.000000 -0.003803 0.000000
# 2 -0.004995 0.009617 -0.002637 0.000000 0.002856 0.000000
# 3 -0.000842 -0.002637 0.006582 0.000000 -0.004594 0.000000
# 4 0.000000 0.000000 0.000000 -1.404474 0.000000 -1.084461
# 5 -0.003803 0.002856 -0.004594 0.000000 0.040209 0.000000
# 6 0.000000 0.000000 0.000000 -1.084461 0.000000 -0.809605
#
#
# Mechanical properties :
#
#
# Convention : Reuss Voigt Hill
#
# Bulk Modulus (GPa) = 87.44689 99.21669 93.33179
# Shear Modulus (GPa) = -2.35324 35.95200 16.79938
#
# Velocity S-wave (km/s) = -1.04920 4.10097 2.80332
# Velocity P-wave (km/s) = 6.28005 8.29678 7.35784
#
# Compressibility (1/GPa) = 0.01143551
#
# Stress axis : x y z
#
# Youngs Moduli (GPa) = 82.07891 103.98135 151.93987
#
# Poissons Ratio (x) = 0.51934 0.12788
# Poissons Ratio (y) = 0.40995 0.40067
# Poissons Ratio (z) = 0.06908 0.27420
#
# Static dielectric constant tensor:
#      x y z
#    x 1.889930 0.000000 -0.060270 
#    y 0.000000 1.794790 0.000000 
#    z -0.060270 0.000000 2.385260 
# 
# From -- ./inp_files/40394.got.cif
#   From: 2010.05.17/outbox.cif.g08.bks.cpg/sg12_21_cif.got.tgz:40394.got - 2010.06.03 13:09:07.
