data_PCOD9218932
_publ_section_title
;
Structure prediction by ZEFSAII (Michael W. Deem and Ramdas Pophale) SiO2 
 PCOD9218932
Probable space group: C 2/M
;
_chemical_formula_sum "Si O2"
_cell_formula_units_Z 56
_cell_length_a 21.011139
_cell_length_b 17.467028
_cell_length_c 14.914870
_cell_angle_alpha 90.000000
_cell_angle_beta 149.813316
_cell_angle_gamma 90.000000
_cell_volume 2752.325691
_symmetry_space_group_name_H-M "C 2/M"
_symmetry_group_IT_number 12
_symmetry_cell_setting 'monoclinic'
loop_
_space_group_symop_operation_xyz
x,y,z
-x,y,-z
-x,-y,-z
x,-y,z
1/2+x,1/2+y,z
1/2-x,1/2+y,-z
1/2-x,1/2-y,-z
1/2+x,1/2-y,z
loop_
_atom_site_type_symbol
_atom_site_label
_atom_site_fract_x
_atom_site_fract_y
_atom_site_fract_z
Si Si1 0.395650 0.089221 0.292792
Si Si2 0.275760 0.270853 0.928442
Si Si3 0.739535 0.412976 0.449345
Si Si4 0.629151 0.329649 0.616449
Si Si5 0.633957 0.867640 0.211558
Si Si6 0.906201 0.682486 0.550973
Si Si7 0.431300 0.727829 0.759071
O O1 0.500000 0.093568 0.500000
O O2 0.279865 0.146357 0.167823
O O3 0.466116 0.133308 0.297538
O O4 0.366835 0.000000 0.242288
O O5 0.205534 0.203195 0.792202
O O6 0.250000 0.250000 0.000000
O O7 0.419783 0.269438 0.073046
O O8 0.701990 0.500000 0.397030
O O9 0.832577 0.405317 0.650636
O O10 0.802741 0.384304 0.432809
O O11 0.621756 0.356585 0.315315
O O12 0.500000 0.365984 0.500000
O O13 0.735676 0.374201 0.687486
O O14 0.590339 0.251367 0.515640
O O15 0.613116 0.777154 0.209547
O O16 0.500000 0.891970 0.000000
O O17 0.879839 0.726509 0.610648
#
# Coordination Sequence:
#
# PCOD9218932 Si02
#       7
#     8   8   8   8   8   8   8
#     4  11  22  35  55  87 124 159 197 247 305 364
#     4  12  22  35  60  92 121 157 208 255 307 359
#     4  11  24  39  60  90 129 163 198 252 312 370
#     4  12  20  36  64  92 119 157 208 255 307 359
#     4  11  22  39  65  93 120 158 211 263 299 364
#     4  11  18  39  60  87 112 158 209 246 293 361
#     4  11  21  36  64  89 119 158 210 254 302 361
#
# _framework density 20.346429000000001
#
# number of rings (size 3 to 8) (size 9 to 14) (size 15 to 20)
#    0.000    0.714    8.571    1.286    0.000    0.857 
#    0.000    0.000    0.000    2.571    0.000    0.000 
#    0.000    0.000    0.000    0.000    0.000    0.000 
#
# Total GULP energy -155947.585602 kJ/mol
# GULP energy per Si atom -5569.556629 kJ/mol
# Density = 2.030012 g / cm^3
# Si number density = 20.346429 Si / 1000 Ang^3
#
#
#
# Elastic Constant Matrix: (Units=GPa)
#
#
# Indices 1 2 3 4 5 6 
#
# 1 79.3900 -6.5592 10.7046 0.0000 20.2112 0.0000
# 2 -6.5592 66.4899 -6.3390 0.0000 11.4293 0.0000
# 3 10.7046 -6.3390 63.5932 0.0000 24.2930 0.0000
# 4 0.0000 0.0000 0.0000 8.7379 0.0000 -2.4242
# 5 20.2112 11.4293 24.2930 0.0000 41.7550 0.0000
# 6 0.0000 0.0000 0.0000 -2.4242 0.0000 6.1789
#
#
#
# Elastic Compliance Matrix: (Units=1/GPa)
#
#
# Indices 1 2 3 4 5 6 
#
# 1 0.014918 0.003078 0.001126 0.000000 -0.008719 0.000000
# 2 0.003078 0.017315 0.004613 0.000000 -0.008913 0.000000
# 3 0.001126 0.004613 0.021454 0.000000 -0.014290 0.000000
# 4 0.000000 0.000000 0.000000 0.128421 0.000000 0.050383
# 5 -0.008719 -0.008913 -0.014290 0.000000 0.038923 0.000000
# 6 0.000000 0.000000 0.000000 0.050383 0.000000 0.181607
#
#
# Mechanical properties :
#
#
# Convention : Reuss Voigt Hill
#
# Bulk Modulus (GPa) = 14.02115 22.78733 18.40424
# Shear Modulus (GPa) = 12.23155 25.44549 18.83852
#
# Velocity S-wave (km/s) = 2.45453 3.54024 3.04614
# Velocity P-wave (km/s) = 3.86511 5.28536 4.63002
#
# Compressibility (1/GPa) = 0.07132082
#
# Stress axis : x y z
#
# Youngs Moduli (GPa) = 67.03282 57.75211 46.61156
#
# Poissons Ratio (x) = -0.17775 -0.05249
# Poissons Ratio (y) = -0.20631 -0.21501
# Poissons Ratio (z) = -0.07549 -0.26640
#
# Static dielectric constant tensor:
#      x y z
#    x 1.805940 0.000000 0.003510 
#    y 0.000000 1.707660 0.000000 
#    z 0.003510 0.000000 1.784000 
# 
# From -- ./inp_files/234720.got.cif
#   From: 2010.05.17/outbox.cif.g08.bks.cpg/sg12_118_cif.got.tgz:234720.got - 2010.06.03 13:09:07.
