data_PCOD9218479
_publ_section_title
;
Structure prediction by ZEFSAII (Michael W. Deem and Ramdas Pophale) SiO2 
 PCOD9218479
Probable space group: C 2/M
;
_chemical_formula_sum "Si O2"
_cell_formula_units_Z 48
_cell_length_a 19.654374
_cell_length_b 20.191149
_cell_length_c 5.004079
_cell_angle_alpha 90.000000
_cell_angle_beta 95.147291
_cell_angle_gamma 90.000000
_cell_volume 1977.832506
_symmetry_space_group_name_H-M "C 2/M"
_symmetry_group_IT_number 12
_symmetry_cell_setting 'monoclinic'
loop_
_space_group_symop_operation_xyz
x,y,z
-x,y,-z
-x,-y,-z
x,-y,z
1/2+x,1/2+y,z
1/2-x,1/2+y,-z
1/2-x,1/2-y,-z
1/2+x,1/2-y,z
loop_
_atom_site_type_symbol
_atom_site_label
_atom_site_fract_x
_atom_site_fract_y
_atom_site_fract_z
Si Si1 0.925236 0.303078 0.599355
Si Si2 0.320985 0.000000 0.722184
Si Si3 0.348396 0.681784 0.798303
Si Si4 0.250000 0.250000 0.000000
Si Si5 0.046633 0.925004 0.278242
Si Si6 0.287661 0.854211 0.558105
Si Si7 0.416533 0.000000 0.262829
Si Si8 0.000000 0.607409 0.000000
O O1 0.898573 0.231013 0.665284
O O2 0.861011 0.341173 0.446831
O O3 0.000000 0.298968 0.500000
O O4 0.940700 0.347194 0.864248
O O5 0.281812 0.068885 0.640339
O O6 0.386220 0.000000 0.546705
O O7 0.352327 0.000000 0.031536
O O8 0.327436 0.713362 0.072190
O O9 0.384882 0.612488 0.779818
O O10 0.269697 0.675120 0.663851
O O11 0.284466 0.194024 0.811497
O O12 0.000000 0.895824 0.500000
O O13 0.063804 0.000000 0.366124
O O14 0.000000 0.925548 0.000000
O O15 0.464774 0.061514 0.208140
#
# Coordination Sequence:
#
# PCOD9218479 Si02
#       8
#     8   4   8   4   8   8   4   4
#     4  11  23  42  70 101 144 192 257 304 382 443
#     4  12  26  47  76 108 146 198 251 297 378 449
#     4  11  26  44  72 105 147 200 250 317 380 456
#     4  10  24  46  70  98 156 188 256 298 384 436
#     4  10  24  48  76 111 148 190 248 316 382 450
#     4  11  26  47  71 109 148 202 248 320 371 462
#     4  11  26  46  70 106 154 189 249 304 372 440
#     4  11  24  38  70 102 145 196 244 312 367 444
#
# _framework density 24.268992000000001
#
# number of rings (size 3 to 8) (size 9 to 14) (size 15 to 20)
#    0.000    1.167    1.667    3.500    7.000    6.000 
#    1.500    0.000    0.000    0.000    0.000    0.000 
#    0.000    0.000    0.000    0.000    0.000    0.000 
#
# Total GULP energy -133776.516172 kJ/mol
# GULP energy per Si atom -5574.021507 kJ/mol
# Density = 2.421375 g / cm^3
# Si number density = 24.268992 Si / 1000 Ang^3
#
#
#
# Elastic Constant Matrix: (Units=GPa)
#
#
# Indices 1 2 3 4 5 6 
#
# 1 160.7114 50.8409 19.0194 0.0000 -17.0771 0.0000
# 2 50.8409 129.1526 -4.3044 0.0000 -3.9926 0.0000
# 3 19.0194 -4.3044 58.8888 0.0000 -12.2499 0.0000
# 4 0.0000 0.0000 0.0000 78.7823 0.0000 140.0521
# 5 -17.0771 -3.9926 -12.2499 0.0000 49.5740 0.0000
# 6 0.0000 0.0000 0.0000 140.0521 0.0000 425.9202
#
#
#
# Elastic Compliance Matrix: (Units=1/GPa)
#
#
# Indices 1 2 3 4 5 6 
#
# 1 0.007648 -0.003032 -0.002313 0.000000 0.001819 0.000000
# 2 -0.003032 0.008994 0.001655 0.000000 0.000089 0.000000
# 3 -0.002313 0.001655 0.018671 0.000000 0.003950 0.000000
# 4 0.000000 0.000000 0.000000 0.030553 0.000000 -0.010047
# 5 0.001819 0.000089 0.003950 0.000000 0.021782 0.000000
# 6 0.000000 0.000000 0.000000 -0.010047 0.000000 0.005651
#
#
# Mechanical properties :
#
#
# Convention : Reuss Voigt Hill
#
# Bulk Modulus (GPa) = 35.79943 53.31828 44.55886
# Shear Modulus (GPa) = 45.45830 129.73509 87.59670
#
# Velocity S-wave (km/s) = 4.33263 7.31937 6.01435
# Velocity P-wave (km/s) = 6.30968 9.66687 8.16273
#
# Compressibility (1/GPa) = 0.02793341
#
# Stress axis : x y z
#
# Youngs Moduli (GPa) = 130.74514 111.18384 53.55898
#
# Poissons Ratio (x) = 0.33708 0.12391
# Poissons Ratio (y) = 0.39638 -0.08864
# Poissons Ratio (z) = 0.30248 -0.18402
#
# Static dielectric constant tensor:
#      x y z
#    x 1.945540 0.000000 0.071390 
#    y 0.000000 1.803280 0.000000 
#    z 0.071390 0.000000 1.541930 
# 
# From -- ./inp_files/21004.got.cif
#   From: 2010.05.17/outbox.cif.g08.bks.cpg/sg12_11_cif.got.tgz:21004.got - 2010.06.03 13:09:07.
