data_PCOD9218748
_publ_section_title
;
Structure prediction by ZEFSAII (Michael W. Deem and Ramdas Pophale) SiO2 
 PCOD9218748
Probable space group: C 2/M
;
_chemical_formula_sum "Si O2"
_cell_formula_units_Z 50
_cell_length_a 7.875514
_cell_length_b 19.851462
_cell_length_c 13.845123
_cell_angle_alpha 90.000000
_cell_angle_beta 97.736231
_cell_angle_gamma 90.000000
_cell_volume 2144.851829
_symmetry_space_group_name_H-M "C 2/M"
_symmetry_group_IT_number 12
_symmetry_cell_setting 'monoclinic'
loop_
_space_group_symop_operation_xyz
x,y,z
-x,y,-z
-x,-y,-z
x,-y,z
1/2+x,1/2+y,z
1/2-x,1/2+y,-z
1/2-x,1/2-y,-z
1/2+x,1/2-y,z
loop_
_atom_site_type_symbol
_atom_site_label
_atom_site_fract_x
_atom_site_fract_y
_atom_site_fract_z
Si Si1 0.190066 0.690062 0.852913
Si Si2 0.137973 0.921593 0.612288
Si Si3 0.689357 0.393262 0.971865
Si Si4 0.451837 0.665470 0.220658
Si Si5 0.500000 0.000000 0.000000
Si Si6 0.826625 0.579625 0.445468
Si Si7 0.988372 0.574475 0.257693
O O1 0.357804 0.670889 0.805142
O O2 0.130020 0.761924 0.809178
O O3 0.043147 0.635966 0.815480
O O4 0.251621 0.675038 0.967157
O O5 0.050479 0.865967 0.673270
O O6 0.172474 0.899866 0.503635
O O7 0.330685 0.924405 0.673666
O O8 0.071939 0.000000 0.614779
O O9 0.652957 0.384566 0.856366
O O10 0.500000 0.412375 0.000000
O O11 0.846405 0.442756 0.996012
O O12 0.833181 0.500000 0.468271
O O13 0.846488 0.581887 0.332290
O O14 0.000000 0.612886 0.500000
O O15 0.971743 0.500000 0.208998
#
# Coordination Sequence:
#
# PCOD9218748 Si02
#       7
#     8   8   8   8   2   8   8
#     4  11  24  41  60  83 119 159 202 250 298 359
#     4   9  18  33  59  88 117 151 196 243 300 363
#     4  10  26  44  63  96 129 158 202 253 299 362
#     4  11  24  41  60  83 119 159 202 250 298 359
#     4  12  26  40  76  94 124 162 204 244 312 354
#     4   7  12  28  52  83 116 149 187 241 296 357
#     4   9  18  33  59  88 117 151 196 243 300 363
#
# _framework density 23.311633
#
# number of rings (size 3 to 8) (size 9 to 14) (size 15 to 20)
#    0.000    2.400    0.000    3.600    6.720    0.640 
#    0.000    1.600    0.000    2.880    0.000    0.000 
#    0.000    0.000    0.000    0.000    0.000    0.000 
#
# Total GULP energy -139262.379681 kJ/mol
# GULP energy per Si atom -5570.495187 kJ/mol
# Density = 2.325857 g / cm^3
# Si number density = 23.311633 Si / 1000 Ang^3
#
#
#
# Elastic Constant Matrix: (Units=GPa)
#
#
# Indices 1 2 3 4 5 6 
#
# 1 112.2469 34.3425 6.9225 0.0000 8.8657 0.0000
# 2 34.3425 87.7203 32.9863 0.0000 3.8990 0.0000
# 3 6.9225 32.9863 80.6611 0.0000 4.3435 0.0000
# 4 0.0000 0.0000 0.0000 -4.4215 0.0000 -12.7365
# 5 8.8657 3.8990 4.3435 0.0000 28.3116 0.0000
# 6 0.0000 0.0000 0.0000 -12.7365 0.0000 15.5480
#
#
#
# Elastic Compliance Matrix: (Units=1/GPa)
#
#
# Indices 1 2 3 4 5 6 
#
# 1 0.010393 -0.004331 0.001031 0.000000 -0.002816 0.000000
# 2 -0.004331 0.015306 -0.005896 0.000000 0.000153 0.000000
# 3 0.001031 -0.005896 0.014816 0.000000 -0.001784 0.000000
# 4 0.000000 0.000000 0.000000 -0.067318 0.000000 -0.055145
# 5 -0.002816 0.000153 -0.001784 0.000000 0.036456 0.000000
# 6 0.000000 0.000000 0.000000 -0.055145 0.000000 0.019144
#
#
# Mechanical properties :
#
#
# Convention : Reuss Voigt Hill
#
# Bulk Modulus (GPa) = 45.20246 47.68122 46.44184
# Shear Modulus (GPa) = 91.63709 21.64608 56.64158
#
# Velocity S-wave (km/s) = 6.27654 3.05052 4.93460
# Velocity P-wave (km/s) = 8.48288 5.73636 7.24103
#
# Compressibility (1/GPa) = 0.02212269
#
# Stress axis : x y z
#
# Youngs Moduli (GPa) = 96.21864 65.33443 67.49357
#
# Poissons Ratio (x) = 0.28299 -0.06959
# Poissons Ratio (y) = 0.41676 0.39793
# Poissons Ratio (z) = -0.09920 0.38520
#
# Static dielectric constant tensor:
#      x y z
#    x 1.993950 0.000000 0.010320 
#    y 0.000000 1.852070 0.000000 
#    z 0.010320 0.000000 1.932150 
# 
# From -- ./inp_files/197138.got.cif
#   From: 2010.05.17/outbox.cif.g08.bks.cpg/sg12_99_cif.got.tgz:197138.got - 2010.06.03 13:09:07.
