data_PCOD9218209
_publ_section_title
;
Structure prediction by ZEFSAII (Michael W. Deem and Ramdas Pophale) SiO2 
 PCOD9218209
Probable space group: C 2/M
;
_chemical_formula_sum "Si O2"
_cell_formula_units_Z 36
_cell_length_a 13.795544
_cell_length_b 27.012893
_cell_length_c 8.653027
_cell_angle_alpha 90.000000
_cell_angle_beta 146.968064
_cell_angle_gamma 90.000000
_cell_volume 1757.758802
_symmetry_space_group_name_H-M "C 2/M"
_symmetry_group_IT_number 12
_symmetry_cell_setting 'monoclinic'
loop_
_space_group_symop_operation_xyz
x,y,z
-x,y,-z
-x,-y,-z
x,-y,z
1/2+x,1/2+y,z
1/2-x,1/2+y,-z
1/2-x,1/2-y,-z
1/2+x,1/2-y,z
loop_
_atom_site_type_symbol
_atom_site_label
_atom_site_fract_x
_atom_site_fract_y
_atom_site_fract_z
Si Si1 0.606190 0.792908 0.300980
Si Si2 0.703097 0.399771 0.091095
Si Si3 0.797281 0.898644 0.547394
Si Si4 0.708182 0.500000 0.594240
Si Si5 0.207524 0.000000 0.959162
Si Si6 0.500000 0.182346 0.500000
O O1 0.750000 0.750000 0.500000
O O2 0.689408 0.847867 0.390667
O O3 0.519699 0.791456 0.358517
O O4 0.500000 0.783758 0.000000
O O5 0.691783 0.410647 0.257188
O O6 0.828143 0.352517 0.244870
O O7 0.501258 0.390855 0.762164
O O8 0.784265 0.448275 0.119780
O O9 0.716627 0.947689 0.362048
O O10 0.709095 0.500000 0.778464
O O11 0.499893 0.500000 0.262366
#
# Coordination Sequence:
#
# PCOD9218209 Si02
#       6
#     8   8   8   4   4   4
#     4  11  27  47  70  97 131 168 221 274 328 389
#     4   9  18  35  61  86 127 170 211 260 313 383
#     4   9  19  38  63  89 127 168 215 258 322 380
#     4   9  17  31  55  91 125 165 208 259 311 386
#     4   9  17  28  52  91 127 164 216 248 314 381
#     4  10  24  43  66  96 130 165 220 268 334 382
#
# _framework density 20.480626000000001
#
# number of rings (size 3 to 8) (size 9 to 14) (size 15 to 20)
#    0.000    2.444    0.000    0.667    9.333    4.000 
#    0.000    1.667    0.000    0.000    0.000    0.000 
#    0.000    0.000    0.000    0.000    0.000    0.000 
#
# Total GULP energy -100330.258171 kJ/mol
# GULP energy per Si atom -5573.903232 kJ/mol
# Density = 2.043401 g / cm^3
# Si number density = 20.480626 Si / 1000 Ang^3
#
#
#
# Elastic Constant Matrix: (Units=GPa)
#
#
# Indices 1 2 3 4 5 6 
#
# 1 111.4447 53.4991 38.2183 0.0000 -17.0876 0.0000
# 2 53.4991 100.3465 42.7733 0.0000 -23.3220 0.0000
# 3 38.2183 42.7733 93.0914 0.0000 -24.8007 0.0000
# 4 0.0000 0.0000 0.0000 39.9307 0.0000 -16.3397
# 5 -17.0876 -23.3220 -24.8007 0.0000 20.0230 0.0000
# 6 0.0000 0.0000 0.0000 -16.3397 0.0000 30.7384
#
#
#
# Elastic Compliance Matrix: (Units=1/GPa)
#
#
# Indices 1 2 3 4 5 6 
#
# 1 0.012574 -0.005346 -0.002248 0.000000 0.001720 0.000000
# 2 -0.005346 0.016540 -0.002221 0.000000 0.011952 0.000000
# 3 -0.002248 -0.002221 0.017142 0.000000 0.016727 0.000000
# 4 0.000000 0.000000 0.000000 0.032005 0.000000 0.017013
# 5 0.001720 0.011952 0.016727 0.000000 0.086050 0.000000
# 6 0.000000 0.000000 0.000000 0.017013 0.000000 0.041576
#
#
# Mechanical properties :
#
#
# Convention : Reuss Voigt Hill
#
# Bulk Modulus (GPa) = 37.55601 63.76265 50.65933
# Shear Modulus (GPa) = 21.33186 29.49788 25.41487
#
# Velocity S-wave (km/s) = 3.23083 3.79922 3.52649
# Velocity P-wave (km/s) = 5.68285 7.10255 6.43199
#
# Compressibility (1/GPa) = 0.02662690
#
# Stress axis : x y z
#
# Youngs Moduli (GPa) = 79.53012 60.45901 58.33793
#
# Poissons Ratio (x) = 0.32321 0.13112
# Poissons Ratio (y) = 0.42516 0.12956
# Poissons Ratio (z) = 0.17876 0.13427
#
# Static dielectric constant tensor:
#      x y z
#    x 1.751890 0.000000 0.044330 
#    y 0.000000 1.713390 0.000000 
#    z 0.044330 0.000000 1.759150 
# 
# From -- ./inp_files/67268.got.cif
#   From: 2010.05.17/outbox.cif.g08.bks.cpg/sg12_34_cif.got.tgz:67268.got - 2010.06.03 13:09:07.
