data_PCOD9218092
_publ_section_title
;
Structure prediction by ZEFSAII (Michael W. Deem and Ramdas Pophale) SiO2 
 PCOD9218092
Probable space group: C 2/M
;
_chemical_formula_sum "Si O2"
_cell_formula_units_Z 50
_cell_length_a 14.882348
_cell_length_b 25.294644
_cell_length_c 6.220764
_cell_angle_alpha 90.000000
_cell_angle_beta 74.967137
_cell_angle_gamma 90.000000
_cell_volume 2261.625587
_symmetry_space_group_name_H-M "C 2/M"
_symmetry_group_IT_number 12
_symmetry_cell_setting 'monoclinic'
loop_
_space_group_symop_operation_xyz
x,y,z
-x,y,-z
-x,-y,-z
x,-y,z
1/2+x,1/2+y,z
1/2-x,1/2+y,-z
1/2-x,1/2-y,-z
1/2+x,1/2-y,z
loop_
_atom_site_type_symbol
_atom_site_label
_atom_site_fract_x
_atom_site_fract_y
_atom_site_fract_z
Si Si1 0.402051 0.302581 0.655178
Si Si2 0.279465 0.842217 0.393798
Si Si3 0.000000 0.000000 0.500000
Si Si4 0.903509 0.280435 0.986309
Si Si5 0.409217 0.880209 0.690318
Si Si6 0.277639 0.060282 0.062463
Si Si7 0.578660 0.414200 0.129028
O O1 0.500000 0.283021 0.500000
O O2 0.325148 0.319755 0.528021
O O3 0.359535 0.259179 0.841379
O O4 0.422637 0.354984 0.780697
O O5 0.331351 0.856263 0.579591
O O6 0.276585 0.895994 0.252247
O O7 0.339452 0.799748 0.220381
O O8 0.942538 0.045975 0.665454
O O9 0.933090 0.333245 0.839727
O O10 0.000000 0.254274 0.000000
O O11 0.500000 0.895101 0.500000
O O12 0.364130 0.926866 0.855702
O O13 0.182617 0.071496 0.988900
O O14 0.279462 0.000000 0.137365
O O15 0.500000 0.422208 0.000000
#
# Coordination Sequence:
#
# PCOD9218092 Si02
#       7
#     8   8   2   8   8   8   8
#     4  11  24  41  64 102 134 171 218 266 324 391
#     4  10  24  44  66  91 134 175 212 273 326 394
#     4  12  22  40  64  90 130 186 224 252 316 386
#     4  11  22  43  68  93 131 172 218 272 322 390
#     4  11  23  43  70  95 124 175 225 267 335 390
#     4  10  24  42  63  99 131 167 221 276 330 382
#     4  11  24  43  65  96 138 179 216 266 323 388
#
# _framework density 22.107991999999999
#
# number of rings (size 3 to 8) (size 9 to 14) (size 15 to 20)
#    0.000    1.280    3.200    1.680    2.240    1.600 
#    2.880    0.800    0.000    0.000    0.000    0.000 
#    0.000    0.000    0.000    0.000    0.000    0.000 
#
# Total GULP energy -139579.893634 kJ/mol
# GULP energy per Si atom -5583.195745 kJ/mol
# Density = 2.205767 g / cm^3
# Si number density = 22.107992 Si / 1000 Ang^3
#
#
#
# Elastic Constant Matrix: (Units=GPa)
#
#
# Indices 1 2 3 4 5 6 
#
# 1 93.5233 -5.6648 10.8234 0.0000 3.9543 0.0000
# 2 -5.6648 93.9812 6.0742 0.0000 -2.9948 0.0000
# 3 10.8234 6.0742 39.7982 0.0000 -12.5350 0.0000
# 4 0.0000 0.0000 0.0000 16.0348 0.0000 -15.8502
# 5 3.9543 -2.9948 -12.5350 0.0000 33.0269 0.0000
# 6 0.0000 0.0000 0.0000 -15.8502 0.0000 20.0590
#
#
#
# Elastic Compliance Matrix: (Units=1/GPa)
#
#
# Indices 1 2 3 4 5 6 
#
# 1 0.011340 0.000859 -0.004109 0.000000 -0.002840 0.000000
# 2 0.000859 0.010816 -0.001826 0.000000 0.000185 0.000000
# 3 -0.004109 -0.001826 0.030241 0.000000 0.011804 0.000000
# 4 0.000000 0.000000 0.000000 0.284880 0.000000 0.225107
# 5 -0.002840 0.000185 0.011804 0.000000 0.035115 0.000000
# 6 0.000000 0.000000 0.000000 0.225107 0.000000 0.227729
#
#
# Mechanical properties :
#
#
# Convention : Reuss Voigt Hill
#
# Bulk Modulus (GPa) = 23.67233 27.75204 25.71219
# Shear Modulus (GPa) = 8.00825 28.22880 18.11852
#
# Velocity S-wave (km/s) = 1.90531 3.57719 2.86588
# Velocity P-wave (km/s) = 3.94602 5.44444 4.75463
#
# Compressibility (1/GPa) = 0.04224340
#
# Stress axis : x y z
#
# Youngs Moduli (GPa) = 88.18209 92.45481 33.06778
#
# Poissons Ratio (x) = -0.07939 0.13589
# Poissons Ratio (y) = -0.07572 0.06038
# Poissons Ratio (z) = 0.36238 0.16883
#
# Static dielectric constant tensor:
#      x y z
#    x 1.857700 0.000000 -0.006290 
#    y 0.000000 1.759310 0.000000 
#    z -0.006290 0.000000 1.804960 
# 
# From -- ./inp_files/13096.got.cif
#   From: 2010.05.17/outbox.cif.g08.bks.cpg/sg12_7_cif.got.tgz:13096.got - 2010.06.03 13:09:07.
