data_PCOD9218966
_publ_section_title
;
Structure prediction by ZEFSAII (Michael W. Deem and Ramdas Pophale) SiO2 
 PCOD9218966
Probable space group: C 2/M
;
_chemical_formula_sum "Si O2"
_cell_formula_units_Z 64
_cell_length_a 16.666228
_cell_length_b 30.330705
_cell_length_c 9.518788
_cell_angle_alpha 90.000000
_cell_angle_beta 54.501396
_cell_angle_gamma 90.000000
_cell_volume 3917.374203
_symmetry_space_group_name_H-M "C 2/M"
_symmetry_group_IT_number 12
_symmetry_cell_setting 'monoclinic'
loop_
_space_group_symop_operation_xyz
x,y,z
-x,y,-z
-x,-y,-z
x,-y,z
1/2+x,1/2+y,z
1/2-x,1/2+y,-z
1/2-x,1/2-y,-z
1/2+x,1/2-y,z
loop_
_atom_site_type_symbol
_atom_site_label
_atom_site_fract_x
_atom_site_fract_y
_atom_site_fract_z
Si Si1 0.340051 0.049473 0.709622
Si Si2 0.605408 0.860138 0.701586
Si Si3 0.083476 0.315947 0.248763
Si Si4 0.974975 0.549873 0.289557
Si Si5 0.411413 0.286937 0.687457
Si Si6 0.604217 0.701519 0.968578
Si Si7 0.688559 0.199652 0.861968
Si Si8 0.775322 0.637275 0.692463
O O1 0.407785 0.050689 0.499619
O O2 0.414462 0.057470 0.764194
O O3 0.262334 0.088065 0.765183
O O4 0.300367 0.000000 0.763056
O O5 0.516805 0.833301 0.717260
O O6 0.563843 0.909723 0.763925
O O7 0.638591 0.833689 0.804434
O O8 0.696537 0.862396 0.499862
O O9 0.075935 0.265830 0.307815
O O10 0.125598 0.345534 0.330265
O O11 0.164868 0.316261 0.043165
O O12 0.968593 0.500000 0.238028
O O13 0.500000 0.303590 0.500000
O O14 0.305523 0.296148 0.725862
O O15 0.408702 0.304061 0.850497
O O16 0.641013 0.751587 0.901714
O O17 0.686610 0.669031 0.823297
O O18 0.500000 0.695028 0.000000
#
# Coordination Sequence:
#
# PCOD9218966 Si02
#       8
#     8   8   8   8   8   8   8   8
#     4   8  14  26  47  75 104 134 166 209 258 303
#     4  11  21  29  54  80 103 138 177 204 252 313
#     4  11  19  36  49  72 102 139 172 208 252 295
#     4   8  14  26  45  74 108 134 166 208 250 301
#     4  11  22  37  55  71  99 140 178 212 252 304
#     4  11  23  38  52  73 105 135 172 222 261 288
#     4  11  22  37  49  72 106 142 170 211 255 304
#     4  11  19  32  53  77 104 132 175 216 251 306
#
# _framework density 16.337475000000001
#
# number of rings (size 3 to 8) (size 9 to 14) (size 15 to 20)
#    0.000    1.750    3.750    4.500    1.750    0.500 
#    0.000    0.000    0.000    2.625    0.000    0.000 
#    0.000    1.000    0.000    0.000    0.000    0.000 
#
# Total GULP energy -178511.372437 kJ/mol
# GULP energy per Si atom -5578.480389 kJ/mol
# Density = 1.630029 g / cm^3
# Si number density = 16.337475 Si / 1000 Ang^3
#
#
#
# Elastic Constant Matrix: (Units=GPa)
#
#
# Indices 1 2 3 4 5 6 
#
# 1 72.2909 19.1135 15.9636 0.0000 -6.1952 0.0000
# 2 19.1135 85.6167 20.3168 0.0000 1.9570 0.0000
# 3 15.9636 20.3168 65.8246 0.0000 -6.2937 0.0000
# 4 0.0000 0.0000 0.0000 -18.5222 0.0000 -7.5875
# 5 -6.1952 1.9570 -6.2937 0.0000 17.7953 0.0000
# 6 0.0000 0.0000 0.0000 -7.5875 0.0000 18.6342
#
#
#
# Elastic Compliance Matrix: (Units=1/GPa)
#
#
# Indices 1 2 3 4 5 6 
#
# 1 0.015579 -0.003027 -0.002374 0.000000 0.004917 0.000000
# 2 -0.003027 0.013333 -0.003749 0.000000 -0.003846 0.000000
# 3 -0.002374 -0.003749 0.017476 0.000000 0.005767 0.000000
# 4 0.000000 0.000000 0.000000 -0.046271 0.000000 -0.018841
# 5 0.004917 -0.003846 0.005767 0.000000 0.060369 0.000000
# 6 0.000000 0.000000 0.000000 -0.018841 0.000000 0.045993
#
#
# Mechanical properties :
#
#
# Convention : Reuss Voigt Hill
#
# Bulk Modulus (GPa) = 35.60136 37.16889 36.38512
# Shear Modulus (GPa) = 37.27414 14.80402 26.03908
#
# Velocity S-wave (km/s) = 4.78170 3.01348 3.99661
# Velocity P-wave (km/s) = 7.23358 5.90831 6.60427
#
# Compressibility (1/GPa) = 0.02808881
#
# Stress axis : x y z
#
# Youngs Moduli (GPa) = 64.18949 75.00038 57.22116
#
# Poissons Ratio (x) = 0.22703 0.13583
# Poissons Ratio (y) = 0.19430 0.21452
# Poissons Ratio (z) = 0.15237 0.28117
#
# Static dielectric constant tensor:
#      x y z
#    x 1.528710 0.000000 0.007210 
#    y 0.000000 1.572140 0.000000 
#    z 0.007210 0.000000 1.561360 
# 
# From -- ./inp_files/68228.got.cif
#   From: 2010.05.17/outbox.cif.g08.bks.cpg/sg12_35_cif.got.tgz:68228.got - 2010.06.03 13:09:07.
