data_PCOD9218454
_publ_section_title
;
Structure prediction by ZEFSAII (Michael W. Deem and Ramdas Pophale) SiO2 
 PCOD9218454
Probable space group: C 2/M
;
_chemical_formula_sum "Si O2"
_cell_formula_units_Z 56
_cell_length_a 15.810888
_cell_length_b 19.528882
_cell_length_c 19.740651
_cell_angle_alpha 90.000000
_cell_angle_beta 27.148333
_cell_angle_gamma 90.000000
_cell_volume 2781.259374
_symmetry_space_group_name_H-M "C 2/M"
_symmetry_group_IT_number 12
_symmetry_cell_setting 'monoclinic'
loop_
_space_group_symop_operation_xyz
x,y,z
-x,y,-z
-x,-y,-z
x,-y,z
1/2+x,1/2+y,z
1/2-x,1/2+y,-z
1/2-x,1/2-y,-z
1/2+x,1/2-y,z
loop_
_atom_site_type_symbol
_atom_site_label
_atom_site_fract_x
_atom_site_fract_y
_atom_site_fract_z
Si Si1 0.208364 0.652304 0.359616
Si Si2 0.406489 0.417028 0.878299
Si Si3 0.790033 0.761450 0.173512
Si Si4 0.172022 0.695896 0.110329
Si Si5 0.756463 0.281428 0.421382
Si Si6 0.684114 0.924608 0.902948
Si Si7 0.935497 0.870681 0.620880
O O1 0.379474 0.608599 0.269014
O O2 0.272847 0.677434 0.239543
O O3 0.188460 0.720932 0.419769
O O4 0.000000 0.621956 0.500000
O O5 0.400997 0.500000 0.888518
O O6 0.298970 0.395518 0.884916
O O7 0.287308 0.374066 0.018228
O O8 0.688055 0.777043 0.175613
O O9 0.699947 0.695588 0.274521
O O10 0.000000 0.752787 0.000000
O O11 0.953279 0.692575 0.254137
O O12 0.250000 0.750000 0.000000
O O13 0.750000 0.250000 0.500000
O O14 0.622626 0.345672 0.521524
O O15 0.830342 0.926838 0.738155
O O16 0.624433 0.000000 0.968627
O O17 0.500000 0.893117 0.000000
O O18 0.000000 0.887695 0.500000
#
# Coordination Sequence:
#
# PCOD9218454 Si02
#       7
#     8   8   8   8   8   8   8
#     4  12  22  42  65  97 137 174 220 274 337 401
#     4  11  25  45  69  98 135 179 231 280 332 405
#     4  12  21  37  59  93 132 172 215 275 332 398
#     4  12  23  38  66  94 126 175 229 278 335 387
#     4  12  21  37  60  96 131 167 212 275 336 386
#     4  10  24  46  68  91 128 180 229 274 337 412
#     4  12  23  36  59  98 130 159 213 273 336 396
#
# _framework density 20.134764000000001
#
# number of rings (size 3 to 8) (size 9 to 14) (size 15 to 20)
#    0.000    0.429    7.143    2.143    2.000    0.571 
#    0.000    2.143    0.000    2.571    0.000    0.000 
#    0.000    0.000    0.000    0.000    0.000    0.000 
#
# Total GULP energy -156140.900751 kJ/mol
# GULP energy per Si atom -5576.460741 kJ/mol
# Density = 2.008894 g / cm^3
# Si number density = 20.134764 Si / 1000 Ang^3
#
#
#
# Elastic Constant Matrix: (Units=GPa)
#
#
# Indices 1 2 3 4 5 6 
#
# 1 95.8321 17.4209 15.9652 0.0162 -4.3378 -0.0111
# 2 17.4209 76.3672 21.6388 0.0130 -7.7102 -0.0117
# 3 15.9652 21.6388 122.2224 0.0232 -25.9164 -0.0288
# 4 0.0162 0.0130 0.0232 17.6256 -0.0086 0.2543
# 5 -4.3378 -7.7102 -25.9164 -0.0086 57.0539 0.0140
# 6 -0.0111 -0.0117 -0.0288 0.2543 0.0140 11.9357
#
#
#
# Elastic Compliance Matrix: (Units=1/GPa)
#
#
# Indices 1 2 3 4 5 6 
#
# 1 0.011012 -0.002213 -0.001032 -0.000007 0.000069 0.000006
# 2 -0.002213 0.014267 -0.002062 -0.000005 0.000823 0.000006
# 3 -0.001032 -0.002062 0.009523 -0.000008 0.003969 0.000016
# 4 -0.000007 -0.000005 -0.000008 0.056753 0.000004 -0.001209
# 5 0.000069 0.000823 0.003969 0.000004 0.019447 -0.000012
# 6 0.000006 0.000006 0.000016 -0.001209 -0.000012 0.083808
#
#
# Mechanical properties :
#
#
# Convention : Reuss Voigt Hill
#
# Bulk Modulus (GPa) = 41.34223 44.94128 43.14176
# Shear Modulus (GPa) = 23.42062 33.28281 28.35171
#
# Velocity S-wave (km/s) = 3.41426 4.07012 3.75653
# Velocity P-wave (km/s) = 6.01001 6.66758 6.34732
#
# Compressibility (1/GPa) = 0.02418834
#
# Stress axis : x y z
#
# Youngs Moduli (GPa) = 90.80821 70.09257 105.00591
#
# Poissons Ratio (x) = 0.15509 0.10836
# Poissons Ratio (y) = 0.20093 0.21656
# Poissons Ratio (z) = 0.09371 0.14455
#
# Static dielectric constant tensor:
#      x y z
#    x 2.268990 0.000000 -0.588940 
#    y 0.000000 1.725700 0.000000 
#    z -0.588940 0.000000 2.280440 
# 
# From -- ./inp_files/272337.got.cif
#   From: 2010.05.17/outbox.cif.g08.bks.cpg/sg12_137_cif.got.tgz:272337.got - 2010.06.03 13:09:07.
