data_PCOD9218298
_publ_section_title
;
Structure prediction by ZEFSAII (Michael W. Deem and Ramdas Pophale) SiO2 
 PCOD9218298
Probable space group: C 2/M
;
_chemical_formula_sum "Si O2"
_cell_formula_units_Z 44
_cell_length_a 8.981885
_cell_length_b 19.917874
_cell_length_c 15.340986
_cell_angle_alpha 90.000000
_cell_angle_beta 57.739210
_cell_angle_gamma 90.000000
_cell_volume 2320.826891
_symmetry_space_group_name_H-M "C 2/M"
_symmetry_group_IT_number 12
_symmetry_cell_setting 'monoclinic'
loop_
_space_group_symop_operation_xyz
x,y,z
-x,y,-z
-x,-y,-z
x,-y,z
1/2+x,1/2+y,z
1/2-x,1/2+y,-z
1/2-x,1/2-y,-z
1/2+x,1/2-y,z
loop_
_atom_site_type_symbol
_atom_site_label
_atom_site_fract_x
_atom_site_fract_y
_atom_site_fract_z
Si Si1 0.594298 0.075165 0.567055
Si Si2 0.524213 0.190503 0.262592
Si Si3 0.000000 0.897352 0.500000
Si Si4 0.170175 0.170156 0.278872
Si Si5 0.194278 0.818069 0.968354
Si Si6 0.710294 0.079462 0.918576
O O1 0.500000 0.083115 0.500000
O O2 0.520992 0.136089 0.648938
O O3 0.810621 0.074745 0.516022
O O4 0.538941 0.000000 0.613745
O O5 0.359585 0.195149 0.250113
O O6 0.562446 0.265274 0.282865
O O7 0.686773 0.168388 0.152756
O O8 0.075943 0.859738 0.392669
O O9 0.212111 0.115145 0.191858
O O10 0.250000 0.750000 0.000000
O O11 0.202617 0.881403 0.029084
O O12 0.000000 0.804957 0.000000
O O13 0.742180 0.000000 0.906027
O O14 0.500000 0.089811 0.000000
#
# Coordination Sequence:
#
# PCOD9218298 Si02
#       6
#     8   8   4   8   8   8
#     4  10  24  44  66  94 132 174 215 270 331 388
#     4  11  24  39  66  95 128 168 216 268 326 381
#     4  10  25  42  68  96 131 172 226 268 325 394
#     4  11  24  41  66  99 126 171 214 273 323 388
#     4  12  23  40  66  95 132 168 217 267 323 388
#     4  11  24  43  65  93 128 169 214 265 328 387
#
# _framework density 18.958760000000002
#
# number of rings (size 3 to 8) (size 9 to 14) (size 15 to 20)
#    0.000    1.091    3.636    1.909    3.818    6.182 
#    0.000    1.818    0.000    0.000    0.000    0.000 
#    0.000    0.000    0.000    0.000    0.000    0.000 
#
# Total GULP energy -122535.165795 kJ/mol
# GULP energy per Si atom -5569.780263 kJ/mol
# Density = 1.891561 g / cm^3
# Si number density = 18.958760 Si / 1000 Ang^3
#
#
#
# Elastic Constant Matrix: (Units=GPa)
#
#
# Indices 1 2 3 4 5 6 
#
# 1 132.5976 59.7092 34.2153 0.0000 -5.0614 0.0000
# 2 59.7092 150.1474 63.6990 0.0000 5.7951 0.0000
# 3 34.2153 63.6990 117.8627 0.0000 -6.4121 0.0000
# 4 0.0000 0.0000 0.0000 27.8982 0.0000 17.9665
# 5 -5.0614 5.7951 -6.4121 0.0000 28.3840 0.0000
# 6 0.0000 0.0000 0.0000 17.9665 0.0000 44.3490
#
#
#
# Elastic Compliance Matrix: (Units=1/GPa)
#
#
# Indices 1 2 3 4 5 6 
#
# 1 0.009395 -0.003525 -0.000700 0.000000 0.002237 0.000000
# 2 -0.003525 0.010199 -0.004694 0.000000 -0.003771 0.000000
# 3 -0.000700 -0.004694 0.011410 0.000000 0.003411 0.000000
# 4 0.000000 0.000000 0.000000 0.048497 0.000000 -0.019647
# 5 0.002237 -0.003771 0.003411 0.000000 0.037171 0.000000
# 6 0.000000 0.000000 0.000000 -0.019647 0.000000 0.030508
#
#
# Mechanical properties :
#
#
# Convention : Reuss Voigt Hill
#
# Bulk Modulus (GPa) = 75.95848 79.53940 77.74894
# Shear Modulus (GPa) = 29.51464 36.32520 32.91992
#
# Velocity S-wave (km/s) = 3.94989 4.38198 4.17153
# Velocity P-wave (km/s) = 7.80732 8.22480 8.01877
#
# Compressibility (1/GPa) = 0.01316509
#
# Stress axis : x y z
#
# Youngs Moduli (GPa) = 106.43694 98.04958 87.64158
#
# Poissons Ratio (x) = 0.34566 0.06139
# Poissons Ratio (y) = 0.37523 0.41137
# Poissons Ratio (z) = 0.07455 0.46022
#
# Static dielectric constant tensor:
#      x y z
#    x 1.762100 0.000000 -0.079350 
#    y 0.000000 1.464950 0.000000 
#    z -0.079350 0.000000 1.725420 
# 
# From -- ./inp_files/120825.got.cif
#   From: 2010.05.17/outbox.cif.g08.bks.cpg/sg12_61_cif.got.tgz:120825.got - 2010.06.03 13:09:07.
