data_PCOD9218469
_publ_section_title
;
Structure prediction by ZEFSAII (Michael W. Deem and Ramdas Pophale) SiO2 
 PCOD9218469
Probable space group: C 2/M
;
_chemical_formula_sum "Si O2"
_cell_formula_units_Z 28
_cell_length_a 20.097582
_cell_length_b 13.526615
_cell_length_c 18.444559
_cell_angle_alpha 90.000000
_cell_angle_beta 15.752300
_cell_angle_gamma 90.000000
_cell_volume 1361.249055
_symmetry_space_group_name_H-M "C 2/M"
_symmetry_group_IT_number 12
_symmetry_cell_setting 'monoclinic'
loop_
_space_group_symop_operation_xyz
x,y,z
-x,y,-z
-x,-y,-z
x,-y,z
1/2+x,1/2+y,z
1/2-x,1/2+y,-z
1/2-x,1/2-y,-z
1/2+x,1/2-y,z
loop_
_atom_site_type_symbol
_atom_site_label
_atom_site_fract_x
_atom_site_fract_y
_atom_site_fract_z
Si Si1 0.415698 0.199715 0.387290
Si Si2 0.220067 0.500000 0.825212
Si Si3 0.788481 0.892751 0.890240
Si Si4 0.732799 0.880985 0.304858
O O1 0.250000 0.250000 0.500000
O O2 0.590058 0.124574 0.160932
O O3 0.295148 0.147009 0.581747
O O4 0.557976 0.293867 0.269927
O O5 0.500000 0.500000 0.500000
O O6 0.187349 0.408577 0.915304
O O7 0.000000 0.500000 0.000000
O O8 0.916531 0.000000 0.769620
O O9 0.500000 0.846102 0.500000
O O10 0.733956 0.000000 0.297155
O O11 0.000000 0.843783 0.000000
#
# Coordination Sequence:
#
# PCOD9218469 Si02
#       4
#     8   4   8   8
#     4  11  24  43  69 102 134 180 236 287 339 422
#     4  10  24  46  70 100 140 185 226 277 350 422
#     4   9  24  43  65 101 133 186 225 279 351 405
#     4  10  24  46  71 101 136 179 224 288 347 400
#
# _framework density 20.569343
#
# number of rings (size 3 to 8) (size 9 to 14) (size 15 to 20)
#    0.857    1.143    0.000    0.857   12.000    3.429 
#    0.000    0.000    0.000    0.000    0.000    0.000 
#    0.000    0.000    0.000    0.000    0.000    0.000 
#
# Total GULP energy -77987.736430 kJ/mol
# GULP energy per Si atom -5570.552602 kJ/mol
# Density = 2.052253 g / cm^3
# Si number density = 20.569343 Si / 1000 Ang^3
#
#
#
# Elastic Constant Matrix: (Units=GPa)
#
#
# Indices 1 2 3 4 5 6 
#
# 1 150.5908 23.3018 64.7879 -0.1961 -13.5687 -0.0834
# 2 23.3018 53.0809 17.9718 -0.2328 -3.9477 -0.0960
# 3 64.7879 17.9718 108.1279 -0.5730 2.4600 -0.2695
# 4 -0.1961 -0.2328 -0.5730 397.7812 0.1105 191.9027
# 5 -13.5687 -3.9477 2.4600 0.1105 35.7965 0.0579
# 6 -0.0834 -0.0960 -0.2695 191.9027 0.0579 141.7624
#
#
#
# Elastic Compliance Matrix: (Units=1/GPa)
#
#
# Indices 1 2 3 4 5 6 
#
# 1 0.009697 -0.002093 -0.005549 -0.000005 0.003826 -0.000001
# 2 -0.002093 0.020628 -0.002211 0.000010 0.001633 -0.000006
# 3 -0.005549 -0.002211 0.013015 0.000015 -0.003242 0.000000
# 4 -0.000005 0.000010 0.000015 0.007246 -0.000008 -0.009809
# 5 0.003826 0.001633 -0.003242 -0.000008 0.029789 -0.000004
# 6 -0.000001 -0.000006 0.000000 -0.009809 -0.000004 0.020333
#
#
# Mechanical properties :
#
#
# Convention : Reuss Voigt Hill
#
# Bulk Modulus (GPa) = 42.31601 58.21362 50.26481
# Shear Modulus (GPa) = 38.97356 128.78389 83.87873
#
# Velocity S-wave (km/s) = 4.35758 7.92121 6.39273
# Velocity P-wave (km/s) = 6.77754 10.58411 8.88702
#
# Compressibility (1/GPa) = 0.02363172
#
# Stress axis : x y z
#
# Youngs Moduli (GPa) = 103.12991 48.47695 76.83677
#
# Poissons Ratio (x) = 0.10148 0.42637
# Poissons Ratio (y) = 0.21589 0.16992
# Poissons Ratio (z) = 0.57228 0.10720
#
# Static dielectric constant tensor:
#      x y z
#    x 1.710510 0.000200 -0.009070 
#    y 0.000200 1.771900 -0.000040 
#    z -0.009070 -0.000040 1.770810 
# 
# From -- ./inp_files/277724.got.cif
#   From: 2010.05.17/outbox.cif.g08.bks.cpg/sg12_139_cif.got.tgz:277724.got - 2010.06.03 13:09:07.
