data_PCOD9218058
_publ_section_title
;
Structure prediction by ZEFSAII (Michael W. Deem and Ramdas Pophale) SiO2 
 PCOD9218058
Probable space group: C 2/M
;
_chemical_formula_sum "Si O2"
_cell_formula_units_Z 56
_cell_length_a 14.248050
_cell_length_b 31.976219
_cell_length_c 10.663373
_cell_angle_alpha 90.000000
_cell_angle_beta 29.647148
_cell_angle_gamma 90.000000
_cell_volume 2403.153281
_symmetry_space_group_name_H-M "C 2/M"
_symmetry_group_IT_number 12
_symmetry_cell_setting 'monoclinic'
loop_
_space_group_symop_operation_xyz
x,y,z
-x,y,-z
-x,-y,-z
x,-y,z
1/2+x,1/2+y,z
1/2-x,1/2+y,-z
1/2-x,1/2-y,-z
1/2+x,1/2-y,z
loop_
_atom_site_type_symbol
_atom_site_label
_atom_site_fract_x
_atom_site_fract_y
_atom_site_fract_z
Si Si1 0.913366 0.589915 0.276664
Si Si2 0.729440 0.548528 0.733646
Si Si3 0.701001 0.224034 0.896742
Si Si4 0.610816 0.690748 0.078523
Si Si5 0.193686 0.314519 0.632265
Si Si6 0.098485 0.046999 0.521295
Si Si7 0.273131 0.597239 0.017360
O O1 0.811213 0.574457 0.522878
O O2 0.863039 0.637145 0.300071
O O3 0.816518 0.560680 0.283653
O O4 0.132808 0.590884 0.062803
O O5 0.785078 0.500000 0.658943
O O6 0.792445 0.568716 0.791394
O O7 0.500000 0.550750 0.000000
O O8 0.846160 0.208076 0.831726
O O9 0.728688 0.201356 0.733119
O O10 0.700229 0.274067 0.885556
O O11 0.491847 0.211453 0.192643
O O12 0.383646 0.689223 0.330206
O O13 0.703687 0.645027 0.965409
O O14 0.000000 0.046494 0.500000
O O15 0.076796 0.000000 0.599367
O O16 0.977449 0.080589 0.738214
#
# Coordination Sequence:
#
# PCOD9218058 Si02
#       7
#     8   8   8   8   8   8   8
#     4  12  25  43  73 103 138 185 239 287 347 424
#     4  11  23  45  73 102 139 184 232 292 359 420
#     4  10  24  41  67 101 134 179 233 287 346 418
#     4  11  22  44  66  99 138 179 231 285 348 413
#     4  11  22  43  69  98 134 183 228 284 352 409
#     4  11  26  45  69 105 143 185 234 289 355 423
#     4  12  25  44  72 105 141 187 235 292 353 426
#
# _framework density 23.302717000000001
#
# number of rings (size 3 to 8) (size 9 to 14) (size 15 to 20)
#    0.000    0.857    4.286    2.143    2.000    3.429 
#   10.286    2.857    0.000    0.000    0.000    0.000 
#    0.000    0.000    0.000    0.000    0.000    0.000 
#
# Total GULP energy -156676.736732 kJ/mol
# GULP energy per Si atom -5595.597740 kJ/mol
# Density = 2.324968 g / cm^3
# Si number density = 23.302717 Si / 1000 Ang^3
#
#
#
# Elastic Constant Matrix: (Units=GPa)
#
#
# Indices 1 2 3 4 5 6 
#
# 1 110.8232 46.8348 24.1599 0.0000 -13.3682 0.0000
# 2 46.8348 161.8759 13.6998 0.0000 1.0907 0.0000
# 3 24.1599 13.6998 66.5099 0.0000 -20.4402 0.0000
# 4 0.0000 0.0000 0.0000 33.1614 0.0000 -11.5273
# 5 -13.3682 1.0907 -20.4402 0.0000 40.0562 0.0000
# 6 0.0000 0.0000 0.0000 -11.5273 0.0000 53.9863
#
#
#
# Elastic Compliance Matrix: (Units=1/GPa)
#
#
# Indices 1 2 3 4 5 6 
#
# 1 0.011182 -0.003024 -0.002688 0.000000 0.002442 0.000000
# 2 -0.003024 0.007138 -0.000880 0.000000 -0.001653 0.000000
# 3 -0.002688 -0.000880 0.018887 0.000000 0.008764 0.000000
# 4 0.000000 0.000000 0.000000 0.032573 0.000000 0.006955
# 5 0.002442 -0.001653 0.008764 0.000000 0.030297 0.000000
# 6 0.000000 0.000000 0.000000 0.006955 0.000000 0.020008
#
#
# Mechanical properties :
#
#
# Convention : Reuss Voigt Hill
#
# Bulk Modulus (GPa) = 41.62779 56.51088 49.06934
# Shear Modulus (GPa) = 35.39127 42.40841 38.89984
#
# Velocity S-wave (km/s) = 3.90136 4.27065 4.09017
# Velocity P-wave (km/s) = 6.18036 6.97290 6.58856
#
# Compressibility (1/GPa) = 0.02402241
#
# Stress axis : x y z
#
# Youngs Moduli (GPa) = 89.42840 140.09272 52.94749
#
# Poissons Ratio (x) = 0.42367 0.14234
# Poissons Ratio (y) = 0.27045 0.04657
# Poissons Ratio (z) = 0.24042 0.12323
#
# Static dielectric constant tensor:
#      x y z
#    x 1.879590 0.000000 -0.014680 
#    y 0.000000 1.831990 0.000000 
#    z -0.014680 0.000000 1.901180 
# 
# From -- ./inp_files/150441.got.cif
#   From: 2010.05.17/outbox.cif.g08.bks.cpg/sg12_76_cif.got.tgz:150441.got - 2010.06.03 13:09:07.
