data_PCOD9218462
_publ_section_title
;
Structure prediction by ZEFSAII (Michael W. Deem and Ramdas Pophale) SiO2 
 PCOD9218462
Probable space group: C 2/M
;
_chemical_formula_sum "Si O2"
_cell_formula_units_Z 36
_cell_length_a 9.150004
_cell_length_b 20.945287
_cell_length_c 15.114137
_cell_angle_alpha 90.000000
_cell_angle_beta 144.052066
_cell_angle_gamma 90.000000
_cell_volume 1700.458064
_symmetry_space_group_name_H-M "C 2/M"
_symmetry_group_IT_number 12
_symmetry_cell_setting 'monoclinic'
loop_
_space_group_symop_operation_xyz
x,y,z
-x,y,-z
-x,-y,-z
x,-y,z
1/2+x,1/2+y,z
1/2-x,1/2+y,-z
1/2-x,1/2-y,-z
1/2+x,1/2-y,z
loop_
_atom_site_type_symbol
_atom_site_label
_atom_site_fract_x
_atom_site_fract_y
_atom_site_fract_z
Si Si1 0.769812 0.604155 0.828663
Si Si2 0.296192 0.845361 0.652406
Si Si3 0.056077 0.218042 0.837604
Si Si4 0.873388 0.626134 0.348183
Si Si5 0.623903 0.500000 0.303851
O O1 0.852902 0.615372 0.769319
O O2 0.689581 0.672280 0.831658
O O3 0.541945 0.556036 0.727521
O O4 0.000000 0.579997 0.000000
O O5 0.408491 0.774936 0.718640
O O6 0.425152 0.875394 0.630290
O O7 0.000000 0.842586 0.500000
O O8 0.857130 0.172107 0.788780
O O9 0.250000 0.250000 0.000000
O O10 0.775426 0.556204 0.324023
O O11 0.000000 0.652183 0.500000
#
# Coordination Sequence:
#
# PCOD9218462 Si02
#       5
#     8   8   8   8   4
#     4  11  23  44  69 100 135 178 222 277 338 400
#     4  12  25  41  69 103 136 176 227 277 338 404
#     4  11  23  43  69 100 140 177 218 275 344 406
#     4  11  25  45  68  98 138 181 225 279 338 398
#     4  10  24  46  69  92 136 180 228 281 332 396
#
# _framework density 21.170766
#
# number of rings (size 3 to 8) (size 9 to 14) (size 15 to 20)
#    0.000    0.889    2.222    5.333    0.000    3.556 
#    0.000    3.333    0.000    0.000    0.000    0.000 
#    0.000    0.000    0.000    0.000    0.000    0.000 
#
# Total GULP energy -100245.693572 kJ/mol
# GULP energy per Si atom -5569.205198 kJ/mol
# Density = 2.112258 g / cm^3
# Si number density = 21.170766 Si / 1000 Ang^3
#
#
#
# Elastic Constant Matrix: (Units=GPa)
#
#
# Indices 1 2 3 4 5 6 
#
# 1 199.9571 51.1045 44.4749 0.0000 -4.4106 -0.0001
# 2 51.1045 127.3496 30.4729 0.0000 2.8901 0.0000
# 3 44.4749 30.4729 87.1753 0.0001 -5.8384 -0.0001
# 4 0.0000 0.0000 0.0001 -13.6360 0.0003 -7.3630
# 5 -4.4106 2.8901 -5.8384 0.0003 30.4195 0.0000
# 6 -0.0001 0.0000 -0.0001 -7.3630 0.0000 -5.4106
#
#
#
# Elastic Compliance Matrix: (Units=1/GPa)
#
#
# Indices 1 2 3 4 5 6 
#
# 1 0.006019 -0.001859 -0.002381 0.000000 0.000592 0.000000
# 2 -0.001859 0.009203 -0.002376 0.000000 -0.001600 0.000000
# 3 -0.002381 -0.002376 0.013684 0.000001 0.002507 -0.000001
# 4 0.000000 0.000000 0.000001 -0.276548 0.000002 0.376342
# 5 0.000592 -0.001600 0.002507 0.000002 0.033593 -0.000003
# 6 0.000000 0.000000 -0.000001 0.376342 -0.000003 -0.696970
#
#
# Mechanical properties :
#
#
# Convention : Reuss Voigt Hill
#
# Bulk Modulus (GPa) = 63.79809 74.06519 68.93164
# Shear Modulus (GPa) = -5.60185 21.50325 7.95070
#
# Velocity S-wave (km/s) = -1.62843 3.19047 1.94002
# Velocity P-wave (km/s) = 5.16379 6.97372 6.13586
#
# Compressibility (1/GPa) = 0.01567445
#
# Stress axis : x y z
#
# Youngs Moduli (GPa) = 166.14368 108.65787 73.07620
#
# Poissons Ratio (x) = 0.20199 0.17401
# Poissons Ratio (y) = 0.30886 0.17361
# Poissons Ratio (z) = 0.39562 0.25815
#
# Static dielectric constant tensor:
#      x y z
#    x 1.747320 0.000000 0.018650 
#    y 0.000000 1.727160 0.000000 
#    z 0.018650 0.000000 1.845420 
# 
# From -- ./inp_files/77893.got.cif
#   From: 2010.05.17/outbox.cif.g08.bks.cpg/sg12_39_cif.got.tgz:77893.got - 2010.06.03 13:09:07.
