data_PCOD9218428
_publ_section_title
;
Structure prediction by ZEFSAII (Michael W. Deem and Ramdas Pophale) SiO2 
 PCOD9218428
Probable space group: C 2/M
;
_chemical_formula_sum "Si O2"
_cell_formula_units_Z 58
_cell_length_a 21.922097
_cell_length_b 11.477037
_cell_length_c 17.811827
_cell_angle_alpha 90.000000
_cell_angle_beta 37.457484
_cell_angle_gamma 90.000000
_cell_volume 2725.506143
_symmetry_space_group_name_H-M "C 2/M"
_symmetry_group_IT_number 12
_symmetry_cell_setting 'monoclinic'
loop_
_space_group_symop_operation_xyz
x,y,z
-x,y,-z
-x,-y,-z
x,-y,z
1/2+x,1/2+y,z
1/2-x,1/2+y,-z
1/2-x,1/2-y,-z
1/2+x,1/2-y,z
loop_
_atom_site_type_symbol
_atom_site_label
_atom_site_fract_x
_atom_site_fract_y
_atom_site_fract_z
Si Si1 0.270602 0.871827 0.936367
Si Si2 0.509832 0.808029 0.284204
Si Si3 0.628215 0.370139 0.931248
Si Si4 0.513638 0.198129 0.869043
Si Si5 0.283324 0.125840 0.504844
Si Si6 0.500000 0.000000 0.000000
Si Si7 0.444877 0.361446 0.476146
Si Si8 0.225533 0.748365 0.698514
O O1 0.385567 0.865948 0.795595
O O2 0.194260 0.872166 0.942139
O O3 0.259041 0.000000 0.987142
O O4 0.250000 0.750000 0.000000
O O5 0.519360 0.794672 0.184808
O O6 0.403473 0.872981 0.394917
O O7 0.493396 0.697419 0.354842
O O8 0.620898 0.500000 0.908499
O O9 0.688065 0.288053 0.815756
O O10 0.520846 0.318578 0.060070
O O11 0.632723 0.175783 0.755271
O O12 0.470217 0.100514 0.966273
O O13 0.250000 0.250000 0.500000
O O14 0.238959 0.140915 0.631294
O O15 0.251263 0.000000 0.503087
O O16 0.500000 0.325951 0.500000
O O17 0.450196 0.500000 0.464610
O O18 0.329561 0.320147 0.595241
#
# Coordination Sequence:
#
# PCOD9218428 Si02
#       8
#     8   8   8   8   8   2   8   8
#     4  11  24  43  69  99 133 181 231 283 346 415
#     4  11  24  44  67 100 141 182 230 291 350 424
#     4  11  24  44  67  96 136 180 232 285 345 420
#     4  12  25  42  66 102 136 184 228 286 348 422
#     4  11  24  41  65  97 132 178 226 284 348 414
#     4  12  28  44  66 104 140 188 232 274 368 424
#     4  10  24  45  72 104 141 186 235 296 359 420
#     4  11  23  43  64  97 133 178 230 280 349 416
#
# _framework density 21.280449999999998
#
# number of rings (size 3 to 8) (size 9 to 14) (size 15 to 20)
#    0.000    0.966    4.138    1.655    2.897    4.966 
#    0.000    0.000    0.000    6.621    0.000    0.000 
#    0.000    0.000    0.000    0.000    0.000    0.000 
#
# Total GULP energy -161468.860311 kJ/mol
# GULP energy per Si atom -5567.891735 kJ/mol
# Density = 2.123202 g / cm^3
# Si number density = 21.280450 Si / 1000 Ang^3
#
#
#
# Elastic Constant Matrix: (Units=GPa)
#
#
# Indices 1 2 3 4 5 6 
#
# 1 101.8029 40.3919 25.7829 0.0000 -0.7746 0.0000
# 2 40.3919 141.3983 34.9171 0.0000 8.3069 0.0000
# 3 25.7829 34.9171 81.2372 0.0000 0.4937 0.0000
# 4 0.0000 0.0000 0.0000 1.6888 0.0000 6.5246
# 5 -0.7746 8.3069 0.4937 0.0000 50.0653 0.0000
# 6 0.0000 0.0000 0.0000 6.5246 0.0000 24.8595
#
#
#
# Elastic Compliance Matrix: (Units=1/GPa)
#
#
# Indices 1 2 3 4 5 6 
#
# 1 0.011539 -0.002718 -0.002498 0.000000 0.000654 0.000000
# 2 -0.002718 0.008635 -0.002840 0.000001 -0.001447 0.000000
# 3 -0.002498 -0.002840 0.014321 0.000000 0.000291 0.000000
# 4 0.000000 0.000001 0.000000-42.319166 -0.000001 11.106983
# 5 0.000654 -0.001447 0.000291 -0.000001 0.020221 0.000000
# 6 0.000000 0.000000 0.000000 11.106983 0.000000 -2.874885
#
#
# Mechanical properties :
#
#
# Convention : Reuss Voigt Hill
#
# Bulk Modulus (GPa) = 54.39679 58.51359 56.45519
# Shear Modulus (GPa) = -0.11082 30.21247 15.05083
#
# Velocity S-wave (km/s) = -0.22845 3.77202 2.66232
# Velocity P-wave (km/s) = 5.05448 6.82106 6.00311
#
# Compressibility (1/GPa) = 0.01838344
#
# Stress axis : x y z
#
# Youngs Moduli (GPa) = 86.66376 115.80902 69.82562
#
# Poissons Ratio (x) = 0.31474 0.17443
# Poissons Ratio (y) = 0.23553 0.19831
# Poissons Ratio (z) = 0.21649 0.32891
#
# Static dielectric constant tensor:
#      x y z
#    x -0.622980 0.000000 -1.844070 
#    y 0.000000 1.781300 0.000000 
#    z -1.844070 0.000000 0.336160 
# 
# From -- ./inp_files/283507.got.cif
#   From: 2010.05.17/outbox.cif.g08.bks.cpg/sg12_142_cif.got.tgz:283507.got - 2010.06.03 13:09:07.
