data_PCOD9218749
_publ_section_title
;
Structure prediction by ZEFSAII (Michael W. Deem and Ramdas Pophale) SiO2 
 PCOD9218749
Probable space group: C 2/M
;
_chemical_formula_sum "Si O2"
_cell_formula_units_Z 64
_cell_length_a 12.162597
_cell_length_b 30.309016
_cell_length_c 16.831258
_cell_angle_alpha 90.000000
_cell_angle_beta 149.365941
_cell_angle_gamma 90.000000
_cell_volume 3161.579323
_symmetry_space_group_name_H-M "C 2/M"
_symmetry_group_IT_number 12
_symmetry_cell_setting 'monoclinic'
loop_
_space_group_symop_operation_xyz
x,y,z
-x,y,-z
-x,-y,-z
x,-y,z
1/2+x,1/2+y,z
1/2-x,1/2+y,-z
1/2-x,1/2-y,-z
1/2+x,1/2-y,z
loop_
_atom_site_type_symbol
_atom_site_label
_atom_site_fract_x
_atom_site_fract_y
_atom_site_fract_z
Si Si1 0.289934 0.551025 0.318821
Si Si2 0.287966 0.286160 0.813986
Si Si3 0.312863 0.308760 0.319060
Si Si4 0.375553 0.074402 0.622996
Si Si5 0.988701 0.868486 0.851126
Si Si6 0.565603 0.389968 0.715124
Si Si7 0.818552 0.549589 0.321140
Si Si8 0.442195 0.161822 0.204232
O O1 0.500000 0.568214 0.500000
O O2 0.326055 0.500000 0.321579
O O3 0.121476 0.555503 0.285657
O O4 0.255036 0.579617 0.218436
O O5 0.232390 0.240008 0.740235
O O6 0.339422 0.326203 0.783786
O O7 0.105143 0.299134 0.763871
O O8 0.500000 0.280762 0.000000
O O9 0.500000 0.306881 0.500000
O O10 0.400192 0.343736 0.309122
O O11 0.093264 0.325720 0.224489
O O12 0.545943 0.049694 0.675398
O O13 0.439421 0.124916 0.671812
O O14 0.143895 0.079159 0.435403
O O15 0.862284 0.912859 0.796967
O O16 0.048577 0.877026 0.796287
O O17 0.213275 0.858375 0.034926
O O18 0.737570 0.500000 0.288521
O O19 0.000000 0.561534 0.500000
#
# Coordination Sequence:
#
# PCOD9218749 Si02
#       8
#     8   8   8   8   8   8   8   8
#     4   9  18  34  59  90 123 165 210 259 317 377
#     4  10  26  44  65  92 129 173 215 265 327 398
#     4  12  25  42  66 100 127 166 221 272 323 383
#     4  11  19  40  65  94 131 168 214 264 322 379
#     4  11  25  43  64  95 132 174 212 262 331 386
#     4  11  22  38  63  96 129 166 218 267 322 385
#     4  11  23  40  68 103 132 169 221 271 321 382
#     4  11  24  44  67  89 134 171 211 267 322 389
#
# _framework density 20.243047000000001
#
# number of rings (size 3 to 8) (size 9 to 14) (size 15 to 20)
#    0.000    1.250    5.000    0.750    3.500    4.000 
#    0.000    1.875    0.000    0.750    0.000    0.000 
#    0.000    0.000    0.000    0.000    0.000    0.000 
#
# Total GULP energy -178375.628249 kJ/mol
# GULP energy per Si atom -5574.238383 kJ/mol
# Density = 2.019697 g / cm^3
# Si number density = 20.243047 Si / 1000 Ang^3
#
#
#
# Elastic Constant Matrix: (Units=GPa)
#
#
# Indices 1 2 3 4 5 6 
#
# 1 125.6670 25.0379 20.5836 0.0000 3.9794 0.0000
# 2 25.0379 91.3294 20.0203 0.0000 9.8760 0.0000
# 3 20.5836 20.0203 30.5830 -0.0001 11.0698 0.0000
# 4 0.0000 0.0000 -0.0001 2.9920 0.0000 6.1623
# 5 3.9794 9.8760 11.0698 0.0000 18.3726 0.0000
# 6 0.0000 0.0000 0.0000 6.1623 0.0000 28.5904
#
#
#
# Elastic Compliance Matrix: (Units=1/GPa)
#
#
# Indices 1 2 3 4 5 6 
#
# 1 0.009169 -0.001439 -0.006127 0.000000 0.002479 0.000000
# 2 -0.001439 0.013089 -0.006607 0.000000 -0.002743 0.000000
# 3 -0.006127 -0.006607 0.050364 0.000002 -0.025467 0.000000
# 4 0.000000 0.000000 0.000002 0.601022 0.000000 -0.129542
# 5 0.002479 -0.002743 -0.025467 0.000000 0.070711 0.000000
# 6 0.000000 0.000000 0.000000 -0.129542 0.000000 0.062898
#
#
# Mechanical properties :
#
#
# Convention : Reuss Voigt Hill
#
# Bulk Modulus (GPa) = 22.58466 42.09588 32.34027
# Shear Modulus (GPa) = 5.87988 22.12020 14.00004
#
# Velocity S-wave (km/s) = 1.70615 3.30923 2.63268
# Velocity P-wave (km/s) = 3.88101 5.95330 5.02514
#
# Compressibility (1/GPa) = 0.04427785
#
# Stress axis : x y z
#
# Youngs Moduli (GPa) = 109.06068 76.40147 19.85532
#
# Poissons Ratio (x) = 0.10992 0.12165
# Poissons Ratio (y) = 0.15691 0.13118
# Poissons Ratio (z) = 0.66817 0.50477
#
# Static dielectric constant tensor:
#      x y z
#    x 1.848100 0.000000 0.137290 
#    y 0.000000 1.720020 0.000000 
#    z 0.137290 0.000000 1.908650 
# 
# From -- ./inp_files/100247.got.cif
#   From: 2010.05.17/outbox.cif.g08.bks.cpg/sg12_51_cif.got.tgz:100247.got - 2010.06.03 13:09:07.
