data_PCOD9218735
_publ_section_title
;
Structure prediction by ZEFSAII (Michael W. Deem and Ramdas Pophale) SiO2 
 PCOD9218735
Probable space group: C 2/M
;
_chemical_formula_sum "Si O2"
_cell_formula_units_Z 30
_cell_length_a 18.131138
_cell_length_b 15.496044
_cell_length_c 5.397890
_cell_angle_alpha 90.000000
_cell_angle_beta 109.673271
_cell_angle_gamma 90.000000
_cell_volume 1428.068897
_symmetry_space_group_name_H-M "C 2/M"
_symmetry_group_IT_number 12
_symmetry_cell_setting 'monoclinic'
loop_
_space_group_symop_operation_xyz
x,y,z
-x,y,-z
-x,-y,-z
x,-y,z
1/2+x,1/2+y,z
1/2-x,1/2+y,-z
1/2-x,1/2-y,-z
1/2+x,1/2-y,z
loop_
_atom_site_type_symbol
_atom_site_label
_atom_site_fract_x
_atom_site_fract_y
_atom_site_fract_z
Si Si1 0.199474 0.747578 0.192914
Si Si2 0.000000 0.000000 0.500000
Si Si3 0.063068 0.142929 0.881083
Si Si4 0.413562 0.098825 0.776793
Si Si5 0.000000 0.701197 0.500000
O O1 0.250000 0.750000 0.500000
O O2 0.146941 0.661059 0.154077
O O3 0.250000 0.750000 0.000000
O O4 0.141866 0.830315 0.107590
O O5 0.062883 0.076114 0.657052
O O6 0.028985 0.233387 0.743310
O O7 0.000000 0.103700 0.000000
O O8 0.431321 0.142077 0.530335
O O9 0.387236 0.000000 0.730230
O O10 0.500000 0.098593 0.000000
#
# Coordination Sequence:
#
# PCOD9218735 Si02
#       5
#     8   2   8   8   4
#     4  12  26  46  69 101 152 194 226 291 384 455
#     4  10  26  40  78  98 130 184 270 324 340 414
#     4  11  22  44  71  98 136 186 258 303 365 437
#     4  11  23  42  71 104 136 183 253 304 352 437
#     4  11  17  39  75 100 136 180 241 319 359 429
#
# _framework density 21.007387999999999
#
# number of rings (size 3 to 8) (size 9 to 14) (size 15 to 20)
#    0.000    0.800    5.333    2.400    3.733    0.000 
#    4.800    0.000    0.000    0.000    0.000    0.000 
#    0.000    0.000    0.000    0.000    0.000    0.000 
#
# Total GULP energy -83508.002791 kJ/mol
# GULP energy per Si atom -5567.200186 kJ/mol
# Density = 2.095957 g / cm^3
# Si number density = 21.007388 Si / 1000 Ang^3
#
#
#
# Elastic Constant Matrix: (Units=GPa)
#
#
# Indices 1 2 3 4 5 6 
#
# 1 118.4385 51.2972 39.6329 0.0000 -15.0187 0.0000
# 2 51.2972 175.2011 34.3516 0.0000 4.7619 0.0000
# 3 39.6329 34.3516 114.8096 0.0000 17.6193 0.0000
# 4 0.0000 0.0000 0.0000 -68.8308 0.0000 18.7249
# 5 -15.0187 4.7619 17.6193 0.0000 46.0527 0.0000
# 6 0.0000 0.0000 0.0000 18.7249 0.0000 10.6982
#
#
#
# Elastic Compliance Matrix: (Units=1/GPa)
#
#
# Indices 1 2 3 4 5 6 
#
# 1 0.011741 -0.002790 -0.004090 0.000000 0.005682 0.000000
# 2 -0.002790 0.006727 -0.000853 0.000000 -0.001279 0.000000
# 3 -0.004090 -0.000853 0.011228 0.000000 -0.005541 0.000000
# 4 0.000000 0.000000 0.000000 -0.009842 0.000000 0.017226
# 5 0.005682 -0.001279 -0.005541 0.000000 0.025820 0.000000
# 6 0.000000 0.000000 0.000000 0.017226 0.000000 0.063323
#
#
# Mechanical properties :
#
#
# Convention : Reuss Voigt Hill
#
# Bulk Modulus (GPa) = 70.28299 73.22363 71.75331
# Shear Modulus (GPa) = 38.69808 16.46186 27.57997
#
# Velocity S-wave (km/s) = 4.29665 2.80236 3.62729
# Velocity P-wave (km/s) = 7.62521 6.73816 7.19537
#
# Compressibility (1/GPa) = 0.01422819
#
# Stress axis : x y z
#
# Youngs Moduli (GPa) = 85.17240 148.66149 89.06509
#
# Poissons Ratio (x) = 0.41478 0.36430
# Poissons Ratio (y) = 0.23764 0.07599
# Poissons Ratio (z) = 0.34838 0.12684
#
# Static dielectric constant tensor:
#      x y z
#    x 1.794810 0.000000 -0.026530 
#    y 0.000000 1.742690 0.000000 
#    z -0.026530 0.000000 1.931190 
# 
# From -- ./inp_files/14508.got.cif
#   From: 2010.05.17/outbox.cif.g08.bks.cpg/sg12_8_cif.got.tgz:14508.got - 2010.06.03 13:09:07.
