data_PCOD9218687
_publ_section_title
;
Structure prediction by ZEFSAII (Michael W. Deem and Ramdas Pophale) SiO2 
 PCOD9218687
Probable space group: C 2/M
;
_chemical_formula_sum "Si O2"
_cell_formula_units_Z 38
_cell_length_a 10.811774
_cell_length_b 21.194177
_cell_length_c 10.672246
_cell_angle_alpha 90.000000
_cell_angle_beta 45.313786
_cell_angle_gamma 90.000000
_cell_volume 1738.680661
_symmetry_space_group_name_H-M "C 2/M"
_symmetry_group_IT_number 12
_symmetry_cell_setting 'monoclinic'
loop_
_space_group_symop_operation_xyz
x,y,z
-x,y,-z
-x,-y,-z
x,-y,z
1/2+x,1/2+y,z
1/2-x,1/2+y,-z
1/2-x,1/2-y,-z
1/2+x,1/2-y,z
loop_
_atom_site_type_symbol
_atom_site_label
_atom_site_fract_x
_atom_site_fract_y
_atom_site_fract_z
Si Si1 0.172538 0.341823 0.304565
Si Si2 0.910576 0.930702 0.298045
Si Si3 0.292887 0.795700 0.153554
Si Si4 0.500000 0.000000 0.000000
Si Si5 0.500000 0.628961 0.500000
Si Si6 0.215519 0.402482 0.024897
O O1 0.296505 0.377973 0.312701
O O2 0.255690 0.277849 0.192989
O O3 0.131303 0.388377 0.218362
O O4 0.000000 0.323493 0.500000
O O5 0.954847 0.912747 0.410503
O O6 0.827646 0.000000 0.353372
O O7 0.095262 0.932691 0.095895
O O8 0.172287 0.829828 0.344933
O O9 0.500000 0.804215 0.000000
O O10 0.238889 0.834527 0.069289
O O11 0.400792 0.055304 0.985000
#
# Coordination Sequence:
#
# PCOD9218687 Si02
#       6
#     8   8   8   2   4   8
#     4  12  28  46  70 109 151 190 246 311 367 432
#     4  11  25  47  74 104 144 198 240 309 364 449
#     4  11  23  47  76 106 147 196 243 305 364 438
#     4  12  24  48  80 106 146 190 246 304 354 456
#     4  10  25  46  72 112 147 184 252 298 372 441
#     4  11  25  47  75 109 141 194 246 297 368 443
#
# _framework density 21.855651999999999
#
# number of rings (size 3 to 8) (size 9 to 14) (size 15 to 20)
#    0.000    0.842    3.158    2.842    4.421    3.789 
#    7.579    0.000    0.000    0.000    0.000    0.000 
#    0.000    0.000    0.000    0.000    0.000    0.000 
#
# Total GULP energy -105848.229720 kJ/mol
# GULP energy per Si atom -5570.959459 kJ/mol
# Density = 2.180591 g / cm^3
# Si number density = 21.855652 Si / 1000 Ang^3
#
#
#
# Elastic Constant Matrix: (Units=GPa)
#
#
# Indices 1 2 3 4 5 6 
#
# 1 59.7953 51.2446 11.1183 0.0000 -0.0144 0.0000
# 2 51.2446 162.4986 26.0228 0.0000 3.7016 0.0000
# 3 11.1183 26.0228 109.4183 0.0000 -6.5524 0.0000
# 4 0.0000 0.0000 0.0000 -129.4265 0.0000 -413.7268
# 5 -0.0144 3.7016 -6.5524 0.0000 35.6780 0.0000
# 6 0.0000 0.0000 0.0000 -413.7268 0.0000-1428.0590
#
#
#
# Elastic Compliance Matrix: (Units=1/GPa)
#
#
# Indices 1 2 3 4 5 6 
#
# 1 0.022974 -0.007165 -0.000592 0.000000 0.000644 0.000000
# 2 -0.007165 0.008664 -0.001402 0.000000 -0.001159 0.000000
# 3 -0.000592 -0.001402 0.009648 0.000000 0.001917 0.000000
# 4 0.000000 0.000000 0.000000 -0.104552 0.000000 0.030290
# 5 0.000644 -0.001159 0.001917 0.000000 0.028501 0.000000
# 6 0.000000 0.000000 0.000000 0.030290 0.000000 -0.009476
#
#
# Mechanical properties :
#
#
# Convention : Reuss Voigt Hill
#
# Bulk Modulus (GPa) = 43.53777 56.49818 50.01797
# Shear Modulus (GPa) = -273.72351 -288.13974 -280.93162
#
# Velocity S-wave (km/s) = -11.20328 -11.49451 -11.34983
# Velocity P-wave (km/s) = 12.14032 12.25799 12.19930
#
# Compressibility (1/GPa) = 0.02296856
#
# Stress axis : x y z
#
# Youngs Moduli (GPa) = 43.52701 115.41602 103.65250
#
# Poissons Ratio (x) = 0.82694 0.06135
# Poissons Ratio (y) = 0.31187 0.14532
# Poissons Ratio (z) = 0.02576 0.16181
#
# Static dielectric constant tensor:
#      x y z
#    x 1.915560 0.000000 -0.070540 
#    y 0.000000 1.829370 0.000000 
#    z -0.070540 0.000000 1.859790 
# 
# From -- ./inp_files/133657.got.cif
#   From: 2010.05.17/outbox.cif.g08.bks.cpg/sg12_67_cif.got.tgz:133657.got - 2010.06.03 13:09:07.
