data_PCOD9218552
_publ_section_title
;
Structure prediction by ZEFSAII (Michael W. Deem and Ramdas Pophale) SiO2 
 PCOD9218552
Probable space group: C 2/M
;
_chemical_formula_sum "Si O2"
_cell_formula_units_Z 42
_cell_length_a 13.418293
_cell_length_b 17.980357
_cell_length_c 9.743573
_cell_angle_alpha 90.000000
_cell_angle_beta 50.335118
_cell_angle_gamma 90.000000
_cell_volume 1809.616771
_symmetry_space_group_name_H-M "C 2/M"
_symmetry_group_IT_number 12
_symmetry_cell_setting 'monoclinic'
loop_
_space_group_symop_operation_xyz
x,y,z
-x,y,-z
-x,-y,-z
x,-y,z
1/2+x,1/2+y,z
1/2-x,1/2+y,-z
1/2-x,1/2-y,-z
1/2+x,1/2-y,z
loop_
_atom_site_type_symbol
_atom_site_label
_atom_site_fract_x
_atom_site_fract_y
_atom_site_fract_z
Si Si1 0.500000 0.500000 0.000000
Si Si2 0.895489 0.121956 0.269839
Si Si3 0.311692 0.000000 0.109310
Si Si4 0.482668 0.225978 0.294437
Si Si5 0.215783 0.500000 0.564664
Si Si6 0.000000 0.636827 0.000000
Si Si7 0.091840 0.500000 0.255749
Si Si8 0.830535 0.342190 0.687887
O O1 0.496123 0.564218 0.122750
O O2 0.949567 0.187811 0.312923
O O3 0.820574 0.158424 0.207140
O O4 0.782262 0.071715 0.438072
O O5 0.237149 0.000000 0.318518
O O6 0.388132 0.078282 0.059744
O O7 0.296815 0.000000 0.959096
O O8 0.465962 0.185172 0.163541
O O9 0.625188 0.209393 0.226409
O O10 0.395300 0.189008 0.491074
O O11 0.056877 0.500000 0.678100
O O12 0.120265 0.425589 0.317360
#
# Coordination Sequence:
#
# PCOD9218552 Si02
#       8
#     2   8   4   8   4   4   4   8
#     4  10  24  48  68  94 132 180 230 270 324 406
#     4  11  24  43  71  95 132 183 228 269 336 408
#     4  11  19  33  60  95 134 167 215 275 333 386
#     4  11  23  40  65  99 141 169 221 281 334 396
#     4  11  20  38  69  99 124 179 225 274 341 397
#     4  11  19  36  59  91 134 176 200 275 339 370
#     4  12  20  38  65 105 138 167 225 287 323 405
#     4  11  23  39  70 100 133 176 224 276 333 399
#
# _framework density 23.209333000000001
#
# number of rings (size 3 to 8) (size 9 to 14) (size 15 to 20)
#    0.000    0.952    3.810    5.714    0.000    3.810 
#    0.000    3.810   25.143    4.571    0.000    4.000 
#    0.000    0.000    0.000    0.000    0.000    0.000 
#
# Total GULP energy -116939.540285 kJ/mol
# GULP energy per Si atom -5568.549537 kJ/mol
# Density = 2.315651 g / cm^3
# Si number density = 23.209333 Si / 1000 Ang^3
#
#
#
# Elastic Constant Matrix: (Units=GPa)
#
#
# Indices 1 2 3 4 5 6 
#
# 1 64.8160 56.4383 21.4285 0.0000 15.1157 0.0000
# 2 56.4383 190.9092 52.7165 0.0000 24.0980 0.0000
# 3 21.4285 52.7165 108.8065 0.0000 34.6082 0.0000
# 4 0.0000 0.0000 0.0000 26.9233 0.0000 16.7285
# 5 15.1157 24.0980 34.6082 0.0000 22.7864 0.0000
# 6 0.0000 0.0000 0.0000 16.7285 0.0000 15.3310
#
#
#
# Elastic Compliance Matrix: (Units=1/GPa)
#
#
# Indices 1 2 3 4 5 6 
#
# 1 0.022548 -0.005734 0.002256 0.000000 -0.012321 0.000000
# 2 -0.005734 0.007677 -0.002356 0.000000 -0.000737 0.000000
# 3 0.002256 -0.002356 0.018516 0.000000 -0.027128 0.000000
# 4 0.000000 0.000000 0.000000 0.115340 0.000000 -0.125854
# 5 -0.012321 -0.000737 -0.027128 0.000000 0.094041 -0.000001
# 6 0.000000 0.000000 0.000000 -0.125854 -0.000001 0.202554
#
#
# Mechanical properties :
#
#
# Convention : Reuss Voigt Hill
#
# Bulk Modulus (GPa) = 26.97254 69.52205 48.24729
# Shear Modulus (GPa) = 10.31564 28.60471 19.46018
#
# Velocity S-wave (km/s) = 2.11051 3.51446 2.89876
# Velocity P-wave (km/s) = 4.19353 6.81821 5.66011
#
# Compressibility (1/GPa) = 0.03707475
#
# Stress axis : x y z
#
# Youngs Moduli (GPa) = 44.34923 130.26462 54.00657
#
# Poissons Ratio (x) = 0.74690 -0.12185
# Poissons Ratio (y) = 0.25429 0.12722
# Poissons Ratio (z) = -0.10006 0.30686
#
# Static dielectric constant tensor:
#      x y z
#    x 1.971220 0.000000 -0.033760 
#    y 0.000000 1.831220 0.000000 
#    z -0.033760 0.000000 1.949830 
# 
# From -- ./inp_files/61670.got.cif
#   From: 2010.05.17/outbox.cif.g08.bks.cpg/sg12_31_cif.got.tgz:61670.got - 2010.06.03 13:09:07.
