data_PCOD9218875
_publ_section_title
;
Structure prediction by ZEFSAII (Michael W. Deem and Ramdas Pophale) SiO2 
 PCOD9218875
Probable space group: C 2/M
;
_chemical_formula_sum "Si O2"
_cell_formula_units_Z 64
_cell_length_a 14.604499
_cell_length_b 27.844267
_cell_length_c 8.800367
_cell_angle_alpha 90.000000
_cell_angle_beta 64.035058
_cell_angle_gamma 90.000000
_cell_volume 3217.458328
_symmetry_space_group_name_H-M "C 2/M"
_symmetry_group_IT_number 12
_symmetry_cell_setting 'monoclinic'
loop_
_space_group_symop_operation_xyz
x,y,z
-x,y,-z
-x,-y,-z
x,-y,z
1/2+x,1/2+y,z
1/2-x,1/2+y,-z
1/2-x,1/2-y,-z
1/2+x,1/2-y,z
loop_
_atom_site_type_symbol
_atom_site_label
_atom_site_fract_x
_atom_site_fract_y
_atom_site_fract_z
Si Si1 0.632138 0.349038 0.558795
Si Si2 0.237532 0.346585 0.040470
Si Si3 0.236295 0.715113 0.314047
Si Si4 0.314654 0.181108 0.228801
Si Si5 0.958506 0.797874 0.854451
Si Si6 0.560249 0.553924 0.716757
Si Si7 0.843172 0.945274 0.015191
Si Si8 0.455893 0.207358 0.370789
O O1 0.697302 0.324700 0.647624
O O2 0.703766 0.336722 0.365644
O O3 0.521829 0.327995 0.682103
O O4 0.614342 0.405669 0.579875
O O5 0.167392 0.342336 0.945179
O O6 0.344274 0.317778 0.937034
O O7 0.191130 0.315535 0.209669
O O8 0.265797 0.401403 0.054556
O O9 0.302221 0.761108 0.218167
O O10 0.146967 0.734191 0.489038
O O11 0.401761 0.171911 0.290472
O O12 0.977059 0.744539 0.775195
O O13 0.000000 0.803115 0.000000
O O14 0.572395 0.500000 0.648877
O O15 0.611025 0.556450 0.847550
O O16 0.440389 0.562891 0.834137
O O17 0.805737 0.000000 0.017621
O O18 0.500000 0.189746 0.500000
#
# Coordination Sequence:
#
# PCOD9218875 Si02
#       8
#     8   8   8   8   8   8   8   8
#     4  11  18  33  52  73 114 144 189 225 256 309
#     4  12  22  33  57  82 111 150 189 223 263 321
#     4  11  20  37  53  76 110 141 186 238 265 311
#     4  11  23  36  50  76 107 142 185 239 272 313
#     4  12  20  32  54  80 105 149 197 214 250 325
#     4   9  16  29  51  78 109 147 189 224 251 304
#     4   9  17  30  50  79 112 144 183 223 259 309
#     4  11  23  39  54  71 104 145 185 233 280 323
#
# _framework density 19.891477999999999
#
# number of rings (size 3 to 8) (size 9 to 14) (size 15 to 20)
#    0.000    1.250    6.250    2.625    0.000    1.000 
#    0.000    0.625    0.000    1.500    0.000    0.000 
#    0.000   19.000    0.000    0.000    0.000    1.250 
#
# Total GULP energy -178507.015097 kJ/mol
# GULP energy per Si atom -5578.344222 kJ/mol
# Density = 1.984620 g / cm^3
# Si number density = 19.891478 Si / 1000 Ang^3
#
#
#
# Elastic Constant Matrix: (Units=GPa)
#
#
# Indices 1 2 3 4 5 6 
#
# 1 55.6951 15.3286 13.1099 0.0000 13.6777 0.0000
# 2 15.3286 110.0826 27.3799 0.0000 -2.4578 0.0000
# 3 13.1099 27.3799 57.7950 0.0000 6.2651 0.0000
# 4 0.0000 0.0000 0.0000 23.8812 0.0000 -6.5954
# 5 13.6777 -2.4578 6.2651 0.0000 37.4707 0.0000
# 6 0.0000 0.0000 0.0000 -6.5954 0.0000 18.0005
#
#
#
# Elastic Compliance Matrix: (Units=1/GPa)
#
#
# Indices 1 2 3 4 5 6 
#
# 1 0.021098 -0.002393 -0.002852 0.000000 -0.007381 0.000000
# 2 -0.002393 0.010654 -0.004761 0.000000 0.002369 0.000000
# 3 -0.002852 -0.004761 0.020498 0.000000 -0.002699 0.000000
# 4 0.000000 0.000000 0.000000 0.046588 0.000000 0.017070
# 5 -0.007381 0.002369 -0.002699 0.000000 0.029988 0.000000
# 6 0.000000 0.000000 0.000000 0.017070 0.000000 0.061809
#
#
# Mechanical properties :
#
#
# Convention : Reuss Voigt Hill
#
# Bulk Modulus (GPa) = 31.02036 37.24552 34.13294
# Shear Modulus (GPa) = 22.58425 27.05409 24.81917
#
# Velocity S-wave (km/s) = 3.37319 3.69193 3.53615
# Velocity P-wave (km/s) = 5.54976 6.07773 5.81974
#
# Compressibility (1/GPa) = 0.03223689
#
# Stress axis : x y z
#
# Youngs Moduli (GPa) = 47.39892 93.85721 48.78625
#
# Poissons Ratio (x) = 0.22463 0.13912
# Poissons Ratio (y) = 0.11344 0.23229
# Poissons Ratio (z) = 0.13517 0.44689
#
# Static dielectric constant tensor:
#      x y z
#    x 1.779570 0.000000 0.016110 
#    y 0.000000 1.681520 0.000000 
#    z 0.016110 0.000000 1.776110 
# 
# From -- ./inp_files/66887.got.cif
#   From: 2010.05.17/outbox.cif.g08.bks.cpg/sg12_34_cif.got.tgz:66887.got - 2010.06.03 13:09:07.
