data_PCOD9218486
_publ_section_title
;
Structure prediction by ZEFSAII (Michael W. Deem and Ramdas Pophale) SiO2 
 PCOD9218486
Probable space group: C 2/M
;
_chemical_formula_sum "Si O2"
_cell_formula_units_Z 40
_cell_length_a 11.314122
_cell_length_b 14.988587
_cell_length_c 15.069896
_cell_angle_alpha 90.000000
_cell_angle_beta 142.057623
_cell_angle_gamma 90.000000
_cell_volume 1571.354444
_symmetry_space_group_name_H-M "C 2/M"
_symmetry_group_IT_number 12
_symmetry_cell_setting 'monoclinic'
loop_
_space_group_symop_operation_xyz
x,y,z
-x,y,-z
-x,-y,-z
x,-y,z
1/2+x,1/2+y,z
1/2-x,1/2+y,-z
1/2-x,1/2-y,-z
1/2+x,1/2-y,z
loop_
_atom_site_type_symbol
_atom_site_label
_atom_site_fract_x
_atom_site_fract_y
_atom_site_fract_z
Si Si1 0.707527 0.276342 0.269125
Si Si2 0.432174 0.904792 0.286631
Si Si3 0.725240 0.601275 0.796254
Si Si4 0.198275 0.146217 0.974957
Si Si5 0.648144 0.648278 0.509139
O O1 0.879723 0.324411 0.320175
O O2 0.532522 0.345123 0.157186
O O3 0.771946 0.242434 0.404233
O O4 0.671094 0.182054 0.195311
O O5 0.654082 0.901692 0.389862
O O6 0.390941 0.000000 0.305100
O O7 0.299272 0.893243 0.120982
O O8 0.754102 0.500000 0.779832
O O9 0.769197 0.602164 0.926380
O O10 0.500000 0.631093 0.657794
O O11 0.250000 0.250000 0.000000
O O12 0.500000 0.617902 0.500000
#
# Coordination Sequence:
#
# PCOD9218486 Si02
#       5
#     8   8   8   8   8
#     4  11  24  44  73 100 143 181 235 287 353 411
#     4  12  26  45  74 106 142 187 237 291 351 421
#     4  11  25  45  72 104 141 183 236 290 347 417
#     4  12  24  46  69 102 143 186 230 286 352 418
#     4  10  24  46  72 100 140 184 232 289 350 411
#
# _framework density 25.455746000000001
#
# number of rings (size 3 to 8) (size 9 to 14) (size 15 to 20)
#    0.000    0.800    4.000    1.800    0.000   18.400 
#    0.000    1.000    0.000    7.800    0.000    0.000 
#    0.000    0.000    0.000    0.000    0.000    0.000 
#
# Total GULP energy -111832.653096 kJ/mol
# GULP energy per Si atom -5591.632655 kJ/mol
# Density = 2.539781 g / cm^3
# Si number density = 25.455746 Si / 1000 Ang^3
#
#
#
# Elastic Constant Matrix: (Units=GPa)
#
#
# Indices 1 2 3 4 5 6 
#
# 1 36.9631 5.4810 9.7377 0.0000 17.1513 0.0000
# 2 5.4810 117.8397 0.1526 0.0002 5.1927 0.0001
# 3 9.7377 0.1526 128.1389 0.0003 15.0986 0.0002
# 4 0.0000 0.0002 0.0003 14.4252 0.0001 -5.9163
# 5 17.1513 5.1927 15.0986 0.0001 43.9764 0.0000
# 6 0.0000 0.0001 0.0002 -5.9163 0.0000 8.7640
#
#
#
# Elastic Compliance Matrix: (Units=1/GPa)
#
#
# Indices 1 2 3 4 5 6 
#
# 1 0.033280 -0.000996 -0.001055 0.000000 -0.012500 0.000000
# 2 -0.000996 0.008562 0.000145 0.000000 -0.000672 0.000000
# 3 -0.001055 0.000145 0.008168 0.000000 -0.002410 0.000000
# 4 0.000000 0.000000 0.000000 0.095864 0.000000 0.064715
# 5 -0.012500 -0.000672 -0.002410 0.000000 0.028521 0.000000
# 6 0.000000 0.000000 0.000000 0.064715 0.000000 0.157789
#
#
# Mechanical properties :
#
#
# Convention : Reuss Voigt Hill
#
# Bulk Modulus (GPa) = 21.64629 34.85379 28.25004
# Shear Modulus (GPa) = 14.22897 31.27115 22.75006
#
# Velocity S-wave (km/s) = 2.36682 3.50873 2.99274
# Velocity P-wave (km/s) = 3.99888 5.48968 4.80248
#
# Compressibility (1/GPa) = 0.04619729
#
# Stress axis : x y z
#
# Youngs Moduli (GPa) = 30.04850 116.79709 122.42895
#
# Poissons Ratio (x) = 0.11630 0.12916
# Poissons Ratio (y) = 0.02992 -0.01771
# Poissons Ratio (z) = 0.03170 -0.01690
#
# Static dielectric constant tensor:
#      x y z
#    x 2.058710 0.000000 0.032780 
#    y 0.000000 1.273590 0.000000 
#    z 0.032780 0.000000 2.141350 
# 
# From -- ./inp_files/263110.got.cif
#   From: 2010.05.17/outbox.cif.g08.bks.cpg/sg12_132_cif.got.tgz:263110.got - 2010.06.03 13:09:07.
