data_PCOD9218095
_publ_section_title
;
Structure prediction by ZEFSAII (Michael W. Deem and Ramdas Pophale) SiO2 
 PCOD9218095
Probable space group: C 2/M
;
_chemical_formula_sum "Si O2"
_cell_formula_units_Z 32
_cell_length_a 30.011888
_cell_length_b 9.426502
_cell_length_c 11.988754
_cell_angle_alpha 90.000000
_cell_angle_beta 156.319911
_cell_angle_gamma 90.000000
_cell_volume 1362.208502
_symmetry_space_group_name_H-M "C 2/M"
_symmetry_group_IT_number 12
_symmetry_cell_setting 'monoclinic'
loop_
_space_group_symop_operation_xyz
x,y,z
-x,y,-z
-x,-y,-z
x,-y,z
1/2+x,1/2+y,z
1/2-x,1/2+y,-z
1/2-x,1/2-y,-z
1/2+x,1/2-y,z
loop_
_atom_site_type_symbol
_atom_site_label
_atom_site_fract_x
_atom_site_fract_y
_atom_site_fract_z
Si Si1 0.000000 0.253727 0.000000
Si Si2 0.140624 0.500000 0.638002
Si Si3 0.324888 0.000000 0.636086
Si Si4 0.562021 0.500000 0.985133
Si Si5 0.624128 0.000000 0.988304
Si Si6 0.625377 0.200049 0.797534
Si Si7 0.365321 0.500000 0.088063
O O1 0.105998 0.359796 0.244447
O O2 0.010605 0.143081 0.920949
O O3 0.169260 0.635090 0.783204
O O4 0.232987 0.500000 0.753968
O O5 0.011532 0.500000 0.308549
O O6 0.194137 0.000000 0.312278
O O7 0.331027 0.000000 0.785308
O O8 0.556310 0.500000 0.838932
O O9 0.664554 0.130898 0.003760
O O10 0.500000 0.146361 0.500000
O O11 0.617374 0.364057 0.797800
#
# Coordination Sequence:
#
# PCOD9218095 Si02
#       7
#     4   4   4   4   4   8   4
#     4  10  24  42  64  86 132 162 212 266 310 352
#     4   9  20  36  59  85 119 153 199 245 296 366
#     4  11  22  42  70  90 126 171 210 252 320 374
#     4  11  25  43  61  98 130 161 213 266 305 375
#     4   9  19  39  60  86 114 162 199 238 303 372
#     4   9  19  37  59  83 119 155 194 246 299 365
#     4  12  21  34  60  89 119 154 199 246 311 360
#
# _framework density 23.491264000000001
#
# number of rings (size 3 to 8) (size 9 to 14) (size 15 to 20)
#    0.000    2.000    0.000    4.875    3.500    0.000 
#    0.000    0.000   22.000    0.000    0.000    0.000 
#    0.000    0.000    0.000    0.000    0.000    0.000 
#
# Total GULP energy -89285.332670 kJ/mol
# GULP energy per Si atom -5580.333292 kJ/mol
# Density = 2.343780 g / cm^3
# Si number density = 23.491264 Si / 1000 Ang^3
#
#
#
# Elastic Constant Matrix: (Units=GPa)
#
#
# Indices 1 2 3 4 5 6 
#
# 1 126.9662 29.3890 6.5759 0.0000 1.2875 0.0000
# 2 29.3890 192.6040 -2.4479 0.0000 -9.5137 0.0000
# 3 6.5759 -2.4479 38.6395 0.0000 -11.6143 0.0000
# 4 0.0000 0.0000 0.0000 26.7711 0.0000 37.9720
# 5 1.2875 -9.5137 -11.6143 0.0000 21.0470 0.0000
# 6 0.0000 0.0000 0.0000 37.9720 0.0000 -1.9904
#
#
#
# Elastic Compliance Matrix: (Units=1/GPa)
#
#
# Indices 1 2 3 4 5 6 
#
# 1 0.008344 -0.001419 -0.002225 0.000000 -0.002380 0.000000
# 2 -0.001419 0.005604 0.001659 0.000000 0.003536 0.000000
# 3 -0.002225 0.001659 0.031926 0.000000 0.018504 0.000000
# 4 0.000000 0.000000 0.000000 0.001331 0.000000 0.025397
# 5 -0.002380 0.003536 0.018504 0.000000 0.059467 0.000000
# 6 0.000000 0.000000 0.000000 0.025397 0.000000 -0.017905
#
#
# Mechanical properties :
#
#
# Convention : Reuss Voigt Hill
#
# Bulk Modulus (GPa) = 23.86394 47.24930 35.55662
# Shear Modulus (GPa) = 46.85795 30.81173 38.83484
#
# Velocity S-wave (km/s) = 4.47105 3.62557 4.07032
# Velocity P-wave (km/s) = 6.06913 6.13869 6.10401
#
# Compressibility (1/GPa) = 0.04190423
#
# Stress axis : x y z
#
# Youngs Moduli (GPa) = 119.84724 178.43575 31.32249
#
# Poissons Ratio (x) = 0.25320 0.06970
# Poissons Ratio (y) = 0.17007 -0.05197
# Poissons Ratio (z) = 0.26669 -0.29608
#
# Static dielectric constant tensor:
#      x y z
#    x 1.945430 0.000000 0.066130 
#    y 0.000000 1.863190 0.000000 
#    z 0.066130 0.000000 1.927320 
# 
# From -- ./inp_files/138795.got.cif
#   From: 2010.05.17/outbox.cif.g08.bks.cpg/sg12_70_cif.got.tgz:138795.got - 2010.06.03 13:09:07.
