data_PCOD9218645
_publ_section_title
;
Structure prediction by ZEFSAII (Michael W. Deem and Ramdas Pophale) SiO2 
 PCOD9218645
Probable space group: C 2/M
;
_chemical_formula_sum "Si O2"
_cell_formula_units_Z 42
_cell_length_a 9.900072
_cell_length_b 7.777915
_cell_length_c 23.915241
_cell_angle_alpha 90.000000
_cell_angle_beta 112.348382
_cell_angle_gamma 90.000000
_cell_volume 1703.201010
_symmetry_space_group_name_H-M "C 2/M"
_symmetry_group_IT_number 12
_symmetry_cell_setting 'monoclinic'
loop_
_space_group_symop_operation_xyz
x,y,z
-x,y,-z
-x,-y,-z
x,-y,z
1/2+x,1/2+y,z
1/2-x,1/2+y,-z
1/2-x,1/2-y,-z
1/2+x,1/2-y,z
loop_
_atom_site_type_symbol
_atom_site_label
_atom_site_fract_x
_atom_site_fract_y
_atom_site_fract_z
Si Si1 0.249018 0.206414 0.564945
Si Si2 0.662750 0.803207 0.248085
Si Si3 0.062603 0.697349 0.634682
Si Si4 0.500000 0.500000 0.000000
Si Si5 0.349260 0.793671 0.180120
Si Si6 0.601700 0.204912 0.942893
O O1 0.250000 0.250000 0.500000
O O2 0.115843 0.280185 0.579389
O O3 0.401891 0.276888 0.614706
O O4 0.241322 0.000000 0.569469
O O5 0.800937 0.749998 0.306246
O O6 0.502704 0.723021 0.229681
O O7 0.714518 0.785845 0.191999
O O8 0.639329 0.000000 0.258206
O O9 0.039865 0.500000 0.644133
O O10 0.508184 0.345981 0.049539
O O11 0.362868 0.764602 0.116402
O O12 0.338790 0.000000 0.186820
O O13 0.567750 0.000000 0.944767
O O14 0.750000 0.250000 0.000000
#
# Coordination Sequence:
#
# PCOD9218645 Si02
#       6
#     8   8   8   2   8   8
#     4  11  24  41  64  94 128 165 212 261 315 377
#     4  11  24  42  66  95 127 169 218 265 322 388
#     4  11  24  42  63  92 130 168 209 263 318 377
#     4  12  26  44  72  96 136 180 222 276 350 404
#     4  10  25  44  65  95 131 169 217 274 326 393
#     4  11  25  45  69 100 135 177 224 282 342 410
#
# _framework density 24.659448000000001
#
# number of rings (size 3 to 8) (size 9 to 14) (size 15 to 20)
#    0.000    1.143    0.952    3.714    4.000   11.429 
#    0.000    0.000    0.000    0.000    0.000    0.000 
#    0.000    0.000    0.000    0.000    0.000    0.000 
#
# Total GULP energy -117231.341272 kJ/mol
# GULP energy per Si atom -5582.444822 kJ/mol
# Density = 2.460332 g / cm^3
# Si number density = 24.659448 Si / 1000 Ang^3
#
#
#
# Elastic Constant Matrix: (Units=GPa)
#
#
# Indices 1 2 3 4 5 6 
#
# 1 102.5428 -5.7146 1.3514 0.0000 -3.0708 0.0000
# 2 -5.7146 89.5245 8.7837 0.0000 -2.2011 0.0000
# 3 1.3514 8.7837 84.0352 0.0000 -5.0938 0.0000
# 4 0.0000 0.0000 0.0000 40.6513 0.0000 -8.4661
# 5 -3.0708 -2.2011 -5.0938 0.0000 46.8891 0.0000
# 6 0.0000 0.0000 0.0000 -8.4661 0.0000 18.0803
#
#
#
# Elastic Compliance Matrix: (Units=1/GPa)
#
#
# Indices 1 2 3 4 5 6 
#
# 1 0.009811 0.000661 -0.000187 0.000000 0.000653 0.000000
# 2 0.000661 0.011338 -0.001169 0.000000 0.000449 0.000000
# 3 -0.000187 -0.001169 0.012101 0.000000 0.001247 0.000000
# 4 0.000000 0.000000 0.000000 0.027258 0.000000 0.012763
# 5 0.000653 0.000449 0.001247 0.000000 0.021526 0.000000
# 6 0.000000 0.000000 0.000000 0.012763 0.000000 0.061285
#
#
# Mechanical properties :
#
#
# Convention : Reuss Voigt Hill
#
# Bulk Modulus (GPa) = 31.38805 31.66037 31.52421
# Shear Modulus (GPa) = 32.18983 39.23626 35.71304
#
# Velocity S-wave (km/s) = 3.61692 3.99322 3.80972
# Velocity P-wave (km/s) = 5.49536 5.84191 5.67129
#
# Compressibility (1/GPa) = 0.03185926
#
# Stress axis : x y z
#
# Youngs Moduli (GPa) = 101.92767 88.19914 82.64095
#
# Poissons Ratio (x) = -0.05827 0.01547
# Poissons Ratio (y) = -0.06734 0.09657
# Poissons Ratio (z) = 0.01908 0.10306
#
# Static dielectric constant tensor:
#      x y z
#    x 2.089810 0.000000 0.086720 
#    y 0.000000 1.909800 0.000000 
#    z 0.086720 0.000000 2.024050 
# 
# From -- ./inp_files/303693.got.cif
#   From: 2010.05.17/outbox.cif.g08.bks.cpg/sg12_152_cif.got.tgz:303693.got - 2010.06.03 13:09:07.
