data_PCOD9218877
_publ_section_title
;
Structure prediction by ZEFSAII (Michael W. Deem and Ramdas Pophale) SiO2 
 PCOD9218877
Probable space group: C 2/M
;
_chemical_formula_sum "Si O2"
_cell_formula_units_Z 48
_cell_length_a 21.786346
_cell_length_b 10.135821
_cell_length_c 20.976018
_cell_angle_alpha 90.000000
_cell_angle_beta 142.060451
_cell_angle_gamma 90.000000
_cell_volume 2847.877034
_symmetry_space_group_name_H-M "C 2/M"
_symmetry_group_IT_number 12
_symmetry_cell_setting 'monoclinic'
loop_
_space_group_symop_operation_xyz
x,y,z
-x,y,-z
-x,-y,-z
x,-y,z
1/2+x,1/2+y,z
1/2-x,1/2+y,-z
1/2-x,1/2-y,-z
1/2+x,1/2-y,z
loop_
_atom_site_type_symbol
_atom_site_label
_atom_site_fract_x
_atom_site_fract_y
_atom_site_fract_z
Si Si1 0.608209 0.500000 0.004615
Si Si2 0.447764 0.153466 0.527282
Si Si3 0.744108 0.747519 0.694649
Si Si4 0.607021 0.000000 0.010367
Si Si5 0.385012 0.339755 0.287041
Si Si6 0.274555 0.756976 0.945954
Si Si7 0.379580 0.500000 0.832813
Si Si8 0.630064 0.000000 0.181112
O O1 0.669214 0.625465 0.030082
O O2 0.609305 0.500000 0.081938
O O3 0.489784 0.500000 0.891598
O O4 0.500000 0.149630 0.500000
O O5 0.337977 0.212634 0.424956
O O6 0.513534 0.255388 0.622213
O O7 0.445936 0.000000 0.548096
O O8 0.681963 0.704455 0.706926
O O9 0.814148 0.872784 0.762976
O O10 0.817530 0.625529 0.744591
O O11 0.488373 0.000000 0.909556
O O12 0.650916 0.125986 0.011349
O O13 0.643022 0.000000 0.114068
O O14 0.397727 0.500000 0.297680
O O15 0.324514 0.290481 0.175869
O O16 0.250000 0.750000 0.000000
#
# Coordination Sequence:
#
# PCOD9218877 Si02
#       8
#     4   8   8   4   8   8   4   4
#     4  11  23  34  55  83 107 148 184 221 273 329
#     4   9  20  31  50  76 113 143 176 221 276 334
#     4  11  18  33  52  82 112 144 173 221 285 328
#     4  11  21  40  51  83 113 148 190 221 273 323
#     4  11  21  35  51  78 111 145 186 225 265 326
#     4  12  23  38  56  78 113 149 186 225 266 319
#     4  11  20  34  54  82 115 140 177 226 277 330
#     4  11  20  32  62  78 115 150 175 228 273 334
#
# _framework density 16.854659999999999
#
# number of rings (size 3 to 8) (size 9 to 14) (size 15 to 20)
#    0.000    1.167    5.833    1.500    3.500    3.667 
#    0.000    0.000    0.000    0.000    0.000    7.000 
#    0.000    0.000    0.000    0.000    0.000    0.000 
#
# Total GULP energy -133854.579157 kJ/mol
# GULP energy per Si atom -5577.274132 kJ/mol
# Density = 1.681630 g / cm^3
# Si number density = 16.854660 Si / 1000 Ang^3
#
#
#
# Elastic Constant Matrix: (Units=GPa)
#
#
# Indices 1 2 3 4 5 6 
#
# 1 59.5267 52.4710 46.6319 0.0000 2.5877 0.0000
# 2 52.4710 208.3767 96.1941 0.0000 18.6737 0.0000
# 3 46.6319 96.1941 151.4677 0.0000 26.0874 0.0000
# 4 0.0000 0.0000 0.0000 33.4945 0.0000 -1.5576
# 5 2.5877 18.6737 26.0874 0.0000 23.1073 0.0000
# 6 0.0000 0.0000 0.0000 -1.5576 0.0000 -18.0687
#
#
#
# Elastic Compliance Matrix: (Units=1/GPa)
#
#
# Indices 1 2 3 4 5 6 
#
# 1 0.025106 -0.004007 -0.006527 0.000000 0.007796 0.000000
# 2 -0.004007 0.007440 -0.003145 0.000000 -0.002014 0.000000
# 3 -0.006527 -0.003145 0.012470 0.000000 -0.010806 0.000000
# 4 0.000000 0.000000 0.000000 0.029736 0.000000 -0.002563
# 5 0.007796 -0.002014 -0.010806 0.000000 0.056230 0.000000
# 6 0.000000 0.000000 0.000000 -0.002563 0.000000 -0.055123
#
#
# Mechanical properties :
#
#
# Convention : Reuss Voigt Hill
#
# Bulk Modulus (GPa) = 56.63190 89.99613 73.31401
# Shear Modulus (GPa) = 45.82874 22.64489 34.23682
#
# Velocity S-wave (km/s) = 5.22011 3.66941 4.51188
# Velocity P-wave (km/s) = 8.36695 8.45364 8.41041
#
# Compressibility (1/GPa) = 0.01765789
#
# Stress axis : x y z
#
# Youngs Moduli (GPa) = 39.83164 134.40517 80.19545
#
# Poissons Ratio (x) = 0.53862 0.52342
# Poissons Ratio (y) = 0.15962 0.25218
# Poissons Ratio (z) = 0.25997 0.42264
#
# Static dielectric constant tensor:
#      x y z
#    x 1.529770 0.000000 0.002180 
#    y 0.000000 1.524940 0.000000 
#    z 0.002180 0.000000 1.561330 
# 
# From -- ./inp_files/319631.got.cif
#   From: 2010.05.17/outbox.cif.g08.bks.cpg/sg12_160_cif.got.tgz:319631.got - 2010.06.03 13:09:07.
