data_PCOD9218264
_publ_section_title
;
Structure prediction by ZEFSAII (Michael W. Deem and Ramdas Pophale) SiO2 
 PCOD9218264
Probable space group: C 2/M
;
_chemical_formula_sum "Si O2"
_cell_formula_units_Z 58
_cell_length_a 21.264524
_cell_length_b 19.154787
_cell_length_c 12.009473
_cell_angle_alpha 90.000000
_cell_angle_beta 141.625534
_cell_angle_gamma 90.000000
_cell_volume 3036.739764
_symmetry_space_group_name_H-M "C 2/M"
_symmetry_group_IT_number 12
_symmetry_cell_setting 'monoclinic'
loop_
_space_group_symop_operation_xyz
x,y,z
-x,y,-z
-x,-y,-z
x,-y,z
1/2+x,1/2+y,z
1/2-x,1/2+y,-z
1/2-x,1/2-y,-z
1/2+x,1/2-y,z
loop_
_atom_site_type_symbol
_atom_site_label
_atom_site_fract_x
_atom_site_fract_y
_atom_site_fract_z
Si Si1 0.500000 0.500000 0.000000
Si Si2 0.385038 0.416096 0.298476
Si Si3 0.660497 0.294604 0.930700
Si Si4 0.233811 0.421449 0.284057
Si Si5 0.132115 0.114580 0.319202
Si Si6 0.242893 0.200796 0.292465
Si Si7 0.100279 0.687023 0.187739
Si Si8 0.059357 0.744750 0.349599
O O1 0.449220 0.561854 0.847192
O O2 0.500000 0.402836 0.500000
O O3 0.377596 0.500000 0.268229
O O4 0.358840 0.368444 0.156789
O O5 0.306197 0.394312 0.285932
O O6 0.555626 0.252266 0.774978
O O7 0.750000 0.250000 0.000000
O O8 0.689419 0.305021 0.099744
O O9 0.210613 0.500000 0.222018
O O10 0.299740 0.418200 0.488475
O O11 0.129723 0.381598 0.162473
O O12 0.206910 0.137834 0.322107
O O13 0.084777 0.183594 0.315223
O O14 0.196770 0.265857 0.296822
O O15 0.359947 0.223411 0.444573
O O16 0.079010 0.683231 0.287553
O O17 0.000000 0.721916 0.000000
#
# Coordination Sequence:
#
# PCOD9218264 Si02
#       8
#     2   8   8   8   8   8   8   8
#     4  12  24  32  56 100 140 158 202 256 318 406
#     4  10  24  44  64  90 131 177 218 261 324 388
#     4  12  26  39  64  98 126 165 225 270 315 385
#     4  11  21  39  63  90 121 162 210 253 315 391
#     4  11  21  37  59  92 127 162 197 257 326 380
#     4  11  22  41  62  93 123 166 210 263 326 383
#     4  11  20  37  64  90 124 156 203 270 329 371
#     4  11  22  40  65  90 128 165 207 267 327 385
#
# _framework density 19.099430000000002
#
# number of rings (size 3 to 8) (size 9 to 14) (size 15 to 20)
#    0.000    0.966    4.828    3.310    3.862    0.276 
#    7.448    0.000    0.000    0.000    0.000    0.966 
#    0.000    0.000    0.000    0.000    0.000    0.000 
#
# Total GULP energy -161454.140291 kJ/mol
# GULP energy per Si atom -5567.384148 kJ/mol
# Density = 1.905596 g / cm^3
# Si number density = 19.099430 Si / 1000 Ang^3
#
#
#
# Elastic Constant Matrix: (Units=GPa)
#
#
# Indices 1 2 3 4 5 6 
#
# 1 84.9686 27.5062 25.6062 0.0000 17.9612 0.0000
# 2 27.5062 52.9471 18.3902 0.0000 9.1494 0.0000
# 3 25.6062 18.3902 98.3768 0.0000 8.0550 0.0000
# 4 0.0000 0.0000 0.0000 29.6530 0.0000 -8.7125
# 5 17.9612 9.1494 8.0550 0.0000 30.0906 0.0000
# 6 0.0000 0.0000 0.0000 -8.7125 0.0000 14.3941
#
#
#
# Elastic Compliance Matrix: (Units=1/GPa)
#
#
# Indices 1 2 3 4 5 6 
#
# 1 0.016007 -0.006265 -0.002422 0.000000 -0.007001 0.000000
# 2 -0.006265 0.023494 -0.002538 0.000000 -0.002725 0.000000
# 3 -0.002422 -0.002538 0.011337 0.000000 -0.000817 0.000000
# 4 0.000000 0.000000 0.000000 0.041018 0.000000 0.024828
# 5 -0.007001 -0.002725 -0.000817 0.000000 0.038459 0.000000
# 6 0.000000 0.000000 0.000000 0.024828 0.000000 0.084500
#
#
# Mechanical properties :
#
#
# Convention : Reuss Voigt Hill
#
# Bulk Modulus (GPa) = 35.22623 42.14420 38.68522
# Shear Modulus (GPa) = 20.26527 25.81354 23.03941
#
# Velocity S-wave (km/s) = 3.26090 3.68031 3.47693
# Velocity P-wave (km/s) = 5.71503 6.33823 6.03468
#
# Compressibility (1/GPa) = 0.02838794
#
# Stress axis : x y z
#
# Youngs Moduli (GPa) = 62.47290 42.56470 88.20818
#
# Poissons Ratio (x) = 0.26665 0.21365
# Poissons Ratio (y) = 0.39136 0.22388
# Poissons Ratio (z) = 0.15131 0.10803
#
# Static dielectric constant tensor:
#      x y z
#    x 1.699320 0.000000 0.005620 
#    y 0.000000 1.719500 0.000000 
#    z 0.005620 0.000000 1.729060 
# 
# From -- ./inp_files/147609.got.cif
#   From: 2010.05.17/outbox.cif.g08.bks.cpg/sg12_74_cif.got.tgz:147609.got - 2010.06.03 13:09:07.
