data_PCOD9218550
_publ_section_title
;
Structure prediction by ZEFSAII (Michael W. Deem and Ramdas Pophale) SiO2 
 PCOD9218550
Probable space group: C 2/M
;
_chemical_formula_sum "Si O2"
_cell_formula_units_Z 30
_cell_length_a 12.488419
_cell_length_b 26.870869
_cell_length_c 5.057648
_cell_angle_alpha 90.000000
_cell_angle_beta 53.331505
_cell_angle_gamma 90.000000
_cell_volume 1361.346031
_symmetry_space_group_name_H-M "C 2/M"
_symmetry_group_IT_number 12
_symmetry_cell_setting 'monoclinic'
loop_
_space_group_symop_operation_xyz
x,y,z
-x,y,-z
-x,-y,-z
x,-y,z
1/2+x,1/2+y,z
1/2-x,1/2+y,-z
1/2-x,1/2-y,-z
1/2+x,1/2-y,z
loop_
_atom_site_type_symbol
_atom_site_label
_atom_site_fract_x
_atom_site_fract_y
_atom_site_fract_z
Si Si1 0.595224 0.000000 0.608709
Si Si2 0.000000 0.225781 0.500000
Si Si3 0.193428 0.082434 0.853818
Si Si4 0.000000 0.702301 0.000000
Si Si5 0.000000 0.000000 0.000000
Si Si6 0.224048 0.147417 0.320862
O O1 0.500000 0.000000 0.500000
O O2 0.690313 0.048119 0.446940
O O3 0.500000 0.000000 0.000000
O O4 0.990864 0.261802 0.762872
O O5 0.128054 0.190632 0.353218
O O6 0.163277 0.123577 0.675992
O O7 0.073693 0.043821 0.066110
O O8 0.234229 0.107342 0.069187
O O9 0.867809 0.668750 0.189369
#
# Coordination Sequence:
#
# PCOD9218550 Si02
#       6
#     4   4   8   4   2   8
#     4  11  24  41  64  93 138 170 214 263 333 398
#     4  12  24  46  68  97 134 183 226 280 344 404
#     4  11  25  42  69  99 133 177 219 281 324 401
#     4  12  26  43  68  97 140 175 224 287 346 398
#     4  10  24  48  68 100 138 176 226 270 338 388
#     4  12  25  43  70 101 134 176 232 276 337 407
#
# _framework density 22.037012000000001
#
# number of rings (size 3 to 8) (size 9 to 14) (size 15 to 20)
#    0.000    0.533    0.000    8.000    5.600    4.267 
#    0.000    0.000    0.000    0.000    0.000    0.000 
#    0.000    0.000    0.000    0.000    0.000    0.000 
#
# Total GULP energy -83736.471479 kJ/mol
# GULP energy per Si atom -5582.431432 kJ/mol
# Density = 2.198685 g / cm^3
# Si number density = 22.037012 Si / 1000 Ang^3
#
#
#
# Elastic Constant Matrix: (Units=GPa)
#
#
# Indices 1 2 3 4 5 6 
#
# 1 112.9587 47.4604 9.1505 0.0000 6.6272 0.0000
# 2 47.4604 102.0182 3.0668 0.0000 3.4361 0.0000
# 3 9.1505 3.0668 44.9838 0.0000 24.3833 0.0000
# 4 0.0000 0.0000 0.0000 30.8547 0.0000 10.2892
# 5 6.6272 3.4361 24.3833 0.0000 50.8834 0.0000
# 6 0.0000 0.0000 0.0000 10.2892 0.0000 224.5041
#
#
#
# Elastic Compliance Matrix: (Units=1/GPa)
#
#
# Indices 1 2 3 4 5 6 
#
# 1 0.011169 -0.005134 -0.001785 0.000000 -0.000253 0.000000
# 2 -0.005134 0.012190 0.000401 0.000000 -0.000347 0.000000
# 3 -0.001785 0.000401 0.030334 0.000000 -0.014331 0.000000
# 4 0.000000 0.000000 0.000000 0.032913 0.000000 -0.001508
# 5 -0.000253 -0.000347 -0.014331 0.000000 0.026576 0.000000
# 6 0.000000 0.000000 0.000000 -0.001508 0.000000 0.004523
#
#
# Mechanical properties :
#
#
# Convention : Reuss Voigt Hill
#
# Bulk Modulus (GPa) = 24.59558 42.14621 33.37089
# Shear Modulus (GPa) = 34.65146 74.60065 54.62606
#
# Velocity S-wave (km/s) = 3.96968 5.82460 4.98419
# Velocity P-wave (km/s) = 5.67419 8.02504 6.94974
#
# Compressibility (1/GPa) = 0.04065772
#
# Stress axis : x y z
#
# Youngs Moduli (GPa) = 89.53128 82.03326 32.96650
#
# Poissons Ratio (x) = 0.42115 0.05885
# Poissons Ratio (y) = 0.45965 -0.01323
# Poissons Ratio (z) = 0.15982 -0.03292
#
# Static dielectric constant tensor:
#      x y z
#    x 1.773320 0.000000 -0.049800 
#    y 0.000000 1.827650 0.000000 
#    z -0.049800 0.000000 1.800680 
# 
# From -- ./inp_files/7377.got.cif
#   From: 2010.05.17/outbox.cif.g08.bks.cpg/sg12_4_cif.got.tgz:7377.got - 2010.06.03 13:09:07.
