data_PCOD9218363
_publ_section_title
;
Structure prediction by ZEFSAII (Michael W. Deem and Ramdas Pophale) SiO2 
 PCOD9218363
Probable space group: C 2/M
;
_chemical_formula_sum "Si O2"
_cell_formula_units_Z 38
_cell_length_a 14.694155
_cell_length_b 10.852778
_cell_length_c 14.935128
_cell_angle_alpha 90.000000
_cell_angle_beta 38.470445
_cell_angle_gamma 90.000000
_cell_volume 1481.706778
_symmetry_space_group_name_H-M "C 2/M"
_symmetry_group_IT_number 12
_symmetry_cell_setting 'monoclinic'
loop_
_space_group_symop_operation_xyz
x,y,z
-x,y,-z
-x,-y,-z
x,-y,z
1/2+x,1/2+y,z
1/2-x,1/2+y,-z
1/2-x,1/2-y,-z
1/2+x,1/2-y,z
loop_
_atom_site_type_symbol
_atom_site_label
_atom_site_fract_x
_atom_site_fract_y
_atom_site_fract_z
Si Si1 0.805005 0.500000 0.852953
Si Si2 0.153351 0.000000 0.145441
Si Si3 0.057810 0.648621 0.856727
Si Si4 0.500000 0.500000 0.000000
Si Si5 0.949852 0.247838 0.750866
Si Si6 0.173121 0.000000 0.685309
Si Si7 0.647980 0.753769 0.443813
O O1 0.886502 0.376297 0.762409
O O2 0.786014 0.500000 0.974301
O O3 0.634724 0.500000 0.965303
O O4 0.162582 0.863648 0.178875
O O5 0.980352 0.000000 0.250179
O O6 0.043371 0.500000 0.866668
O O7 0.228161 0.675704 0.702767
O O8 0.980782 0.723282 0.832700
O O9 0.000000 0.693810 0.000000
O O10 0.379862 0.500000 0.172478
O O11 0.091947 0.211794 0.584358
O O12 0.276514 0.883514 0.595963
O O13 0.500000 0.758614 0.500000
#
# Coordination Sequence:
#
# PCOD9218363 Si02
#       7
#     4   4   8   2   8   4   8
#     4  11  24  46  78 108 157 203 259 325 393 474
#     4  11  26  42  74 115 150 198 264 322 394 472
#     4  11  27  50  79 110 155 212 269 325 396 477
#     4  10  24  44  74 116 150 194 268 334 388 470
#     4  12  25  49  78 112 154 209 262 326 399 473
#     4  11  23  41  70 107 145 196 250 329 387 466
#     4  12  27  45  75 111 157 203 264 328 401 470
#
# _framework density 25.646101999999999
#
# number of rings (size 3 to 8) (size 9 to 14) (size 15 to 20)
#    0.000    0.632    3.158    3.474    2.947    3.789 
#    0.000    0.000    0.000    0.632    0.000    0.000 
#    0.000    0.000    0.000    0.000    0.000    0.000 
#
# Total GULP energy -105997.451360 kJ/mol
# GULP energy per Si atom -5578.813229 kJ/mol
# Density = 2.558773 g / cm^3
# Si number density = 25.646102 Si / 1000 Ang^3
#
#
#
# Elastic Constant Matrix: (Units=GPa)
#
#
# Indices 1 2 3 4 5 6 
#
# 1 102.0315 39.2193 51.8210 0.0000 -5.3598 0.0000
# 2 39.2193 119.7992 33.5041 0.0000 15.1281 0.0000
# 3 51.8210 33.5041 188.2604 0.0000 30.8508 0.0000
# 4 0.0000 0.0000 0.0000 31.2183 0.0000 6.2428
# 5 -5.3598 15.1281 30.8508 0.0000 57.8291 0.0000
# 6 0.0000 0.0000 0.0000 6.2428 0.0000 10.6181
#
#
#
# Elastic Compliance Matrix: (Units=1/GPa)
#
#
# Indices 1 2 3 4 5 6 
#
# 1 0.013388 -0.003886 -0.003686 0.000000 0.004224 0.000000
# 2 -0.003886 0.010050 -0.000251 0.000000 -0.002855 0.000000
# 3 -0.003686 -0.000251 0.007031 0.000000 -0.004027 0.000000
# 4 0.000000 0.000000 0.000000 0.036300 0.000000 -0.021343
# 5 0.004224 -0.002855 -0.004027 0.000000 0.020579 0.000000
# 6 0.000000 0.000000 0.000000 -0.021343 0.000000 0.106727
#
#
# Mechanical properties :
#
#
# Convention : Reuss Voigt Hill
#
# Bulk Modulus (GPa) = 67.45740 73.24221 70.34980
# Shear Modulus (GPa) = 23.29235 38.96956 31.13095
#
# Velocity S-wave (km/s) = 3.01694 3.90232 3.48784
# Velocity P-wave (km/s) = 6.20453 6.99464 6.61140
#
# Compressibility (1/GPa) = 0.01482417
#
# Stress axis : x y z
#
# Youngs Moduli (GPa) = 74.69162 99.50122 142.22759
#
# Poissons Ratio (x) = 0.38662 0.52425
# Poissons Ratio (y) = 0.29022 0.03572
# Poissons Ratio (z) = 0.27531 0.02499
#
# Static dielectric constant tensor:
#      x y z
#    x 2.142700 0.000000 0.042100 
#    y 0.000000 2.029740 0.000000 
#    z 0.042100 0.000000 1.965750 
# 
# From -- ./inp_files/277209.got.cif
#   From: 2010.05.17/outbox.cif.g08.bks.cpg/sg12_139_cif.got.tgz:277209.got - 2010.06.03 13:09:07.
