data_PCOD9218651
_publ_section_title
;
Structure prediction by ZEFSAII (Michael W. Deem and Ramdas Pophale) SiO2 
 PCOD9218651
Probable space group: C 2/M
;
_chemical_formula_sum "Si O2"
_cell_formula_units_Z 44
_cell_length_a 10.100924
_cell_length_b 7.507970
_cell_length_c 24.274519
_cell_angle_alpha 90.000000
_cell_angle_beta 73.343038
_cell_angle_gamma 90.000000
_cell_volume 1763.668814
_symmetry_space_group_name_H-M "C 2/M"
_symmetry_group_IT_number 12
_symmetry_cell_setting 'monoclinic'
loop_
_space_group_symop_operation_xyz
x,y,z
-x,y,-z
-x,-y,-z
x,-y,z
1/2+x,1/2+y,z
1/2-x,1/2+y,-z
1/2-x,1/2-y,-z
1/2+x,1/2-y,z
loop_
_atom_site_type_symbol
_atom_site_label
_atom_site_fract_x
_atom_site_fract_y
_atom_site_fract_z
Si Si1 0.535464 0.291566 0.336625
Si Si2 0.861862 0.709900 0.552486
Si Si3 0.220634 0.704960 0.770878
Si Si4 0.095597 0.211404 0.037229
Si Si5 0.669331 0.000000 0.602668
Si Si6 0.425029 0.207152 0.833573
O O1 0.503747 0.500000 0.328550
O O2 0.594572 0.279634 0.391680
O O3 0.659129 0.223980 0.282811
O O4 0.407518 0.157813 0.351760
O O5 0.828479 0.500000 0.560369
O O6 0.000000 0.729032 0.500000
O O7 0.738044 0.843737 0.554570
O O8 0.205082 0.500000 0.755839
O O9 0.289083 0.708641 0.823349
O O10 0.067607 0.784509 0.791500
O O11 0.069422 0.280917 0.101481
O O12 0.072957 0.000000 0.043452
O O13 0.250000 0.250000 0.000000
O O14 0.000000 0.284189 0.000000
O O15 0.417263 0.000000 0.819908
#
# Coordination Sequence:
#
# PCOD9218651 Si02
#       6
#     8   8   8   8   4   8
#     4  11  25  45  69 102 132 180 233 284 352 418
#     4  11  25  47  69 100 139 178 230 290 350 423
#     4  10  25  44  67  97 136 176 228 283 339 411
#     4  11  24  42  66  97 134 175 222 274 333 399
#     4  12  25  44  73  96 138 182 223 290 353 414
#     4  11  24  42  68 100 133 177 224 277 338 403
#
# _framework density 24.947994000000001
#
# number of rings (size 3 to 8) (size 9 to 14) (size 15 to 20)
#    0.000    1.091    1.818    3.000    3.818    6.545 
#    0.000    0.000    0.000    0.000    0.000    0.000 
#    0.000    0.000    0.000    0.000    0.000    0.000 
#
# Total GULP energy -122691.449651 kJ/mol
# GULP energy per Si atom -5576.884075 kJ/mol
# Density = 2.489121 g / cm^3
# Si number density = 24.947994 Si / 1000 Ang^3
#
#
#
# Elastic Constant Matrix: (Units=GPa)
#
#
# Indices 1 2 3 4 5 6 
#
# 1 96.3597 9.3168 10.3163 0.0000 -10.0030 0.0000
# 2 9.3168 155.3807 19.0626 0.0000 -23.1398 0.0000
# 3 10.3163 19.0626 103.1560 0.0000 -12.5901 0.0000
# 4 0.0000 0.0000 0.0000 37.9698 0.0000 -2.7915
# 5 -10.0030 -23.1398 -12.5901 0.0000 48.6325 0.0000
# 6 0.0000 0.0000 0.0000 -2.7915 0.0000 17.5429
#
#
#
# Elastic Compliance Matrix: (Units=1/GPa)
#
#
# Indices 1 2 3 4 5 6 
#
# 1 0.010682 -0.000266 -0.000791 0.000000 0.001866 0.000000
# 2 -0.000266 0.007016 -0.000898 0.000000 0.003051 0.000000
# 3 -0.000791 -0.000898 0.010189 0.000000 0.002048 0.000000
# 4 0.000000 0.000000 0.000000 0.026648 0.000000 0.004240
# 5 0.001866 0.003051 0.002048 0.000000 0.022928 0.000000
# 6 0.000000 0.000000 0.000000 0.004240 0.000000 0.057678
#
#
# Mechanical properties :
#
#
# Convention : Reuss Voigt Hill
#
# Bulk Modulus (GPa) = 41.70484 48.03197 44.86840
# Shear Modulus (GPa) = 34.00354 41.90910 37.95632
#
# Velocity S-wave (km/s) = 3.69586 4.10305 3.90477
# Velocity P-wave (km/s) = 5.91316 6.46076 6.19301
#
# Compressibility (1/GPa) = 0.02397803
#
# Stress axis : x y z
#
# Youngs Moduli (GPa) = 93.61643 142.52583 98.14483
#
# Poissons Ratio (x) = 0.03784 0.07768
# Poissons Ratio (y) = 0.02486 0.08809
# Poissons Ratio (z) = 0.07409 0.12793
#
# Static dielectric constant tensor:
#      x y z
#    x 2.087820 0.000000 0.055430 
#    y 0.000000 1.980960 0.000000 
#    z 0.055430 0.000000 1.964790 
# 
# From -- ./inp_files/303656.got.cif
#   From: 2010.05.17/outbox.cif.g08.bks.cpg/sg12_152_cif.got.tgz:303656.got - 2010.06.03 13:09:07.
