data_PCOD9218011
_publ_section_title
;
Structure prediction by ZEFSAII (Michael W. Deem and Ramdas Pophale) SiO2 
 PCOD9218011
Probable space group: C 2/M
;
_chemical_formula_sum "Si O2"
_cell_formula_units_Z 38
_cell_length_a 21.500741
_cell_length_b 13.538801
_cell_length_c 19.516858
_cell_angle_alpha 90.000000
_cell_angle_beta 160.302451
_cell_angle_gamma 90.000000
_cell_volume 1914.892014
_symmetry_space_group_name_H-M "C 2/M"
_symmetry_group_IT_number 12
_symmetry_cell_setting 'monoclinic'
loop_
_space_group_symop_operation_xyz
x,y,z
-x,y,-z
-x,-y,-z
x,-y,z
1/2+x,1/2+y,z
1/2-x,1/2+y,-z
1/2-x,1/2-y,-z
1/2+x,1/2-y,z
loop_
_atom_site_type_symbol
_atom_site_label
_atom_site_fract_x
_atom_site_fract_y
_atom_site_fract_z
Si Si1 0.414026 0.384275 0.126976
Si Si2 0.000000 0.000000 0.000000
Si Si3 0.955187 0.270557 0.284522
Si Si4 0.666030 0.664204 0.259117
Si Si5 0.850688 0.892703 0.284966
Si Si6 0.000000 0.336022 0.000000
O O1 0.425932 0.500000 0.158184
O O2 0.500640 0.305609 0.270013
O O3 0.518099 0.370579 0.162611
O O4 0.201945 0.348260 0.900371
O O5 0.145294 0.085978 0.176813
O O6 0.870126 0.198504 0.254099
O O7 0.135082 0.324478 0.500073
O O8 0.609146 0.768120 0.167419
O O9 0.652228 0.892444 0.114671
O O10 0.000000 0.881511 0.500000
O O11 0.882332 0.000000 0.284085
#
# Coordination Sequence:
#
# PCOD9218011 Si02
#       6
#     8   2   8   8   8   4
#     4  11  24  43  65  92 128 171 222 267 316 393
#     4  10  24  40  68 100 130 166 220 260 322 402
#     4  11  24  42  66  92 129 172 214 269 328 377
#     4  11  22  42  64  94 131 167 210 271 326 384
#     4  11  22  39  62  91 125 165 216 265 322 390
#     4  11  21  39  63  92 128 164 204 268 330 382
#
# _framework density 19.844459000000001
#
# number of rings (size 3 to 8) (size 9 to 14) (size 15 to 20)
#    0.000    1.053    5.263    1.579    1.474    0.000 
#    0.000    1.053    0.000    0.000    0.000    0.000 
#    0.000    0.000    0.000    0.000    0.000    0.000 
#
# Total GULP energy -105827.413479 kJ/mol
# GULP energy per Si atom -5569.863867 kJ/mol
# Density = 1.979929 g / cm^3
# Si number density = 19.844459 Si / 1000 Ang^3
#
#
#
# Elastic Constant Matrix: (Units=GPa)
#
#
# Indices 1 2 3 4 5 6 
#
# 1 34.2296 1.2868 -14.6638 0.0004 3.3688 -0.0016
# 2 1.2868 95.4447 23.9109 0.0001 -2.2459 -0.0052
# 3 -14.6638 23.9109 102.1465 0.0003 -8.3857 -0.0005
# 4 0.0004 0.0001 0.0003 8.3537 0.0003 9.5387
# 5 3.3688 -2.2459 -8.3857 0.0003 22.0595 -0.0010
# 6 -0.0016 -0.0052 -0.0005 9.5387 -0.0010 6.3861
#
#
#
# Elastic Compliance Matrix: (Units=1/GPa)
#
#
# Indices 1 2 3 4 5 6 
#
# 1 0.031591 -0.001670 0.004661 0.000012 -0.003222 -0.000012
# 2 -0.001670 0.011219 -0.002840 0.000014 0.000318 -0.000012
# 3 0.004661 -0.002840 0.011397 0.000002 0.003332 -0.000002
# 4 0.000012 0.000014 0.000002 -0.169670 0.000014 0.253428
# 5 -0.003222 0.000318 0.003332 0.000014 0.047123 -0.000014
# 6 -0.000012 -0.000012 -0.000002 0.253428 -0.000014 -0.221945
#
#
# Mechanical properties :
#
#
# Convention : Reuss Voigt Hill
#
# Bulk Modulus (GPa) = 18.34472 28.09874 23.22173
# Shear Modulus (GPa) = -18.35413 22.11231 1.87909
#
# Velocity S-wave (km/s) = -3.04451 3.34171 0.97415
# Velocity P-wave (km/s) = 1.75910 5.39255 3.60452
#
# Compressibility (1/GPa) = 0.05451159
#
# Stress axis : x y z
#
# Youngs Moduli (GPa) = 31.65426 89.13717 87.74023
#
# Poissons Ratio (x) = 0.14882 -0.40899
# Poissons Ratio (y) = 0.05285 0.24916
# Poissons Ratio (z) = -0.14755 0.25312
#
# Static dielectric constant tensor:
#      x y z
#    x 1.732020 0.000000 -0.023970 
#    y 0.000000 1.663860 0.000000 
#    z -0.023970 0.000000 1.672320 
# 
# From -- ./inp_files/284439.got.cif
#   From: 2010.05.17/outbox.cif.g08.bks.cpg/sg12_143_cif.got.tgz:284439.got - 2010.06.03 13:09:07.
