data_PCOD9218657
_publ_section_title
;
Structure prediction by ZEFSAII (Michael W. Deem and Ramdas Pophale) SiO2 
 PCOD9218657
Probable space group: C 2/M
;
_chemical_formula_sum "Si O2"
_cell_formula_units_Z 52
_cell_length_a 28.700958
_cell_length_b 15.387478
_cell_length_c 6.523229
_cell_angle_alpha 90.000000
_cell_angle_beta 68.563319
_cell_angle_gamma 90.000000
_cell_volume 2681.594561
_symmetry_space_group_name_H-M "C 2/M"
_symmetry_group_IT_number 12
_symmetry_cell_setting 'monoclinic'
loop_
_space_group_symop_operation_xyz
x,y,z
-x,y,-z
-x,-y,-z
x,-y,z
1/2+x,1/2+y,z
1/2-x,1/2+y,-z
1/2-x,1/2-y,-z
1/2+x,1/2-y,z
loop_
_atom_site_type_symbol
_atom_site_label
_atom_site_fract_x
_atom_site_fract_y
_atom_site_fract_z
Si Si1 0.345088 0.347306 0.680397
Si Si2 0.649454 0.099190 0.858515
Si Si3 0.588586 0.729505 0.074994
Si Si4 0.790218 0.302834 0.565725
Si Si5 0.500000 0.686166 0.500000
Si Si6 0.933479 0.098106 0.262323
Si Si7 0.757334 0.404829 0.988354
O O1 0.369597 0.322693 0.859523
O O2 0.333839 0.258924 0.577755
O O3 0.382842 0.400072 0.478504
O O4 0.291467 0.391296 0.796419
O O5 0.681954 0.122322 0.605031
O O6 0.691421 0.102267 0.968638
O O7 0.629434 0.000000 0.881372
O O8 0.610710 0.178031 0.963553
O O9 0.542948 0.739422 0.310755
O O10 0.571794 0.668183 0.912373
O O11 0.750000 0.250000 0.500000
O O12 0.759249 0.335229 0.808580
O O13 0.474660 0.628416 0.362353
O O14 0.942447 0.000000 0.172177
O O15 0.754561 0.500000 0.898115
#
# Coordination Sequence:
#
# PCOD9218657 Si02
#       7
#     8   8   8   8   4   8   8
#     4  11  22  38  59  89 129 166 208 250 301 361
#     4  11  23  40  63  92 126 168 214 255 304 364
#     4  11  23  43  65  92 122 162 203 257 319 373
#     4  12  21  37  59  85 124 174 214 255 302 348
#     4  10  25  44  69  92 122 152 203 256 323 380
#     4  11  24  42  67  95 126 162 200 251 313 379
#     4  11  23  37  56  89 129 169 212 253 297 355
#
# _framework density 19.391446999999999
#
# number of rings (size 3 to 8) (size 9 to 14) (size 15 to 20)
#    0.000    0.923    4.615    3.000    0.000    4.308 
#    0.000    0.385    0.000    1.846    0.000    0.000 
#    0.000    0.000    0.000    0.000    0.000    0.000 
#
# Total GULP energy -145167.589146 kJ/mol
# GULP energy per Si atom -5583.368813 kJ/mol
# Density = 1.934731 g / cm^3
# Si number density = 19.391447 Si / 1000 Ang^3
#
#
#
# Elastic Constant Matrix: (Units=GPa)
#
#
# Indices 1 2 3 4 5 6 
#
# 1 78.8243 43.9924 34.7208 0.0000 2.3617 0.0000
# 2 43.9924 113.9466 46.5217 0.0000 -0.8681 0.0000
# 3 34.7208 46.5217 76.6019 0.0000 -3.9181 0.0000
# 4 0.0000 0.0000 0.0000 22.6354 0.0000 5.2203
# 5 2.3617 -0.8681 -3.9181 0.0000 49.5642 0.0000
# 6 0.0000 0.0000 0.0000 5.2203 0.0000 11.8589
#
#
#
# Elastic Compliance Matrix: (Units=1/GPa)
#
#
# Indices 1 2 3 4 5 6 
#
# 1 0.017642 -0.004692 -0.005215 0.000000 -0.001335 0.000000
# 2 -0.004692 0.012924 -0.005722 0.000000 -0.000002 0.000000
# 3 -0.005215 -0.005722 0.018978 0.000000 0.001649 0.000000
# 4 0.000000 0.000000 0.000000 0.049170 0.000000 -0.021645
# 5 -0.001335 -0.000002 0.001649 0.000000 0.020370 0.000000
# 6 0.000000 0.000000 0.000000 -0.021645 0.000000 0.093853
#
#
# Mechanical properties :
#
#
# Convention : Reuss Voigt Hill
#
# Bulk Modulus (GPa) = 54.69027 57.76027 56.22527
# Shear Modulus (GPa) = 19.97673 26.42090 23.19882
#
# Velocity S-wave (km/s) = 3.21313 3.69521 3.46257
# Velocity P-wave (km/s) = 6.48306 6.93234 6.71146
#
# Compressibility (1/GPa) = 0.01828479
#
# Stress axis : x y z
#
# Youngs Moduli (GPa) = 56.68139 77.37634 52.69290
#
# Poissons Ratio (x) = 0.36307 0.27481
# Poissons Ratio (y) = 0.26597 0.30152
# Poissons Ratio (z) = 0.29561 0.44276
#
# Static dielectric constant tensor:
#      x y z
#    x 1.688300 0.000000 -0.013980 
#    y 0.000000 1.565400 0.000000 
#    z -0.013980 0.000000 1.697950 
# 
# From -- ./inp_files/31443.got.cif
#   From: 2010.05.17/outbox.cif.g08.bks.cpg/sg12_16_cif.got.tgz:31443.got - 2010.06.03 13:09:07.
