data_PCOD9218581
_publ_section_title
;
Structure prediction by ZEFSAII (Michael W. Deem and Ramdas Pophale) SiO2 
 PCOD9218581
Probable space group: C 2/M
;
_chemical_formula_sum "Si O2"
_cell_formula_units_Z 40
_cell_length_a 15.654128
_cell_length_b 14.820722
_cell_length_c 12.808526
_cell_angle_alpha 90.000000
_cell_angle_beta 28.438903
_cell_angle_gamma 90.000000
_cell_volume 1415.162377
_symmetry_space_group_name_H-M "C 2/M"
_symmetry_group_IT_number 12
_symmetry_cell_setting 'monoclinic'
loop_
_space_group_symop_operation_xyz
x,y,z
-x,y,-z
-x,-y,-z
x,-y,z
1/2+x,1/2+y,z
1/2-x,1/2+y,-z
1/2-x,1/2-y,-z
1/2+x,1/2-y,z
loop_
_atom_site_type_symbol
_atom_site_label
_atom_site_fract_x
_atom_site_fract_y
_atom_site_fract_z
Si Si1 0.139954 0.351366 0.770556
Si Si2 0.538140 0.400974 0.335889
Si Si3 0.928872 0.098839 0.192928
Si Si4 0.514635 0.893686 0.678385
Si Si5 0.266412 0.732143 0.127994
O O1 0.331661 0.387653 0.522678
O O2 0.947536 0.179548 0.898913
O O3 0.195677 0.270384 0.793467
O O4 0.000000 0.400957 0.000000
O O5 0.500000 0.399540 0.500000
O O6 0.613632 0.500000 0.233020
O O7 0.675024 0.319566 0.171949
O O8 0.718201 0.113408 0.419351
O O9 0.964213 0.000000 0.202630
O O10 0.000000 0.091884 0.000000
O O11 0.384816 0.842648 0.737041
O O12 0.471380 0.000000 0.731179
O O13 0.531647 0.852019 0.777413
#
# Coordination Sequence:
#
# PCOD9218581 Si02
#       5
#     8   8   8   8   8
#     4  11  26  49  80 120 164 224 277 355 430 509
#     4   9  21  43  71 108 157 216 269 335 417 499
#     4  10  24  48  81 121 168 222 284 350 424 512
#     4  11  27  52  85 123 168 224 287 350 426 518
#     4  11  25  48  82 117 168 220 279 350 426 507
#
# _framework density 28.265308000000001
#
# number of rings (size 3 to 8) (size 9 to 14) (size 15 to 20)
#    0.000    1.600    0.000    1.800   11.200    4.000 
#   10.800    3.000    0.000    1.800    0.000    0.000 
#    0.000    0.000    0.000    0.000    0.000    0.000 
#
# Total GULP energy -111681.572020 kJ/mol
# GULP energy per Si atom -5584.078601 kJ/mol
# Density = 2.820097 g / cm^3
# Si number density = 28.265308 Si / 1000 Ang^3
#
#
#
# Elastic Constant Matrix: (Units=GPa)
#
#
# Indices 1 2 3 4 5 6 
#
# 1 199.9780 68.7638 48.1034 -0.0003 -12.2539 0.0003
# 2 68.7638 300.2226 82.4818 0.0000 -44.5560 0.0000
# 3 48.1034 82.4818 213.0384 -0.0003 -39.8408 0.0002
# 4 -0.0003 0.0000 -0.0003 22.0351 0.0002 -6.7949
# 5 -12.2539 -44.5560 -39.8408 0.0002 66.1082 -0.0002
# 6 0.0003 0.0000 0.0002 -6.7949 -0.0002 32.2841
#
#
#
# Elastic Compliance Matrix: (Units=1/GPa)
#
#
# Indices 1 2 3 4 5 6 
#
# 1 0.005566 -0.001064 -0.000886 0.000000 -0.000219 0.000000
# 2 -0.001064 0.004143 -0.000990 0.000000 0.001999 0.000000
# 3 -0.000886 -0.000990 0.005772 0.000000 0.002647 0.000000
# 4 0.000000 0.000000 0.000000 0.048532 0.000000 0.010215
# 5 -0.000219 0.001999 0.002647 0.000000 0.018028 0.000000
# 6 0.000000 0.000000 0.000000 0.010215 0.000000 0.033125
#
#
# Mechanical properties :
#
#
# Convention : Reuss Voigt Hill
#
# Bulk Modulus (GPa) = 104.14820 123.54857 113.84839
# Shear Modulus (GPa) = 40.24218 58.34479 49.29349
#
# Velocity S-wave (km/s) = 3.77733 4.54826 4.18060
# Velocity P-wave (km/s) = 7.48004 8.44911 7.97930
#
# Compressibility (1/GPa) = 0.00960170
#
# Stress axis : x y z
#
# Youngs Moduli (GPa) = 179.65976 241.35981 173.23731
#
# Poissons Ratio (x) = 0.25682 0.15346
# Poissons Ratio (y) = 0.19117 0.17152
# Poissons Ratio (z) = 0.15915 0.23897
#
# Static dielectric constant tensor:
#      x y z
#    x 2.345740 0.000000 0.014770 
#    y 0.000000 2.212280 0.000000 
#    z 0.014770 0.000000 2.253400 
# 
# From -- ./inp_files/84552.got.cif
#   From: 2010.05.17/outbox.cif.g08.bks.cpg/sg12_43_cif.got.tgz:84552.got - 2010.06.03 13:09:07.
