data_PCOD9218387
_publ_section_title
;
Structure prediction by ZEFSAII (Michael W. Deem and Ramdas Pophale) SiO2 
 PCOD9218387
Probable space group: C 2/M
;
_chemical_formula_sum "Si O2"
_cell_formula_units_Z 48
_cell_length_a 28.758701
_cell_length_b 20.783827
_cell_length_c 12.384424
_cell_angle_alpha 90.000000
_cell_angle_beta 160.749963
_cell_angle_gamma 90.000000
_cell_volume 2440.495573
_symmetry_space_group_name_H-M "C 2/M"
_symmetry_group_IT_number 12
_symmetry_cell_setting 'monoclinic'
loop_
_space_group_symop_operation_xyz
x,y,z
-x,y,-z
-x,-y,-z
x,-y,z
1/2+x,1/2+y,z
1/2-x,1/2+y,-z
1/2-x,1/2-y,-z
1/2+x,1/2-y,z
loop_
_atom_site_type_symbol
_atom_site_label
_atom_site_fract_x
_atom_site_fract_y
_atom_site_fract_z
Si Si1 0.164864 0.568568 0.373675
Si Si2 0.215356 0.132987 0.174305
Si Si3 0.862413 0.117572 0.633487
Si Si4 0.332736 0.682394 0.161758
Si Si5 0.646372 0.237999 0.371131
Si Si6 0.600611 0.576084 0.515489
O O1 0.228059 0.500000 0.482166
O O2 0.193673 0.581164 0.562137
O O3 0.238694 0.615193 0.450375
O O4 0.000000 0.567923 0.000000
O O5 0.267919 0.196296 0.354249
O O6 0.232170 0.148427 0.086320
O O7 0.057182 0.105831 0.843071
O O8 0.890703 0.191781 0.662898
O O9 0.834096 0.080171 0.461260
O O10 0.000000 0.094217 0.000000
O O11 0.500000 0.694922 0.500000
O O12 0.329314 0.628040 0.248794
O O13 0.250000 0.750000 0.000000
O O14 0.750000 0.250000 0.500000
O O15 0.500000 0.211134 0.000000
O O16 0.597442 0.500000 0.543032
#
# Coordination Sequence:
#
# PCOD9218387 Si02
#       6
#     8   8   8   8   8   8
#     4  11  23  38  56  89 128 163 201 251 318 381
#     4  11  21  38  62  89 122 162 207 258 314 368
#     4  11  21  37  62  91 124 167 205 263 319 379
#     4  10  24  45  67  94 125 168 215 268 319 374
#     4  11  21  35  57  90 128 156 207 257 316 374
#     4  11  23  41  66  96 126 166 219 266 316 381
#
# _framework density 19.668137000000002
#
# number of rings (size 3 to 8) (size 9 to 14) (size 15 to 20)
#    0.000    1.167    3.333    3.500    0.000    5.667 
#    3.000    0.000    0.000    0.500    0.000    0.000 
#    0.000    0.000    0.000    0.000    0.000    0.000 
#
# Total GULP energy -133675.362344 kJ/mol
# GULP energy per Si atom -5569.806764 kJ/mol
# Density = 1.962337 g / cm^3
# Si number density = 19.668137 Si / 1000 Ang^3
#
#
#
# Elastic Constant Matrix: (Units=GPa)
#
#
# Indices 1 2 3 4 5 6 
#
# 1 114.4638 42.2000 57.8542 0.0000 -23.6621 0.0000
# 2 42.2000 144.4069 36.6579 0.0000 -14.7769 0.0000
# 3 57.8542 36.6579 99.3677 0.0000 -17.7002 0.0000
# 4 0.0000 0.0000 0.0000 -1.8371 0.0000 10.9500
# 5 -23.6621 -14.7769 -17.7002 0.0000 37.5357 0.0000
# 6 0.0000 0.0000 0.0000 10.9500 0.0000 23.1769
#
#
#
# Elastic Compliance Matrix: (Units=1/GPa)
#
#
# Indices 1 2 3 4 5 6 
#
# 1 0.013666 -0.001872 -0.006401 0.000000 0.004860 0.000000
# 2 -0.001872 0.008014 -0.001654 0.000000 0.001195 0.000000
# 3 -0.006401 -0.001654 0.014810 0.000000 0.002298 0.000000
# 4 0.000000 0.000000 0.000000 -0.142645 0.000000 0.067393
# 5 0.004860 0.001195 0.002298 0.000000 0.031259 0.000000
# 6 0.000000 0.000000 0.000000 0.067393 0.000000 0.011306
#
#
# Mechanical properties :
#
#
# Convention : Reuss Voigt Hill
#
# Bulk Modulus (GPa) = 60.10476 70.18475 65.14475
# Shear Modulus (GPa) = -130.91771 26.54353 -52.18709
#
# Velocity S-wave (km/s) = -8.16749 3.67764 -5.15669
# Velocity P-wave (km/s) = 7.63662 7.33453 1.50378
#
# Compressibility (1/GPa) = 0.01663762
#
# Stress axis : x y z
#
# Youngs Moduli (GPa) = 73.17349 124.78259 67.52361
#
# Poissons Ratio (x) = 0.23354 0.43219
# Poissons Ratio (y) = 0.13695 0.11168
# Poissons Ratio (z) = 0.46836 0.20638
#
# Static dielectric constant tensor:
#      x y z
#    x 1.716110 0.000000 -0.111520 
#    y 0.000000 1.799220 0.000000 
#    z -0.111520 0.000000 2.196410 
# 
# From -- ./inp_files/184832.got.cif
#   From: 2010.05.17/outbox.cif.g08.bks.cpg/sg12_93_cif.got.tgz:184832.got - 2010.06.03 13:09:07.
