data_PCOD9218823
_publ_section_title
;
Structure prediction by ZEFSAII (Michael W. Deem and Ramdas Pophale) SiO2 
 PCOD9218823
Probable space group: C 2/M
;
_chemical_formula_sum "Si O2"
_cell_formula_units_Z 56
_cell_length_a 11.847372
_cell_length_b 20.614464
_cell_length_c 17.703240
_cell_angle_alpha 90.000000
_cell_angle_beta 48.644844
_cell_angle_gamma 90.000000
_cell_volume 3245.426964
_symmetry_space_group_name_H-M "C 2/M"
_symmetry_group_IT_number 12
_symmetry_cell_setting 'monoclinic'
loop_
_space_group_symop_operation_xyz
x,y,z
-x,y,-z
-x,-y,-z
x,-y,z
1/2+x,1/2+y,z
1/2-x,1/2+y,-z
1/2-x,1/2-y,-z
1/2+x,1/2-y,z
loop_
_atom_site_type_symbol
_atom_site_label
_atom_site_fract_x
_atom_site_fract_y
_atom_site_fract_z
Si Si1 0.440849 0.678790 0.106995
Si Si2 0.789051 0.572060 0.190021
Si Si3 0.316858 0.356412 0.898117
Si Si4 0.622416 0.769374 0.230814
Si Si5 0.588465 0.717175 0.545017
Si Si6 0.480562 0.428164 0.418889
Si Si7 0.534134 0.179224 0.118160
O O1 0.519394 0.638211 0.137996
O O2 0.263379 0.686077 0.189290
O O3 0.500793 0.752411 0.092691
O O4 0.500000 0.656050 0.000000
O O5 0.849276 0.500000 0.174530
O O6 0.733891 0.583532 0.129127
O O7 0.643073 0.580328 0.307462
O O8 0.914383 0.625452 0.149615
O O9 0.319758 0.294380 0.840354
O O10 0.198215 0.341775 0.016812
O O11 0.530723 0.746573 0.343222
O O12 0.526708 0.807184 0.210387
O O13 0.500000 0.723359 0.500000
O O14 0.750000 0.750000 0.500000
O O15 0.605615 0.639809 0.554155
O O16 0.500000 0.432254 0.500000
O O17 0.421906 0.500000 0.419827
#
# Coordination Sequence:
#
# PCOD9218823 Si02
#       7
#     8   8   8   8   8   8   8
#     4  11  17  32  52  78 107 143 187 225 278 343
#     4  11  22  36  55  82 116 151 190 237 284 332
#     4  11  20  31  52  81 110 146 188 227 283 341
#     4  11  21  34  55  80 114 150 181 236 289 350
#     4  11  25  38  58  90 123 151 192 250 310 350
#     4   9  19  37  59  81 110 155 200 235 283 355
#     4  11  20  31  53  81 114 147 183 230 284 341
#
# _framework density 17.255049
#
# number of rings (size 3 to 8) (size 9 to 14) (size 15 to 20)
#    0.000    1.286    5.714    1.286    8.000    1.143 
#    0.000    0.000    0.000    1.714    0.000    0.000 
#    0.000    0.000    0.000    0.000    0.000    0.000 
#
# Total GULP energy -155931.088381 kJ/mol
# GULP energy per Si atom -5568.967442 kJ/mol
# Density = 1.721578 g / cm^3
# Si number density = 17.255049 Si / 1000 Ang^3
#
#
#
# Elastic Constant Matrix: (Units=GPa)
#
#
# Indices 1 2 3 4 5 6 
#
# 1 92.4895 28.5895 26.6002 0.0000 4.3657 0.0001
# 2 28.5895 62.0891 31.9479 0.0000 -10.3351 0.0000
# 3 26.6002 31.9479 69.2954 0.0000 18.3116 0.0000
# 4 0.0000 0.0000 0.0000 30.8049 0.0000 -1.6340
# 5 4.3657 -10.3351 18.3116 0.0000 20.8242 0.0000
# 6 0.0001 0.0000 0.0000 -1.6340 0.0000 18.9376
#
#
#
# Elastic Compliance Matrix: (Units=1/GPa)
#
#
# Indices 1 2 3 4 5 6 
#
# 1 0.013342 -0.006959 -0.000341 0.000000 -0.005951 0.000000
# 2 -0.006959 0.043151 -0.030311 0.000000 0.049529 0.000000
# 3 -0.000341 -0.030311 0.042329 0.000000 -0.052194 0.000000
# 4 0.000000 0.000000 0.000000 0.032612 0.000000 0.002814
# 5 -0.005951 0.049529 -0.052194 0.000000 0.119746 0.000000
# 6 0.000000 0.000000 0.000000 0.002814 0.000000 0.053048
#
#
# Mechanical properties :
#
#
# Convention : Reuss Voigt Hill
#
# Bulk Modulus (GPa) = 42.37207 44.23880 43.30544
# Shear Modulus (GPa) = 12.90938 23.22910 18.06924
#
# Velocity S-wave (km/s) = 2.73820 3.67307 3.23954
# Velocity P-wave (km/s) = 5.88274 6.60927 6.25656
#
# Compressibility (1/GPa) = 0.02360045
#
# Stress axis : x y z
#
# Youngs Moduli (GPa) = 74.95163 23.17440 23.62452
#
# Poissons Ratio (x) = 0.16126 0.00805
# Poissons Ratio (y) = 0.52157 0.71609
# Poissons Ratio (z) = 0.02554 0.70245
#
# Static dielectric constant tensor:
#      x y z
#    x 1.635870 0.000000 0.010340 
#    y 0.000000 1.600390 0.000000 
#    z 0.010340 0.000000 1.586230 
# 
# From -- ./inp_files/133129.got.cif
#   From: 2010.05.17/outbox.cif.g08.bks.cpg/sg12_67_cif.got.tgz:133129.got - 2010.06.03 13:09:07.
