data_PCOD9218484
_publ_section_title
;
Structure prediction by ZEFSAII (Michael W. Deem and Ramdas Pophale) SiO2 
 PCOD9218484
Probable space group: C 2/M
;
_chemical_formula_sum "Si O2"
_cell_formula_units_Z 52
_cell_length_a 9.049336
_cell_length_b 26.706648
_cell_length_c 11.301086
_cell_angle_alpha 90.000000
_cell_angle_beta 80.473790
_cell_angle_gamma 90.000000
_cell_volume 2693.553938
_symmetry_space_group_name_H-M "C 2/M"
_symmetry_group_IT_number 12
_symmetry_cell_setting 'monoclinic'
loop_
_space_group_symop_operation_xyz
x,y,z
-x,y,-z
-x,-y,-z
x,-y,z
1/2+x,1/2+y,z
1/2-x,1/2+y,-z
1/2-x,1/2-y,-z
1/2+x,1/2-y,z
loop_
_atom_site_type_symbol
_atom_site_label
_atom_site_fract_x
_atom_site_fract_y
_atom_site_fract_z
Si Si1 0.928917 0.299511 0.631706
Si Si2 0.859835 0.266762 0.086443
Si Si3 0.921326 0.799540 0.290042
Si Si4 0.747222 0.000000 0.042789
Si Si5 0.500000 0.922016 0.000000
Si Si6 0.992235 0.000000 0.798775
Si Si7 0.139469 0.358958 0.770112
Si Si8 0.939006 0.097505 0.642616
O O1 0.751650 0.298697 0.648405
O O2 0.000000 0.315500 0.500000
O O3 0.988984 0.243988 0.653944
O O4 0.996334 0.337336 0.719408
O O5 0.916414 0.219696 0.155293
O O6 0.790738 0.307959 0.182958
O O7 0.750000 0.250000 0.000000
O O8 0.000000 0.290399 0.000000
O O9 0.982674 0.854124 0.308864
O O10 0.852567 0.000000 0.145576
O O11 0.631907 0.953924 0.045298
O O12 0.860143 0.000000 0.915150
O O13 0.416134 0.892020 0.114039
O O14 0.974260 0.048734 0.717328
O O15 0.261905 0.388283 0.675892
O O16 0.000000 0.092026 0.500000
#
# Coordination Sequence:
#
# PCOD9218484 Si02
#       8
#     8   8   8   4   4   4   8   8
#     4  11  22  40  61  93 133 173 221 261 308 390
#     4  11  21  36  54  89 131 165 204 257 309 378
#     4  11  23  38  62  93 127 177 220 261 325 386
#     4  10  24  46  71  96 127 164 218 275 331 398
#     4  11  22  44  72  94 130 166 206 275 334 390
#     4  11  25  46  69 100 127 164 225 272 331 395
#     4  11  23  39  65  96 128 172 212 257 332 383
#     4  12  25  45  67  94 132 174 220 274 330 386
#
# _framework density 19.305349
#
# number of rings (size 3 to 8) (size 9 to 14) (size 15 to 20)
#    0.000    0.923    2.308    6.692    2.154    0.000 
#    2.769    0.000    0.000    0.923    0.000    0.000 
#    0.000    0.000    0.000    0.000    0.000    0.000 
#
# Total GULP energy -145215.351290 kJ/mol
# GULP energy per Si atom -5585.205819 kJ/mol
# Density = 1.926141 g / cm^3
# Si number density = 19.305349 Si / 1000 Ang^3
#
#
#
# Elastic Constant Matrix: (Units=GPa)
#
#
# Indices 1 2 3 4 5 6 
#
# 1 95.0883 39.9043 5.8477 0.0000 -19.7055 0.0000
# 2 39.9043 115.5686 34.3893 0.0000 4.2738 0.0000
# 3 5.8477 34.3893 90.5729 0.0000 -13.5522 0.0000
# 4 0.0000 0.0000 0.0000 24.2625 0.0000 -2.0501
# 5 -19.7055 4.2738 -13.5522 0.0000 35.6211 0.0000
# 6 0.0000 0.0000 0.0000 -2.0501 0.0000 10.3635
#
#
#
# Elastic Compliance Matrix: (Units=1/GPa)
#
#
# Indices 1 2 3 4 5 6 
#
# 1 0.015227 -0.006551 0.003056 0.000000 0.010372 0.000000
# 2 -0.006551 0.012831 -0.005537 0.000000 -0.007270 0.000000
# 3 0.003056 -0.005537 0.014101 0.000000 0.007720 0.000000
# 4 0.000000 0.000000 0.000000 0.041916 0.000000 0.008292
# 5 0.010372 -0.007270 0.007720 0.000000 0.037620 0.000000
# 6 0.000000 0.000000 0.000000 0.008292 0.000000 0.098133
#
#
# Mechanical properties :
#
#
# Convention : Reuss Voigt Hill
#
# Bulk Modulus (GPa) = 41.49974 51.27915 46.38944
# Shear Modulus (GPa) = 20.33150 28.78864 24.56007
#
# Velocity S-wave (km/s) = 3.24875 3.86583 3.57065
# Velocity P-wave (km/s) = 5.96789 6.82246 6.40943
#
# Compressibility (1/GPa) = 0.02409654
#
# Stress axis : x y z
#
# Youngs Moduli (GPa) = 65.67228 77.93571 70.91808
#
# Poissons Ratio (x) = 0.51053 -0.21673
# Poissons Ratio (y) = 0.43020 0.39265
# Poissons Ratio (z) = -0.20070 0.43150
#
# Static dielectric constant tensor:
#      x y z
#    x 1.745400 0.000000 -0.023940 
#    y 0.000000 1.666040 0.000000 
#    z -0.023940 0.000000 1.681360 
# 
# From -- ./inp_files/123675.got.cif
#   From: 2010.05.17/outbox.cif.g08.bks.cpg/sg12_62_cif.got.tgz:123675.got - 2010.06.03 13:09:07.
