data_PCOD9218452
_publ_section_title
;
Structure prediction by ZEFSAII (Michael W. Deem and Ramdas Pophale) SiO2 
 PCOD9218452
Probable space group: C 2/M
;
_chemical_formula_sum "Si O2"
_cell_formula_units_Z 64
_cell_length_a 8.666559
_cell_length_b 29.293938
_cell_length_c 17.195257
_cell_angle_alpha 90.000000
_cell_angle_beta 141.539380
_cell_angle_gamma 90.000000
_cell_volume 2715.233414
_symmetry_space_group_name_H-M "C 2/M"
_symmetry_group_IT_number 12
_symmetry_cell_setting 'monoclinic'
loop_
_space_group_symop_operation_xyz
x,y,z
-x,y,-z
-x,-y,-z
x,-y,z
1/2+x,1/2+y,z
1/2-x,1/2+y,-z
1/2-x,1/2-y,-z
1/2+x,1/2-y,z
loop_
_atom_site_type_symbol
_atom_site_label
_atom_site_fract_x
_atom_site_fract_y
_atom_site_fract_z
Si Si1 0.991120 0.450215 0.864919
Si Si2 0.160552 0.625970 0.816557
Si Si3 0.638987 0.675664 0.813294
Si Si4 0.320772 0.802963 0.044291
Si Si5 0.051049 0.076202 0.310229
Si Si6 0.216091 0.881292 0.524053
Si Si7 0.760484 0.792027 0.561592
Si Si8 0.517025 0.448978 0.133451
O O1 0.032506 0.500000 0.843910
O O2 0.019298 0.406677 0.821588
O O3 0.707359 0.449289 0.777658
O O4 0.215437 0.445453 0.015724
O O5 0.210979 0.673133 0.883754
O O6 0.384059 0.593110 0.877975
O O7 0.972883 0.629047 0.669708
O O8 0.531970 0.627225 0.746116
O O9 0.451710 0.713856 0.707782
O O10 0.899431 0.687019 0.874919
O O11 0.657693 0.673360 0.913131
O O12 0.250000 0.750000 0.000000
O O13 0.213239 0.082151 0.452082
O O14 0.148155 0.054988 0.268918
O O15 0.149832 0.833542 0.456850
O O16 0.000000 0.893543 0.500000
O O17 0.500000 0.802734 0.500000
O O18 0.750000 0.750000 0.500000
O O19 0.567772 0.500000 0.122685
#
# Coordination Sequence:
#
# PCOD9218452 Si02
#       8
#     8   8   8   8   8   8   8   8
#     4  11  22  43  73 102 139 190 243 297 362 440
#     4  12  24  45  72 101 148 187 236 303 372 435
#     4  10  24  46  68 103 143 178 246 297 361 435
#     4  11  25  46  71 103 142 190 238 311 364 434
#     4  11  22  45  73 102 142 188 238 296 365 443
#     4  11  24  46  71 100 138 191 243 296 367 439
#     4  11  26  44  73  99 137 191 241 300 360 442
#     4  11  26  44  70 109 148 187 241 305 374 451
#
# _framework density 23.570717999999999
#
# number of rings (size 3 to 8) (size 9 to 14) (size 15 to 20)
#    0.000    1.000    2.500    3.375    8.750    2.000 
#    9.000    3.750    0.000    0.000    0.000    0.000 
#    0.000    0.000    0.000    0.000    0.000    0.000 
#
# Total GULP energy -178694.098061 kJ/mol
# GULP energy per Si atom -5584.190564 kJ/mol
# Density = 2.351707 g / cm^3
# Si number density = 23.570718 Si / 1000 Ang^3
#
#
#
# Elastic Constant Matrix: (Units=GPa)
#
#
# Indices 1 2 3 4 5 6 
#
# 1 72.0124 17.8303 28.8576 0.0000 -18.1332 0.0000
# 2 17.8303 113.2328 28.7479 0.0000 -12.3771 0.0000
# 3 28.8576 28.7479 162.0207 0.0000 -26.0059 0.0000
# 4 0.0000 0.0000 0.0000 -79.7932 0.0000 79.7381
# 5 -18.1332 -12.3771 -26.0059 0.0000 28.2499 0.0000
# 6 0.0000 0.0000 0.0000 79.7381 0.0000 -43.2306
#
#
#
# Elastic Compliance Matrix: (Units=1/GPa)
#
#
# Indices 1 2 3 4 5 6 
#
# 1 0.017053 -0.001349 -0.001333 0.000000 0.009128 0.000000
# 2 -0.001349 0.009574 -0.001084 0.000000 0.002330 0.000000
# 3 -0.001333 -0.001084 0.007496 0.000000 0.005570 0.000000
# 4 0.000000 0.000000 0.000000 0.014863 0.000000 0.027414
# 5 0.009128 0.002330 0.005570 0.000000 0.047406 0.000000
# 6 0.000000 0.000000 0.000000 0.027414 0.000000 0.027433
#
#
# Mechanical properties :
#
#
# Convention : Reuss Voigt Hill
#
# Bulk Modulus (GPa) = 37.60785 55.34862 46.47823
# Shear Modulus (GPa) = 35.65809 -0.83278 17.41266
#
# Velocity S-wave (km/s) = 3.89371 -0.59504 2.72093
# Velocity P-wave (km/s) = 6.01703 4.80217 5.44359
#
# Compressibility (1/GPa) = 0.02659020
#
# Stress axis : x y z
#
# Youngs Moduli (GPa) = 58.64008 104.45133 133.40706
#
# Poissons Ratio (x) = 0.14092 0.17781
# Poissons Ratio (y) = 0.07911 0.14466
# Poissons Ratio (z) = 0.07816 0.11327
#
# Static dielectric constant tensor:
#      x y z
#    x 1.937860 0.000000 0.006350 
#    y 0.000000 1.909170 0.000000 
#    z 0.006350 0.000000 1.968260 
# 
# From -- ./inp_files/260350.got.cif
#   From: 2010.05.17/outbox.cif.g08.bks.cpg/sg12_131_cif.got.tgz:260350.got - 2010.06.03 13:09:07.
