data_PCOD9218990
_publ_section_title
;
Structure prediction by ZEFSAII (Michael W. Deem and Ramdas Pophale) SiO2 
 PCOD9218990
Probable space group: C 2/M
;
_chemical_formula_sum "Si O2"
_cell_formula_units_Z 56
_cell_length_a 21.155903
_cell_length_b 19.635229
_cell_length_c 14.152210
_cell_angle_alpha 90.000000
_cell_angle_beta 150.400562
_cell_angle_gamma 90.000000
_cell_volume 2903.756145
_symmetry_space_group_name_H-M "C 2/M"
_symmetry_group_IT_number 12
_symmetry_cell_setting 'monoclinic'
loop_
_space_group_symop_operation_xyz
x,y,z
-x,y,-z
-x,-y,-z
x,-y,z
1/2+x,1/2+y,z
1/2-x,1/2+y,-z
1/2-x,1/2-y,-z
1/2+x,1/2-y,z
loop_
_atom_site_type_symbol
_atom_site_label
_atom_site_fract_x
_atom_site_fract_y
_atom_site_fract_z
Si Si1 0.793995 0.796086 0.336559
Si Si2 0.913893 0.574952 0.293693
Si Si3 0.111973 0.383943 0.392531
Si Si4 0.535336 0.272817 0.274998
Si Si5 0.244727 0.286611 0.893461
Si Si6 0.861657 0.827088 0.776591
Si Si7 0.354020 0.922615 0.779282
O O1 0.922567 0.791676 0.565109
O O2 0.815008 0.765078 0.260592
O O3 0.691007 0.742937 0.247252
O O4 0.733438 0.869515 0.277301
O O5 0.850434 0.500000 0.207158
O O6 0.824192 0.641041 0.186473
O O7 0.000000 0.576304 0.500000
O O8 0.003894 0.582575 0.317925
O O9 0.059294 0.307951 0.300768
O O10 0.241444 0.378149 0.624185
O O11 0.145553 0.415109 0.334330
O O12 0.624389 0.310839 0.316137
O O13 0.393808 0.294085 0.062618
O O14 0.250000 0.250000 0.000000
O O15 0.000000 0.845566 0.000000
O O16 0.319107 0.000000 0.757943
O O17 0.500000 0.910083 0.000000
#
# Coordination Sequence:
#
# PCOD9218990 Si02
#       7
#     8   8   8   8   8   8   8
#     4  11  21  38  59  89 130 157 209 265 312 372
#     4  11  25  44  63  89 128 173 214 260 320 380
#     4  11  20  39  62  93 128 160 209 260 316 373
#     4  11  20  36  62  93 122 159 208 263 316 362
#     4  12  25  39  64  93 122 165 217 265 307 369
#     4  11  19  33  62  94 122 156 200 265 320 367
#     4  11  22  35  58  91 125 165 204 252 320 379
#
# _framework density 19.285366
#
# number of rings (size 3 to 8) (size 9 to 14) (size 15 to 20)
#    0.000    0.857    5.714    4.286    0.000    0.000 
#    0.000    0.714    0.000    1.714    0.000    2.000 
#    0.000    0.000    0.000    0.000    0.000    0.000 
#
# Total GULP energy -156251.226313 kJ/mol
# GULP energy per Si atom -5580.400940 kJ/mol
# Density = 1.924147 g / cm^3
# Si number density = 19.285366 Si / 1000 Ang^3
#
#
#
# Elastic Constant Matrix: (Units=GPa)
#
#
# Indices 1 2 3 4 5 6 
#
# 1 74.2991 19.0539 7.8865 0.0000 -17.4568 0.0000
# 2 19.0539 97.9281 34.4414 0.0000 -8.1289 0.0000
# 3 7.8865 34.4414 89.6131 0.0000 -9.5519 0.0000
# 4 0.0000 0.0000 0.0000 19.2398 0.0000 6.7193
# 5 -17.4568 -8.1289 -9.5519 0.0000 29.5540 0.0000
# 6 0.0000 0.0000 0.0000 6.7193 0.0000 9.9305
#
#
#
# Elastic Compliance Matrix: (Units=1/GPa)
#
#
# Indices 1 2 3 4 5 6 
#
# 1 0.016186 -0.002587 0.000531 0.000000 0.009021 0.000000
# 2 -0.002587 0.012319 -0.004462 0.000000 0.000418 0.000000
# 3 0.000531 -0.004462 0.013184 0.000000 0.003348 0.000000
# 4 0.000000 0.000000 0.000000 0.068058 0.000000 -0.046051
# 5 0.009021 0.000418 0.003348 0.000000 0.040361 0.000000
# 6 0.000000 0.000000 0.000000 -0.046051 0.000000 0.131860
#
#
# Mechanical properties :
#
#
# Convention : Reuss Voigt Hill
#
# Bulk Modulus (GPa) = 34.90116 42.73378 38.81747
# Shear Modulus (GPa) = 16.41731 25.10876 20.76303
#
# Velocity S-wave (km/s) = 2.92084 3.61218 3.28475
# Velocity P-wave (km/s) = 5.43246 6.29316 5.87858
#
# Compressibility (1/GPa) = 0.02865234
#
# Stress axis : x y z
#
# Youngs Moduli (GPa) = 61.78315 81.17459 75.84832
#
# Poissons Ratio (x) = 0.21003 -0.04031
# Poissons Ratio (y) = 0.15986 0.33847
# Poissons Ratio (z) = -0.03284 0.36224
#
# Static dielectric constant tensor:
#      x y z
#    x 1.275730 0.000000 -0.170890 
#    y 0.000000 1.692400 0.000000 
#    z -0.170890 0.000000 1.635360 
# 
# From -- ./inp_files/234736.got.cif
#   From: 2010.05.17/outbox.cif.g08.bks.cpg/sg12_118_cif.got.tgz:234736.got - 2010.06.03 13:09:07.
