data_PCOD9218718
_publ_section_title
;
Structure prediction by ZEFSAII (Michael W. Deem and Ramdas Pophale) SiO2 
 PCOD9218718
Probable space group: C 2/M
;
_chemical_formula_sum "Si O2"
_cell_formula_units_Z 36
_cell_length_a 8.693921
_cell_length_b 10.227530
_cell_length_c 20.371292
_cell_angle_alpha 90.000000
_cell_angle_beta 69.631026
_cell_angle_gamma 90.000000
_cell_volume 1698.097744
_symmetry_space_group_name_H-M "C 2/M"
_symmetry_group_IT_number 12
_symmetry_cell_setting 'monoclinic'
loop_
_space_group_symop_operation_xyz
x,y,z
-x,y,-z
-x,-y,-z
x,-y,z
1/2+x,1/2+y,z
1/2-x,1/2+y,-z
1/2-x,1/2-y,-z
1/2+x,1/2-y,z
loop_
_atom_site_type_symbol
_atom_site_label
_atom_site_fract_x
_atom_site_fract_y
_atom_site_fract_z
Si Si1 0.602738 0.000000 0.751138
Si Si2 0.070051 0.241348 0.844512
Si Si3 0.002641 0.000000 0.327438
Si Si4 0.865168 0.135760 0.463895
Si Si5 0.251183 0.000000 0.757862
Si Si6 0.234651 0.348971 0.942146
O O1 0.575264 0.133378 0.796494
O O2 0.450831 0.000000 0.720731
O O3 0.799933 0.000000 0.708051
O O4 0.202385 0.131470 0.804872
O O5 0.096682 0.299229 0.913151
O O6 0.897946 0.165996 0.873302
O O7 0.952794 0.875015 0.380340
O O8 0.877323 0.000000 0.284636
O O9 0.750000 0.250000 0.500000
O O10 0.000000 0.132684 0.500000
O O11 0.766550 0.000000 0.481301
O O12 0.214935 0.500000 0.965018
O O13 0.250000 0.250000 0.000000
#
# Coordination Sequence:
#
# PCOD9218718 Si02
#       6
#     4   8   4   8   4   8
#     4  12  26  47  74 101 148 194 231 299 371 421
#     4  12  25  47  67  98 144 184 238 301 368 434
#     4  10  25  48  71 116 146 178 261 290 335 464
#     4   9  21  47  71 101 148 190 229 296 356 406
#     4  12  26  47  74 104 143 200 232 297 376 419
#     4  12  27  43  70 100 137 182 246 303 362 441
#
# _framework density 21.200192000000001
#
# number of rings (size 3 to 8) (size 9 to 14) (size 15 to 20)
#    0.667    0.222    4.444    2.000    3.111    4.000 
#    4.000    0.000    0.000    0.000    0.000    0.000 
#    0.000    0.000    0.000    0.000    0.000    0.000 
#
# Total GULP energy -100317.221574 kJ/mol
# GULP energy per Si atom -5573.178976 kJ/mol
# Density = 2.115194 g / cm^3
# Si number density = 21.200192 Si / 1000 Ang^3
#
#
#
# Elastic Constant Matrix: (Units=GPa)
#
#
# Indices 1 2 3 4 5 6 
#
# 1 139.0327 45.9172 54.6857 0.0000 -13.3627 0.0000
# 2 45.9172 154.4105 44.4922 0.0000 -7.0166 0.0000
# 3 54.6857 44.4922 84.6907 0.0000 -0.1478 0.0000
# 4 0.0000 0.0000 0.0000 218.3599 0.0000 156.9713
# 5 -13.3627 -7.0166 -0.1478 0.0000 34.1383 0.0000
# 6 0.0000 0.0000 0.0000 156.9713 0.0000 181.3202
#
#
#
# Elastic Compliance Matrix: (Units=1/GPa)
#
#
# Indices 1 2 3 4 5 6 
#
# 1 0.010315 -0.001153 -0.006048 0.000000 0.003774 0.000000
# 2 -0.001153 0.007843 -0.003374 0.000000 0.001146 0.000000
# 3 -0.006048 -0.003374 0.017480 0.000000 -0.002985 0.000000
# 4 0.000000 0.000000 0.000000 0.012126 0.000000 -0.010498
# 5 0.003774 0.001146 -0.002985 0.000000 0.030993 0.000000
# 6 0.000000 0.000000 0.000000 -0.010498 0.000000 0.014603
#
#
# Mechanical properties :
#
#
# Convention : Reuss Voigt Hill
#
# Bulk Modulus (GPa) = 69.02109 74.25822 71.63966
# Shear Modulus (GPa) = 41.89696 102.29961 72.09829
#
# Velocity S-wave (km/s) = 4.45033 6.95405 5.83799
# Velocity P-wave (km/s) = 7.68341 9.97906 8.90552
#
# Compressibility (1/GPa) = 0.01448832
#
# Stress axis : x y z
#
# Youngs Moduli (GPa) = 96.94530 127.49564 57.20719
#
# Poissons Ratio (x) = 0.14702 0.34600
# Poissons Ratio (y) = 0.11179 0.19301
# Poissons Ratio (z) = 0.58634 0.43016
#
# Static dielectric constant tensor:
#      x y z
#    x 1.788660 0.000000 -0.021260 
#    y 0.000000 1.762590 0.000000 
#    z -0.021260 0.000000 1.793010 
# 
# From -- ./inp_files/331737.got.cif
#   From: 2010.05.17/outbox.cif.g08.bks.cpg/sg12_166_cif.got.tgz:331737.got - 2010.06.03 13:09:07.
