data_PCOD9218301
_publ_section_title
;
Structure prediction by ZEFSAII (Michael W. Deem and Ramdas Pophale) SiO2 
 PCOD9218301
Probable space group: C 2/M
;
_chemical_formula_sum "Si O2"
_cell_formula_units_Z 56
_cell_length_a 23.007086
_cell_length_b 20.209484
_cell_length_c 19.309176
_cell_angle_alpha 90.000000
_cell_angle_beta 162.473697
_cell_angle_gamma 90.000000
_cell_volume 2703.673297
_symmetry_space_group_name_H-M "C 2/M"
_symmetry_group_IT_number 12
_symmetry_cell_setting 'monoclinic'
loop_
_space_group_symop_operation_xyz
x,y,z
-x,y,-z
-x,-y,-z
x,-y,z
1/2+x,1/2+y,z
1/2-x,1/2+y,-z
1/2-x,1/2-y,-z
1/2+x,1/2-y,z
loop_
_atom_site_type_symbol
_atom_site_label
_atom_site_fract_x
_atom_site_fract_y
_atom_site_fract_z
Si Si1 0.544180 0.380594 0.476690
Si Si2 0.216865 0.822419 0.115263
Si Si3 0.375618 0.575580 0.701962
Si Si4 0.772298 0.246540 0.736589
Si Si5 0.446092 0.839201 0.608939
Si Si6 0.368633 0.173337 0.029921
Si Si7 0.818890 0.425355 0.668323
O O1 0.500000 0.414547 0.500000
O O2 0.656147 0.312452 0.622213
O O3 0.684429 0.416623 0.582399
O O4 0.341174 0.360916 0.211129
O O5 0.270520 0.810682 0.256106
O O6 0.390701 0.844047 0.263561
O O7 0.153450 0.748660 0.019587
O O8 0.045129 0.874060 0.912029
O O9 0.429915 0.500000 0.776620
O O10 0.188624 0.597296 0.533456
O O11 0.312297 0.582250 0.549603
O O12 0.694611 0.220518 0.574852
O O13 0.000000 0.257817 0.000000
O O14 0.547281 0.825826 0.797142
O O15 0.515297 0.130019 0.149760
O O16 0.901016 0.500000 0.760298
#
# Coordination Sequence:
#
# PCOD9218301 Si02
#       7
#     8   8   8   8   8   8   8
#     4  12  24  41  67 100 138 175 222 275 337 394
#     4  12  22  40  67  99 130 174 219 279 337 393
#     4  10  24  44  66  97 137 179 223 274 332 400
#     4  12  23  41  65 100 140 174 211 279 344 387
#     4  11  23  39  67  97 134 169 224 277 334 392
#     4  11  24  41  68 102 130 172 228 281 332 395
#     4  10  25  45  66  97 140 181 221 273 332 397
#
# _framework density 20.712561999999998
#
# number of rings (size 3 to 8) (size 9 to 14) (size 15 to 20)
#    0.000    0.857    4.286    2.571    2.000    2.571 
#    0.000    5.000    0.000    1.714    0.000    0.000 
#    0.000    0.000    0.000    0.000    0.000    0.000 
#
# Total GULP energy -156611.609941 kJ/mol
# GULP energy per Si atom -5593.271784 kJ/mol
# Density = 2.066542 g / cm^3
# Si number density = 20.712562 Si / 1000 Ang^3
#
#
#
# Elastic Constant Matrix: (Units=GPa)
#
#
# Indices 1 2 3 4 5 6 
#
# 1 119.6335 33.8086 49.3630 -0.0008 17.7445 0.0016
# 2 33.8086 81.8312 36.4691 0.0008 14.2169 -0.0032
# 3 49.3630 36.4691 129.5718 -0.0088 12.0166 0.0005
# 4 -0.0008 0.0008 -0.0088 15.5345 -0.0145 2.6040
# 5 17.7445 14.2169 12.0166 -0.0145 27.8694 0.0032
# 6 0.0016 -0.0032 0.0005 2.6040 0.0032 22.9915
#
#
#
# Elastic Compliance Matrix: (Units=1/GPa)
#
#
# Indices 1 2 3 4 5 6 
#
# 1 0.010967 -0.002381 -0.003097 -0.000005 -0.004433 0.000000
# 2 -0.002381 0.015402 -0.002958 -0.000008 -0.005066 0.000004
# 3 -0.003097 -0.002958 0.009799 0.000005 -0.000744 -0.000001
# 4 -0.000005 -0.000008 0.000005 0.065619 0.000040 -0.007432
# 5 -0.004433 -0.005066 -0.000744 0.000040 0.041609 -0.000011
# 6 0.000000 0.000004 -0.000001 -0.007432 -0.000011 0.044336
#
#
# Mechanical properties :
#
#
# Convention : Reuss Voigt Hill
#
# Bulk Modulus (GPa) = 51.82232 63.36868 57.59550
# Shear Modulus (GPa) = 23.69256 27.37214 25.53235
#
# Velocity S-wave (km/s) = 3.38579 3.63922 3.51479
# Velocity P-wave (km/s) = 6.35286 6.95121 6.65876
#
# Compressibility (1/GPa) = 0.01929670
#
# Stress axis : x y z
#
# Youngs Moduli (GPa) = 91.18258 64.92498 102.04864
#
# Poissons Ratio (x) = 0.15457 0.31604
# Poissons Ratio (y) = 0.21708 0.30190
# Poissons Ratio (z) = 0.28239 0.19207
#
# Static dielectric constant tensor:
#      x y z
#    x 1.779980 -0.000010 -0.003600 
#    y -0.000010 1.703750 0.000000 
#    z -0.003600 0.000000 1.739860 
# 
# From -- ./inp_files/286061.got.cif
#   From: 2010.05.17/outbox.cif.g08.bks.cpg/sg12_144_cif.got.tgz:286061.got - 2010.06.03 13:09:07.
