data_PCOD9219421
_publ_section_title
;
Structure prediction by ZEFSAII (Michael W. Deem and Ramdas Pophale) SiO2 
 PCOD9219421
Probable space group: C 2/M
;
_chemical_formula_sum "Si O2"
_cell_formula_units_Z 32
_cell_length_a 6.706882
_cell_length_b 17.918644
_cell_length_c 13.916921
_cell_angle_alpha 90.000000
_cell_angle_beta 58.823453
_cell_angle_gamma 90.000000
_cell_volume 1430.960615
_symmetry_space_group_name_H-M "C 2/M"
_symmetry_group_IT_number 12
_symmetry_cell_setting 'monoclinic'
loop_
_space_group_symop_operation_xyz
x,y,z
-x,y,-z
-x,-y,-z
x,-y,z
1/2+x,1/2+y,z
1/2-x,1/2+y,-z
1/2-x,1/2-y,-z
1/2+x,1/2-y,z
loop_
_atom_site_type_symbol
_atom_site_label
_atom_site_fract_x
_atom_site_fract_y
_atom_site_fract_z
Si Si1 0.428967 0.813501 0.419141
Si Si2 0.238817 0.314352 0.732765
Si Si3 0.256105 0.344152 0.077767
Si Si4 0.933448 0.913756 0.851140
O O1 0.500000 0.854570 0.500000
O O2 0.250000 0.750000 0.500000
O O3 0.639257 0.763979 0.322291
O O4 0.305927 0.852757 0.359935
O O5 0.385457 0.362937 0.770873
O O6 0.983645 0.304256 0.842544
O O7 0.326429 0.394635 0.152292
O O8 0.500000 0.299135 0.000000
O O9 0.251817 0.393480 0.982316
O O10 0.920835 0.000000 0.829383
#
# Coordination Sequence:
#
# PCOD9219421 Si02
#       4
#     8   8   8   8
#     4   9  22  39  61  83 106 150 204 255 299 346
#     4  11  20  37  64  85 115 157 201 241 299 350
#     4   8  20  34  54  88 125 154 193 227 277 355
#     4   9  20  37  59  90 126 159 194 230 284 362
#
# _framework density 22.3626
#
# number of rings (size 3 to 8) (size 9 to 14) (size 15 to 20)
#    1.500    1.000    0.000    2.250    7.000    3.000 
#    0.000    8.750    0.000    7.500    0.000    0.000 
#    0.000    0.000    0.000    0.000    0.000    0.000 
#
# Total GULP energy -89113.282746 kJ/mol
# GULP energy per Si atom -5569.580172 kJ/mol
# Density = 2.231170 g / cm^3
# Si number density = 22.362600 Si / 1000 Ang^3
#
#
#
# Elastic Constant Matrix: (Units=GPa)
#
#
# Indices 1 2 3 4 5 6 
#
# 1 105.2408 41.0188 45.9764 0.0000 35.4950 0.0000
# 2 41.0188 63.5900 53.9802 0.0000 21.8770 0.0000
# 3 45.9764 53.9802 69.9103 0.0000 17.4467 0.0000
# 4 0.0000 0.0000 0.0000 -9.7257 0.0000 2.4722
# 5 35.4950 21.8770 17.4467 0.0000 99.9313 0.0000
# 6 0.0000 0.0000 0.0000 2.4722 0.0000 17.4813
#
#
#
# Elastic Compliance Matrix: (Units=1/GPa)
#
#
# Indices 1 2 3 4 5 6 
#
# 1 0.014616 -0.002352 -0.006931 0.000000 -0.003467 0.000000
# 2 -0.002352 0.047613 -0.034320 0.000000 -0.003596 0.000000
# 3 -0.006931 -0.034320 0.044825 0.000000 0.002149 0.000000
# 4 0.000000 0.000000 0.000000 -0.099252 0.000000 0.014036
# 5 -0.003467 -0.003596 0.002149 0.000000 0.011650 0.000000
# 6 0.000000 0.000000 0.000000 0.014036 0.000000 0.055219
#
#
# Mechanical properties :
#
#
# Convention : Reuss Voigt Hill
#
# Bulk Modulus (GPa) = 50.37954 57.85466 54.11710
# Shear Modulus (GPa) = 29.67485 28.05508 28.86496
#
# Velocity S-wave (km/s) = 3.64673 3.54581 3.59663
# Velocity P-wave (km/s) = 6.34893 6.53384 6.44205
#
# Compressibility (1/GPa) = 0.01984933
#
# Stress axis : x y z
#
# Youngs Moduli (GPa) = 68.41918 21.00259 22.30877
#
# Poissons Ratio (x) = 0.04939 0.15463
# Poissons Ratio (y) = 0.16089 0.76563
# Poissons Ratio (z) = 0.47423 0.72080
#
# Static dielectric constant tensor:
#      x y z
#    x 1.963560 0.000000 0.023570 
#    y 0.000000 1.779580 0.000000 
#    z 0.023570 0.000000 1.904450 
# 
# From -- ./inp_files/194905.got.cif
#   From: 2010.05.17/outbox.cif.g08.bks.cpg/sg12_98_cif.got.tgz:194905.got - 2010.06.03 13:09:07.
