data_PCOD9219030
_publ_section_title
;
Structure prediction by ZEFSAII (Michael W. Deem and Ramdas Pophale) SiO2 
 PCOD9219030
Probable space group: C 2/M
;
_chemical_formula_sum "Si O2"
_cell_formula_units_Z 56
_cell_length_a 8.821092
_cell_length_b 24.650701
_cell_length_c 15.174979
_cell_angle_alpha 90.000000
_cell_angle_beta 102.801971
_cell_angle_gamma 90.000000
_cell_volume 3217.714202
_symmetry_space_group_name_H-M "C 2/M"
_symmetry_group_IT_number 12
_symmetry_cell_setting 'monoclinic'
loop_
_space_group_symop_operation_xyz
x,y,z
-x,y,-z
-x,-y,-z
x,-y,z
1/2+x,1/2+y,z
1/2-x,1/2+y,-z
1/2-x,1/2-y,-z
1/2+x,1/2-y,z
loop_
_atom_site_type_symbol
_atom_site_label
_atom_site_fract_x
_atom_site_fract_y
_atom_site_fract_z
Si Si1 0.174444 0.060374 0.058901
Si Si2 0.827501 0.647355 0.946970
Si Si3 0.699933 0.632107 0.218926
Si Si4 0.122570 0.301458 0.397237
Si Si5 0.957039 0.665454 0.795010
Si Si6 0.736367 0.817683 0.594469
Si Si7 0.970360 0.219920 0.100437
O O1 0.163895 0.077630 0.160118
O O2 0.241575 0.000000 0.058103
O O3 0.262423 0.104733 0.009389
O O4 0.000000 0.060397 0.000000
O O5 0.865437 0.628458 0.852868
O O6 0.705080 0.696228 0.918188
O O7 0.000000 0.663056 0.000000
O O8 0.694839 0.641020 0.323956
O O9 0.586382 0.676563 0.159996
O O10 0.877491 0.642850 0.213158
O O11 0.145958 0.326398 0.304555
O O12 0.169765 0.238610 0.395337
O O13 0.214867 0.330945 0.488226
O O14 0.939457 0.304680 0.396090
O O15 0.999045 0.724092 0.844092
O O16 0.000000 0.222168 0.000000
#
# Coordination Sequence:
#
# PCOD9219030 Si02
#       7
#     8   8   8   8   8   8   8
#     4  11  23  42  58  73 100 133 176 228 273 315
#     4  12  22  36  50  78 105 139 178 215 257 313
#     4  11  19  36  50  75  99 143 178 212 254 314
#     4   9  18  31  45  74 102 148 168 209 245 299
#     4  11  22  30  49  76 113 142 171 205 254 304
#     4   9  18  31  50  69 106 137 182 206 248 300
#     4  12  21  32  48  73 110 148 174 202 242 315
#
# _framework density 17.403659000000001
#
# number of rings (size 3 to 8) (size 9 to 14) (size 15 to 20)
#    0.000    1.286    5.714    1.286    2.000    2.000 
#    0.000    0.000    0.000    0.000    0.000    9.000 
#    0.000    2.286    0.000    0.000    0.000    0.286 
#
# Total GULP energy -155958.162356 kJ/mol
# GULP energy per Si atom -5569.934370 kJ/mol
# Density = 1.736405 g / cm^3
# Si number density = 17.403659 Si / 1000 Ang^3
#
#
#
# Elastic Constant Matrix: (Units=GPa)
#
#
# Indices 1 2 3 4 5 6 
#
# 1 37.0863 5.2281 19.5183 0.0000 5.4545 0.0000
# 2 5.2281 47.4926 28.8709 0.0000 3.6424 0.0000
# 3 19.5183 28.8709 163.5814 0.0000 5.5506 0.0000
# 4 0.0000 0.0000 0.0000 10.2955 0.0000 -2.2716
# 5 5.4545 3.6424 5.5506 0.0000 20.9902 0.0000
# 6 0.0000 0.0000 0.0000 -2.2716 0.0000 4.5223
#
#
#
# Elastic Compliance Matrix: (Units=1/GPa)
#
#
# Indices 1 2 3 4 5 6 
#
# 1 0.029743 -0.000827 -0.003174 0.000000 -0.006746 0.000000
# 2 -0.000827 0.023801 -0.004005 0.000000 -0.002856 0.000000
# 3 -0.003174 -0.004005 0.007212 0.000000 -0.000387 0.000000
# 4 0.000000 0.000000 0.000000 0.109237 0.000000 0.054871
# 5 -0.006746 -0.002856 -0.000387 0.000000 0.049992 0.000000
# 6 0.000000 0.000000 0.000000 0.054871 0.000000 0.248688
#
#
# Mechanical properties :
#
#
# Convention : Reuss Voigt Hill
#
# Bulk Modulus (GPa) = 22.34972 39.48831 30.91901
# Shear Modulus (GPa) = 10.00800 20.13113 15.06957
#
# Velocity S-wave (km/s) = 2.40063 3.40475 2.94578
# Velocity P-wave (km/s) = 4.53363 6.18024 5.41983
#
# Compressibility (1/GPa) = 0.04474329
#
# Stress axis : x y z
#
# Youngs Moduli (GPa) = 33.62081 42.01560 138.66010
#
# Poissons Ratio (x) = 0.03476 0.44011
# Poissons Ratio (y) = 0.02782 0.55534
# Poissons Ratio (z) = 0.10671 0.16827
#
# Static dielectric constant tensor:
#      x y z
#    x 1.630740 0.000000 0.002630 
#    y 0.000000 1.590110 0.000000 
#    z 0.002630 0.000000 1.687100 
# 
# From -- ./inp_files/200397.got.cif
#   From: 2010.05.17/outbox.cif.g08.bks.cpg/sg12_101_cif.got.tgz:200397.got - 2010.06.03 13:09:07.
