data_PCOD9219222
_publ_section_title
;
Structure prediction by ZEFSAII (Michael W. Deem and Ramdas Pophale) SiO2 
 PCOD9219222
Probable space group: C 2/M
;
_chemical_formula_sum "Si O2"
_cell_formula_units_Z 52
_cell_length_a 19.127297
_cell_length_b 14.135505
_cell_length_c 8.761279
_cell_angle_alpha 90.000000
_cell_angle_beta 73.248037
_cell_angle_gamma 90.000000
_cell_volume 2268.292782
_symmetry_space_group_name_H-M "C 2/M"
_symmetry_group_IT_number 12
_symmetry_cell_setting 'monoclinic'
loop_
_space_group_symop_operation_xyz
x,y,z
-x,y,-z
-x,-y,-z
x,-y,z
1/2+x,1/2+y,z
1/2-x,1/2+y,-z
1/2-x,1/2-y,-z
1/2+x,1/2-y,z
loop_
_atom_site_type_symbol
_atom_site_label
_atom_site_fract_x
_atom_site_fract_y
_atom_site_fract_z
Si Si1 0.101677 0.389308 0.730489
Si Si2 0.891966 0.895999 0.329917
Si Si3 0.500000 0.346384 0.000000
Si Si4 0.121412 0.721097 0.428400
Si Si5 0.801583 0.391877 0.072840
Si Si6 0.557465 0.191980 0.151795
Si Si7 0.752240 0.112927 0.200940
O O1 0.098766 0.500000 0.760578
O O2 0.108638 0.365953 0.550019
O O3 0.023480 0.347308 0.824051
O O4 0.171333 0.350141 0.782243
O O5 0.961240 0.892389 0.171037
O O6 0.886493 0.813490 0.459834
O O7 0.823866 0.886621 0.258059
O O8 0.889551 0.000000 0.404944
O O9 0.562372 0.282684 0.040565
O O10 0.066408 0.721757 0.321328
O O11 0.198448 0.691918 0.305067
O O12 0.781752 0.500000 0.118416
O O13 0.878494 0.380574 0.931693
O O14 0.742805 0.360940 0.982988
O O15 0.727299 0.000000 0.219895
#
# Coordination Sequence:
#
# PCOD9219222 Si02
#       7
#     8   8   4   8   8   8   8
#     4  11  20  32  57  92 131 164 194 237 299 375
#     4  11  24  44  65  86 118 163 214 263 306 350
#     4  12  23  42  63  86 114 164 211 270 295 350
#     4  11  22  38  61  92 127 161 197 251 310 372
#     4   9  17  32  55  88 126 163 198 240 295 364
#     4  11  20  35  58  86 124 160 201 245 304 366
#     4   9  20  39  64  93 126 161 199 248 308 370
#
# _framework density 22.92473
#
# number of rings (size 3 to 8) (size 9 to 14) (size 15 to 20)
#    0.000    1.538    3.077    2.077    0.000    3.692 
#    0.000   10.769    0.000    3.692    0.000    0.000 
#    0.000    0.000    0.000    0.000    0.000    0.000 
#
# Total GULP energy -144945.178834 kJ/mol
# GULP energy per Si atom -5574.814571 kJ/mol
# Density = 2.287255 g / cm^3
# Si number density = 22.924730 Si / 1000 Ang^3
#
#
#
# Elastic Constant Matrix: (Units=GPa)
#
#
# Indices 1 2 3 4 5 6 
#
# 1 49.3170 25.2582 17.4720 0.0000 17.2729 0.0000
# 2 25.2582 106.1759 35.7497 0.0000 7.4086 0.0000
# 3 17.4720 35.7497 106.8611 0.0000 36.0352 0.0000
# 4 0.0000 0.0000 0.0000 16.9149 0.0000 5.7403
# 5 17.2729 7.4086 36.0352 0.0000 30.2792 0.0000
# 6 0.0000 0.0000 0.0000 5.7403 0.0000 23.5566
#
#
#
# Elastic Compliance Matrix: (Units=1/GPa)
#
#
# Indices 1 2 3 4 5 6 
#
# 1 0.029451 -0.007070 0.004396 0.000000 -0.020303 0.000000
# 2 -0.007070 0.012447 -0.005581 0.000000 0.007629 0.000000
# 3 0.004396 -0.005581 0.018192 0.000000 -0.022793 0.000000
# 4 0.000000 0.000000 0.000000 0.064449 0.000000 -0.015705
# 5 -0.020303 0.007629 -0.022793 0.000000 0.069867 0.000000
# 6 0.000000 0.000000 0.000000 -0.015705 0.000000 0.046278
#
#
# Mechanical properties :
#
#
# Convention : Reuss Voigt Hill
#
# Bulk Modulus (GPa) = 22.94538 46.59043 34.76790
# Shear Modulus (GPa) = 18.40127 26.40842 22.40485
#
# Velocity S-wave (km/s) = 2.83624 3.39774 3.12961
# Velocity P-wave (km/s) = 4.55592 5.97998 5.31585
#
# Compressibility (1/GPa) = 0.04358176
#
# Stress axis : x y z
#
# Youngs Moduli (GPa) = 33.95445 80.34141 54.96824
#
# Poissons Ratio (x) = 0.56799 -0.24165
# Poissons Ratio (y) = 0.24005 0.30677
# Poissons Ratio (z) = -0.14927 0.44837
#
# Static dielectric constant tensor:
#      x y z
#    x 1.867540 0.000000 -0.008240 
#    y 0.000000 1.895280 0.000000 
#    z -0.008240 0.000000 1.885930 
# 
# From -- ./inp_files/85859.got.cif
#   From: 2010.05.17/outbox.cif.g08.bks.cpg/sg12_43_cif.got.tgz:85859.got - 2010.06.03 13:09:07.
