data_PCOD9219681
_publ_section_title
;
Structure prediction by ZEFSAII (Michael W. Deem and Ramdas Pophale) SiO2 
 PCOD9219681
Probable space group: C 2/M
;
_chemical_formula_sum "Si O2"
_cell_formula_units_Z 64
_cell_length_a 19.525677
_cell_length_b 8.782770
_cell_length_c 36.507167
_cell_angle_alpha 90.000000
_cell_angle_beta 143.630783
_cell_angle_gamma 90.000000
_cell_volume 3712.448577
_symmetry_space_group_name_H-M "C 2/M"
_symmetry_group_IT_number 12
_symmetry_cell_setting 'monoclinic'
loop_
_space_group_symop_operation_xyz
x,y,z
-x,y,-z
-x,-y,-z
x,-y,z
1/2+x,1/2+y,z
1/2-x,1/2+y,-z
1/2-x,1/2-y,-z
1/2+x,1/2-y,z
loop_
_atom_site_type_symbol
_atom_site_label
_atom_site_fract_x
_atom_site_fract_y
_atom_site_fract_z
Si Si1 0.733596 0.683733 0.234989
Si Si2 0.969594 0.315900 0.373979
Si Si3 0.803144 0.680556 0.860278
Si Si4 0.473857 0.317974 0.136229
Si Si5 0.797862 0.683209 0.558589
Si Si6 0.279828 0.818451 0.102876
Si Si7 0.449103 0.317460 0.040156
Si Si8 0.065454 0.815693 0.491354
O O1 0.735681 0.500000 0.232508
O O2 0.843344 0.731755 0.306078
O O3 0.736446 0.752124 0.195615
O O4 0.608710 0.724241 0.197889
O O5 0.970796 0.500000 0.377979
O O6 0.067091 0.273557 0.385389
O O7 0.005573 0.246623 0.428606
O O8 0.801981 0.500000 0.858433
O O9 0.726518 0.741944 0.860372
O O10 0.934139 0.738960 0.923148
O O11 0.462769 0.500000 0.136619
O O12 0.390865 0.232297 0.128025
O O13 0.438833 0.284056 0.079039
O O14 0.794518 0.500000 0.555988
O O15 0.750000 0.750000 0.500000
O O16 0.701848 0.729548 0.547284
O O17 0.276649 0.000000 0.105388
O O18 0.165100 0.771461 0.030753
O O19 0.464220 0.500000 0.042909
O O20 0.000000 0.764401 0.500000
O O21 0.060070 0.000000 0.488146
#
# Coordination Sequence:
#
# PCOD9219681 Si02
#       8
#     8   8   8   8   8   8   8   8
#     4   9  19  37  55  70  95 131 168 208 253 296
#     4   9  17  31  53  74  93 126 168 202 234 284
#     4  11  22  34  51  74  99 128 165 208 248 292
#     4   9  18  33  51  71  98 129 162 204 251 298
#     4   8  14  26  45  69  95 124 159 193 228 273
#     4  11  21  33  51  74 100 129 161 201 253 305
#     4   9  19  35  53  73  99 130 161 199 251 305
#     4   9  17  29  46  72 107 136 156 193 245 284
#
# _framework density 17.239294999999998
#
# number of rings (size 3 to 8) (size 9 to 14) (size 15 to 20)
#    0.000    2.625    0.000    3.000    0.000    5.250 
#    0.000    1.250    0.000    1.500    0.000    0.000 
#    0.000    0.000    0.000    0.000    0.000    0.000 
#
# Total GULP energy -178347.130552 kJ/mol
# GULP energy per Si atom -5573.347830 kJ/mol
# Density = 1.720006 g / cm^3
# Si number density = 17.239295 Si / 1000 Ang^3
#
#
#
# Elastic Constant Matrix: (Units=GPa)
#
#
# Indices 1 2 3 4 5 6 
#
# 1 122.4300 29.4682 45.9169 0.0000 -4.7621 0.0000
# 2 29.4682 14.7262 19.1171 -0.0001 -0.1071 0.0001
# 3 45.9169 19.1171 87.8304 0.0000 10.3865 0.0000
# 4 0.0000 -0.0001 0.0000 14.6580 0.0000 4.6461
# 5 -4.7621 -0.1071 10.3865 0.0000 8.8661 0.0000
# 6 0.0000 0.0001 0.0000 4.6461 0.0000 19.8621
#
#
#
# Elastic Compliance Matrix: (Units=1/GPa)
#
#
# Indices 1 2 3 4 5 6 
#
# 1 0.017316 -0.028734 -0.004477 0.000000 0.014198 0.000000
# 2 -0.028734 0.149402 -0.018440 0.000001 0.007973 -0.000001
# 3 -0.004477 -0.018440 0.020953 0.000000 -0.027174 0.000000
# 4 0.000000 0.000001 0.000000 0.073686 0.000000 -0.017236
# 5 0.014198 0.007973 -0.027174 0.000000 0.152346 0.000000
# 6 0.000000 -0.000001 0.000000 -0.017236 0.000000 0.054379
#
#
# Mechanical properties :
#
#
# Convention : Reuss Voigt Hill
#
# Bulk Modulus (GPa) = 11.85274 45.99900 28.92587
# Shear Modulus (GPa) = 8.34018 17.37617 12.85818
#
# Velocity S-wave (km/s) = 2.20191 3.17825 2.73401
# Velocity P-wave (km/s) = 3.65443 6.34105 5.17512
#
# Compressibility (1/GPa) = 0.08436868
#
# Stress axis : x y z
#
# Youngs Moduli (GPa) = 57.75166 6.69334 47.72542
#
# Poissons Ratio (x) = 0.19233 0.21367
# Poissons Ratio (y) = 1.65946 0.88004
# Poissons Ratio (z) = 0.25856 0.12342
#
# Static dielectric constant tensor:
#      x y z
#    x 1.597570 0.000000 0.026410 
#    y 0.000000 1.573270 0.000000 
#    z 0.026410 0.000000 1.569230 
# 
# From -- ./inp_files/341949.got.cif
#   From: 2010.05.17/outbox.cif.g08.bks.cpg/sg12_171_cif.got.tgz:341949.got - 2010.06.03 13:09:07.
