data_PCOD9219784
_publ_section_title
;
Structure prediction by ZEFSAII (Michael W. Deem and Ramdas Pophale) SiO2 
 PCOD9219784
Probable space group: C 2/M
;
_chemical_formula_sum "Si O2"
_cell_formula_units_Z 56
_cell_length_a 17.507562
_cell_length_b 24.649012
_cell_length_c 8.979577
_cell_angle_alpha 90.000000
_cell_angle_beta 50.548405
_cell_angle_gamma 90.000000
_cell_volume 2992.191021
_symmetry_space_group_name_H-M "C 2/M"
_symmetry_group_IT_number 12
_symmetry_cell_setting 'monoclinic'
loop_
_space_group_symop_operation_xyz
x,y,z
-x,y,-z
-x,-y,-z
x,-y,z
1/2+x,1/2+y,z
1/2-x,1/2+y,-z
1/2-x,1/2-y,-z
1/2+x,1/2-y,z
loop_
_atom_site_type_symbol
_atom_site_label
_atom_site_fract_x
_atom_site_fract_y
_atom_site_fract_z
Si Si1 0.886823 0.311267 0.645572
Si Si2 0.427894 0.636143 0.727452
Si Si3 0.107401 0.061684 0.941883
Si Si4 0.273375 0.195526 0.064163
Si Si5 0.239609 0.140930 0.586427
Si Si6 0.914644 0.777010 0.380860
Si Si7 0.897684 0.674850 0.189356
O O1 0.801447 0.335034 0.647181
O O2 0.891132 0.249235 0.572660
O O3 0.000000 0.329863 0.500000
O O4 0.854376 0.327485 0.850331
O O5 0.500000 0.618948 0.500000
O O6 0.320948 0.656574 0.805765
O O7 0.487578 0.686625 0.727177
O O8 0.406666 0.592974 0.883985
O O9 0.176295 0.093349 0.738187
O O10 0.141727 0.000000 0.923155
O O11 0.000000 0.060592 0.000000
O O12 0.329829 0.202901 0.147940
O O13 0.250000 0.250000 0.000000
O O14 0.167765 0.185098 0.595337
O O15 0.326382 0.131603 0.358289
O O16 0.926370 0.723464 0.266420
O O17 0.000000 0.652433 0.000000
#
# Coordination Sequence:
#
# PCOD9219784 Si02
#       7
#     8   8   8   8   8   8   8
#     4  11  21  35  52  85 124 163 201 236 281 359
#     4  12  24  39  60  90 125 155 196 254 306 361
#     4  11  25  45  70  90 110 155 208 258 316 364
#     4  12  21  32  53  85 121 167 196 233 292 352
#     4  11  21  40  59  83 120 161 204 249 299 357
#     4  11  22  35  54  86 133 169 201 233 290 364
#     4  11  23  34  56  88 127 171 203 236 282 358
#
# _framework density 18.715382000000002
#
# number of rings (size 3 to 8) (size 9 to 14) (size 15 to 20)
#    0.000    0.714    2.857    9.000    2.000    0.286 
#    0.000    0.000    0.000    0.857    0.000    0.000 
#    0.000    0.000    0.000    0.000    0.000    0.000 
#
# Total GULP energy -156131.529834 kJ/mol
# GULP energy per Si atom -5576.126066 kJ/mol
# Density = 1.867278 g / cm^3
# Si number density = 18.715382 Si / 1000 Ang^3
#
#
#
# Elastic Constant Matrix: (Units=GPa)
#
#
# Indices 1 2 3 4 5 6 
#
# 1 87.0943 23.2826 25.7225 0.0000 -5.3626 0.0000
# 2 23.2826 71.9074 53.9396 0.0000 -8.6352 0.0000
# 3 25.7225 53.9396 158.0081 0.0000 -14.1588 0.0000
# 4 0.0000 0.0000 0.0000 11.1001 0.0000 1.3551
# 5 -5.3626 -8.6352 -14.1588 0.0000 41.4669 0.0000
# 6 0.0000 0.0000 0.0000 1.3551 0.0000 12.7633
#
#
#
# Elastic Compliance Matrix: (Units=1/GPa)
#
#
# Indices 1 2 3 4 5 6 
#
# 1 0.012679 -0.003391 -0.000849 0.000000 0.000644 0.000000
# 2 -0.003391 0.019727 -0.006038 0.000000 0.001608 0.000000
# 3 -0.000849 -0.006038 0.008671 0.000000 0.001594 0.000000
# 4 0.000000 0.000000 0.000000 0.091273 0.000000 -0.009691
# 5 0.000644 0.001608 0.001594 0.000000 0.025078 0.000000
# 6 0.000000 0.000000 0.000000 -0.009691 0.000000 0.079379
#
#
# Mechanical properties :
#
#
# Convention : Reuss Voigt Hill
#
# Bulk Modulus (GPa) = 48.73121 58.09990 53.41556
# Shear Modulus (GPa) = 18.92487 27.33706 23.13097
#
# Velocity S-wave (km/s) = 3.18338 3.82602 3.51940
# Velocity P-wave (km/s) = 6.29336 7.11542 6.71698
#
# Compressibility (1/GPa) = 0.02052073
#
# Stress axis : x y z
#
# Youngs Moduli (GPa) = 78.87272 50.69114 115.32687
#
# Poissons Ratio (x) = 0.17191 0.09787
# Poissons Ratio (y) = 0.26748 0.69637
# Poissons Ratio (z) = 0.06693 0.30608
#
# Static dielectric constant tensor:
#      x y z
#    x 1.659460 0.000000 0.012930 
#    y 0.000000 1.636190 0.000000 
#    z 0.012930 0.000000 1.881770 
# 
# From -- ./inp_files/79076.got.cif
#   From: 2010.05.17/outbox.cif.g08.bks.cpg/sg12_40_cif.got.tgz:79076.got - 2010.06.03 13:09:07.
