data_PCOD9219507
_publ_section_title
;
Structure prediction by ZEFSAII (Michael W. Deem and Ramdas Pophale) SiO2 
 PCOD9219507
Probable space group: C 2/M
;
_chemical_formula_sum "Si O2"
_cell_formula_units_Z 44
_cell_length_a 8.671741
_cell_length_b 29.209220
_cell_length_c 8.694293
_cell_angle_alpha 90.000000
_cell_angle_beta 96.805746
_cell_angle_gamma 90.000000
_cell_volume 2186.701472
_symmetry_space_group_name_H-M "C 2/M"
_symmetry_group_IT_number 12
_symmetry_cell_setting 'monoclinic'
loop_
_space_group_symop_operation_xyz
x,y,z
-x,y,-z
-x,-y,-z
x,-y,z
1/2+x,1/2+y,z
1/2-x,1/2+y,-z
1/2-x,1/2-y,-z
1/2+x,1/2-y,z
loop_
_atom_site_type_symbol
_atom_site_label
_atom_site_fract_x
_atom_site_fract_y
_atom_site_fract_z
Si Si1 0.286022 0.379099 0.720620
Si Si2 0.955207 0.052618 0.177621
Si Si3 0.500000 0.849221 0.500000
Si Si4 0.515990 0.705014 0.179867
Si Si5 0.663234 0.894548 0.048513
Si Si6 0.665567 0.802802 0.238440
O O1 0.416592 0.418034 0.715587
O O2 0.369636 0.329844 0.720766
O O3 0.132505 0.379050 0.599370
O O4 0.232547 0.384502 0.890069
O O5 0.788872 0.077602 0.161750
O O6 0.949008 0.000000 0.226080
O O7 0.000000 0.052898 0.000000
O O8 0.593723 0.817474 0.392108
O O9 0.584943 0.755734 0.180304
O O10 0.350097 0.704431 0.244055
O O11 0.500000 0.688632 0.000000
O O12 0.631329 0.846340 0.126823
O O13 0.500000 0.919400 0.000000
#
# Coordination Sequence:
#
# PCOD9219507 Si02
#       6
#     8   8   4   8   8   8
#     4  11  22  41  64  92 130 170 211 263 323 381
#     4   9  19  39  68  99 125 158 211 275 330 375
#     4  12  28  42  59  92 136 176 213 264 318 382
#     4  12  23  40  68  93 125 169 222 269 316 375
#     4  11  20  39  66  96 125 163 214 267 316 380
#     4  12  25  40  62  96 128 172 219 261 316 377
#
# _framework density 20.12163
#
# number of rings (size 3 to 8) (size 9 to 14) (size 15 to 20)
#    0.000    0.909    5.455    2.727    0.000    4.000 
#    0.000    0.455    0.000    2.182    0.000    0.000 
#    0.000    0.000    0.000    0.000    0.000    0.000 
#
# Total GULP energy -122920.977190 kJ/mol
# GULP energy per Si atom -5587.317145 kJ/mol
# Density = 2.007583 g / cm^3
# Si number density = 20.121630 Si / 1000 Ang^3
#
#
#
# Elastic Constant Matrix: (Units=GPa)
#
#
# Indices 1 2 3 4 5 6 
#
# 1 176.8852 62.6780 55.9771 0.0000 18.0972 0.0000
# 2 62.6780 128.1990 38.1346 0.0000 26.8011 0.0000
# 3 55.9771 38.1346 58.4052 0.0000 24.8020 0.0000
# 4 0.0000 0.0000 0.0000 448.0011 0.0000 -425.7548
# 5 18.0972 26.8011 24.8020 0.0000 34.9971 0.0000
# 6 0.0000 0.0000 0.0000 -425.7548 0.0000 448.5201
#
#
#
# Elastic Compliance Matrix: (Units=1/GPa)
#
#
# Indices 1 2 3 4 5 6 
#
# 1 0.008800 -0.002549 -0.008106 0.000000 0.003146 0.000000
# 2 -0.002549 0.010870 -0.002402 0.000000 -0.005304 0.000000
# 3 -0.008106 -0.002402 0.034186 0.000000 -0.018196 0.000000
# 4 0.000000 0.000000 0.000000 0.022802 0.000000 0.021644
# 5 0.003146 -0.005304 -0.018196 0.000000 0.043904 0.000000
# 6 0.000000 0.000000 0.000000 0.021644 0.000000 0.022775
#
#
# Mechanical properties :
#
#
# Convention : Reuss Voigt Hill
#
# Bulk Modulus (GPa) = 36.04595 75.22987 55.63791
# Shear Modulus (GPa) = 27.98024 200.08363 114.03193
#
# Velocity S-wave (km/s) = 3.73306 9.98263 7.53620
# Velocity P-wave (km/s) = 6.04433 13.05141 10.17038
#
# Compressibility (1/GPa) = 0.02774237
#
# Stress axis : x y z
#
# Youngs Moduli (GPa) = 113.63876 91.99706 29.25192
#
# Poissons Ratio (x) = 0.23449 0.23711
# Poissons Ratio (y) = 0.28965 0.07026
# Poissons Ratio (z) = 0.92112 0.22098
#
# Static dielectric constant tensor:
#      x y z
#    x 1.744780 0.000000 0.018060 
#    y 0.000000 1.684140 0.000000 
#    z 0.018060 0.000000 1.730500 
# 
# From -- ./inp_files/41725.got.cif
#   From: 2010.05.17/outbox.cif.g08.bks.cpg/sg12_21_cif.got.tgz:41725.got - 2010.06.03 13:09:07.
