data_PCOD9219924
_publ_section_title
;
Structure prediction by ZEFSAII (Michael W. Deem and Ramdas Pophale) SiO2 
 PCOD9219924
Probable space group: C 2/M
;
_chemical_formula_sum "Si O2"
_cell_formula_units_Z 48
_cell_length_a 23.504848
_cell_length_b 7.890506
_cell_length_c 12.488563
_cell_angle_alpha 90.000000
_cell_angle_beta 69.090674
_cell_angle_gamma 90.000000
_cell_volume 2163.663471
_symmetry_space_group_name_H-M "C 2/M"
_symmetry_group_IT_number 12
_symmetry_cell_setting 'monoclinic'
loop_
_space_group_symop_operation_xyz
x,y,z
-x,y,-z
-x,-y,-z
x,-y,z
1/2+x,1/2+y,z
1/2-x,1/2+y,-z
1/2-x,1/2-y,-z
1/2+x,1/2-y,z
loop_
_atom_site_type_symbol
_atom_site_label
_atom_site_fract_x
_atom_site_fract_y
_atom_site_fract_z
Si Si1 0.069831 0.206447 0.460611
Si Si2 0.305578 0.803680 0.233582
Si Si3 0.412525 0.303145 0.312338
Si Si4 0.821371 0.791911 0.758159
Si Si5 0.656709 0.304652 0.024105
Si Si6 0.976076 0.696528 0.901133
O O1 0.095336 0.253554 0.560249
O O2 0.115558 0.264780 0.337328
O O3 0.000000 0.264223 0.500000
O O4 0.069115 0.000000 0.454288
O O5 0.352341 0.714530 0.281375
O O6 0.236442 0.738927 0.273592
O O7 0.304741 0.000000 0.265774
O O8 0.329244 0.789590 0.095461
O O9 0.430549 0.500000 0.303235
O O10 0.468382 0.209570 0.218007
O O11 0.814421 0.735468 0.885758
O O12 0.821038 0.000000 0.761595
O O13 0.674728 0.500000 0.996929
O O14 0.584037 0.295474 0.091856
O O15 0.958441 0.500000 0.926304
O O16 0.000000 0.760240 0.000000
#
# Coordination Sequence:
#
# PCOD9219924 Si02
#       6
#     8   8   8   8   8   8
#     4   9  18  36  61  87 113 144 189 241 289 336
#     4  11  22  37  56  82 121 159 189 231 292 346
#     4  11  22  36  60  89 115 148 195 243 280 333
#     4   9  20  37  58  85 116 154 194 235 286 342
#     4  11  21  36  61  88 114 148 197 245 282 333
#     4  11  22  36  56  83 117 153 184 226 290 349
#
# _framework density 22.184597
#
# number of rings (size 3 to 8) (size 9 to 14) (size 15 to 20)
#    0.000    1.667    1.667    3.500    0.000    4.000 
#    0.000    2.500    0.000   14.000    0.000    0.000 
#    0.000    0.000    0.000    0.000    0.000    0.000 
#
# Total GULP energy -134182.594943 kJ/mol
# GULP energy per Si atom -5590.941456 kJ/mol
# Density = 2.213410 g / cm^3
# Si number density = 22.184597 Si / 1000 Ang^3
#
#
#
# Elastic Constant Matrix: (Units=GPa)
#
#
# Indices 1 2 3 4 5 6 
#
# 1 103.8633 -3.5185 27.9652 0.0000 -4.7766 0.0000
# 2 -3.5185 31.1811 -5.4484 0.0000 -0.3975 0.0000
# 3 27.9652 -5.4484 95.2559 0.0000 6.0306 0.0000
# 4 0.0000 0.0000 0.0000 -4.1404 0.0000 -3.5833
# 5 -4.7766 -0.3975 6.0306 0.0000 31.8071 0.0000
# 6 0.0000 0.0000 0.0000 -3.5833 0.0000 15.2046
#
#
#
# Elastic Compliance Matrix: (Units=1/GPa)
#
#
# Indices 1 2 3 4 5 6 
#
# 1 0.010619 0.000664 -0.003220 0.000000 0.002214 0.000000
# 2 0.000664 0.032436 0.001648 0.000000 0.000193 0.000000
# 3 -0.003220 0.001648 0.011707 0.000000 -0.002683 0.000000
# 4 0.000000 0.000000 0.000000 -0.200606 0.000000 -0.047277
# 5 0.002214 0.000193 -0.002683 0.000000 0.032283 0.000000
# 6 0.000000 0.000000 0.000000 -0.047277 0.000000 0.054628
#
#
# Mechanical properties :
#
#
# Convention : Reuss Voigt Hill
#
# Bulk Modulus (GPa) = 18.88669 29.81075 24.34872
# Shear Modulus (GPa) = -126.68544 22.66104 -52.01220
#
# Velocity S-wave (km/s) = -7.56499 3.19952 -4.84728
# Velocity P-wave (km/s) = 8.23247 5.20730 4.50874
#
# Compressibility (1/GPa) = 0.05294735
#
# Stress axis : x y z
#
# Youngs Moduli (GPa) = 94.16856 30.82987 85.41600
#
# Poissons Ratio (x) = -0.02047 0.27502
# Poissons Ratio (y) = -0.06252 -0.14078
# Poissons Ratio (z) = 0.30320 -0.05081
#
# Static dielectric constant tensor:
#      x y z
#    x 1.814610 0.000000 0.003630 
#    y 0.000000 1.778920 0.000000 
#    z 0.003630 0.000000 1.793390 
# 
# From -- ./inp_files/172883.got.cif
#   From: 2010.05.17/outbox.cif.g08.bks.cpg/sg12_87_cif.got.tgz:172883.got - 2010.06.03 13:09:07.
