data_PCOD9219423
_publ_section_title
;
Structure prediction by ZEFSAII (Michael W. Deem and Ramdas Pophale) SiO2 
 PCOD9219423
Probable space group: C 2/M
;
_chemical_formula_sum "Si O2"
_cell_formula_units_Z 40
_cell_length_a 20.572132
_cell_length_b 11.220331
_cell_length_c 10.063945
_cell_angle_alpha 90.000000
_cell_angle_beta 105.424246
_cell_angle_gamma 90.000000
_cell_volume 2239.353081
_symmetry_space_group_name_H-M "C 2/M"
_symmetry_group_IT_number 12
_symmetry_cell_setting 'monoclinic'
loop_
_space_group_symop_operation_xyz
x,y,z
-x,y,-z
-x,-y,-z
x,-y,z
1/2+x,1/2+y,z
1/2-x,1/2+y,-z
1/2-x,1/2-y,-z
1/2+x,1/2-y,z
loop_
_atom_site_type_symbol
_atom_site_label
_atom_site_fract_x
_atom_site_fract_y
_atom_site_fract_z
Si Si1 0.896394 0.500000 0.020714
Si Si2 0.444480 0.258741 0.644781
Si Si3 0.072630 0.140162 0.088396
Si Si4 0.829319 0.252085 0.065711
Si Si5 0.043071 0.500000 0.237497
Si Si6 0.092203 0.143969 0.656773
O O1 0.908463 0.500000 0.867134
O O2 0.857552 0.383009 0.048191
O O3 0.968941 0.500000 0.131868
O O4 0.410765 0.305896 0.760335
O O5 0.448921 0.117286 0.668025
O O6 0.408365 0.303626 0.492278
O O7 0.519709 0.315704 0.677911
O O8 0.064200 0.000000 0.099284
O O9 0.129757 0.168152 0.013633
O O10 0.000000 0.191469 0.000000
O O11 0.850961 0.204399 0.221985
O O12 0.750000 0.250000 0.000000
O O13 0.096056 0.000000 0.658718
#
# Coordination Sequence:
#
# PCOD9219423 Si02
#       6
#     4   8   8   8   4   8
#     4  11  22  41  62  93 129 164 210 255 310 375
#     4  11  21  37  63  96 123 162 205 258 322 361
#     4  11  20  37  64  92 120 159 213 261 302 361
#     4  12  26  41  63  92 126 170 209 254 311 370
#     4  11  20  38  67  94 129 158 205 263 310 380
#     4  11  23  40  61  93 130 161 207 263 312 364
#
# _framework density 17.862302
#
# number of rings (size 3 to 8) (size 9 to 14) (size 15 to 20)
#    0.000    0.800    6.000    3.000    2.800    2.400 
#    0.000    1.000    0.000    0.000    0.000    0.000 
#    0.000    0.000    0.000    0.000    0.000    0.000 
#
# Total GULP energy -111735.722563 kJ/mol
# GULP energy per Si atom -5586.786128 kJ/mol
# Density = 1.782165 g / cm^3
# Si number density = 17.862302 Si / 1000 Ang^3
#
#
#
# Elastic Constant Matrix: (Units=GPa)
#
#
# Indices 1 2 3 4 5 6 
#
# 1 91.8645 27.9280 51.4192 0.0000 18.4696 0.0000
# 2 27.9280 148.9294 44.7292 0.0000 12.1366 0.0000
# 3 51.4192 44.7292 128.7654 0.0000 18.7231 0.0000
# 4 0.0000 0.0000 0.0000 43.5702 0.0000 -5.8010
# 5 18.4696 12.1366 18.7231 0.0000 22.4259 0.0000
# 6 0.0000 0.0000 0.0000 -5.8010 0.0000 -5.3907
#
#
#
# Elastic Compliance Matrix: (Units=1/GPa)
#
#
# Indices 1 2 3 4 5 6 
#
# 1 0.015424 -0.000810 -0.004660 0.000000 -0.008374 0.000000
# 2 -0.000810 0.007631 -0.002076 0.000000 -0.001729 0.000000
# 3 -0.004660 -0.002076 0.010957 0.000000 -0.004186 0.000000
# 4 0.000000 0.000000 0.000000 0.020075 0.000000 -0.021603
# 5 -0.008374 -0.001729 -0.004186 0.000000 0.055919 0.000000
# 6 0.000000 0.000000 0.000000 -0.021603 0.000000 -0.162258
#
#
# Mechanical properties :
#
#
# Convention : Reuss Voigt Hill
#
# Bulk Modulus (GPa) = 52.85639 68.63469 60.74554
# Shear Modulus (GPa) = -162.05524 28.48661 -66.78432
#
# Velocity S-wave (km/s) = -9.53529 3.99781 -6.12124
# Velocity P-wave (km/s) = 9.56941 7.73419 3.98471
#
# Compressibility (1/GPa) = 0.01891919
#
# Stress axis : x y z
#
# Youngs Moduli (GPa) = 64.83458 131.04624 91.26851
#
# Poissons Ratio (x) = 0.10620 0.42532
# Poissons Ratio (y) = 0.05254 0.18944
# Poissons Ratio (z) = 0.30213 0.27201
#
# Static dielectric constant tensor:
#      x y z
#    x 1.595710 0.000000 -0.027190 
#    y 0.000000 1.634070 0.000000 
#    z -0.027190 0.000000 1.686900 
# 
# From -- ./inp_files/71348.got.cif
#   From: 2010.05.17/outbox.cif.g08.bks.cpg/sg12_36_cif.got.tgz:71348.got - 2010.06.03 13:09:07.
