data_PCOD9219817
_publ_section_title
;
Structure prediction by ZEFSAII (Michael W. Deem and Ramdas Pophale) SiO2 
 PCOD9219817
Probable space group: C 2/M
;
_chemical_formula_sum "Si O2"
_cell_formula_units_Z 56
_cell_length_a 30.183651
_cell_length_b 8.294115
_cell_length_c 12.054421
_cell_angle_alpha 90.000000
_cell_angle_beta 69.088481
_cell_angle_gamma 90.000000
_cell_volume 2819.010996
_symmetry_space_group_name_H-M "C 2/M"
_symmetry_group_IT_number 12
_symmetry_cell_setting 'monoclinic'
loop_
_space_group_symop_operation_xyz
x,y,z
-x,y,-z
-x,-y,-z
x,-y,z
1/2+x,1/2+y,z
1/2-x,1/2+y,-z
1/2-x,1/2-y,-z
1/2+x,1/2-y,z
loop_
_atom_site_type_symbol
_atom_site_label
_atom_site_fract_x
_atom_site_fract_y
_atom_site_fract_z
Si Si1 0.614430 0.691095 0.221709
Si Si2 0.340447 0.311261 0.359320
Si Si3 0.839228 0.684860 0.600513
Si Si4 0.433334 0.303450 0.146871
Si Si5 0.962945 0.803337 0.876658
Si Si6 0.699974 0.192979 0.994557
Si Si7 0.235880 0.688828 0.726674
O O1 0.610808 0.500000 0.243503
O O2 0.627634 0.772063 0.325736
O O3 0.566978 0.750682 0.202444
O O4 0.657411 0.723772 0.097750
O O5 0.333915 0.500000 0.340047
O O6 0.347686 0.289121 0.483324
O O7 0.386359 0.249237 0.251572
O O8 0.293868 0.221325 0.357196
O O9 0.845332 0.500000 0.563737
O O10 0.784901 0.715612 0.685728
O O11 0.432913 0.500000 0.148252
O O12 0.482275 0.253231 0.162924
O O13 0.437623 0.253394 0.014505
O O14 0.962407 0.000000 0.876385
O O15 0.703114 0.232835 0.861234
O O16 0.695438 0.000000 0.011331
O O17 0.750000 0.250000 0.000000
O O18 0.247805 0.500000 0.725855
#
# Coordination Sequence:
#
# PCOD9219817 Si02
#       7
#     8   8   8   8   8   8   8
#     4  11  21  35  57  85 116 148 186 233 284 333
#     4  11  22  37  59  84 111 145 188 235 282 331
#     4  12  25  40  56  75 109 153 194 234 277 335
#     4   8  15  31  56  87 116 142 176 224 278 332
#     4   8  15  30  56  88 117 142 175 223 279 335
#     4  11  22  35  55  81 114 149 184 227 273 329
#     4  11  23  39  58  82 112 147 188 232 279 333
#
# _framework density 19.865123000000001
#
# number of rings (size 3 to 8) (size 9 to 14) (size 15 to 20)
#    0.000    1.714    1.429    5.143    0.000    2.857 
#    0.000    0.714    0.000    7.714    0.000   10.000 
#    0.000    0.000    0.000    0.000    0.000    0.000 
#
# Total GULP energy -156456.414337 kJ/mol
# GULP energy per Si atom -5587.729083 kJ/mol
# Density = 1.981991 g / cm^3
# Si number density = 19.865123 Si / 1000 Ang^3
#
#
#
# Elastic Constant Matrix: (Units=GPa)
#
#
# Indices 1 2 3 4 5 6 
#
# 1 91.4070 -5.6047 15.7680 0.0000 31.3702 0.0000
# 2 -5.6047 21.1481 -7.0986 0.0000 -1.8432 0.0000
# 3 15.7680 -7.0986 48.7559 0.0000 18.3474 0.0000
# 4 0.0000 0.0000 0.0000 13.4366 0.0000 1.5045
# 5 31.3702 -1.8432 18.3474 0.0000 26.5678 0.0000
# 6 0.0000 0.0000 0.0000 1.5045 0.0000 15.7931
#
#
#
# Elastic Compliance Matrix: (Units=1/GPa)
#
#
# Indices 1 2 3 4 5 6 
#
# 1 0.019067 0.004159 0.003787 0.000000 -0.024840 0.000000
# 2 0.004159 0.050709 0.008866 0.000000 -0.007516 0.000000
# 3 0.003787 0.008866 0.029762 0.000000 -0.024409 0.000000
# 4 0.000000 0.000000 0.000000 0.075226 0.000000 -0.007166
# 5 -0.024840 -0.007516 -0.024409 0.000000 0.083305 0.000000
# 6 0.000000 0.000000 0.000000 -0.007166 0.000000 0.064001
#
#
# Mechanical properties :
#
#
# Convention : Reuss Voigt Hill
#
# Bulk Modulus (GPa) = 7.50967 18.60449 13.05708
# Shear Modulus (GPa) = 15.02255 21.70926 18.36590
#
# Velocity S-wave (km/s) = 2.75294 3.30939 3.04391
# Velocity P-wave (km/s) = 3.72739 4.89780 4.35212
#
# Compressibility (1/GPa) = 0.13316171
#
# Stress axis : x y z
#
# Youngs Moduli (GPa) = 52.44745 19.72042 33.59984
#
# Poissons Ratio (x) = -0.08202 -0.12723
# Poissons Ratio (y) = -0.21814 -0.29790
# Poissons Ratio (z) = -0.19860 -0.17484
#
# Static dielectric constant tensor:
#      x y z
#    x 1.691870 0.000000 0.010230 
#    y 0.000000 1.695750 0.000000 
#    z 0.010230 0.000000 1.694510 
# 
# From -- ./inp_files/186488.got.cif
#   From: 2010.05.17/outbox.cif.g08.bks.cpg/sg12_94_cif.got.tgz:186488.got - 2010.06.03 13:09:07.
