data_PCOD9219627
_publ_section_title
;
Structure prediction by ZEFSAII (Michael W. Deem and Ramdas Pophale) SiO2 
 PCOD9219627
Probable space group: C 2/M
;
_chemical_formula_sum "Si O2"
_cell_formula_units_Z 40
_cell_length_a 19.588577
_cell_length_b 21.335721
_cell_length_c 14.527875
_cell_angle_alpha 90.000000
_cell_angle_beta 160.363461
_cell_angle_gamma 90.000000
_cell_volume 2040.418005
_symmetry_space_group_name_H-M "C 2/M"
_symmetry_group_IT_number 12
_symmetry_cell_setting 'monoclinic'
loop_
_space_group_symop_operation_xyz
x,y,z
-x,y,-z
-x,-y,-z
x,-y,z
1/2+x,1/2+y,z
1/2-x,1/2+y,-z
1/2-x,1/2-y,-z
1/2+x,1/2-y,z
loop_
_atom_site_type_symbol
_atom_site_label
_atom_site_fract_x
_atom_site_fract_y
_atom_site_fract_z
Si Si1 0.555376 0.197033 0.357250
Si Si2 0.261282 0.929192 0.719219
Si Si3 0.387760 0.660618 0.628168
Si Si4 0.333002 0.311736 0.864887
Si Si5 0.270110 0.316827 0.189091
O O1 0.602053 0.271250 0.407524
O O2 0.700559 0.164881 0.463886
O O3 0.622555 0.176636 0.544468
O O4 0.324982 0.184752 0.033296
O O5 0.151295 0.892141 0.496824
O O6 0.245818 0.885342 0.788616
O O7 0.186186 0.000000 0.635526
O O8 0.500000 0.931466 0.000000
O O9 0.592666 0.653899 0.948859
O O10 0.353435 0.237736 0.915189
O O11 0.500000 0.326116 0.000000
O O12 0.500000 0.297447 0.500000
#
# Coordination Sequence:
#
# PCOD9219627 Si02
#       5
#     8   8   8   8   8
#     4   9  16  29  52  74 105 126 157 207 252 301
#     4  11  21  35  54  71  98 134 175 208 236 291
#     4   9  16  29  53  76  95 125 167 206 248 290
#     4   9  17  31  53  75 101 132 156 204 254 299
#     4  11  21  31  47  77 109 131 164 202 251 300
#
# _framework density 19.603826000000002
#
# number of rings (size 3 to 8) (size 9 to 14) (size 15 to 20)
#    0.000    2.200    4.000    1.800    0.000    1.200 
#    0.000    0.000    0.000    6.600    0.000    1.400 
#    0.000    0.000    0.000    0.000    0.000    0.000 
#
# Total GULP energy -111555.116102 kJ/mol
# GULP energy per Si atom -5577.755805 kJ/mol
# Density = 1.955921 g / cm^3
# Si number density = 19.603826 Si / 1000 Ang^3
#
#
#
# Elastic Constant Matrix: (Units=GPa)
#
#
# Indices 1 2 3 4 5 6 
#
# 1 35.6485 21.9507 31.5157 0.0000 -19.6894 -0.0002
# 2 21.9507 102.9001 29.7172 0.0000 -21.7532 0.0000
# 3 31.5157 29.7172 166.6288 -0.0001 -49.6323 -0.0001
# 4 0.0000 0.0000 -0.0001 15.5809 -0.0001 9.3636
# 5 -19.6894 -21.7532 -49.6323 -0.0001 39.8454 -0.0001
# 6 -0.0002 0.0000 -0.0001 9.3636 -0.0001 -40.7900
#
#
#
# Elastic Compliance Matrix: (Units=1/GPa)
#
#
# Indices 1 2 3 4 5 6 
#
# 1 0.041466 -0.005027 -0.002640 0.000000 0.014458 0.000000
# 2 -0.005027 0.011603 0.000045 0.000000 0.003907 0.000000
# 3 -0.002640 0.000045 0.009716 0.000000 0.010823 0.000000
# 4 0.000000 0.000000 0.000000 0.056400 0.000000 0.012947
# 5 0.014458 0.003907 0.010823 0.000000 0.047856 0.000000
# 6 0.000000 0.000000 0.000000 0.012947 0.000000 -0.021544
#
#
# Mechanical properties :
#
#
# Convention : Reuss Voigt Hill
#
# Bulk Modulus (GPa) = 21.03379 52.39384 36.71382
# Shear Modulus (GPa) = 28.31434 17.72684 23.02059
#
# Velocity S-wave (km/s) = 3.80455 3.01034 3.43051
# Velocity P-wave (km/s) = 5.48199 6.23436 5.87024
#
# Compressibility (1/GPa) = 0.04754254
#
# Stress axis : x y z
#
# Youngs Moduli (GPa) = 24.11612 86.18164 102.91858
#
# Poissons Ratio (x) = 0.43322 0.27170
# Poissons Ratio (y) = 0.12123 -0.00464
# Poissons Ratio (z) = 0.06366 -0.00389
#
# Static dielectric constant tensor:
#      x y z
#    x 1.752150 0.000000 0.025450 
#    y 0.000000 1.635090 0.000000 
#    z 0.025450 0.000000 1.803380 
# 
# From -- ./inp_files/48615.got.cif
#   From: 2010.05.17/outbox.cif.g08.bks.cpg/sg12_25_cif.got.tgz:48615.got - 2010.06.03 13:09:07.
