data_PCOD9219744
_publ_section_title
;
Structure prediction by ZEFSAII (Michael W. Deem and Ramdas Pophale) SiO2 
 PCOD9219744
Probable space group: C 2/M
;
_chemical_formula_sum "Si O2"
_cell_formula_units_Z 48
_cell_length_a 19.890740
_cell_length_b 8.741223
_cell_length_c 20.791893
_cell_angle_alpha 90.000000
_cell_angle_beta 49.161692
_cell_angle_gamma 90.000000
_cell_volume 2735.013063
_symmetry_space_group_name_H-M "C 2/M"
_symmetry_group_IT_number 12
_symmetry_cell_setting 'monoclinic'
loop_
_space_group_symop_operation_xyz
x,y,z
-x,y,-z
-x,-y,-z
x,-y,z
1/2+x,1/2+y,z
1/2-x,1/2+y,-z
1/2-x,1/2-y,-z
1/2+x,1/2-y,z
loop_
_atom_site_type_symbol
_atom_site_label
_atom_site_fract_x
_atom_site_fract_y
_atom_site_fract_z
Si Si1 0.319854 0.186050 0.759734
Si Si2 0.298798 0.683288 0.284105
Si Si3 0.523441 0.817026 0.779013
Si Si4 0.179366 0.315136 0.093716
Si Si5 0.478116 0.183413 0.372418
Si Si6 0.699379 0.681865 0.469750
O O1 0.247628 0.235241 0.752982
O O2 0.303037 0.235557 0.843608
O O3 0.420331 0.230180 0.677197
O O4 0.320364 0.000000 0.760712
O O5 0.294162 0.500000 0.290228
O O6 0.400087 0.735964 0.228805
O O7 0.244223 0.751976 0.377880
O O8 0.422518 0.771056 0.858356
O O9 0.536986 0.786272 0.694275
O O10 0.530974 0.000000 0.782261
O O11 0.182693 0.500000 0.090670
O O12 0.250000 0.250000 0.000000
O O13 0.402942 0.267659 0.459663
O O14 0.470053 0.000000 0.386857
O O15 0.708147 0.500000 0.465118
O O16 0.750000 0.750000 0.500000
#
# Coordination Sequence:
#
# PCOD9219744 Si02
#       6
#     8   8   8   8   8   8
#     4   8  18  36  56  78 107 142 176 214 265 319
#     4  11  21  34  54  79 107 141 180 220 263 312
#     4   9  18  33  54  77 105 139 176 218 265 311
#     4   9  18  36  60  83 105 135 175 216 261 318
#     4   9  17  34  56  74  99 141 186 221 257 306
#     4  12  23  34  50  76 108 141 182 225 263 308
#
# _framework density 17.550191999999999
#
# number of rings (size 3 to 8) (size 9 to 14) (size 15 to 20)
#    0.000    2.333    1.667    4.000    0.000    1.333 
#    0.000   10.000    0.000    5.000    0.000    0.000 
#    0.000    0.000    0.000    0.000    0.000    0.000 
#
# Total GULP energy -133919.582667 kJ/mol
# GULP energy per Si atom -5579.982611 kJ/mol
# Density = 1.751025 g / cm^3
# Si number density = 17.550192 Si / 1000 Ang^3
#
#
#
# Elastic Constant Matrix: (Units=GPa)
#
#
# Indices 1 2 3 4 5 6 
#
# 1 164.5943 48.3317 81.1942 0.0000 -9.4928 0.0000
# 2 48.3317 41.3569 38.2607 0.0000 -5.8547 0.0001
# 3 81.1942 38.2607 141.4847 0.0000 -15.2199 0.0000
# 4 0.0000 0.0000 0.0000 31.3427 0.0000 -5.0872
# 5 -9.4928 -5.8547 -15.2199 0.0000 17.4784 0.0000
# 6 0.0000 0.0001 0.0000 -5.0872 0.0000 24.7055
#
#
#
# Elastic Compliance Matrix: (Units=1/GPa)
#
#
# Indices 1 2 3 4 5 6 
#
# 1 0.010467 -0.008930 -0.003644 0.000000 -0.000479 0.000000
# 2 -0.008930 0.040065 -0.005283 0.000000 0.003970 0.000000
# 3 -0.003644 -0.005283 0.011237 0.000000 0.006036 0.000000
# 4 0.000000 0.000000 0.000000 0.033009 0.000000 0.006797
# 5 -0.000479 0.003970 0.006036 0.000000 0.063540 0.000000
# 6 0.000000 0.000000 0.000000 0.006797 0.000000 0.041876
#
#
# Mechanical properties :
#
#
# Convention : Reuss Voigt Hill
#
# Bulk Modulus (GPa) = 38.37788 75.88988 57.13388
# Shear Modulus (GPa) = 20.44222 26.68194 23.56208
#
# Velocity S-wave (km/s) = 3.41660 3.90336 3.66806
# Velocity P-wave (km/s) = 6.12202 7.97812 7.11089
#
# Compressibility (1/GPa) = 0.02605668
#
# Stress axis : x y z
#
# Youngs Moduli (GPa) = 95.53381 24.95958 88.99249
#
# Poissons Ratio (x) = 0.22288 0.32427
# Poissons Ratio (y) = 0.85309 0.47013
# Poissons Ratio (z) = 0.34810 0.13186
#
# Static dielectric constant tensor:
#      x y z
#    x 1.608820 0.000000 -0.010800 
#    y 0.000000 1.592610 0.000000 
#    z -0.010800 0.000000 1.572730 
# 
# From -- ./inp_files/280756.got.cif
#   From: 2010.05.17/outbox.cif.g08.bks.cpg/sg12_141_cif.got.tgz:280756.got - 2010.06.03 13:09:07.
