data_PCOD9219610
_publ_section_title
;
Structure prediction by ZEFSAII (Michael W. Deem and Ramdas Pophale) SiO2 
 PCOD9219610
Probable space group: C 2/M
;
_chemical_formula_sum "Si O2"
_cell_formula_units_Z 48
_cell_length_a 22.171563
_cell_length_b 9.289516
_cell_length_c 21.793679
_cell_angle_alpha 90.000000
_cell_angle_beta 30.133788
_cell_angle_gamma 90.000000
_cell_volume 2253.417657
_symmetry_space_group_name_H-M "C 2/M"
_symmetry_group_IT_number 12
_symmetry_cell_setting 'monoclinic'
loop_
_space_group_symop_operation_xyz
x,y,z
-x,y,-z
-x,-y,-z
x,-y,z
1/2+x,1/2+y,z
1/2-x,1/2+y,-z
1/2-x,1/2-y,-z
1/2+x,1/2-y,z
loop_
_atom_site_type_symbol
_atom_site_label
_atom_site_fract_x
_atom_site_fract_y
_atom_site_fract_z
Si Si1 0.165036 0.336313 0.120672
Si Si2 0.766900 0.670570 0.223212
Si Si3 0.968404 0.171371 0.235721
Si Si4 0.534018 0.163806 0.398160
Si Si5 0.269763 0.827308 0.615509
Si Si6 0.118091 0.163987 0.980987
O O1 0.148421 0.500000 0.114925
O O2 0.038430 0.256410 0.226944
O O3 0.247792 0.338451 0.107638
O O4 0.250000 0.250000 0.000000
O O5 0.774663 0.500000 0.221405
O O6 0.639389 0.720147 0.305825
O O7 0.766817 0.745531 0.289931
O O8 0.869193 0.734276 0.088618
O O9 0.828622 0.204432 0.349648
O O10 0.985724 0.000000 0.229048
O O11 0.031117 0.206091 0.114092
O O12 0.500000 0.152105 0.500000
O O13 0.407982 0.206071 0.478051
O O14 0.568245 0.000000 0.348488
O O15 0.264553 0.000000 0.632330
O O16 0.087048 0.000000 0.990568
#
# Coordination Sequence:
#
# PCOD9219610 Si02
#       6
#     8   8   8   8   8   8
#     4   9  17  30  49  70  92 122 158 194 230 271
#     4  11  21  30  45  70  97 124 156 197 235 266
#     4   9  18  32  51  73  95 122 155 191 232 278
#     4   8  15  30  50  67  87 120 158 191 227 278
#     4   9  18  33  51  70  94 125 156 186 230 287
#     4   9  18  32  48  67  94 127 157 185 226 280
#
# _framework density 21.300979000000002
#
# number of rings (size 3 to 8) (size 9 to 14) (size 15 to 20)
#    0.000    2.833    0.000    4.000    0.000    7.667 
#    0.000    3.333    0.000    1.000    0.000    0.000 
#    0.000    0.000    0.000    0.000    0.000    0.000 
#
# Total GULP energy -133831.574200 kJ/mol
# GULP energy per Si atom -5576.315592 kJ/mol
# Density = 2.125250 g / cm^3
# Si number density = 21.300979 Si / 1000 Ang^3
#
#
#
# Elastic Constant Matrix: (Units=GPa)
#
#
# Indices 1 2 3 4 5 6 
#
# 1 51.2220 19.4322 32.9123 -0.0001 -38.9985 0.0000
# 2 19.4322 65.4447 14.1204 -0.0003 -6.8358 0.0002
# 3 32.9123 14.1204 44.6917 -0.0001 -12.7130 0.0001
# 4 -0.0001 -0.0003 -0.0001 16.2865 0.0001 -3.9214
# 5 -38.9985 -6.8358 -12.7130 0.0001 45.5466 0.0000
# 6 0.0000 0.0002 0.0001 -3.9214 0.0000 20.6361
#
#
#
# Elastic Compliance Matrix: (Units=1/GPa)
#
#
# Indices 1 2 3 4 5 6 
#
# 1 0.191497 -0.022179 -0.095940 -0.000001 0.133859 0.000000
# 2 -0.022179 0.019018 0.006229 0.000000 -0.014397 0.000000
# 3 -0.095940 0.006229 0.073820 0.000000 -0.060607 0.000000
# 4 -0.000001 0.000000 0.000000 0.064345 0.000000 0.012227
# 5 0.133859 -0.014397 -0.060607 0.000000 0.117492 0.000000
# 6 0.000000 0.000000 0.000000 0.012227 0.000000 0.050782
#
#
# Mechanical properties :
#
#
# Convention : Reuss Voigt Hill
#
# Bulk Modulus (GPa) = 16.51352 32.69868 24.60610
# Shear Modulus (GPa) = 6.57101 22.82006 14.69553
#
# Velocity S-wave (km/s) = 1.75828 3.27665 2.62944
# Velocity P-wave (km/s) = 3.44838 5.44971 4.56019
#
# Compressibility (1/GPa) = 0.06055643
#
# Stress axis : x y z
#
# Youngs Moduli (GPa) = 5.22201 52.58256 13.54645
#
# Poissons Ratio (x) = 1.16621 1.29964
# Poissons Ratio (y) = 0.11582 -0.08438
# Poissons Ratio (z) = 0.50100 -0.32753
#
# Static dielectric constant tensor:
#      x y z
#    x 1.824240 0.000000 -0.016400 
#    y 0.000000 1.713570 0.000000 
#    z -0.016400 0.000000 1.830470 
# 
# From -- ./inp_files/172206.got.cif
#   From: 2010.05.17/outbox.cif.g08.bks.cpg/sg12_87_cif.got.tgz:172206.got - 2010.06.03 13:09:07.
