data_PCOD9219862
_publ_section_title
;
Structure prediction by ZEFSAII (Michael W. Deem and Ramdas Pophale) SiO2 
 PCOD9219862
Probable space group: C 2/M
;
_chemical_formula_sum "Si O2"
_cell_formula_units_Z 32
_cell_length_a 7.559309
_cell_length_b 26.042276
_cell_length_c 10.614067
_cell_angle_alpha 90.000000
_cell_angle_beta 52.449662
_cell_angle_gamma 90.000000
_cell_volume 1656.595475
_symmetry_space_group_name_H-M "C 2/M"
_symmetry_group_IT_number 12
_symmetry_cell_setting 'monoclinic'
loop_
_space_group_symop_operation_xyz
x,y,z
-x,y,-z
-x,-y,-z
x,-y,z
1/2+x,1/2+y,z
1/2-x,1/2+y,-z
1/2-x,1/2-y,-z
1/2+x,1/2-y,z
loop_
_atom_site_type_symbol
_atom_site_label
_atom_site_fract_x
_atom_site_fract_y
_atom_site_fract_z
Si Si1 0.549509 0.000000 0.196806
Si Si2 0.149449 0.000000 0.188736
Si Si3 0.646979 0.418188 0.808221
Si Si4 0.672014 0.809943 0.313904
Si Si5 0.476810 0.781610 0.878125
O O1 0.636233 0.950979 0.240191
O O2 0.298298 0.000000 0.250650
O O3 0.693575 0.000000 0.004572
O O4 0.990932 0.048808 0.233342
O O5 0.697740 0.362895 0.728921
O O6 0.500000 0.412062 0.000000
O O7 0.500000 0.801366 0.500000
O O8 0.547211 0.815206 0.234382
O O9 0.833820 0.760923 0.229710
O O10 0.500000 0.811128 0.000000
O O11 0.250000 0.750000 0.000000
#
# Coordination Sequence:
#
# PCOD9219862 Si02
#       5
#     4   4   8   8   8
#     4   8  15  31  52  82 106 139 193 238 278 322
#     4   8  15  31  54  80 108 143 186 245 275 322
#     4   9  17  32  55  80 111 145 190 234 279 336
#     4  11  21  36  55  83 117 149 179 230 295 340
#     4   9  19  37  58  78 105 144 194 231 267 327
#
# _framework density 19.316725999999999
#
# number of rings (size 3 to 8) (size 9 to 14) (size 15 to 20)
#    0.000    2.750    0.000    4.500    0.000    0.000 
#   18.000    2.500    0.000    1.500    0.000    0.000 
#    0.000    0.000    0.000    0.000    0.000    0.000 
#
# Total GULP energy -89126.053406 kJ/mol
# GULP energy per Si atom -5570.378338 kJ/mol
# Density = 1.927276 g / cm^3
# Si number density = 19.316726 Si / 1000 Ang^3
#
#
#
# Elastic Constant Matrix: (Units=GPa)
#
#
# Indices 1 2 3 4 5 6 
#
# 1 107.2309 13.3663 28.7018 0.0000 -1.0311 0.0000
# 2 13.3663 62.0267 16.7261 0.0000 -14.6951 0.0000
# 3 28.7018 16.7261 89.8546 0.0000 -1.5187 0.0000
# 4 0.0000 0.0000 0.0000 18.8908 0.0000 -2.6015
# 5 -1.0311 -14.6951 -1.5187 0.0000 16.7441 0.0000
# 6 0.0000 0.0000 0.0000 -2.6015 0.0000 11.8936
#
#
#
# Elastic Compliance Matrix: (Units=1/GPa)
#
#
# Indices 1 2 3 4 5 6 
#
# 1 0.010329 -0.001678 -0.003006 0.000000 -0.001109 0.000000
# 2 -0.001678 0.021783 -0.003202 0.000000 0.018724 0.000000
# 3 -0.003006 -0.003202 0.012654 0.000000 -0.001848 0.000000
# 4 0.000000 0.000000 0.000000 0.054580 0.000000 0.011938
# 5 -0.001109 0.018724 -0.001848 0.000000 0.075919 0.000000
# 6 0.000000 0.000000 0.000000 0.011938 0.000000 0.086690
#
#
# Mechanical properties :
#
#
# Convention : Reuss Voigt Hill
#
# Bulk Modulus (GPa) = 34.49012 41.85563 38.17288
# Shear Modulus (GPa) = 17.39785 22.86023 20.12904
#
# Velocity S-wave (km/s) = 3.00436 3.44385 3.23159
# Velocity P-wave (km/s) = 5.47071 6.12606 5.80764
#
# Compressibility (1/GPa) = 0.02899381
#
# Stress axis : x y z
#
# Youngs Moduli (GPa) = 96.81787 45.90685 79.02613
#
# Poissons Ratio (x) = 0.07703 0.23752
# Poissons Ratio (y) = 0.16247 0.25307
# Poissons Ratio (z) = 0.29100 0.14701
#
# Static dielectric constant tensor:
#      x y z
#    x 1.765170 0.000000 0.003500 
#    y 0.000000 1.659460 0.000000 
#    z 0.003500 0.000000 1.661050 
# 
# From -- ./inp_files/121198.got.cif
#   From: 2010.05.17/outbox.cif.g08.bks.cpg/sg12_61_cif.got.tgz:121198.got - 2010.06.03 13:09:07.
