data_PCOD9219911
_publ_section_title
;
Structure prediction by ZEFSAII (Michael W. Deem and Ramdas Pophale) SiO2 
 PCOD9219911
Probable space group: C 2/M
;
_chemical_formula_sum "Si O2"
_cell_formula_units_Z 48
_cell_length_a 18.143876
_cell_length_b 29.340864
_cell_length_c 7.698872
_cell_angle_alpha 90.000000
_cell_angle_beta 146.630078
_cell_angle_gamma 90.000000
_cell_volume 2254.375401
_symmetry_space_group_name_H-M "C 2/M"
_symmetry_group_IT_number 12
_symmetry_cell_setting 'monoclinic'
loop_
_space_group_symop_operation_xyz
x,y,z
-x,y,-z
-x,-y,-z
x,-y,z
1/2+x,1/2+y,z
1/2-x,1/2+y,-z
1/2-x,1/2-y,-z
1/2+x,1/2-y,z
loop_
_atom_site_type_symbol
_atom_site_label
_atom_site_fract_x
_atom_site_fract_y
_atom_site_fract_z
Si Si1 0.694673 0.355865 0.575028
Si Si2 0.872520 0.550535 0.512737
Si Si3 0.705510 0.853811 0.622317
Si Si4 0.948657 0.696436 0.199793
Si Si5 0.551848 0.700483 0.796856
Si Si6 0.318154 0.949427 0.824114
O O1 0.733444 0.354949 0.449301
O O2 0.548071 0.335199 0.309964
O O3 0.721782 0.408025 0.683822
O O4 0.801739 0.324084 0.885047
O O5 0.834425 0.500000 0.373235
O O6 0.799597 0.595886 0.303881
O O7 0.844021 0.551014 0.665454
O O8 0.032527 0.556109 0.803397
O O9 0.555022 0.835463 0.312291
O O10 0.798376 0.818603 0.906284
O O11 0.000000 0.695631 0.500000
O O12 0.952788 0.748258 0.139843
O O13 0.500000 0.703698 0.500000
O O14 0.268260 0.000000 0.770333
#
# Coordination Sequence:
#
# PCOD9219911 Si02
#       6
#     8   8   8   8   8   8
#     4  11  21  36  60  88 111 140 187 237 274 314
#     4   8  14  28  53  84 113 138 171 221 277 328
#     4  11  21  36  60  88 111 140 187 237 274 314
#     4  11  23  39  58  79 110 152 189 223 276 339
#     4  11  25  41  54  75 114 158 187 219 280 343
#     4   8  14  28  53  84 113 138 171 221 277 328
#
# _framework density 21.291929
#
# number of rings (size 3 to 8) (size 9 to 14) (size 15 to 20)
#    0.000    2.000    1.667    4.000    0.000    6.667 
#    0.000    0.833    0.000   10.000    0.000    0.000 
#    0.000    0.000    0.000    0.000    0.000    0.000 
#
# Total GULP energy -134062.478803 kJ/mol
# GULP energy per Si atom -5585.936617 kJ/mol
# Density = 2.124347 g / cm^3
# Si number density = 21.291929 Si / 1000 Ang^3
#
#
#
# Elastic Constant Matrix: (Units=GPa)
#
#
# Indices 1 2 3 4 5 6 
#
# 1 39.3496 15.8602 -4.5800 0.0000 11.9728 0.0000
# 2 15.8602 171.5023 15.4772 0.0000 10.9926 0.0000
# 3 -4.5800 15.4772 58.2371 0.0000 1.2404 0.0000
# 4 0.0000 0.0000 0.0000 22.4453 0.0000 -59.3338
# 5 11.9728 10.9926 1.2404 0.0000 24.8402 0.0000
# 6 0.0000 0.0000 0.0000 -59.3338 0.0000 214.1594
#
#
#
# Elastic Compliance Matrix: (Units=1/GPa)
#
#
# Indices 1 2 3 4 5 6 
#
# 1 0.031008 -0.002265 0.003341 0.000000 -0.014110 0.000000
# 2 -0.002265 0.006308 -0.001820 0.000000 -0.001609 0.000000
# 3 0.003341 -0.001820 0.017954 0.000000 -0.001701 0.000000
# 4 0.000000 0.000000 0.000000 0.166484 0.000000 0.046125
# 5 -0.014110 -0.001609 -0.001701 0.000000 0.047856 0.000000
# 6 0.000000 0.000000 0.000000 0.046125 0.000000 0.017449
#
#
# Mechanical properties :
#
#
# Convention : Reuss Voigt Hill
#
# Bulk Modulus (GPa) = 18.59350 35.84487 27.21918
# Shear Modulus (GPa) = 16.31463 68.44439 42.37951
#
# Velocity S-wave (km/s) = 2.77110 5.67587 4.46623
# Velocity P-wave (km/s) = 4.35778 7.73469 6.27757
#
# Compressibility (1/GPa) = 0.05378225
#
# Stress axis : x y z
#
# Youngs Moduli (GPa) = 32.24944 158.53778 55.69814
#
# Poissons Ratio (x) = 0.35904 -0.18609
# Poissons Ratio (y) = 0.07303 0.10138
# Poissons Ratio (z) = -0.10775 0.28857
#
# Static dielectric constant tensor:
#      x y z
#    x 1.790650 0.000000 -0.056060 
#    y 0.000000 1.804400 0.000000 
#    z -0.056060 0.000000 1.739680 
# 
# From -- ./inp_files/91451.got.cif
#   From: 2010.05.17/outbox.cif.g08.bks.cpg/sg12_46_cif.got.tgz:91451.got - 2010.06.03 13:09:07.
