data_PCOD9219427
_publ_section_title
;
Structure prediction by ZEFSAII (Michael W. Deem and Ramdas Pophale) SiO2 
 PCOD9219427
Probable space group: C 2/M
;
_chemical_formula_sum "Si O2"
_cell_formula_units_Z 40
_cell_length_a 15.167711
_cell_length_b 14.318229
_cell_length_c 19.679719
_cell_angle_alpha 90.000000
_cell_angle_beta 28.149564
_cell_angle_gamma 90.000000
_cell_volume 2016.336329
_symmetry_space_group_name_H-M "C 2/M"
_symmetry_group_IT_number 12
_symmetry_cell_setting 'monoclinic'
loop_
_space_group_symop_operation_xyz
x,y,z
-x,y,-z
-x,-y,-z
x,-y,z
1/2+x,1/2+y,z
1/2-x,1/2+y,-z
1/2-x,1/2-y,-z
1/2+x,1/2-y,z
loop_
_atom_site_type_symbol
_atom_site_label
_atom_site_fract_x
_atom_site_fract_y
_atom_site_fract_z
Si Si1 0.050345 0.233852 0.820937
Si Si2 0.193187 0.000000 0.452855
Si Si3 0.188673 0.796654 0.472934
Si Si4 0.243900 0.810390 0.202981
Si Si5 0.762958 0.000000 0.738134
Si Si6 0.252309 0.614216 0.952850
O O1 0.223956 0.248428 0.652189
O O2 0.126438 0.234724 0.846953
O O3 0.929605 0.145284 0.878411
O O4 0.919618 0.326131 0.899344
O O5 0.268227 0.901740 0.424655
O O6 0.211649 0.000000 0.359178
O O7 0.974728 0.000000 0.622640
O O8 0.250000 0.750000 0.500000
O O9 0.963775 0.799491 0.624874
O O10 0.330092 0.907032 0.172836
O O11 0.223502 0.833147 0.137100
O O12 0.232884 0.500000 0.961097
#
# Coordination Sequence:
#
# PCOD9219427 Si02
#       6
#     8   4   8   8   4   8
#     4  11  24  39  60  93 127 159 205 257 306 368
#     4   9  18  30  51  88 121 145 184 251 310 347
#     4  11  21  36  60  89 123 159 199 254 313 363
#     4  11  20  37  65  94 121 155 205 257 308 363
#     4   9  16  28  54  89 115 142 185 250 310 347
#     4  11  25  42  62  90 128 168 204 252 308 366
#
# _framework density 19.837961
#
# number of rings (size 3 to 8) (size 9 to 14) (size 15 to 20)
#    0.000    1.400    5.000    1.200    2.800    0.800 
#    0.000    0.000    2.200   10.800    0.000    0.000 
#    0.000    0.000    0.000    0.000    0.000    0.000 
#
# Total GULP energy -111418.907339 kJ/mol
# GULP energy per Si atom -5570.945367 kJ/mol
# Density = 1.979281 g / cm^3
# Si number density = 19.837961 Si / 1000 Ang^3
#
#
#
# Elastic Constant Matrix: (Units=GPa)
#
#
# Indices 1 2 3 4 5 6 
#
# 1 97.7797 36.9761 14.4883 -0.0016 6.6173 0.0009
# 2 36.9761 60.1166 7.1715 -0.0009 1.0590 0.0014
# 3 14.4883 7.1715 95.9881 0.0015 1.7133 0.0015
# 4 -0.0016 -0.0009 0.0015 19.8980 0.0011 -1.8214
# 5 6.6173 1.0590 1.7133 0.0011 28.5500 -0.0013
# 6 0.0009 0.0014 0.0015 -1.8214 -0.0013 38.3628
#
#
#
# Elastic Compliance Matrix: (Units=1/GPa)
#
#
# Indices 1 2 3 4 5 6 
#
# 1 0.013738 -0.008233 -0.001409 0.000001 -0.002794 0.000000
# 2 -0.008233 0.021726 -0.000401 0.000000 0.001126 -0.000001
# 3 -0.001409 -0.000401 0.010666 -0.000001 -0.000299 0.000000
# 4 0.000001 0.000000 -0.000001 0.050476 -0.000002 0.002396
# 5 -0.002794 0.001126 -0.000299 -0.000002 0.035650 0.000001
# 6 0.000000 -0.000001 0.000000 0.002396 0.000001 0.026181
#
#
# Mechanical properties :
#
#
# Convention : Reuss Voigt Hill
#
# Bulk Modulus (GPa) = 38.39370 41.23958 39.81664
# Shear Modulus (GPa) = 26.70905 30.37873 28.54389
#
# Velocity S-wave (km/s) = 3.67326 3.91748 3.79734
# Velocity P-wave (km/s) = 6.11442 6.42616 6.27223
#
# Compressibility (1/GPa) = 0.02604594
#
# Stress axis : x y z
#
# Youngs Moduli (GPa) = 72.78995 46.02775 93.75720
#
# Poissons Ratio (x) = 0.37893 0.13207
# Poissons Ratio (y) = 0.59926 0.03757
# Poissons Ratio (z) = 0.10254 0.01844
#
# Static dielectric constant tensor:
#      x y z
#    x 1.745990 0.000000 -0.026700 
#    y 0.000000 1.733280 -0.000010 
#    z -0.026700 -0.000010 1.810680 
# 
# From -- ./inp_files/270536.got.cif
#   From: 2010.05.17/outbox.cif.g08.bks.cpg/sg12_136_cif.got.tgz:270536.got - 2010.06.03 13:09:07.
