data_PCOD9219549
_publ_section_title
;
Structure prediction by ZEFSAII (Michael W. Deem and Ramdas Pophale) SiO2 
 PCOD9219549
Probable space group: C 2/M
;
_chemical_formula_sum "Si O2"
_cell_formula_units_Z 40
_cell_length_a 19.328488
_cell_length_b 11.421617
_cell_length_c 11.086276
_cell_angle_alpha 90.000000
_cell_angle_beta 125.648611
_cell_angle_gamma 90.000000
_cell_volume 1988.801768
_symmetry_space_group_name_H-M "C 2/M"
_symmetry_group_IT_number 12
_symmetry_cell_setting 'monoclinic'
loop_
_space_group_symop_operation_xyz
x,y,z
-x,y,-z
-x,-y,-z
x,-y,z
1/2+x,1/2+y,z
1/2-x,1/2+y,-z
1/2-x,1/2-y,-z
1/2+x,1/2-y,z
loop_
_atom_site_type_symbol
_atom_site_label
_atom_site_fract_x
_atom_site_fract_y
_atom_site_fract_z
Si Si1 0.827536 0.000000 0.229202
Si Si2 0.129634 0.500000 0.083449
Si Si3 0.406595 0.749539 0.346654
Si Si4 0.819021 0.500000 0.329714
Si Si5 0.500000 0.334806 0.000000
Si Si6 0.863592 0.000000 0.980396
Si Si7 0.111260 0.500000 0.354537
Si Si8 0.979050 0.315292 0.177436
O O1 0.725504 0.000000 0.134097
O O2 0.859603 0.876048 0.320059
O O3 0.856252 0.000000 0.117539
O O4 0.129546 0.500000 0.229416
O O5 0.077723 0.391644 0.972697
O O6 0.500000 0.741297 0.500000
O O7 0.364452 0.875614 0.339779
O O8 0.419578 0.757788 0.215691
O O9 0.729344 0.500000 0.171306
O O10 0.815002 0.500000 0.471957
O O11 0.420575 0.396329 0.982898
O O12 0.464744 0.266255 0.850011
O O13 0.047697 0.393200 0.315528
#
# Coordination Sequence:
#
# PCOD9219549 Si02
#       8
#     4   4   8   4   4   4   4   8
#     4  12  27  44  67  97 139 176 219 278 330 394
#     4  11  24  39  66 106 129 169 231 274 327 390
#     4  12  25  45  69  99 135 177 223 271 336 395
#     4  12  26  44  71  98 134 175 227 276 327 392
#     4  11  22  43  70  96 132 169 224 271 334 399
#     4  11  26  44  65 100 132 177 220 273 334 395
#     4  11  21  42  65 100 129 172 223 282 322 390
#     4  11  20  40  73  94 130 174 223 275 327 396
#
# _framework density 20.112613
#
# number of rings (size 3 to 8) (size 9 to 14) (size 15 to 20)
#    0.000    0.600    6.000    3.600    2.800    1.600 
#    3.600    2.000    0.000    0.000    0.000    0.000 
#    0.000    0.000    0.000    0.000    0.000    0.000 
#
# Total GULP energy -111367.033988 kJ/mol
# GULP energy per Si atom -5568.351699 kJ/mol
# Density = 2.006684 g / cm^3
# Si number density = 20.112613 Si / 1000 Ang^3
#
#
#
# Elastic Constant Matrix: (Units=GPa)
#
#
# Indices 1 2 3 4 5 6 
#
# 1 92.2359 34.5699 29.0725 0.0000 -0.8600 0.0000
# 2 34.5699 106.3687 37.5334 0.0000 4.3648 0.0000
# 3 29.0725 37.5334 103.0231 0.0000 2.1538 0.0000
# 4 0.0000 0.0000 0.0000 -54.4977 0.0000 24.6511
# 5 -0.8600 4.3648 2.1538 0.0000 44.0623 0.0000
# 6 0.0000 0.0000 0.0000 24.6511 0.0000 84.9211
#
#
#
# Elastic Compliance Matrix: (Units=1/GPa)
#
#
# Indices 1 2 3 4 5 6 
#
# 1 0.012870 -0.003356 -0.002424 0.000000 0.000702 0.000000
# 2 -0.003356 0.011697 -0.003292 0.000000 -0.001063 0.000000
# 3 -0.002424 -0.003292 0.011596 0.000000 -0.000288 0.000000
# 4 0.000000 0.000000 0.000000 -0.016220 0.000000 0.004708
# 5 0.000702 -0.001063 -0.000288 0.000000 0.022828 0.000000
# 6 0.000000 0.000000 0.000000 0.004708 0.000000 0.010409
#
#
# Mechanical properties :
#
#
# Convention : Reuss Voigt Hill
#
# Bulk Modulus (GPa) = 55.49742 55.99770 55.74756
# Shear Modulus (GPa) = 64.65613 28.26060 46.45836
#
# Velocity S-wave (km/s) = 5.67599 3.75256 4.81137
# Velocity P-wave (km/s) = 8.40292 6.83214 7.65791
#
# Compressibility (1/GPa) = 0.01801886
#
# Stress axis : x y z
#
# Youngs Moduli (GPa) = 77.69859 85.48895 86.23680
#
# Poissons Ratio (x) = 0.28693 0.20902
# Poissons Ratio (y) = 0.26079 0.28391
# Poissons Ratio (z) = 0.18832 0.28145
#
# Static dielectric constant tensor:
#      x y z
#    x 1.673280 0.000000 -0.033560 
#    y 0.000000 1.915770 0.000000 
#    z -0.033560 0.000000 1.681730 
# 
# From -- ./inp_files/153934.got.cif
#   From: 2010.05.17/outbox.cif.g08.bks.cpg/sg12_77_cif.got.tgz:153934.got - 2010.06.03 13:09:07.
