data_PCOD9219593
_publ_section_title
;
Structure prediction by ZEFSAII (Michael W. Deem and Ramdas Pophale) SiO2 
 PCOD9219593
Probable space group: C 2/M
;
_chemical_formula_sum "Si O2"
_cell_formula_units_Z 48
_cell_length_a 28.275367
_cell_length_b 10.227515
_cell_length_c 16.262095
_cell_angle_alpha 90.000000
_cell_angle_beta 27.002999
_cell_angle_gamma 90.000000
_cell_volume 2135.237782
_symmetry_space_group_name_H-M "C 2/M"
_symmetry_group_IT_number 12
_symmetry_cell_setting 'monoclinic'
loop_
_space_group_symop_operation_xyz
x,y,z
-x,y,-z
-x,-y,-z
x,-y,z
1/2+x,1/2+y,z
1/2-x,1/2+y,-z
1/2-x,1/2-y,-z
1/2+x,1/2-y,z
loop_
_atom_site_type_symbol
_atom_site_label
_atom_site_fract_x
_atom_site_fract_y
_atom_site_fract_z
Si Si1 0.031649 0.352674 0.175927
Si Si2 0.227707 0.264310 0.765483
Si Si3 0.544724 0.500000 0.809567
Si Si4 0.329145 0.152002 0.770306
Si Si5 0.160008 0.000000 0.803573
Si Si6 0.399955 0.348102 0.792401
Si Si7 0.170841 0.231640 0.546120
O O1 0.059236 0.500000 0.162856
O O2 0.043769 0.241956 0.226958
O O3 0.909907 0.351897 0.340551
O O4 0.118831 0.317871 0.970469
O O5 0.299636 0.220250 0.729613
O O6 0.217578 0.133667 0.725165
O O7 0.281562 0.341108 0.608411
O O8 0.595012 0.500000 0.822018
O O9 0.585477 0.629171 0.708226
O O10 0.421297 0.500000 0.995854
O O11 0.397633 0.255592 0.715399
O O12 0.365900 0.000000 0.703888
O O13 0.219261 0.142565 0.989721
O O14 0.436007 0.500000 0.726591
O O15 0.250000 0.250000 0.500000
#
# Coordination Sequence:
#
# PCOD9219593 Si02
#       7
#     8   8   4   8   4   8   8
#     4  11  26  44  65  97 135 173 218 274 334 393
#     4  11  23  41  67  96 133 173 223 270 326 391
#     4  11  24  42  68  92 132 175 232 273 331 385
#     4   9  17  32  63  96 126 169 220 268 323 391
#     4  11  20  42  70  95 123 180 233 271 320 395
#     4   9  19  37  63  93 131 171 216 270 329 395
#     4  12  27  43  66  96 131 174 221 276 328 393
#
# _framework density 22.479934
#
# number of rings (size 3 to 8) (size 9 to 14) (size 15 to 20)
#    0.000    1.500    4.167    0.500    5.833    4.667 
#    0.000    1.667    0.000    3.000    0.000    0.000 
#    0.000    0.000    0.000    0.000    0.000    0.000 
#
# Total GULP energy -133681.770642 kJ/mol
# GULP energy per Si atom -5570.073777 kJ/mol
# Density = 2.242877 g / cm^3
# Si number density = 22.479934 Si / 1000 Ang^3
#
#
#
# Elastic Constant Matrix: (Units=GPa)
#
#
# Indices 1 2 3 4 5 6 
#
# 1 124.9631 39.6432 37.2259 0.0000 16.9828 0.0000
# 2 39.6432 136.3892 9.7670 0.0000 -5.9193 0.0000
# 3 37.2259 9.7670 89.2689 0.0000 6.4026 0.0000
# 4 0.0000 0.0000 0.0000 -49.8073 0.0000 -3.3474
# 5 16.9828 -5.9193 6.4026 0.0000 25.5555 0.0000
# 6 0.0000 0.0000 0.0000 -3.3474 0.0000 31.0260
#
#
#
# Elastic Compliance Matrix: (Units=1/GPa)
#
#
# Indices 1 2 3 4 5 6 
#
# 1 0.011150 -0.003284 -0.003772 0.000000 -0.007225 0.000000
# 2 -0.003284 0.008454 0.000150 0.000000 0.004103 0.000000
# 3 -0.003772 0.000150 0.012806 0.000000 -0.000667 0.000000
# 4 0.000000 0.000000 0.000000 -0.019933 0.000000 -0.002151
# 5 -0.007225 0.004103 -0.000667 0.000000 0.045049 0.000000
# 6 0.000000 0.000000 0.000000 -0.002151 0.000000 0.031999
#
#
# Mechanical properties :
#
#
# Convention : Reuss Voigt Hill
#
# Bulk Modulus (GPa) = 53.76849 58.21039 55.98944
# Shear Modulus (GPa) = 45.64658 18.95386 32.30022
#
# Velocity S-wave (km/s) = 4.51105 2.90685 3.79469
# Velocity P-wave (km/s) = 7.14864 6.10057 6.64530
#
# Compressibility (1/GPa) = 0.01859825
#
# Stress axis : x y z
#
# Youngs Moduli (GPa) = 89.68710 118.28884 78.08556
#
# Poissons Ratio (x) = 0.38850 0.29454
# Poissons Ratio (y) = 0.29456 -0.01174
# Poissons Ratio (z) = 0.33830 -0.01779
#
# Static dielectric constant tensor:
#      x y z
#    x 1.906790 0.000000 0.082780 
#    y 0.000000 0.685900 0.000000 
#    z 0.082780 0.000000 1.903700 
# 
# From -- ./inp_files/245884.got.cif
#   From: 2010.05.17/outbox.cif.g08.bks.cpg/sg12_123_cif.got.tgz:245884.got - 2010.06.03 13:09:07.
