data_PCOD9219534
_publ_section_title
;
Structure prediction by ZEFSAII (Michael W. Deem and Ramdas Pophale) SiO2 
 PCOD9219534
Probable space group: C 2/M
;
_chemical_formula_sum "Si O2"
_cell_formula_units_Z 56
_cell_length_a 9.258002
_cell_length_b 14.600918
_cell_length_c 24.251033
_cell_angle_alpha 90.000000
_cell_angle_beta 121.769632
_cell_angle_gamma 90.000000
_cell_volume 2786.983559
_symmetry_space_group_name_H-M "C 2/M"
_symmetry_group_IT_number 12
_symmetry_cell_setting 'monoclinic'
loop_
_space_group_symop_operation_xyz
x,y,z
-x,y,-z
-x,-y,-z
x,-y,z
1/2+x,1/2+y,z
1/2-x,1/2+y,-z
1/2-x,1/2-y,-z
1/2+x,1/2-y,z
loop_
_atom_site_type_symbol
_atom_site_label
_atom_site_fract_x
_atom_site_fract_y
_atom_site_fract_z
Si Si1 0.560362 0.288662 0.632078
Si Si2 0.349484 0.107262 0.275549
Si Si3 0.660212 0.105249 0.254728
Si Si4 0.187905 0.680745 0.142401
Si Si5 0.679183 0.210737 0.544113
Si Si6 0.620630 0.500000 0.972124
Si Si7 0.500640 0.000000 0.065041
Si Si8 0.511881 0.650940 0.137879
O O1 0.611188 0.190190 0.672362
O O2 0.679678 0.369470 0.676471
O O3 0.606908 0.278223 0.576709
O O4 0.364881 0.317413 0.604837
O O5 0.491914 0.120220 0.256751
O O6 0.168482 0.114908 0.207217
O O7 0.364932 0.000000 0.299125
O O8 0.684359 0.170116 0.207417
O O9 0.660956 0.000000 0.236475
O O10 0.094387 0.590450 0.103243
O O11 0.371507 0.686218 0.152532
O O12 0.084354 0.772054 0.111899
O O13 0.500000 0.153768 0.500000
O O14 0.750000 0.250000 0.500000
O O15 0.583255 0.582366 0.922381
O O16 0.500000 0.500000 0.000000
O O17 0.803002 0.500000 0.038058
O O18 0.500000 0.000000 0.000000
#
# Coordination Sequence:
#
# PCOD9219534 Si02
#       8
#     8   8   8   8   8   4   4   8
#     4  11  20  40  66  98 129 172 223 264 327 392
#     4  11  24  40  65  98 138 167 216 277 339 389
#     4  11  24  40  65 100 133 173 214 274 339 392
#     4  12  26  43  70  95 134 171 218 276 337 388
#     4   9  20  38  66  94 131 180 220 259 316 384
#     4  12  30  48  72  94 132 180 226 266 332 404
#     4  12  26  52  68  92 132 180 222 270 324 411
#     4  12  26  45  66 100 131 172 217 277 336 390
#
# _framework density 20.093409000000001
#
# number of rings (size 3 to 8) (size 9 to 14) (size 15 to 20)
#    0.000    0.857    5.714    0.857    6.000    1.143 
#    0.000    0.000    0.000   17.143    0.000    0.000 
#    0.000    0.000    0.000    0.000    0.000    0.000 
#
# Total GULP energy -155873.732201 kJ/mol
# GULP energy per Si atom -5566.919007 kJ/mol
# Density = 2.004768 g / cm^3
# Si number density = 20.093409 Si / 1000 Ang^3
#
#
#
# Elastic Constant Matrix: (Units=GPa)
#
#
# Indices 1 2 3 4 5 6 
#
# 1 173.0364 18.4121 24.6337 0.0000 28.8043 0.0000
# 2 18.4121 64.5984 1.4009 0.0000 5.9857 0.0000
# 3 24.6337 1.4009 53.7180 0.0000 10.4079 0.0000
# 4 0.0000 0.0000 0.0000 1.4052 0.0000 1.1977
# 5 28.8043 5.9857 10.4079 0.0000 49.2154 0.0000
# 6 0.0000 0.0000 0.0000 1.1977 0.0000 16.2645
#
#
#
# Elastic Compliance Matrix: (Units=1/GPa)
#
#
# Indices 1 2 3 4 5 6 
#
# 1 0.006847 -0.001593 -0.002460 0.000000 -0.003293 0.000000
# 2 -0.001593 0.016027 0.000531 0.000000 -0.001129 0.000000
# 3 -0.002460 0.000531 0.020295 0.000000 -0.002917 0.000000
# 4 0.000000 0.000000 0.000000 0.759288 0.000000 -0.055914
# 5 -0.003293 -0.001129 -0.002917 0.000000 0.023000 0.000000
# 6 0.000000 0.000000 0.000000 -0.055914 0.000000 0.065601
#
#
# Mechanical properties :
#
#
# Convention : Reuss Voigt Hill
#
# Bulk Modulus (GPa) = 27.68107 42.24958 34.96533
# Shear Modulus (GPa) = 5.49363 29.83744 17.66554
#
# Velocity S-wave (km/s) = 1.65529 3.85767 2.96830
# Velocity P-wave (km/s) = 4.17845 6.39643 5.40249
#
# Compressibility (1/GPa) = 0.03612577
#
# Stress axis : x y z
#
# Youngs Moduli (GPa) = 146.04686 62.39304 49.27272
#
# Poissons Ratio (x) = 0.09940 0.12122
# Poissons Ratio (y) = 0.23266 -0.02618
# Poissons Ratio (z) = 0.35932 -0.03315
#
# Static dielectric constant tensor:
#      x y z
#    x 1.616440 0.000000 -0.056850 
#    y 0.000000 1.718810 0.000000 
#    z -0.056850 0.000000 1.725870 
# 
# From -- ./inp_files/333043.got.cif
#   From: 2010.05.17/outbox.cif.g08.bks.cpg/sg12_167_cif.got.tgz:333043.got - 2010.06.03 13:09:07.
