data_PCOD9219238
_publ_section_title
;
Structure prediction by ZEFSAII (Michael W. Deem and Ramdas Pophale) SiO2 
 PCOD9219238
Probable space group: C 2/M
;
_chemical_formula_sum "Si O2"
_cell_formula_units_Z 58
_cell_length_a 18.022927
_cell_length_b 14.961517
_cell_length_c 10.971916
_cell_angle_alpha 90.000000
_cell_angle_beta 114.455017
_cell_angle_gamma 90.000000
_cell_volume 2693.156318
_symmetry_space_group_name_H-M "C 2/M"
_symmetry_group_IT_number 12
_symmetry_cell_setting 'monoclinic'
loop_
_space_group_symop_operation_xyz
x,y,z
-x,y,-z
-x,-y,-z
x,-y,z
1/2+x,1/2+y,z
1/2-x,1/2+y,-z
1/2-x,1/2-y,-z
1/2+x,1/2-y,z
loop_
_atom_site_type_symbol
_atom_site_label
_atom_site_fract_x
_atom_site_fract_y
_atom_site_fract_z
Si Si1 0.420357 0.725171 0.128080
Si Si2 0.766636 0.894573 0.993391
Si Si3 0.000000 0.500000 0.000000
Si Si4 0.134024 0.400951 0.524515
Si Si5 0.466606 0.098005 0.291760
Si Si6 0.777528 0.808837 0.740201
Si Si7 0.050588 0.900634 0.163383
Si Si8 0.365001 0.847405 0.892583
O O1 0.345643 0.657738 0.098345
O O2 0.428450 0.817882 0.202048
O O3 0.501893 0.671374 0.207224
O O4 0.409328 0.761452 0.983360
O O5 0.696219 0.885996 0.045970
O O6 0.781321 0.000000 0.977236
O O7 0.747354 0.840345 0.855516
O O8 0.067027 0.420860 0.086969
O O9 0.169705 0.500000 0.527805
O O10 0.062688 0.386410 0.377796
O O11 0.205491 0.331335 0.597542
O O12 0.080760 0.407187 0.612752
O O13 0.455645 0.000000 0.220152
O O14 0.855615 0.873002 0.777073
O O15 0.807690 0.705760 0.758003
O O16 0.043380 0.000000 0.208523
O O17 0.000000 0.902623 0.000000
#
# Coordination Sequence:
#
# PCOD9219238 Si02
#       8
#     8   8   2   8   8   8   8   8
#     4  11  21  34  52  81 113 143 192 231 279 338
#     4  11  20  33  53  84 112 144 181 229 281 329
#     4  12  24  40  48  72 122 154 192 204 280 366
#     4   9  17  33  57  83 110 140 184 241 294 330
#     4   9  19  34  54  83 112 145 187 239 289 332
#     4  11  20  34  56  82 111 139 191 236 283 330
#     4  11  20  34  52  78 111 151 180 232 291 336
#     4  11  22  34  51  78 112 150 181 223 272 347
#
# _framework density 21.536069999999999
#
# number of rings (size 3 to 8) (size 9 to 14) (size 15 to 20)
#    0.000    1.517    3.448    6.621    0.966    1.103 
#    0.000    0.690    0.000    0.000    3.586    4.828 
#    0.000    0.000    0.000    0.000    0.000    0.000 
#
# Total GULP energy -161607.976862 kJ/mol
# GULP energy per Si atom -5572.688857 kJ/mol
# Density = 2.148705 g / cm^3
# Si number density = 21.536070 Si / 1000 Ang^3
#
#
#
# Elastic Constant Matrix: (Units=GPa)
#
#
# Indices 1 2 3 4 5 6 
#
# 1 79.5238 38.2827 24.9755 0.0000 33.0927 0.0000
# 2 38.2827 162.7933 36.6023 0.0000 26.7626 0.0000
# 3 24.9755 36.6023 64.3694 0.0000 32.8423 0.0000
# 4 0.0000 0.0000 0.0000 23.1455 0.0000 11.3730
# 5 33.0927 26.7626 32.8423 0.0000 30.4548 0.0000
# 6 0.0000 0.0000 0.0000 11.3730 0.0000 34.3842
#
#
#
# Elastic Compliance Matrix: (Units=1/GPa)
#
#
# Indices 1 2 3 4 5 6 
#
# 1 0.025947 -0.002282 0.010210 0.000000 -0.037199 0.000000
# 2 -0.002282 0.007489 -0.002847 0.000000 -0.001032 0.000000
# 3 0.010210 -0.002847 0.039078 0.000000 -0.050734 0.000000
# 4 0.000000 0.000000 0.000000 0.051590 0.000000 -0.017064
# 5 -0.037199 -0.001032 -0.050734 0.000000 0.128875 0.000000
# 6 0.000000 0.000000 0.000000 -0.017064 0.000000 0.034727
#
#
# Mechanical properties :
#
#
# Convention : Reuss Voigt Hill
#
# Bulk Modulus (GPa) = 12.09542 56.26752 34.18147
# Shear Modulus (GPa) = 16.38799 31.38530 23.88664
#
# Velocity S-wave (km/s) = 2.76153 3.82165 3.33400
# Velocity P-wave (km/s) = 3.97450 6.75701 5.54319
#
# Compressibility (1/GPa) = 0.08267593
#
# Stress axis : x y z
#
# Youngs Moduli (GPa) = 38.54057 133.52886 25.58988
#
# Poissons Ratio (x) = 0.30469 -0.26126
# Poissons Ratio (y) = 0.08794 0.07285
# Poissons Ratio (z) = -0.39349 0.38012
#
# Static dielectric constant tensor:
#      x y z
#    x 1.892480 0.000000 -0.064040 
#    y 0.000000 1.800210 0.000000 
#    z -0.064040 0.000000 1.933200 
# 
# From -- ./inp_files/233452.got.cif
#   From: 2010.05.17/outbox.cif.g08.bks.cpg/sg12_117_cif.got.tgz:233452.got - 2010.06.03 13:09:07.
