data_PCOD9219746
_publ_section_title
;
Structure prediction by ZEFSAII (Michael W. Deem and Ramdas Pophale) SiO2 
 PCOD9219746
Probable space group: C 2/M
;
_chemical_formula_sum "Si O2"
_cell_formula_units_Z 48
_cell_length_a 32.093994
_cell_length_b 8.536796
_cell_length_c 9.945324
_cell_angle_alpha 90.000000
_cell_angle_beta 101.399678
_cell_angle_gamma 90.000000
_cell_volume 2671.064227
_symmetry_space_group_name_H-M "C 2/M"
_symmetry_group_IT_number 12
_symmetry_cell_setting 'monoclinic'
loop_
_space_group_symop_operation_xyz
x,y,z
-x,y,-z
-x,-y,-z
x,-y,z
1/2+x,1/2+y,z
1/2-x,1/2+y,-z
1/2-x,1/2-y,-z
1/2+x,1/2-y,z
loop_
_atom_site_type_symbol
_atom_site_label
_atom_site_fract_x
_atom_site_fract_y
_atom_site_fract_z
Si Si1 0.682533 0.811313 0.158622
Si Si2 0.890738 0.309959 0.677291
Si Si3 0.379798 0.685686 0.094889
Si Si4 0.859952 0.688128 0.372187
Si Si5 0.234351 0.188688 0.634710
Si Si6 0.547858 0.189562 0.055391
O O1 0.650662 0.766700 0.260609
O O2 0.662639 0.738174 0.012464
O O3 0.729848 0.766617 0.232636
O O4 0.680637 0.000000 0.144510
O O5 0.891458 0.500000 0.674354
O O6 0.885265 0.256246 0.521357
O O7 0.931467 0.258318 0.789547
O O8 0.382698 0.500000 0.093800
O O9 0.419400 0.757077 0.038333
O O10 0.377861 0.745698 0.245271
O O11 0.861282 0.500000 0.368829
O O12 0.811352 0.741848 0.360020
O O13 0.250000 0.250000 0.500000
O O14 0.232158 0.000000 0.629070
O O15 0.547471 0.000000 0.055244
O O16 0.500000 0.245088 0.000000
#
# Coordination Sequence:
#
# PCOD9219746 Si02
#       6
#     8   8   8   8   8   8
#     4   9  18  36  56  76 105 146 190 229 266 320
#     4   8  15  31  55  81 105 136 181 222 263 318
#     4  11  23  37  54  81 113 144 180 227 280 330
#     4  11  21  36  55  78 111 150 185 228 276 320
#     4  11  21  34  54  81 112 145 189 232 269 320
#     4   9  18  37  64  87 107 137 177 221 271 334
#
# _framework density 17.970364
#
# number of rings (size 3 to 8) (size 9 to 14) (size 15 to 20)
#    0.000    2.167    1.667    3.500    0.000    2.333 
#    0.000    1.667    0.000    5.000    0.000    0.000 
#    0.000    0.000    0.000    0.000    0.000    0.000 
#
# Total GULP energy -133931.691481 kJ/mol
# GULP energy per Si atom -5580.487145 kJ/mol
# Density = 1.792946 g / cm^3
# Si number density = 17.970364 Si / 1000 Ang^3
#
#
#
# Elastic Constant Matrix: (Units=GPa)
#
#
# Indices 1 2 3 4 5 6 
#
# 1 113.2226 16.0437 71.2127 0.0000 27.7451 0.0000
# 2 16.0437 26.1082 19.0068 0.0000 7.5320 0.0000
# 3 71.2127 19.0068 165.4806 0.0000 17.7329 0.0000
# 4 0.0000 0.0000 0.0000 15.4064 0.0000 -4.5322
# 5 27.7451 7.5320 17.7329 0.0000 24.6484 0.0000
# 6 0.0000 0.0000 0.0000 -4.5322 0.0000 22.1216
#
#
#
# Elastic Compliance Matrix: (Units=1/GPa)
#
#
# Indices 1 2 3 4 5 6 
#
# 1 0.015530 -0.002065 -0.005028 0.000000 -0.013233 0.000000
# 2 -0.002065 0.044527 -0.003269 0.000000 -0.008930 0.000000
# 3 -0.005028 -0.003269 0.008526 0.000000 0.000524 0.000000
# 4 0.000000 0.000000 0.000000 0.069071 0.000000 0.014151
# 5 -0.013233 -0.008930 0.000524 0.000000 0.057817 0.000000
# 6 0.000000 0.000000 0.000000 0.014151 0.000000 0.048104
#
#
# Mechanical properties :
#
#
# Convention : Reuss Voigt Hill
#
# Bulk Modulus (GPa) = 20.89458 57.48198 39.18828
# Shear Modulus (GPa) = 17.84109 25.67181 21.75645
#
# Velocity S-wave (km/s) = 3.15430 3.78374 3.48326
# Velocity P-wave (km/s) = 4.99186 7.15160 6.16701
#
# Compressibility (1/GPa) = 0.04785929
#
# Stress axis : x y z
#
# Youngs Moduli (GPa) = 64.39246 22.45821 117.28985
#
# Poissons Ratio (x) = 0.04639 0.58971
# Poissons Ratio (y) = 0.13300 0.38336
# Poissons Ratio (z) = 0.32375 0.07341
#
# Static dielectric constant tensor:
#      x y z
#    x 1.597230 0.000000 0.027270 
#    y 0.000000 1.610500 0.000000 
#    z 0.027270 0.000000 1.617610 
# 
# From -- ./inp_files/108757.got.cif
#   From: 2010.05.17/outbox.cif.g08.bks.cpg/sg12_55_cif.got.tgz:108757.got - 2010.06.03 13:09:07.
