data_PCOD9219079
_publ_section_title
;
Structure prediction by ZEFSAII (Michael W. Deem and Ramdas Pophale) SiO2 
 PCOD9219079
Probable space group: C 2/M
;
_chemical_formula_sum "Si O2"
_cell_formula_units_Z 40
_cell_length_a 23.837009
_cell_length_b 16.406019
_cell_length_c 9.307827
_cell_angle_alpha 90.000000
_cell_angle_beta 146.151171
_cell_angle_gamma 90.000000
_cell_volume 2027.501928
_symmetry_space_group_name_H-M "C 2/M"
_symmetry_group_IT_number 12
_symmetry_cell_setting 'monoclinic'
loop_
_space_group_symop_operation_xyz
x,y,z
-x,y,-z
-x,-y,-z
x,-y,z
1/2+x,1/2+y,z
1/2-x,1/2+y,-z
1/2-x,1/2-y,-z
1/2+x,1/2-y,z
loop_
_atom_site_type_symbol
_atom_site_label
_atom_site_fract_x
_atom_site_fract_y
_atom_site_fract_z
Si Si1 0.146129 0.210706 0.085528
Si Si2 0.620534 0.410436 0.274366
Si Si3 0.947458 0.719413 0.539184
Si Si4 0.282858 0.348057 0.242490
Si Si5 0.283449 0.905575 0.198976
O O1 0.159096 0.167132 0.266189
O O2 0.209044 0.290827 0.178330
O O3 0.188874 0.140925 0.069459
O O4 0.031220 0.238842 0.817165
O O5 0.655115 0.500000 0.294554
O O6 0.655854 0.401578 0.513496
O O7 0.500000 0.409112 0.000000
O O8 0.860909 0.786473 0.332884
O O9 0.885356 0.641585 0.463099
O O10 0.000000 0.700063 0.500000
O O11 0.226723 0.394206 0.995121
O O12 0.285005 0.000000 0.238755
#
# Coordination Sequence:
#
# PCOD9219079 Si02
#       5
#     8   8   8   8   8
#     4  11  21  40  61  81 117 161 191 232 289 355
#     4  11  23  37  56  85 117 147 193 246 289 332
#     4  11  19  38  61  86 116 151 197 235 283 349
#     4  11  21  38  61  84 115 155 196 233 286 354
#     4  11  23  37  60  91 120 149 191 244 293 337
#
# _framework density 19.728712000000002
#
# number of rings (size 3 to 8) (size 9 to 14) (size 15 to 20)
#    0.000    1.000    6.000    3.000    0.000    0.400 
#    0.000    1.000    0.000    0.000    0.000    7.000 
#    0.000    0.000    0.000    0.000    0.000    0.000 
#
# Total GULP energy -111567.491889 kJ/mol
# GULP energy per Si atom -5578.374594 kJ/mol
# Density = 1.968381 g / cm^3
# Si number density = 19.728712 Si / 1000 Ang^3
#
#
#
# Elastic Constant Matrix: (Units=GPa)
#
#
# Indices 1 2 3 4 5 6 
#
# 1 38.7832 11.5292 23.6082 0.0000 -0.6412 0.0000
# 2 11.5292 110.7230 39.8908 0.0000 7.6950 0.0000
# 3 23.6082 39.8908 70.6636 0.0000 7.2161 0.0000
# 4 0.0000 0.0000 0.0000 2.7786 0.0000 -2.1954
# 5 -0.6412 7.6950 7.2161 0.0000 31.7651 0.0000
# 6 0.0000 0.0000 0.0000 -2.1954 0.0000 23.6045
#
#
#
# Elastic Compliance Matrix: (Units=1/GPa)
#
#
# Indices 1 2 3 4 5 6 
#
# 1 0.032710 0.000537 -0.011554 0.000000 0.003155 0.000000
# 2 0.000537 0.011401 -0.006485 0.000000 -0.001278 0.000000
# 3 -0.011554 -0.006485 0.022047 0.000000 -0.003671 0.000000
# 4 0.000000 0.000000 0.000000 0.388441 0.000000 0.036127
# 5 0.003155 -0.001278 -0.003671 0.000000 0.032688 0.000000
# 6 0.000000 0.000000 0.000000 0.036127 0.000000 0.045725
#
#
# Mechanical properties :
#
#
# Convention : Reuss Voigt Hill
#
# Bulk Modulus (GPa) = 32.09728 41.13624 36.61676
# Shear Modulus (GPa) = 8.64455 21.30575 14.97515
#
# Velocity S-wave (km/s) = 2.09552 3.28980 2.75808
# Velocity P-wave (km/s) = 4.70740 5.94362 5.36126
#
# Compressibility (1/GPa) = 0.03115528
#
# Stress axis : x y z
#
# Youngs Moduli (GPa) = 30.57195 87.71333 45.35719
#
# Poissons Ratio (x) = -0.04712 0.52404
# Poissons Ratio (y) = -0.01642 0.29414
# Poissons Ratio (z) = 0.35321 0.56882
#
# Static dielectric constant tensor:
#      x y z
#    x 1.716380 0.000000 0.006720 
#    y 0.000000 1.685970 0.000000 
#    z 0.006720 0.000000 1.708610 
# 
# From -- ./inp_files/46902.got.cif
#   From: 2010.05.17/outbox.cif.g08.bks.cpg/sg12_24_cif.got.tgz:46902.got - 2010.06.03 13:09:07.
