data_PCOD9219680
_publ_section_title
;
Structure prediction by ZEFSAII (Michael W. Deem and Ramdas Pophale) SiO2 
 PCOD9219680
Probable space group: C 2/M
;
_chemical_formula_sum "Si O2"
_cell_formula_units_Z 64
_cell_length_a 32.797869
_cell_length_b 8.646523
_cell_length_c 24.230639
_cell_angle_alpha 90.000000
_cell_angle_beta 148.716339
_cell_angle_gamma 90.000000
_cell_volume 3568.204736
_symmetry_space_group_name_H-M "C 2/M"
_symmetry_group_IT_number 12
_symmetry_cell_setting 'monoclinic'
loop_
_space_group_symop_operation_xyz
x,y,z
-x,y,-z
-x,-y,-z
x,-y,z
1/2+x,1/2+y,z
1/2-x,1/2+y,-z
1/2-x,1/2-y,-z
1/2+x,1/2-y,z
loop_
_atom_site_type_symbol
_atom_site_label
_atom_site_fract_x
_atom_site_fract_y
_atom_site_fract_z
Si Si1 0.628636 0.812788 0.651406
Si Si2 0.982904 0.688543 0.694744
Si Si3 0.802195 0.685854 0.871538
Si Si4 0.935618 0.323825 0.807289
Si Si5 0.408508 0.186562 0.892836
Si Si6 0.330921 0.826718 0.577573
Si Si7 0.923401 0.182177 0.093099
Si Si8 0.492976 0.812271 0.580210
O O1 0.713735 0.742789 0.760338
O O2 0.567921 0.768169 0.629886
O O3 0.585214 0.764867 0.544084
O O4 0.634659 0.000000 0.658149
O O5 0.982710 0.500000 0.697885
O O6 0.894941 0.743766 0.609788
O O7 0.998998 0.737512 0.650623
O O8 0.044134 0.746897 0.811868
O O9 0.803755 0.500000 0.874425
O O10 0.854248 0.744322 0.879343
O O11 0.844401 0.746674 0.975831
O O12 0.966177 0.500000 0.852858
O O13 0.887852 0.272673 0.805935
O O14 0.879443 0.332066 0.690360
O O15 0.008935 0.221513 0.873748
O O16 0.405384 0.000000 0.893759
O O17 0.500000 0.233140 0.000000
O O18 0.250000 0.750000 0.500000
O O19 0.313717 0.000000 0.537893
O O20 0.585037 0.500000 0.910264
O O21 0.491484 0.000000 0.579145
#
# Coordination Sequence:
#
# PCOD9219680 Si02
#       8
#     8   8   8   8   8   8   8   8
#     4   9  18  35  58  85 110 135 168 216 269 317
#     4   9  18  35  57  77  98 139 185 215 254 318
#     4  11  21  34  53  78 109 145 180 215 261 318
#     4   9  17  33  51  68  94 135 177 213 254 308
#     4   9  16  29  51  72  94 132 177 211 243 298
#     4   9  18  29  45  68  99 132 167 207 249 296
#     4  11  21  33  50  76 106 137 173 221 268 308
#     4   8  16  35  62  82 104 138 175 212 264 323
#
# _framework density 17.936191000000001
#
# number of rings (size 3 to 8) (size 9 to 14) (size 15 to 20)
#    0.000    2.625    1.250    3.000    0.000    3.000 
#    0.000    5.000    0.000    0.000    0.000    0.000 
#    0.000    0.000    0.000    0.000    0.000    0.000 
#
# Total GULP energy -178183.056043 kJ/mol
# GULP energy per Si atom -5568.220501 kJ/mol
# Density = 1.789537 g / cm^3
# Si number density = 17.936191 Si / 1000 Ang^3
#
#
#
# Elastic Constant Matrix: (Units=GPa)
#
#
# Indices 1 2 3 4 5 6 
#
# 1 130.8884 23.8063 69.3272 0.0000 -16.0881 0.0000
# 2 23.8063 38.5315 33.2825 0.0000 -0.4665 0.0000
# 3 69.3272 33.2825 129.4569 0.0000 5.9221 0.0000
# 4 0.0000 0.0000 0.0000 26.0002 0.0000 7.1274
# 5 -16.0881 -0.4665 5.9221 0.0000 20.1326 0.0000
# 6 0.0000 0.0000 0.0000 7.1274 0.0000 10.5815
#
#
#
# Elastic Compliance Matrix: (Units=1/GPa)
#
#
# Indices 1 2 3 4 5 6 
#
# 1 0.013417 -0.001827 -0.007302 0.000000 0.012827 0.000000
# 2 -0.001827 0.033833 -0.007794 0.000000 0.001617 0.000000
# 3 -0.007302 -0.007794 0.014104 0.000000 -0.010164 0.000000
# 4 0.000000 0.000000 0.000000 0.047171 0.000000 -0.031773
# 5 0.012827 0.001617 -0.010164 0.000000 0.062948 0.000000
# 6 0.000000 0.000000 0.000000 -0.031773 0.000000 0.115906
#
#
# Mechanical properties :
#
#
# Convention : Reuss Voigt Hill
#
# Bulk Modulus (GPa) = 36.35298 61.30099 48.82698
# Shear Modulus (GPa) = 15.13343 22.84024 18.98683
#
# Velocity S-wave (km/s) = 2.90787 3.57237 3.25711
# Velocity P-wave (km/s) = 5.62016 7.16011 6.43636
#
# Compressibility (1/GPa) = 0.02750806
#
# Stress axis : x y z
#
# Youngs Moduli (GPa) = 74.53449 29.55674 70.90301
#
# Poissons Ratio (x) = 0.05399 0.51774
# Poissons Ratio (y) = 0.13615 0.55262
# Poissons Ratio (z) = 0.54426 0.23037
#
# Static dielectric constant tensor:
#      x y z
#    x 1.646600 0.000000 -0.016500 
#    y 0.000000 1.643580 0.000000 
#    z -0.016500 0.000000 1.618610 
# 
# From -- ./inp_files/351791.got.cif
#   From: 2010.05.17/outbox.cif.g08.bks.cpg/sg12_176_cif.got.tgz:351791.got - 2010.06.03 13:09:07.
