data_PCOD9219850
_publ_section_title
;
Structure prediction by ZEFSAII (Michael W. Deem and Ramdas Pophale) SiO2 
 PCOD9219850
Probable space group: C 2/M
;
_chemical_formula_sum "Si O2"
_cell_formula_units_Z 64
_cell_length_a 29.436615
_cell_length_b 17.338575
_cell_length_c 12.303579
_cell_angle_alpha 90.000000
_cell_angle_beta 28.896944
_cell_angle_gamma 90.000000
_cell_volume 3034.532069
_symmetry_space_group_name_H-M "C 2/M"
_symmetry_group_IT_number 12
_symmetry_cell_setting 'monoclinic'
loop_
_space_group_symop_operation_xyz
x,y,z
-x,y,-z
-x,-y,-z
x,-y,z
1/2+x,1/2+y,z
1/2-x,1/2+y,-z
1/2-x,1/2-y,-z
1/2+x,1/2-y,z
loop_
_atom_site_type_symbol
_atom_site_label
_atom_site_fract_x
_atom_site_fract_y
_atom_site_fract_z
Si Si1 0.028784 0.631732 0.552386
Si Si2 0.729478 0.840802 0.036609
Si Si3 0.785523 0.409405 0.362133
Si Si4 0.997867 0.585473 0.157868
Si Si5 0.197260 0.336010 0.452214
Si Si6 0.004619 0.809886 0.619367
Si Si7 0.335866 0.412155 0.001611
Si Si8 0.298296 0.332069 0.666029
O O1 0.137533 0.646478 0.300442
O O2 0.003638 0.584573 0.709228
O O3 0.987853 0.717910 0.654642
O O4 0.000000 0.594736 0.500000
O O5 0.804985 0.890876 0.943524
O O6 0.750000 0.750000 0.000000
O O7 0.726967 0.854968 0.913219
O O8 0.775069 0.500000 0.412497
O O9 0.763648 0.353691 0.509623
O O10 0.721065 0.389024 0.393445
O O11 0.896200 0.396811 0.100852
O O12 0.970844 0.500000 0.174520
O O13 0.914397 0.645271 0.306307
O O14 0.249191 0.395874 0.263432
O O15 0.214216 0.252770 0.361780
O O16 0.101604 0.828973 0.479317
O O17 0.000000 0.830400 0.500000
O O18 0.920148 0.854630 0.853251
O O19 0.365918 0.500000 0.945184
#
# Coordination Sequence:
#
# PCOD9219850 Si02
#       8
#     8   8   8   8   8   8   8   8
#     4  11  21  35  63  94 132 173 203 270 336 400
#     4  12  19  40  64  94 136 172 216 273 333 393
#     4  11  27  46  68  97 138 178 222 289 344 394
#     4  11  22  41  67  96 132 173 221 275 341 405
#     4  12  24  45  70  98 131 177 229 282 330 405
#     4  11  22  41  64  94 134 175 217 271 329 391
#     4  12  25  39  66  98 132 180 222 270 332 404
#     4  12  24  43  72 101 129 180 231 276 335 399
#
# _framework density 21.090565999999999
#
# number of rings (size 3 to 8) (size 9 to 14) (size 15 to 20)
#    0.000    0.500    6.250    3.375    1.750    2.500 
#    0.000    0.625    0.000    1.500    0.000    0.000 
#    0.000    0.000    0.000    0.000    0.000    0.000 
#
# Total GULP energy -178684.345056 kJ/mol
# GULP energy per Si atom -5583.885783 kJ/mol
# Density = 2.104256 g / cm^3
# Si number density = 21.090566 Si / 1000 Ang^3
#
#
#
# Elastic Constant Matrix: (Units=GPa)
#
#
# Indices 1 2 3 4 5 6 
#
# 1 123.7002 22.8245 36.4547 0.0000 29.7385 0.0000
# 2 22.8245 72.5882 34.7902 0.0000 0.8720 0.0000
# 3 36.4547 34.7902 71.2074 0.0000 14.3598 0.0000
# 4 0.0000 0.0000 0.0000 13.5929 0.0000 -1.6329
# 5 29.7385 0.8720 14.3598 0.0000 38.2492 0.0000
# 6 0.0000 0.0000 0.0000 -1.6329 0.0000 6.8608
#
#
#
# Elastic Compliance Matrix: (Units=1/GPa)
#
#
# Indices 1 2 3 4 5 6 
#
# 1 0.011185 -0.001827 -0.003341 0.000000 -0.007400 0.000000
# 2 -0.001827 0.018639 -0.009058 0.000000 0.004396 0.000000
# 3 -0.003341 -0.009058 0.021221 0.000000 -0.005162 0.000000
# 4 0.000000 0.000000 0.000000 0.075733 0.000000 0.018025
# 5 -0.007400 0.004396 -0.005162 0.000000 0.033736 0.000000
# 6 0.000000 0.000000 0.000000 0.018025 0.000000 0.150045
#
#
# Mechanical properties :
#
#
# Convention : Reuss Voigt Hill
#
# Bulk Modulus (GPa) = 44.26183 50.62606 47.44394
# Shear Modulus (GPa) = 14.42829 23.30235 18.86532
#
# Velocity S-wave (km/s) = 2.61839 3.32757 2.99405
# Velocity P-wave (km/s) = 5.49303 6.23056 5.87338
#
# Compressibility (1/GPa) = 0.02259283
#
# Stress axis : x y z
#
# Youngs Moduli (GPa) = 89.40681 53.65033 47.12383
#
# Poissons Ratio (x) = 0.09800 0.15746
# Poissons Ratio (y) = 0.16331 0.42685
# Poissons Ratio (z) = 0.29874 0.48597
#
# Static dielectric constant tensor:
#      x y z
#    x 1.848610 0.000000 -0.052620 
#    y 0.000000 1.729990 0.000000 
#    z -0.052620 0.000000 1.817160 
# 
# From -- ./inp_files/190027.got.cif
#   From: 2010.05.17/outbox.cif.g08.bks.cpg/sg12_96_cif.got.tgz:190027.got - 2010.06.03 13:09:07.
