data_PCOD9219797
_publ_section_title
;
Structure prediction by ZEFSAII (Michael W. Deem and Ramdas Pophale) SiO2 
 PCOD9219797
Probable space group: C 2/M
;
_chemical_formula_sum "Si O2"
_cell_formula_units_Z 48
_cell_length_a 8.306002
_cell_length_b 21.534261
_cell_length_c 10.273667
_cell_angle_alpha 90.000000
_cell_angle_beta 112.195280
_cell_angle_gamma 90.000000
_cell_volume 1701.423292
_symmetry_space_group_name_H-M "C 2/M"
_symmetry_group_IT_number 12
_symmetry_cell_setting 'monoclinic'
loop_
_space_group_symop_operation_xyz
x,y,z
-x,y,-z
-x,-y,-z
x,-y,z
1/2+x,1/2+y,z
1/2-x,1/2+y,-z
1/2-x,1/2-y,-z
1/2+x,1/2-y,z
loop_
_atom_site_type_symbol
_atom_site_label
_atom_site_fract_x
_atom_site_fract_y
_atom_site_fract_z
Si Si1 0.112024 0.931169 0.401586
Si Si2 0.726582 0.699711 0.731085
Si Si3 0.211027 0.933497 0.077901
Si Si4 0.735717 0.934360 0.193481
Si Si5 0.205485 0.206472 0.077326
Si Si6 0.807210 0.797597 0.599413
O O1 0.232838 0.872769 0.409524
O O2 0.000000 0.921747 0.500000
O O3 0.948263 0.931954 0.254276
O O4 0.189650 0.000000 0.430889
O O5 0.813216 0.631949 0.763932
O O6 0.767375 0.714544 0.577973
O O7 0.517720 0.699930 0.658490
O O8 0.746821 0.715253 0.916670
O O9 0.306753 0.938590 0.969096
O O10 0.248048 0.000000 0.158482
O O11 0.268812 0.863544 0.125267
O O12 0.000000 0.931454 0.000000
O O13 0.687817 0.000000 0.244306
O O14 0.224153 0.224302 0.250802
O O15 0.000000 0.205487 0.000000
#
# Coordination Sequence:
#
# PCOD9219797 Si02
#       6
#     8   8   8   8   8   8
#     4   9  18  33  56  84 110 141 188 238 276 321
#     4  11  22  36  58  85 112 150 187 231 283 334
#     4   9  18  31  52  79 109 145 188 236 274 320
#     4   9  17  32  53  79 107 143 192 234 271 324
#     4  11  21  35  55  81 113 147 185 230 277 332
#     4  11  22  38  59  85 115 146 185 234 284 333
#
# _framework density 28.211673000000001
#
# number of rings (size 3 to 8) (size 9 to 14) (size 15 to 20)
#    0.000    2.000    1.667    3.500    7.000    0.000 
#    0.000    0.000    0.000    9.000    0.000    0.000 
#    0.000    0.000    0.000    0.000    0.000    0.000 
#
# Total GULP energy -133619.166539 kJ/mol
# GULP energy per Si atom -5567.465272 kJ/mol
# Density = 2.814746 g / cm^3
# Si number density = 28.211673 Si / 1000 Ang^3
#
#
#
# Elastic Constant Matrix: (Units=GPa)
#
#
# Indices 1 2 3 4 5 6 
#
# 1 65.4654 49.3842 -3.8254 0.0000 -0.9206 0.0000
# 2 49.3842 394.0198 134.1832 0.0000 -27.1253 0.0000
# 3 -3.8254 134.1832 176.8662 0.0000 -29.1437 0.0000
# 4 0.0000 0.0000 0.0000 32.4118 0.0000 -6.4757
# 5 -0.9206 -27.1253 -29.1437 0.0000 40.8864 0.0000
# 6 0.0000 0.0000 0.0000 -6.4757 0.0000 21.3501
#
#
#
# Elastic Compliance Matrix: (Units=1/GPa)
#
#
# Indices 1 2 3 4 5 6 
#
# 1 0.017852 -0.003189 0.002859 0.000000 0.000324 0.000000
# 2 -0.003189 0.004000 -0.003035 0.000000 0.000419 0.000000
# 3 0.002859 -0.003035 0.008721 0.000000 0.004268 0.000000
# 4 0.000000 0.000000 0.000000 0.032843 0.000000 0.009962
# 5 0.000324 0.000419 0.004268 0.000000 0.027785 0.000000
# 6 0.000000 0.000000 0.000000 0.009962 0.000000 0.049860
#
#
# Mechanical properties :
#
#
# Convention : Reuss Voigt Hill
#
# Bulk Modulus (GPa) = 41.93870 110.64836 76.29353
# Shear Modulus (GPa) = 32.10508 49.37029 40.73768
#
# Velocity S-wave (km/s) = 3.37710 4.18783 3.80412
# Velocity P-wave (km/s) = 5.48674 7.91769 6.81154
#
# Compressibility (1/GPa) = 0.02384432
#
# Stress axis : x y z
#
# Youngs Moduli (GPa) = 56.01530 250.01050 114.66273
#
# Poissons Ratio (x) = 0.79721 -0.32779
# Poissons Ratio (y) = 0.17862 0.34795
# Poissons Ratio (z) = -0.16013 0.75866
#
# Static dielectric constant tensor:
#      x y z
#    x 1.999010 0.000000 -0.119130 
#    y 0.000000 2.285920 0.000000 
#    z -0.119130 0.000000 3.000880 
# 
# From -- ./inp_files/134474.got.cif
#   From: 2010.05.17/outbox.cif.g08.bks.cpg/sg12_68_cif.got.tgz:134474.got - 2010.06.03 13:09:07.
