data_PCOD9219295
_publ_section_title
;
Structure prediction by ZEFSAII (Michael W. Deem and Ramdas Pophale) SiO2 
 PCOD9219295
Probable space group: C 2/M
;
_chemical_formula_sum "Si O2"
_cell_formula_units_Z 58
_cell_length_a 17.901785
_cell_length_b 14.439516
_cell_length_c 18.172238
_cell_angle_alpha 90.000000
_cell_angle_beta 133.881368
_cell_angle_gamma 90.000000
_cell_volume 3385.774615
_symmetry_space_group_name_H-M "C 2/M"
_symmetry_group_IT_number 12
_symmetry_cell_setting 'monoclinic'
loop_
_space_group_symop_operation_xyz
x,y,z
-x,y,-z
-x,-y,-z
x,-y,z
1/2+x,1/2+y,z
1/2-x,1/2+y,-z
1/2-x,1/2-y,-z
1/2+x,1/2-y,z
loop_
_atom_site_type_symbol
_atom_site_label
_atom_site_fract_x
_atom_site_fract_y
_atom_site_fract_z
Si Si1 0.747523 0.155058 0.156312
Si Si2 0.984994 0.889291 0.286895
Si Si3 0.000000 0.000000 0.000000
Si Si4 0.135020 0.833503 0.037994
Si Si5 0.495008 0.758875 0.168960
Si Si6 0.688556 0.104936 0.951092
Si Si7 0.686141 0.893470 0.275073
Si Si8 0.907180 0.111823 0.489003
O O1 0.703718 0.108022 0.199266
O O2 0.870619 0.139288 0.237015
O O3 0.707767 0.261078 0.130284
O O4 0.705986 0.115123 0.050504
O O5 0.009544 0.828545 0.232211
O O6 0.064172 0.868460 0.407213
O O7 0.984592 0.000000 0.271784
O O8 0.088860 0.918792 0.050007
O O9 0.040679 0.777891 0.935189
O O10 0.205301 0.870521 0.018020
O O11 0.398129 0.820939 0.130309
O O12 0.593377 0.825065 0.231387
O O13 0.657996 0.000000 0.913215
O O14 0.793751 0.859380 0.385004
O O15 0.665516 0.000000 0.283724
O O16 0.000000 0.146929 0.500000
O O17 0.907306 0.000000 0.481575
#
# Coordination Sequence:
#
# PCOD9219295 Si02
#       8
#     8   8   2   8   8   8   8   8
#     4  11  20  36  56  84 111 144 184 232 279 331
#     4  11  20  34  60  84 107 148 189 230 282 330
#     4  12  24  36  56  76 118 152 194 232 266 308
#     4  11  22  37  52  82 113 150 188 229 264 325
#     4  11  23  37  53  82 118 144 188 230 272 343
#     4  11  20  36  58  80 111 148 190 221 272 335
#     4  11  22  37  57  82 115 144 178 234 295 329
#     4   9  18  33  56  85 108 135 185 236 280 339
#
# _framework density 17.130496999999998
#
# number of rings (size 3 to 8) (size 9 to 14) (size 15 to 20)
#    0.000    1.241    4.828    3.310    0.966    2.207 
#    0.000    3.448    0.000    0.000    0.000    0.000 
#    0.000    5.241    0.000    0.000    0.000    0.000 
#
# Total GULP energy -161589.382504 kJ/mol
# GULP energy per Si atom -5572.047673 kJ/mol
# Density = 1.709151 g / cm^3
# Si number density = 17.130497 Si / 1000 Ang^3
#
#
#
# Elastic Constant Matrix: (Units=GPa)
#
#
# Indices 1 2 3 4 5 6 
#
# 1 55.5053 25.3546 29.9069 0.0000 13.1395 0.0000
# 2 25.3546 110.8848 35.4834 0.0000 7.7800 0.0000
# 3 29.9069 35.4834 86.0962 0.0000 5.7840 0.0000
# 4 0.0000 0.0000 0.0000 23.1713 0.0000 6.7308
# 5 13.1395 7.7800 5.7840 0.0000 18.8772 0.0000
# 6 0.0000 0.0000 0.0000 6.7308 0.0000 29.3601
#
#
#
# Elastic Compliance Matrix: (Units=1/GPa)
#
#
# Indices 1 2 3 4 5 6 
#
# 1 0.026734 -0.002761 -0.007121 0.000000 -0.015288 0.000000
# 2 -0.002761 0.010846 -0.003410 0.000000 -0.001503 0.000000
# 3 -0.007121 -0.003410 0.015383 0.000000 0.001649 0.000000
# 4 0.000000 0.000000 0.000000 0.046236 0.000000 -0.010600
# 5 -0.015288 -0.001503 0.001649 0.000000 0.063729 0.000000
# 6 0.000000 0.000000 0.000000 -0.010600 0.000000 0.036490
#
#
# Mechanical properties :
#
#
# Convention : Reuss Voigt Hill
#
# Bulk Modulus (GPa) = 37.91024 48.21958 43.06491
# Shear Modulus (GPa) = 21.29502 25.06448 23.17975
#
# Velocity S-wave (km/s) = 3.52960 3.82926 3.68248
# Velocity P-wave (km/s) = 6.22808 6.91090 6.57836
#
# Compressibility (1/GPa) = 0.02637810
#
# Stress axis : x y z
#
# Youngs Moduli (GPa) = 37.40583 92.19590 65.00576
#
# Poissons Ratio (x) = 0.25459 0.46293
# Poissons Ratio (y) = 0.10329 0.22167
# Poissons Ratio (z) = 0.26638 0.31439
#
# Static dielectric constant tensor:
#      x y z
#    x 1.593850 0.000000 -0.005050 
#    y 0.000000 1.580130 0.000000 
#    z -0.005050 0.000000 1.582130 
# 
# From -- ./inp_files/316326.got.cif
#   From: 2010.05.17/outbox.cif.g08.bks.cpg/sg12_159_cif.got.tgz:316326.got - 2010.06.03 13:09:07.
