data_PCOD9219771
_publ_section_title
;
Structure prediction by ZEFSAII (Michael W. Deem and Ramdas Pophale) SiO2 
 PCOD9219771
Probable space group: C 2/M
;
_chemical_formula_sum "Si O2"
_cell_formula_units_Z 64
_cell_length_a 8.373010
_cell_length_b 29.197404
_cell_length_c 12.618081
_cell_angle_alpha 90.000000
_cell_angle_beta 98.645387
_cell_angle_gamma 90.000000
_cell_volume 3049.694178
_symmetry_space_group_name_H-M "C 2/M"
_symmetry_group_IT_number 12
_symmetry_cell_setting 'monoclinic'
loop_
_space_group_symop_operation_xyz
x,y,z
-x,y,-z
-x,-y,-z
x,-y,z
1/2+x,1/2+y,z
1/2-x,1/2+y,-z
1/2-x,1/2-y,-z
1/2+x,1/2-y,z
loop_
_atom_site_type_symbol
_atom_site_label
_atom_site_fract_x
_atom_site_fract_y
_atom_site_fract_z
Si Si1 0.240256 0.284045 0.242164
Si Si2 0.874360 0.112795 0.767198
Si Si3 0.472129 0.294091 0.872751
Si Si4 0.810824 0.384214 0.447367
Si Si5 0.629020 0.946099 0.154715
Si Si6 0.834931 0.717500 0.426389
Si Si7 0.750598 0.553843 0.058696
Si Si8 0.790873 0.881519 0.331853
O O1 0.352067 0.300978 0.159188
O O2 0.097179 0.254101 0.178177
O O3 0.340104 0.247169 0.321659
O O4 0.217650 0.329713 0.310714
O O5 0.863534 0.163889 0.818377
O O6 0.739668 0.093899 0.669809
O O7 0.861548 0.080710 0.870061
O O8 0.037263 0.114189 0.711274
O O9 0.500000 0.293641 0.000000
O O10 0.758960 0.332032 0.411224
O O11 0.710482 0.393919 0.544148
O O12 0.000000 0.389467 0.500000
O O13 0.438596 0.941387 0.112666
O O14 0.675358 0.915949 0.258732
O O15 0.661111 0.000000 0.173769
O O16 0.735638 0.930886 0.062955
O O17 0.750000 0.750000 0.500000
O O18 0.000000 0.707781 0.500000
O O19 0.709806 0.500000 0.055886
#
# Coordination Sequence:
#
# PCOD9219771 Si02
#       8
#     8   8   8   8   8   8   8   8
#     4  11  23  39  57  84 121 164 211 253 306 363
#     4  11  24  39  63  90 132 163 206 259 315 372
#     4  11  25  41  57  81 126 168 210 254 308 364
#     4  11  23  39  60  88 121 164 214 259 305 370
#     4   9  20  42  68  97 125 159 206 257 308 371
#     4  11  21  34  58  82 112 155 208 257 301 349
#     4   9  20  41  69  94 123 161 209 258 306 370
#     4  11  24  37  61  94 128 162 205 259 322 370
#
# _framework density 20.985710000000001
#
# number of rings (size 3 to 8) (size 9 to 14) (size 15 to 20)
#    0.000    1.500    2.500    3.000    7.000    1.500 
#    2.250    1.875    0.000    3.750    0.000    0.000 
#    0.000    0.000    0.000    0.000    0.000    0.000 
#
# Total GULP energy -178387.899508 kJ/mol
# GULP energy per Si atom -5574.621860 kJ/mol
# Density = 2.093795 g / cm^3
# Si number density = 20.985710 Si / 1000 Ang^3
#
#
#
# Elastic Constant Matrix: (Units=GPa)
#
#
# Indices 1 2 3 4 5 6 
#
# 1 49.9281 12.5941 22.3576 0.0000 -5.2873 0.0000
# 2 12.5941 47.7041 26.0888 0.0000 -2.5126 0.0000
# 3 22.3576 26.0888 138.6285 0.0000 -8.1531 0.0000
# 4 0.0000 0.0000 0.0000 31.8616 0.0000 -0.1947
# 5 -5.2873 -2.5126 -8.1531 0.0000 38.2594 0.0000
# 6 0.0000 0.0000 0.0000 -0.1947 0.0000 21.1363
#
#
#
# Elastic Compliance Matrix: (Units=1/GPa)
#
#
# Indices 1 2 3 4 5 6 
#
# 1 0.022573 -0.004372 -0.002685 0.000000 0.002260 0.000000
# 2 -0.004372 0.024228 -0.003845 0.000000 0.000168 0.000000
# 3 -0.002685 -0.003845 0.008439 0.000000 0.001175 0.000000
# 4 0.000000 0.000000 0.000000 0.031388 0.000000 0.000289
# 5 0.002260 0.000168 0.001175 0.000000 0.026711 0.000000
# 6 0.000000 0.000000 0.000000 0.000289 0.000000 0.047315
#
#
# Mechanical properties :
#
#
# Convention : Reuss Voigt Hill
#
# Bulk Modulus (GPa) = 29.90648 39.81576 34.86112
# Shear Modulus (GPa) = 25.82607 29.93280 27.87943
#
# Velocity S-wave (km/s) = 3.51187 3.78079 3.64881
# Velocity P-wave (km/s) = 5.54311 6.17035 5.86512
#
# Compressibility (1/GPa) = 0.03343757
#
# Stress axis : x y z
#
# Youngs Moduli (GPa) = 44.30020 41.27422 118.49553
#
# Poissons Ratio (x) = 0.18046 0.31814
# Poissons Ratio (y) = 0.19369 0.45556
# Poissons Ratio (z) = 0.11894 0.15868
#
# Static dielectric constant tensor:
#      x y z
#    x 1.790350 0.000000 0.004220 
#    y 0.000000 1.728210 0.000000 
#    z 0.004220 0.000000 1.745070 
# 
# From -- ./inp_files/125746.got.cif
#   From: 2010.05.17/outbox.cif.g08.bks.cpg/sg12_63_cif.got.tgz:125746.got - 2010.06.03 13:09:07.
