data_PCOD9219268
_publ_section_title
;
Structure prediction by ZEFSAII (Michael W. Deem and Ramdas Pophale) SiO2 
 PCOD9219268
Probable space group: C 2/M
;
_chemical_formula_sum "Si O2"
_cell_formula_units_Z 48
_cell_length_a 8.465064
_cell_length_b 22.466262
_cell_length_c 24.197999
_cell_angle_alpha 90.000000
_cell_angle_beta 32.243674
_cell_angle_gamma 90.000000
_cell_volume 2455.229813
_symmetry_space_group_name_H-M "C 2/M"
_symmetry_group_IT_number 12
_symmetry_cell_setting 'monoclinic'
loop_
_space_group_symop_operation_xyz
x,y,z
-x,y,-z
-x,-y,-z
x,-y,z
1/2+x,1/2+y,z
1/2-x,1/2+y,-z
1/2-x,1/2-y,-z
1/2+x,1/2-y,z
loop_
_atom_site_type_symbol
_atom_site_label
_atom_site_fract_x
_atom_site_fract_y
_atom_site_fract_z
Si Si1 0.707661 0.116476 0.806228
Si Si2 0.212178 0.336651 0.388937
Si Si3 0.566763 0.774371 0.922015
Si Si4 0.648549 0.792338 0.611307
Si Si5 0.134703 0.934097 0.022478
Si Si6 0.857418 0.654868 0.806665
O O1 0.680704 0.180123 0.844039
O O2 0.571958 0.119665 0.784802
O O3 0.059212 0.112147 0.696977
O O4 0.483757 0.077197 0.909181
O O5 0.371502 0.278427 0.369544
O O6 0.000000 0.359355 0.500000
O O7 0.028325 0.310621 0.391461
O O8 0.775153 0.716658 0.862044
O O9 0.500000 0.804412 0.000000
O O10 0.250000 0.750000 0.000000
O O11 0.507563 0.827476 0.704742
O O12 0.000000 0.804408 0.500000
O O13 0.945264 0.883502 0.109643
O O14 0.084938 0.000000 0.060178
O O15 0.000000 0.931879 0.000000
#
# Coordination Sequence:
#
# PCOD9219268 Si02
#       6
#     8   8   8   8   8   8
#     4  11  21  33  54  79 111 143 179 222 267 323
#     4  11  22  35  52  78 111 147 181 219 266 320
#     4  12  21  31  47  77 112 143 176 215 265 325
#     4  11  22  35  53  77 111 147 181 219 266 322
#     4   9  19  36  57  81 108 142 183 225 271 318
#     4  11  20  34  53  80 110 144 179 220 267 323
#
# _framework density 19.550106
#
# number of rings (size 3 to 8) (size 9 to 14) (size 15 to 20)
#    0.000    1.167    5.000    4.500    2.333    0.000 
#    0.000    0.000    0.000    5.500    0.000    0.000 
#    0.000    0.000    0.000    0.000    0.000    0.000 
#
# Total GULP energy -133868.818463 kJ/mol
# GULP energy per Si atom -5577.867436 kJ/mol
# Density = 1.950561 g / cm^3
# Si number density = 19.550106 Si / 1000 Ang^3
#
#
#
# Elastic Constant Matrix: (Units=GPa)
#
#
# Indices 1 2 3 4 5 6 
#
# 1 60.8466 -11.2084 20.4493 0.0148 -1.3833 -0.0277
# 2 -11.2084 53.4926 28.0108 -0.0065 -1.7983 -0.0149
# 3 20.4493 28.0108 145.5664 -0.0538 7.3257 -0.0104
# 4 0.0148 -0.0065 -0.0538 12.4608 -0.0014 3.2244
# 5 -1.3833 -1.7983 7.3257 -0.0014 29.9727 0.0165
# 6 -0.0277 -0.0149 -0.0104 3.2244 0.0165 5.0380
#
#
#
# Elastic Compliance Matrix: (Units=1/GPa)
#
#
# Indices 1 2 3 4 5 6 
#
# 1 0.018937 0.006109 -0.003947 -0.000076 0.002205 0.000156
# 2 0.006109 0.022911 -0.005417 -0.000047 0.002980 0.000110
# 3 -0.003947 -0.005417 0.008598 0.000050 -0.002609 -0.000043
# 4 -0.000076 -0.000047 0.000050 0.096181 0.000020 -0.061559
# 5 0.002205 0.002980 -0.002609 0.000020 0.034282 -0.000109
# 6 0.000156 0.000110 -0.000043 -0.061559 -0.000109 0.237893
#
#
# Mechanical properties :
#
#
# Convention : Reuss Voigt Hill
#
# Bulk Modulus (GPa) = 22.76062 37.15656 29.95859
# Shear Modulus (GPa) = 11.36477 24.33788 17.85132
#
# Velocity S-wave (km/s) = 2.41366 3.53214 3.02504
# Velocity P-wave (km/s) = 4.40853 5.97342 5.24961
#
# Compressibility (1/GPa) = 0.04393552
#
# Stress axis : x y z
#
# Youngs Moduli (GPa) = 52.80761 43.64761 116.30921
#
# Poissons Ratio (x) = -0.26663 0.45904
# Poissons Ratio (y) = -0.32258 0.63002
# Poissons Ratio (z) = 0.20842 0.23643
#
# Static dielectric constant tensor:
#      x y z
#    x 1.654630 0.000000 -0.178570 
#    y 0.000000 1.664070 0.000040 
#    z -0.178570 0.000040 1.560730 
# 
# From -- ./inp_files/334035.got.cif
#   From: 2010.05.17/outbox.cif.g08.bks.cpg/sg12_168_cif.got.tgz:334035.got - 2010.06.03 13:09:07.
