data_PCOD9219991
_publ_section_title
;
Structure prediction by ZEFSAII (Michael W. Deem and Ramdas Pophale) SiO2 
 PCOD9219991
Probable space group: C 2/M
;
_chemical_formula_sum "Si O2"
_cell_formula_units_Z 58
_cell_length_a 11.820995
_cell_length_b 16.243323
_cell_length_c 13.131197
_cell_angle_alpha 90.000000
_cell_angle_beta 70.905809
_cell_angle_gamma 90.000000
_cell_volume 2382.631093
_symmetry_space_group_name_H-M "C 2/M"
_symmetry_group_IT_number 12
_symmetry_cell_setting 'monoclinic'
loop_
_space_group_symop_operation_xyz
x,y,z
-x,y,-z
-x,-y,-z
x,-y,z
1/2+x,1/2+y,z
1/2-x,1/2+y,-z
1/2-x,1/2-y,-z
1/2+x,1/2-y,z
loop_
_atom_site_type_symbol
_atom_site_label
_atom_site_fract_x
_atom_site_fract_y
_atom_site_fract_z
Si Si1 0.795485 0.141445 0.278071
Si Si2 0.094244 0.408179 0.185978
Si Si3 0.980599 0.089611 0.886382
Si Si4 0.899847 0.649083 0.389345
Si Si5 0.500000 0.000000 0.500000
Si Si6 0.221258 0.338155 0.957411
Si Si7 0.046233 0.838499 0.594914
Si Si8 0.281021 0.322705 0.717080
O O1 0.709433 0.090047 0.229128
O O2 0.726422 0.226592 0.308318
O O3 0.920337 0.152828 0.181928
O O4 0.846286 0.117693 0.374455
O O5 0.044819 0.500000 0.195773
O O6 0.999676 0.351820 0.270551
O O7 0.130189 0.378998 0.063199
O O8 0.842544 0.109837 0.920246
O O9 0.008663 0.000000 0.830951
O O10 0.000000 0.084404 0.000000
O O11 0.931998 0.574399 0.454456
O O12 0.777148 0.634746 0.363821
O O13 0.911015 0.742473 0.429129
O O14 0.200362 0.331835 0.842761
O O15 0.250000 0.250000 0.000000
O O16 0.919952 0.843466 0.693992
O O17 0.000000 0.869306 0.500000
#
# Coordination Sequence:
#
# PCOD9219991 Si02
#       8
#     8   8   8   8   2   8   8   8
#     4  11  22  39  68  93 129 170 221 281 330 400
#     4  12  24  43  67 102 136 176 229 271 332 412
#     4  11  21  37  61  93 128 174 223 268 334 404
#     4  11  25  44  70  96 132 179 230 278 339 409
#     4  12  24  52  68  90 130 194 224 284 338 416
#     4  12  22  40  65  98 140 178 222 277 340 405
#     4  11  23  43  70 100 129 166 230 291 343 389
#     4  11  24  43  65 100 135 174 224 282 341 398
#
# _framework density 24.342838
#
# number of rings (size 3 to 8) (size 9 to 14) (size 15 to 20)
#    0.000    0.690    6.897    0.828    1.931    3.862 
#    2.483    0.690    0.000    1.655    0.000    0.000 
#    0.000    0.000    0.000    0.000    0.000    0.000 
#
# Total GULP energy -161676.903974 kJ/mol
# GULP energy per Si atom -5575.065654 kJ/mol
# Density = 2.428743 g / cm^3
# Si number density = 24.342838 Si / 1000 Ang^3
#
#
#
# Elastic Constant Matrix: (Units=GPa)
#
#
# Indices 1 2 3 4 5 6 
#
# 1 91.1907 -4.8923 17.1241 0.0000 14.6846 0.0000
# 2 -4.8923 43.1856 14.0366 0.0000 7.5242 0.0000
# 3 17.1241 14.0366 91.6804 0.0000 18.4549 0.0000
# 4 0.0000 0.0000 0.0000 15.4643 0.0000 12.8549
# 5 14.6846 7.5242 18.4549 0.0000 50.1141 0.0000
# 6 0.0000 0.0000 0.0000 12.8549 0.0000 32.2863
#
#
#
# Elastic Compliance Matrix: (Units=1/GPa)
#
#
# Indices 1 2 3 4 5 6 
#
# 1 0.011987 0.002557 -0.001994 0.000000 -0.003162 0.000000
# 2 0.002557 0.025200 -0.003697 0.000000 -0.003171 0.000000
# 3 -0.001994 -0.003697 0.012547 0.000000 -0.003481 0.000000
# 4 0.000000 0.000000 0.000000 0.096655 0.000000 -0.038484
# 5 -0.003162 -0.003171 -0.003481 0.000000 0.022639 0.000000
# 6 0.000000 0.000000 0.000000 -0.038484 0.000000 0.046295
#
#
# Mechanical properties :
#
#
# Convention : Reuss Voigt Hill
#
# Bulk Modulus (GPa) = 23.00726 30.95485 26.98106
# Shear Modulus (GPa) = 21.17930 32.89216 27.03573
#
# Velocity S-wave (km/s) = 2.95285 3.67986 3.33622
# Velocity P-wave (km/s) = 4.59321 5.54968 5.09395
#
# Compressibility (1/GPa) = 0.04346454
#
# Stress axis : x y z
#
# Youngs Moduli (GPa) = 83.42500 39.68283 79.70237
#
# Poissons Ratio (x) = -0.10147 0.15892
# Poissons Ratio (y) = -0.21331 0.29469
# Poissons Ratio (z) = 0.16634 0.14672
#
# Static dielectric constant tensor:
#      x y z
#    x 1.961810 0.000000 0.008340 
#    y 0.000000 1.855200 0.000000 
#    z 0.008340 0.000000 2.152720 
# 
# From -- ./inp_files/206159.got.cif
#   From: 2010.05.17/outbox.cif.g08.bks.cpg/sg12_104_cif.got.tgz:206159.got - 2010.06.03 13:09:07.
