data_PCOD9219341
_publ_section_title
;
Structure prediction by ZEFSAII (Michael W. Deem and Ramdas Pophale) SiO2 
 PCOD9219341
Probable space group: C 2/M
;
_chemical_formula_sum "Si O2"
_cell_formula_units_Z 56
_cell_length_a 24.912644
_cell_length_b 10.429408
_cell_length_c 12.102567
_cell_angle_alpha 90.000000
_cell_angle_beta 110.239858
_cell_angle_gamma 90.000000
_cell_volume 2950.371784
_symmetry_space_group_name_H-M "C 2/M"
_symmetry_group_IT_number 12
_symmetry_cell_setting 'monoclinic'
loop_
_space_group_symop_operation_xyz
x,y,z
-x,y,-z
-x,-y,-z
x,-y,z
1/2+x,1/2+y,z
1/2-x,1/2+y,-z
1/2-x,1/2-y,-z
1/2+x,1/2-y,z
loop_
_atom_site_type_symbol
_atom_site_label
_atom_site_fract_x
_atom_site_fract_y
_atom_site_fract_z
Si Si1 0.290343 0.149155 0.214695
Si Si2 0.808107 0.351059 0.864907
Si Si3 0.561742 0.500000 0.186833
Si Si4 0.704493 0.149244 0.516921
Si Si5 0.614827 0.231753 0.881476
Si Si6 0.575885 0.500000 0.932052
Si Si7 0.615509 0.770212 0.286281
Si Si8 0.998302 0.356670 0.119649
O O1 0.242433 0.251478 0.143672
O O2 0.294796 0.156384 0.350280
O O3 0.348951 0.191950 0.198204
O O4 0.277214 0.000000 0.175801
O O5 0.790195 0.500000 0.841223
O O6 0.837069 0.301069 0.772865
O O7 0.855473 0.340013 0.994310
O O8 0.492158 0.500000 0.150596
O O9 0.591931 0.625561 0.259160
O O10 0.574568 0.500000 0.064502
O O11 0.750000 0.250000 0.500000
O O12 0.644070 0.191061 0.421429
O O13 0.716639 0.000000 0.494829
O O14 0.610989 0.379549 0.911710
O O15 0.548124 0.197996 0.830897
O O16 0.560560 0.852763 0.214506
O O17 0.978310 0.500000 0.084033
O O18 0.000000 0.288126 0.000000
#
# Coordination Sequence:
#
# PCOD9219341 Si02
#       8
#     8   8   4   8   8   4   8   8
#     4  11  27  46  65  92 130 176 219 264 321 382
#     4  12  24  39  65  97 130 168 213 266 324 386
#     4  11  22  40  65 103 131 167 212 260 325 384
#     4  11  25  45  68  93 125 169 221 270 316 374
#     4  12  24  41  63  94 137 168 211 260 326 392
#     4  11  22  40  65  99 135 171 206 258 324 391
#     4  12  23  39  65  98 131 161 214 270 320 379
#     4  11  20  35  62  94 125 162 205 265 323 381
#
# _framework density 18.980658999999999
#
# number of rings (size 3 to 8) (size 9 to 14) (size 15 to 20)
#    0.000    0.571    5.714    3.000    4.000    0.000 
#    0.000    0.714    0.000    3.429    0.000    0.000 
#    0.000    0.000    0.000    0.000    0.000    0.000 
#
# Total GULP energy -156369.332808 kJ/mol
# GULP energy per Si atom -5584.619029 kJ/mol
# Density = 1.893746 g / cm^3
# Si number density = 18.980659 Si / 1000 Ang^3
#
#
#
# Elastic Constant Matrix: (Units=GPa)
#
#
# Indices 1 2 3 4 5 6 
#
# 1 100.4550 41.7617 10.4871 0.0000 2.8852 0.0000
# 2 41.7617 155.1209 21.3878 0.0000 -1.4834 0.0000
# 3 10.4871 21.3878 53.0898 0.0000 13.2925 0.0000
# 4 0.0000 0.0000 0.0000 25.8505 0.0000 5.2973
# 5 2.8852 -1.4834 13.2925 0.0000 28.7945 0.0000
# 6 0.0000 0.0000 0.0000 5.2973 0.0000 28.2848
#
#
#
# Elastic Compliance Matrix: (Units=1/GPa)
#
#
# Indices 1 2 3 4 5 6 
#
# 1 0.011286 -0.002934 -0.000821 0.000000 -0.000903 0.000000
# 2 -0.002934 0.007675 -0.003036 0.000000 0.002091 0.000000
# 3 -0.000821 -0.003036 0.022885 0.000000 -0.010639 0.000000
# 4 0.000000 0.000000 0.000000 0.040228 0.000000 -0.007534
# 5 -0.000903 0.002091 -0.010639 0.000000 0.039838 0.000000
# 6 0.000000 0.000000 0.000000 -0.007534 0.000000 0.036766
#
#
# Mechanical properties :
#
#
# Convention : Reuss Voigt Hill
#
# Bulk Modulus (GPa) = 35.38109 50.65989 43.02049
# Shear Modulus (GPa) = 27.52073 32.25457 29.88765
#
# Velocity S-wave (km/s) = 3.81193 4.12678 3.97247
# Velocity P-wave (km/s) = 6.16891 7.03244 6.61479
#
# Compressibility (1/GPa) = 0.02826368
#
# Stress axis : x y z
#
# Youngs Moduli (GPa) = 88.60499 130.29289 43.69678
#
# Poissons Ratio (x) = 0.38226 0.03589
# Poissons Ratio (y) = 0.25995 0.13266
# Poissons Ratio (z) = 0.07278 0.39556
#
# Static dielectric constant tensor:
#      x y z
#    x 1.654560 0.000000 -0.006180 
#    y 0.000000 1.733110 0.000000 
#    z -0.006180 0.000000 1.642690 
# 
# From -- ./inp_files/165747.got.cif
#   From: 2010.05.17/outbox.cif.g08.bks.cpg/sg12_83_cif.got.tgz:165747.got - 2010.06.03 13:09:07.
