data_PCOD9219409
_publ_section_title
;
Structure prediction by ZEFSAII (Michael W. Deem and Ramdas Pophale) SiO2 
 PCOD9219409
Probable space group: C 2/M
;
_chemical_formula_sum "Si O2"
_cell_formula_units_Z 36
_cell_length_a 4.941798
_cell_length_b 23.705683
_cell_length_c 16.422803
_cell_angle_alpha 90.000000
_cell_angle_beta 114.823172
_cell_angle_gamma 90.000000
_cell_volume 1746.155630
_symmetry_space_group_name_H-M "C 2/M"
_symmetry_group_IT_number 12
_symmetry_cell_setting 'monoclinic'
loop_
_space_group_symop_operation_xyz
x,y,z
-x,y,-z
-x,-y,-z
x,-y,z
1/2+x,1/2+y,z
1/2-x,1/2+y,-z
1/2-x,1/2-y,-z
1/2+x,1/2-y,z
loop_
_atom_site_type_symbol
_atom_site_label
_atom_site_fract_x
_atom_site_fract_y
_atom_site_fract_z
Si Si1 0.667040 0.089702 0.214530
Si Si2 0.183366 0.837552 0.441845
Si Si3 0.738450 0.213145 0.253384
Si Si4 0.324213 0.063744 0.334058
Si Si5 0.658420 0.000000 0.933937
O O1 0.700908 0.155538 0.198674
O O2 0.552053 0.084722 0.293589
O O3 0.445108 0.054042 0.131370
O O4 0.996161 0.063569 0.252334
O O5 0.500000 0.807018 0.500000
O O6 0.288596 0.892174 0.402980
O O7 0.000000 0.851748 0.500000
O O8 0.955082 0.803732 0.355819
O O9 0.415017 0.235330 0.235998
O O10 0.403345 0.000000 0.368981
O O11 0.500000 0.000000 0.000000
O O12 0.000000 0.000000 0.000000
#
# Coordination Sequence:
#
# PCOD9219409 Si02
#       5
#     8   8   8   8   4
#     4  11  22  41  63  93 126 154 203 248 291 377
#     4  11  23  36  53  86 124 160 213 271 312 345
#     4  11  23  40  63  85 115 171 217 249 298 352
#     4  11  20  37  61  82 120 171 205 245 309 366
#     4  12  24  40  70 104 128 150 180 242 322 364
#
# _framework density 20.616717000000001
#
# number of rings (size 3 to 8) (size 9 to 14) (size 15 to 20)
#    0.000    0.889    2.222    8.000    0.000    3.556 
#    0.000    0.000    0.000    4.000    0.000    0.000 
#    0.000    0.000    0.000    0.000    0.000    0.000 
#
# Total GULP energy -100640.556753 kJ/mol
# GULP energy per Si atom -5591.142042 kJ/mol
# Density = 2.056979 g / cm^3
# Si number density = 20.616717 Si / 1000 Ang^3
#
#
#
# Elastic Constant Matrix: (Units=GPa)
#
#
# Indices 1 2 3 4 5 6 
#
# 1 89.0730 -16.2587 13.2660 0.0000 -4.2285 0.0000
# 2 -16.2587 92.8196 21.5998 0.0000 -3.3138 0.0000
# 3 13.2660 21.5998 69.5074 0.0000 12.1286 0.0000
# 4 0.0000 0.0000 0.0000 19.3542 0.0000 8.0716
# 5 -4.2285 -3.3138 12.1286 0.0000 40.9839 0.0000
# 6 0.0000 0.0000 0.0000 8.0716 0.0000 27.8008
#
#
#
# Elastic Compliance Matrix: (Units=1/GPa)
#
#
# Indices 1 2 3 4 5 6 
#
# 1 0.012507 0.003181 -0.003844 0.000000 0.002685 0.000000
# 2 0.003181 0.012599 -0.005017 0.000000 0.002832 0.000000
# 3 -0.003844 -0.005017 0.017735 0.000000 -0.006051 0.000000
# 4 0.000000 0.000000 0.000000 0.058787 0.000000 -0.017068
# 5 0.002685 0.002832 -0.006051 0.000000 0.026697 0.000000
# 6 0.000000 0.000000 0.000000 -0.017068 0.000000 0.040926
#
#
# Mechanical properties :
#
#
# Convention : Reuss Voigt Hill
#
# Bulk Modulus (GPa) = 31.76309 32.06824 31.91567
# Shear Modulus (GPa) = 26.16367 33.14729 29.65548
#
# Velocity S-wave (km/s) = 3.56624 4.01407 3.79676
# Velocity P-wave (km/s) = 5.69187 6.08867 5.89361
#
# Compressibility (1/GPa) = 0.03148309
#
# Stress axis : x y z
#
# Youngs Moduli (GPa) = 79.95211 79.36930 56.38425
#
# Poissons Ratio (x) = -0.25250 0.21676
# Poissons Ratio (y) = -0.25436 0.28286
# Poissons Ratio (z) = 0.30736 0.39816
#
# Static dielectric constant tensor:
#      x y z
#    x 1.712350 0.000000 0.002180 
#    y 0.000000 1.771010 0.000000 
#    z 0.002180 0.000000 1.727510 
# 
# From -- ./inp_files/191536.got.cif
#   From: 2010.05.17/outbox.cif.g08.bks.cpg/sg12_96_cif.got.tgz:191536.got - 2010.06.03 13:09:07.
