data_PCOD9219590
_publ_section_title
;
Structure prediction by ZEFSAII (Michael W. Deem and Ramdas Pophale) SiO2 
 PCOD9219590
Probable space group: C 2/M
;
_chemical_formula_sum "Si O2"
_cell_formula_units_Z 56
_cell_length_a 19.116480
_cell_length_b 17.551443
_cell_length_c 14.190116
_cell_angle_alpha 90.000000
_cell_angle_beta 144.548149
_cell_angle_gamma 90.000000
_cell_volume 2761.522732
_symmetry_space_group_name_H-M "C 2/M"
_symmetry_group_IT_number 12
_symmetry_cell_setting 'monoclinic'
loop_
_space_group_symop_operation_xyz
x,y,z
-x,y,-z
-x,-y,-z
x,-y,z
1/2+x,1/2+y,z
1/2-x,1/2+y,-z
1/2-x,1/2-y,-z
1/2+x,1/2-y,z
loop_
_atom_site_type_symbol
_atom_site_label
_atom_site_fract_x
_atom_site_fract_y
_atom_site_fract_z
Si Si1 0.699710 0.174680 0.641324
Si Si2 0.962957 0.656159 0.708375
Si Si3 0.258596 0.840940 0.987649
Si Si4 0.247795 0.090213 0.590794
Si Si5 0.409410 0.319440 0.729819
Si Si6 0.135825 0.089032 0.034560
Si Si7 0.640584 0.335095 0.657646
O O1 0.594797 0.143811 0.458282
O O2 0.801429 0.205496 0.680249
O O3 0.768800 0.113822 0.781079
O O4 0.653551 0.244417 0.653308
O O5 0.876797 0.615848 0.690043
O O6 0.955629 0.746287 0.724043
O O7 0.101960 0.635200 0.864766
O O8 0.194638 0.853824 0.818104
O O9 0.250000 0.750000 0.000000
O O10 0.194391 0.888060 0.999152
O O11 0.149368 0.122729 0.409049
O O12 0.214651 0.124666 0.655597
O O13 0.242027 0.000000 0.587843
O O14 0.514878 0.360083 0.903613
O O15 0.107752 0.000000 0.010334
O O16 0.500000 0.355866 0.500000
#
# Coordination Sequence:
#
# PCOD9219590 Si02
#       7
#     8   8   8   8   8   8   8
#     4  11  22  39  67  95 128 170 219 266 319 395
#     4  11  22  42  69  96 127 174 229 262 317 399
#     4  12  24  41  68  94 125 175 222 264 322 389
#     4  11  24  41  65  98 133 169 214 277 334 381
#     4  11  20  42  69  96 130 172 222 270 321 395
#     4  12  27  42  63 101 138 168 216 282 333 378
#     4  12  23  40  69  97 126 169 226 270 320 390
#
# _framework density 20.278668
#
# number of rings (size 3 to 8) (size 9 to 14) (size 15 to 20)
#    0.000    0.571    5.714    3.429    0.000    5.429 
#    0.000    1.429    0.000    0.000    0.000    0.000 
#    0.000    0.000    0.000    0.000    0.000    0.000 
#
# Total GULP energy -156693.000554 kJ/mol
# GULP energy per Si atom -5596.178591 kJ/mol
# Density = 2.023251 g / cm^3
# Si number density = 20.278668 Si / 1000 Ang^3
#
#
#
# Elastic Constant Matrix: (Units=GPa)
#
#
# Indices 1 2 3 4 5 6 
#
# 1 72.3665 -6.9702 53.4034 0.0000 -5.2696 0.0000
# 2 -6.9702 63.8387 1.8556 0.0000 -4.9758 0.0000
# 3 53.4034 1.8556 154.1549 0.0000 -8.1511 0.0000
# 4 0.0000 0.0000 0.0000 15.7509 0.0000 -5.5236
# 5 -5.2696 -4.9758 -8.1511 0.0000 38.2144 0.0000
# 6 0.0000 0.0000 0.0000 -5.5236 0.0000 15.9594
#
#
#
# Elastic Compliance Matrix: (Units=1/GPa)
#
#
# Indices 1 2 3 4 5 6 
#
# 1 0.018971 0.002380 -0.006519 0.000000 0.001535 0.000000
# 2 0.002380 0.016125 -0.000901 0.000000 0.002236 0.000000
# 3 -0.006519 -0.000901 0.008802 0.000000 0.000861 0.000000
# 4 0.000000 0.000000 0.000000 0.072259 0.000000 0.025009
# 5 0.001535 0.002236 0.000861 0.000000 0.026855 0.000000
# 6 0.000000 0.000000 0.000000 0.025009 0.000000 0.071315
#
#
# Mechanical properties :
#
#
# Convention : Reuss Voigt Hill
#
# Bulk Modulus (GPa) = 29.56970 42.99307 36.28139
# Shear Modulus (GPa) = 21.21544 30.12304 25.66924
#
# Velocity S-wave (km/s) = 3.23800 3.85834 3.56170
# Velocity P-wave (km/s) = 5.34723 6.41063 5.90293
#
# Compressibility (1/GPa) = 0.03381840
#
# Stress axis : x y z
#
# Youngs Moduli (GPa) = 52.71287 62.01618 113.61233
#
# Poissons Ratio (x) = -0.14763 0.74069
# Poissons Ratio (y) = -0.12548 0.10231
# Poissons Ratio (z) = 0.34366 0.05585
#
# Static dielectric constant tensor:
#      x y z
#    x 1.731740 0.000000 0.009190 
#    y 0.000000 1.687070 0.000000 
#    z 0.009190 0.000000 1.703670 
# 
# From -- ./inp_files/234738.got.cif
#   From: 2010.05.17/outbox.cif.g08.bks.cpg/sg12_118_cif.got.tgz:234738.got - 2010.06.03 13:09:07.
