data_PCOD9219160
_publ_section_title
;
Structure prediction by ZEFSAII (Michael W. Deem and Ramdas Pophale) SiO2 
 PCOD9219160
Probable space group: C 2/M
;
_chemical_formula_sum "Si O2"
_cell_formula_units_Z 64
_cell_length_a 25.745888
_cell_length_b 7.665568
_cell_length_c 19.185283
_cell_angle_alpha 90.000000
_cell_angle_beta 57.674513
_cell_angle_gamma 90.000000
_cell_volume 3199.554387
_symmetry_space_group_name_H-M "C 2/M"
_symmetry_group_IT_number 12
_symmetry_cell_setting 'monoclinic'
loop_
_space_group_symop_operation_xyz
x,y,z
-x,y,-z
-x,-y,-z
x,-y,z
1/2+x,1/2+y,z
1/2-x,1/2+y,-z
1/2-x,1/2-y,-z
1/2+x,1/2-y,z
loop_
_atom_site_type_symbol
_atom_site_label
_atom_site_fract_x
_atom_site_fract_y
_atom_site_fract_z
Si Si1 0.479976 0.296891 0.934531
Si Si2 0.093159 0.306717 0.762752
Si Si3 0.863939 0.712917 0.863278
Si Si4 0.330493 0.213999 0.732641
Si Si5 0.201225 0.199833 0.789691
Si Si6 0.998595 0.713943 0.278669
Si Si7 0.465232 0.212947 0.593821
Si Si8 0.159146 0.301199 0.972459
O O1 0.475297 0.500000 0.915553
O O2 0.533317 0.200923 0.854883
O O3 0.500000 0.298814 0.000000
O O4 0.414920 0.204546 0.975818
O O5 0.109582 0.500000 0.728116
O O6 0.149164 0.253871 0.772355
O O7 0.062385 0.218334 0.716720
O O8 0.863497 0.500000 0.867216
O O9 0.832895 0.764502 0.812673
O O10 0.936163 0.765206 0.804225
O O11 0.830025 0.775628 0.957866
O O12 0.268930 0.282499 0.740586
O O13 0.394094 0.267431 0.651158
O O14 0.330200 0.000000 0.733254
O O15 0.179815 0.213143 0.885849
O O16 0.210838 0.000000 0.765957
O O17 0.998317 0.500000 0.276035
O O18 0.003210 0.764863 0.356015
O O19 0.500000 0.273785 0.500000
O O20 0.465474 0.000000 0.592586
O O21 0.181354 0.500000 0.953474
#
# Coordination Sequence:
#
# PCOD9219160 Si02
#       8
#     8   8   8   8   8   8   8   8
#     4  11  21  31  44  65  94 125 162 213 253 278
#     4  11  20  31  48  67  91 130 168 201 237 279
#     4   8  14  27  45  65  87 119 160 202 243 279
#     4   8  16  30  46  65  96 129 155 191 244 290
#     4  11  22  33  43  63  96 135 167 199 240 283
#     4   8  14  25  43  71  98 117 148 196 245 280
#     4   8  13  25  50  80 101 117 144 189 241 292
#     4  11  20  30  47  67  89 126 171 209 241 280
#
# _framework density 20.002786
#
# number of rings (size 3 to 8) (size 9 to 14) (size 15 to 20)
#    0.000    2.500    2.500    3.000    0.000    1.000 
#    0.000    0.000    0.000    3.000    0.000    0.000 
#    0.000    7.000    0.000    0.000    0.000    0.250 
#
# Total GULP energy -178286.092384 kJ/mol
# GULP energy per Si atom -5571.440387 kJ/mol
# Density = 1.995726 g / cm^3
# Si number density = 20.002786 Si / 1000 Ang^3
#
#
#
# Elastic Constant Matrix: (Units=GPa)
#
#
# Indices 1 2 3 4 5 6 
#
# 1 155.4635 1.6584 70.7142 -0.0002 -8.1299 -0.0005
# 2 1.6584 34.0168 -5.9801 -0.0012 0.3683 -0.0025
# 3 70.7142 -5.9801 82.3406 0.0003 10.5029 -0.0006
# 4 -0.0002 -0.0012 0.0003 -7.7671 0.0000 -7.6651
# 5 -8.1299 0.3683 10.5029 0.0000 20.6655 0.0000
# 6 -0.0005 -0.0025 -0.0006 -7.6651 0.0000 -14.2347
#
#
#
# Elastic Compliance Matrix: (Units=1/GPa)
#
#
# Indices 1 2 3 4 5 6 
#
# 1 0.012870 -0.002994 -0.012749 -0.000002 0.011596 0.000002
# 2 -0.002994 0.030533 0.005356 0.000002 -0.004444 -0.000007
# 3 -0.012749 0.005356 0.025808 0.000005 -0.018227 -0.000004
# 4 -0.000002 0.000002 0.000005 -0.274754 -0.000004 0.147949
# 5 0.011596 -0.004444 -0.018227 -0.000004 0.062295 0.000003
# 6 0.000002 -0.000007 -0.000004 0.147949 0.000003 -0.149919
#
#
# Mechanical properties :
#
#
# Convention : Reuss Voigt Hill
#
# Bulk Modulus (GPa) = 20.64620 44.95621 32.80121
# Shear Modulus (GPa) = -19.51238 13.42797 -3.04221
#
# Velocity S-wave (km/s) = -3.12666 2.59377 -1.23458
# Velocity P-wave (km/s) = 1.64031 5.61195 3.79495
#
# Compressibility (1/GPa) = 0.04843506
#
# Stress axis : x y z
#
# Youngs Moduli (GPa) = 77.70114 32.75157 38.74828
#
# Poissons Ratio (x) = 0.09807 0.49401
# Poissons Ratio (y) = 0.23266 -0.20753
# Poissons Ratio (z) = 0.99063 -0.17541
#
# Static dielectric constant tensor:
#      x y z
#    x 1.788740 0.000000 0.017420 
#    y 0.000000 1.752260 0.000000 
#    z 0.017420 0.000000 1.684550 
# 
# From -- ./inp_files/326832.got.cif
#   From: 2010.05.17/outbox.cif.g08.bks.cpg/sg12_164_cif.got.tgz:326832.got - 2010.06.03 13:09:07.
