data_PCOD9219633
_publ_section_title
;
Structure prediction by ZEFSAII (Michael W. Deem and Ramdas Pophale) SiO2 
 PCOD9219633
Probable space group: C 2/M
;
_chemical_formula_sum "Si O2"
_cell_formula_units_Z 64
_cell_length_a 30.934164
_cell_length_b 9.744700
_cell_length_c 24.406316
_cell_angle_alpha 90.000000
_cell_angle_beta 150.082158
_cell_angle_gamma 90.000000
_cell_volume 3669.430558
_symmetry_space_group_name_H-M "C 2/M"
_symmetry_group_IT_number 12
_symmetry_cell_setting 'monoclinic'
loop_
_space_group_symop_operation_xyz
x,y,z
-x,y,-z
-x,-y,-z
x,-y,z
1/2+x,1/2+y,z
1/2-x,1/2+y,-z
1/2-x,1/2-y,-z
1/2+x,1/2-y,z
loop_
_atom_site_type_symbol
_atom_site_label
_atom_site_fract_x
_atom_site_fract_y
_atom_site_fract_z
Si Si1 0.855974 0.342671 0.278506
Si Si2 0.275787 0.718431 0.090454
Si Si3 0.917303 0.656228 0.100213
Si Si4 0.019521 0.840245 0.428945
Si Si5 0.642125 0.341042 0.174701
Si Si6 0.295145 0.661806 0.309599
Si Si7 0.973627 0.158546 0.061463
Si Si8 0.456673 0.349811 0.245424
O O1 0.864871 0.500000 0.306059
O O2 0.805474 0.336681 0.164884
O O3 0.802655 0.249571 0.262221
O O4 0.948492 0.266484 0.373276
O O5 0.366285 0.641793 0.180189
O O6 0.250000 0.750000 0.000000
O O7 0.187916 0.655351 0.017514
O O8 0.947834 0.500000 0.135033
O O9 0.951843 0.738966 0.086122
O O10 0.945918 0.737048 0.186731
O O11 0.112101 0.823177 0.558823
O O12 0.024171 0.820596 0.368249
O O13 0.992255 0.000000 0.409098
O O14 0.672539 0.500000 0.210521
O O15 0.719282 0.232706 0.261019
O O16 0.569389 0.322000 0.141388
O O17 0.592012 0.323978 0.061704
O O18 0.279617 0.500000 0.282779
O O19 0.965505 0.000000 0.070985
O O20 0.473259 0.500000 0.239085
#
# Coordination Sequence:
#
# PCOD9219633 Si02
#       8
#     8   8   8   8   8   8   8   8
#     4  11  22  34  51  76 104 136 176 215 247 290
#     4   9  20  33  47  70 103 137 168 205 248 289
#     4  11  21  31  49  78 106 132 168 210 251 301
#     4   9  20  37  53  72 102 138 172 208 254 302
#     4   9  19  36  56  77 100 130 170 210 248 298
#     4  11  22  35  53  77 105 135 167 208 257 305
#     4   9  19  36  55  75 103 135 165 203 253 304
#     4   9  18  34  53  70  97 138 175 206 247 298
#
# _framework density 17.441396999999998
#
# number of rings (size 3 to 8) (size 9 to 14) (size 15 to 20)
#    0.000    2.250    0.000    3.375    0.000   14.000 
#    0.000    1.250    0.000    0.750    0.000    0.000 
#    0.000    0.000    0.000    0.000    0.000    0.000 
#
# Total GULP energy -178319.931240 kJ/mol
# GULP energy per Si atom -5572.497851 kJ/mol
# Density = 1.740170 g / cm^3
# Si number density = 17.441397 Si / 1000 Ang^3
#
#
#
# Elastic Constant Matrix: (Units=GPa)
#
#
# Indices 1 2 3 4 5 6 
#
# 1 88.3752 68.5237 23.0303 0.0000 -3.5428 0.0000
# 2 68.5237 139.0533 36.0892 0.0000 1.6636 0.0000
# 3 23.0303 36.0892 57.9359 0.0000 -1.4658 0.0000
# 4 0.0000 0.0000 0.0000 19.9643 0.0000 0.0995
# 5 -3.5428 1.6636 -1.4658 0.0000 19.8714 0.0000
# 6 0.0000 0.0000 0.0000 0.0995 0.0000 21.3446
#
#
#
# Elastic Compliance Matrix: (Units=1/GPa)
#
#
# Indices 1 2 3 4 5 6 
#
# 1 0.018809 -0.008829 -0.001877 0.000000 0.003954 0.000000
# 2 -0.008829 0.012747 -0.004506 0.000000 -0.002974 0.000000
# 3 -0.001877 -0.004506 0.020854 0.000000 0.001581 0.000000
# 4 0.000000 0.000000 0.000000 0.050091 0.000000 -0.000234
# 5 0.003954 -0.002974 0.001581 0.000000 0.051394 0.000000
# 6 0.000000 0.000000 0.000000 -0.000234 0.000000 0.046851
#
#
# Mechanical properties :
#
#
# Convention : Reuss Voigt Hill
#
# Bulk Modulus (GPa) = 45.48456 60.07230 52.77843
# Shear Modulus (GPa) = 20.96453 22.75080 21.85767
#
# Velocity S-wave (km/s) = 3.47075 3.61559 3.54391
# Velocity P-wave (km/s) = 6.49589 7.20743 6.86089
#
# Compressibility (1/GPa) = 0.02198548
#
# Stress axis : x y z
#
# Youngs Moduli (GPa) = 53.16693 78.44795 47.95344
#
# Poissons Ratio (x) = 0.69260 0.09001
# Poissons Ratio (y) = 0.46940 0.21609
# Poissons Ratio (z) = 0.09980 0.35350
#
# Static dielectric constant tensor:
#      x y z
#    x 1.602250 0.000000 -0.018340 
#    y 0.000000 1.587260 0.000000 
#    z -0.018340 0.000000 1.651010 
# 
# From -- ./inp_files/353525.got.cif
#   From: 2010.05.17/outbox.cif.g08.bks.cpg/sg12_177_cif.got.tgz:353525.got - 2010.06.03 13:09:07.
