data_PCOD9219417
_publ_section_title
;
Structure prediction by ZEFSAII (Michael W. Deem and Ramdas Pophale) SiO2 
 PCOD9219417
Probable space group: C 2/M
;
_chemical_formula_sum "Si O2"
_cell_formula_units_Z 40
_cell_length_a 13.478128
_cell_length_b 16.073309
_cell_length_c 22.265031
_cell_angle_alpha 90.000000
_cell_angle_beta 21.595900
_cell_angle_gamma 90.000000
_cell_volume 1775.311057
_symmetry_space_group_name_H-M "C 2/M"
_symmetry_group_IT_number 12
_symmetry_cell_setting 'monoclinic'
loop_
_space_group_symop_operation_xyz
x,y,z
-x,y,-z
-x,-y,-z
x,-y,z
1/2+x,1/2+y,z
1/2-x,1/2+y,-z
1/2-x,1/2-y,-z
1/2+x,1/2-y,z
loop_
_atom_site_type_symbol
_atom_site_label
_atom_site_fract_x
_atom_site_fract_y
_atom_site_fract_z
Si Si1 0.295322 0.092251 0.178040
Si Si2 0.626766 0.632641 0.490184
Si Si3 0.854750 0.314468 0.639305
Si Si4 0.292193 0.688995 0.889781
Si Si5 0.278074 0.859601 0.821604
O O1 0.201976 0.116528 0.163697
O O2 0.030637 0.095877 0.366031
O O3 0.410969 0.000000 0.117129
O O4 0.511481 0.161552 0.079085
O O5 0.500000 0.603526 0.500000
O O6 0.547283 0.732155 0.538386
O O7 0.935771 0.607584 0.317686
O O8 0.549360 0.302159 0.787045
O O9 0.814504 0.350891 0.728970
O O10 0.000000 0.359565 0.500000
O O11 0.270486 0.771344 0.861761
O O12 0.000000 0.900961 0.000000
#
# Coordination Sequence:
#
# PCOD9219417 Si02
#       5
#     8   8   8   8   8
#     4  11  24  42  62  87 131 175 217 251 295 393
#     4  11  22  37  63  96 125 162 210 258 327 374
#     4  11  21  35  61  95 133 156 200 269 328 372
#     4  11  20  37  62  94 123 158 212 261 319 363
#     4  12  22  36  62 101 132 158 197 275 336 372
#
# _framework density 22.531262000000002
#
# number of rings (size 3 to 8) (size 9 to 14) (size 15 to 20)
#    0.000    0.800    8.000    3.000    2.800    2.000 
#    0.000    0.000    0.000   11.400    0.000    0.000 
#    0.000    0.000    0.000    0.000    0.000    0.000 
#
# Total GULP energy -111505.239189 kJ/mol
# GULP energy per Si atom -5575.261959 kJ/mol
# Density = 2.247998 g / cm^3
# Si number density = 22.531262 Si / 1000 Ang^3
#
#
#
# Elastic Constant Matrix: (Units=GPa)
#
#
# Indices 1 2 3 4 5 6 
#
# 1 142.0994 6.2285 62.8302 -0.0392 -25.9720 -0.0099
# 2 6.2285 47.4887 25.0820 0.1555 4.2179 0.0127
# 3 62.8302 25.0820 185.5624 0.0088 -19.3581 -0.0123
# 4 -0.0392 0.1555 0.0088 24.2155 0.0450 6.6152
# 5 -25.9720 4.2179 -19.3581 0.0450 43.0733 -0.0029
# 6 -0.0099 0.0127 -0.0123 6.6152 -0.0029 4.2677
#
#
#
# Elastic Compliance Matrix: (Units=1/GPa)
#
#
# Indices 1 2 3 4 5 6 
#
# 1 0.008959 -0.000202 -0.002561 0.000007 0.004271 0.000006
# 2 -0.000202 0.023282 -0.003493 -0.000206 -0.003971 0.000236
# 3 -0.002561 -0.003493 0.006928 0.000009 0.001911 0.000012
# 4 0.000007 -0.000206 0.000009 0.071628 -0.000054 -0.111029
# 5 0.004271 -0.003971 0.001911 -0.000054 0.027040 0.000130
# 6 0.000006 0.000236 0.000012 -0.111029 0.000130 0.406423
#
#
# Mechanical properties :
#
#
# Convention : Reuss Voigt Hill
#
# Bulk Modulus (GPa) = 37.51233 62.60353 50.05793
# Shear Modulus (GPa) = 8.83929 33.04527 20.94228
#
# Velocity S-wave (km/s) = 1.98284 3.83383 3.05204
# Velocity P-wave (km/s) = 4.68266 6.88790 5.88942
#
# Compressibility (1/GPa) = 0.02665790
#
# Stress axis : x y z
#
# Youngs Moduli (GPa) = 111.61959 42.95117 144.35117
#
# Poissons Ratio (x) = 0.00868 0.36962
# Poissons Ratio (y) = 0.02255 0.50420
# Poissons Ratio (z) = 0.28581 0.15002
#
# Static dielectric constant tensor:
#      x y z
#    x 1.833870 -0.000020 0.043930 
#    y -0.000020 1.847410 0.000050 
#    z 0.043930 0.000050 1.975990 
# 
# From -- ./inp_files/340591.got.cif
#   From: 2010.05.17/outbox.cif.g08.bks.cpg/sg12_171_cif.got.tgz:340591.got - 2010.06.03 13:09:07.
