data_PCOD9219787
_publ_section_title
;
Structure prediction by ZEFSAII (Michael W. Deem and Ramdas Pophale) SiO2 
 PCOD9219787
Probable space group: C 2/M
;
_chemical_formula_sum "Si O2"
_cell_formula_units_Z 64
_cell_length_a 26.182060
_cell_length_b 29.232070
_cell_length_c 10.218494
_cell_angle_alpha 90.000000
_cell_angle_beta 150.596959
_cell_angle_gamma 90.000000
_cell_volume 3839.613732
_symmetry_space_group_name_H-M "C 2/M"
_symmetry_group_IT_number 12
_symmetry_cell_setting 'monoclinic'
loop_
_space_group_symop_operation_xyz
x,y,z
-x,y,-z
-x,-y,-z
x,-y,z
1/2+x,1/2+y,z
1/2-x,1/2+y,-z
1/2-x,1/2-y,-z
1/2+x,1/2-y,z
loop_
_atom_site_type_symbol
_atom_site_label
_atom_site_fract_x
_atom_site_fract_y
_atom_site_fract_z
Si Si1 0.734420 0.695332 0.148911
Si Si2 0.550463 0.221767 0.246282
Si Si3 0.159785 0.946559 0.759322
Si Si4 0.383569 0.639223 0.894698
Si Si5 0.235116 0.645733 0.057959
Si Si6 0.414050 0.219806 0.199671
Si Si7 0.073462 0.947227 0.860477
Si Si8 0.116259 0.825925 0.376885
O O1 0.849385 0.697517 0.467287
O O2 0.663301 0.669572 0.094873
O O3 0.737921 0.667896 0.021635
O O4 0.682606 0.744954 0.008349
O O5 0.464743 0.223750 0.169674
O O6 0.593271 0.272387 0.307634
O O7 0.500000 0.202763 0.000000
O O8 0.244263 0.908610 0.907568
O O9 0.129640 0.941022 0.845334
O O10 0.049715 0.938147 0.438996
O O11 0.188465 0.000000 0.802659
O O12 0.336070 0.652883 0.648991
O O13 0.378758 0.586894 0.927679
O O14 0.504715 0.651447 0.152214
O O15 0.313783 0.664224 0.342912
O O16 0.126097 0.668708 0.857104
O O17 0.500000 0.233108 0.500000
O O18 0.083854 0.000000 0.921393
#
# Coordination Sequence:
#
# PCOD9219787 Si02
#       8
#     8   8   8   8   8   8   8   8
#     4  12  24  36  59  81 108 154 195 227 280 337
#     4  12  24  41  54  79 113 153 195 233 276 333
#     4   9  18  32  55  84 110 146 189 231 285 339
#     4  11  21  35  53  84 113 149 195 221 280 339
#     4  12  22  36  57  82 114 147 190 232 283 328
#     4  12  24  37  54  83 116 143 189 241 275 326
#     4   9  17  32  54  82 115 147 185 233 280 337
#     4  11  22  35  53  82 115 154 186 229 275 331
#
# _framework density 16.668343
#
# number of rings (size 3 to 8) (size 9 to 14) (size 15 to 20)
#    0.000    1.000    7.500    1.875    1.750    1.000 
#    0.000    1.875    0.000    0.375    0.000    0.000 
#    0.000    2.500    0.000    0.000    0.000    0.000 
#
# Total GULP energy -178527.921547 kJ/mol
# GULP energy per Si atom -5578.997548 kJ/mol
# Density = 1.663041 g / cm^3
# Si number density = 16.668343 Si / 1000 Ang^3
#
#
#
# Elastic Constant Matrix: (Units=GPa)
#
#
# Indices 1 2 3 4 5 6 
#
# 1 81.0493 33.0887 34.0917 0.0000 -24.8764 0.0000
# 2 33.0887 101.3463 20.9272 0.0000 -8.2495 0.0000
# 3 34.0917 20.9272 80.9008 0.0000 -23.8249 0.0000
# 4 0.0000 0.0000 0.0000 19.0753 0.0000 2.6439
# 5 -24.8764 -8.2495 -23.8249 0.0000 26.5312 0.0000
# 6 0.0000 0.0000 0.0000 2.6439 0.0000 10.2941
#
#
#
# Elastic Compliance Matrix: (Units=1/GPa)
#
#
# Indices 1 2 3 4 5 6 
#
# 1 0.019989 -0.004738 -0.002872 0.000000 0.014691 0.000000
# 2 -0.004738 0.011571 -0.001693 0.000000 -0.002365 0.000000
# 3 -0.002872 -0.001693 0.017757 0.000000 0.012727 0.000000
# 4 0.000000 0.000000 0.000000 0.054359 0.000000 -0.013962
# 5 0.014691 -0.002365 0.012727 0.000000 0.062159 0.000000
# 6 0.000000 0.000000 0.000000 -0.013962 0.000000 0.100729
#
#
# Mechanical properties :
#
#
# Convention : Reuss Voigt Hill
#
# Bulk Modulus (GPa) = 32.56014 48.83464 40.69739
# Shear Modulus (GPa) = 16.92588 22.85939 19.89263
#
# Velocity S-wave (km/s) = 3.19007 3.70729 3.45836
# Velocity P-wave (km/s) = 5.75719 6.90556 6.35736
#
# Compressibility (1/GPa) = 0.03071239
#
# Stress axis : x y z
#
# Youngs Moduli (GPa) = 50.02710 86.42248 56.31636
#
# Poissons Ratio (x) = 0.40943 0.16172
# Poissons Ratio (y) = 0.23700 0.09535
# Poissons Ratio (z) = 0.14366 0.14633
#
# Static dielectric constant tensor:
#      x y z
#    x 1.571640 0.000000 -0.006960 
#    y 0.000000 1.572210 0.000000 
#    z -0.006960 0.000000 1.574380 
# 
# From -- ./inp_files/100236.got.cif
#   From: 2010.05.17/outbox.cif.g08.bks.cpg/sg12_51_cif.got.tgz:100236.got - 2010.06.03 13:09:07.
