data_PCOD9219336
_publ_section_title
;
Structure prediction by ZEFSAII (Michael W. Deem and Ramdas Pophale) SiO2 
 PCOD9219336
Probable space group: C 2/M
;
_chemical_formula_sum "Si O2"
_cell_formula_units_Z 48
_cell_length_a 11.992595
_cell_length_b 20.045180
_cell_length_c 28.863703
_cell_angle_alpha 90.000000
_cell_angle_beta 158.890443
_cell_angle_gamma 90.000000
_cell_volume 2498.972709
_symmetry_space_group_name_H-M "C 2/M"
_symmetry_group_IT_number 12
_symmetry_cell_setting 'monoclinic'
loop_
_space_group_symop_operation_xyz
x,y,z
-x,y,-z
-x,-y,-z
x,-y,z
1/2+x,1/2+y,z
1/2-x,1/2+y,-z
1/2-x,1/2-y,-z
1/2+x,1/2-y,z
loop_
_atom_site_type_symbol
_atom_site_label
_atom_site_fract_x
_atom_site_fract_y
_atom_site_fract_z
Si Si1 0.372459 0.773518 0.645532
Si Si2 0.718182 0.658905 0.267210
Si Si3 0.205911 0.641915 0.202447
Si Si4 0.808618 0.577378 0.974092
Si Si5 0.222793 0.928360 0.357192
Si Si6 0.367871 0.795904 0.152772
O O1 0.481036 0.818186 0.644093
O O2 0.562522 0.704510 0.713394
O O3 0.512672 0.802382 0.748060
O O4 0.000000 0.765533 0.500000
O O5 0.536764 0.601245 0.169950
O O6 0.767965 0.629528 0.337437
O O7 0.494413 0.723240 0.185533
O O8 0.422884 0.580665 0.272889
O O9 0.040595 0.650354 0.187251
O O10 0.946024 0.632364 0.062459
O O11 0.824109 0.500000 0.995583
O O12 0.000000 0.581735 0.000000
O O13 0.500000 0.927747 0.500000
O O14 0.201392 0.000000 0.324424
O O15 0.000000 0.799070 0.000000
#
# Coordination Sequence:
#
# PCOD9219336 Si02
#       6
#     8   8   8   8   8   8
#     4  11  24  39  61  92 125 168 203 246 314 373
#     4  11  22  37  63  88 125 156 206 255 304 365
#     4  11  22  37  62  88 127 153 203 252 307 365
#     4  11  20  35  61  90 118 154 200 257 309 353
#     4  11  23  39  61  89 120 158 206 258 305 351
#     4  11  23  39  60  91 129 163 197 250 313 368
#
# _framework density 19.207892000000001
#
# number of rings (size 3 to 8) (size 9 to 14) (size 15 to 20)
#    0.000    1.000    3.333    4.000    2.333    4.000 
#    0.000    0.000    0.000   13.000    0.000    0.000 
#    0.000    0.000    0.000    0.000    0.000    0.000 
#
# Total GULP energy -133885.994256 kJ/mol
# GULP energy per Si atom -5578.583094 kJ/mol
# Density = 1.916417 g / cm^3
# Si number density = 19.207892 Si / 1000 Ang^3
#
#
#
# Elastic Constant Matrix: (Units=GPa)
#
#
# Indices 1 2 3 4 5 6 
#
# 1 87.8889 33.3920 46.2707 -0.0183 15.9519 0.0137
# 2 33.3920 64.8835 24.1812 0.0049 3.1254 0.0084
# 3 46.2707 24.1812 104.8351 0.0319 4.8318 0.0226
# 4 -0.0183 0.0049 0.0319 -5.3070 0.0342 -7.6728
# 5 15.9519 3.1254 4.8318 0.0342 23.1637 -0.0140
# 6 0.0137 0.0084 0.0226 -7.6728 -0.0140 29.8801
#
#
#
# Elastic Compliance Matrix: (Units=1/GPa)
#
#
# Indices 1 2 3 4 5 6 
#
# 1 0.019486 -0.007088 -0.006453 -0.000127 -0.011117 -0.000040
# 2 -0.007088 0.019490 -0.001485 0.000036 0.002561 0.000009
# 3 -0.006453 -0.001485 0.012637 0.000086 0.002008 0.000017
# 4 -0.000127 0.000036 0.000086 -0.137412 0.000246 -0.035285
# 5 -0.011117 0.002561 0.002008 0.000246 0.050062 0.000089
# 6 -0.000040 0.000009 0.000017 -0.035285 0.000089 0.024406
#
#
# Mechanical properties :
#
#
# Convention : Reuss Voigt Hill
#
# Bulk Modulus (GPa) = 46.38119 51.69949 49.04034
# Shear Modulus (GPa) = 192.98489 19.79826 106.39157
#
# Velocity S-wave (km/s) = 10.03443 3.21399 7.45049
# Velocity P-wave (km/s) = 12.58779 6.38335 9.97997
#
# Compressibility (1/GPa) = 0.02156046
#
# Stress axis : x y z
#
# Youngs Moduli (GPa) = 51.31904 51.30797 79.13269
#
# Poissons Ratio (x) = 0.36366 0.51065
# Poissons Ratio (y) = 0.36374 0.11754
# Poissons Ratio (z) = 0.33117 0.07621
#
# Static dielectric constant tensor:
#      x y z
#    x 1.724050 -0.000010 -0.126780 
#    y -0.000010 1.699230 0.000010 
#    z -0.126780 0.000010 2.396040 
# 
# From -- ./inp_files/133730.got.cif
#   From: 2010.05.17/outbox.cif.g08.bks.cpg/sg12_67_cif.got.tgz:133730.got - 2010.06.03 13:09:07.
