data_PCOD9219596
_publ_section_title
;
Structure prediction by ZEFSAII (Michael W. Deem and Ramdas Pophale) SiO2 
 PCOD9219596
Probable space group: C 2/M
;
_chemical_formula_sum "Si O2"
_cell_formula_units_Z 40
_cell_length_a 21.976968
_cell_length_b 11.215792
_cell_length_c 8.879363
_cell_angle_alpha 90.000000
_cell_angle_beta 112.648746
_cell_angle_gamma 90.000000
_cell_volume 2019.882692
_symmetry_space_group_name_H-M "C 2/M"
_symmetry_group_IT_number 12
_symmetry_cell_setting 'monoclinic'
loop_
_space_group_symop_operation_xyz
x,y,z
-x,y,-z
-x,-y,-z
x,-y,z
1/2+x,1/2+y,z
1/2-x,1/2+y,-z
1/2-x,1/2-y,-z
1/2+x,1/2-y,z
loop_
_atom_site_type_symbol
_atom_site_label
_atom_site_fract_x
_atom_site_fract_y
_atom_site_fract_z
Si Si1 0.935252 0.860024 0.525955
Si Si2 0.565248 0.243651 0.162796
Si Si3 0.406262 0.000000 0.284871
Si Si4 0.184624 0.141494 0.095060
Si Si5 0.443126 0.000000 0.672078
Si Si6 0.672487 0.765147 0.769450
O O1 0.945583 0.835465 0.710751
O O2 0.871759 0.791981 0.402818
O O3 0.000000 0.813600 0.500000
O O4 0.928636 0.000000 0.489007
O O5 0.626326 0.290073 0.124110
O O6 0.576952 0.116925 0.254777
O O7 0.500000 0.235434 0.000000
O O8 0.415041 0.000000 0.475298
O O9 0.477618 0.000000 0.275741
O O10 0.366011 0.881577 0.206485
O O11 0.255710 0.191475 0.213280
O O12 0.180368 0.000000 0.115657
O O13 0.179554 0.172191 0.912810
#
# Coordination Sequence:
#
# PCOD9219596 Si02
#       6
#     8   8   4   8   4   8
#     4  11  23  41  66  96 129 173 222 265 321 391
#     4  12  25  42  65  98 132 171 216 275 332 384
#     4  11  20  42  72  94 131 168 221 274 319 388
#     4  11  25  44  65  96 136 171 218 270 329 390
#     4  11  23  40  68 102 128 168 218 272 330 381
#     4  11  23  43  68  95 127 179 220 266 325 389
#
# _framework density 19.803129999999999
#
# number of rings (size 3 to 8) (size 9 to 14) (size 15 to 20)
#    0.000    0.800    3.000    5.100    0.000    4.800 
#    3.600    0.000    0.000    0.000    0.000    0.000 
#    0.000    0.000    0.000    0.000    0.000    0.000 
#
# Total GULP energy -111900.832780 kJ/mol
# GULP energy per Si atom -5595.041639 kJ/mol
# Density = 1.975806 g / cm^3
# Si number density = 19.803130 Si / 1000 Ang^3
#
#
#
# Elastic Constant Matrix: (Units=GPa)
#
#
# Indices 1 2 3 4 5 6 
#
# 1 122.8098 58.4247 29.1595 0.0000 -3.1120 0.0000
# 2 58.4247 110.1910 25.7011 0.0000 3.9769 0.0000
# 3 29.1595 25.7011 77.6442 0.0000 9.7407 0.0000
# 4 0.0000 0.0000 0.0000 18.1496 0.0000 5.8850
# 5 -3.1120 3.9769 9.7407 0.0000 26.8494 0.0000
# 6 0.0000 0.0000 0.0000 5.8850 0.0000 3.5364
#
#
#
# Elastic Compliance Matrix: (Units=1/GPa)
#
#
# Indices 1 2 3 4 5 6 
#
# 1 0.011563 -0.005570 -0.002903 0.000000 0.003218 0.000000
# 2 -0.005570 0.012520 -0.001822 0.000000 -0.001839 0.000000
# 3 -0.002903 -0.001822 0.015276 0.000000 -0.005609 0.000000
# 4 0.000000 0.000000 0.000000 0.119670 0.000000 -0.199143
# 5 0.003218 -0.001839 -0.005609 0.000000 0.039925 0.000000
# 6 0.000000 0.000000 0.000000 -0.199143 0.000000 0.614166
#
#
# Mechanical properties :
#
#
# Convention : Reuss Voigt Hill
#
# Bulk Modulus (GPa) = 53.27555 59.69063 56.48309
# Shear Modulus (GPa) = 5.95263 22.86438 14.40851
#
# Velocity S-wave (km/s) = 1.73564 3.40160 2.70031
# Velocity P-wave (km/s) = 5.56575 6.75539 6.18922
#
# Compressibility (1/GPa) = 0.01877034
#
# Stress axis : x y z
#
# Youngs Moduli (GPa) = 86.48032 79.87371 65.46250
#
# Poissons Ratio (x) = 0.44491 0.19001
# Poissons Ratio (y) = 0.48171 0.11924
# Poissons Ratio (z) = 0.25102 0.14550
#
# Static dielectric constant tensor:
#      x y z
#    x 1.666890 0.000000 0.002220 
#    y 0.000000 1.690830 0.000000 
#    z 0.002220 0.000000 1.672800 
# 
# From -- ./inp_files/83748.got.cif
#   From: 2010.05.17/outbox.cif.g08.bks.cpg/sg12_42_cif.got.tgz:83748.got - 2010.06.03 13:09:07.
