data_PCOD9219391
_publ_section_title
;
Structure prediction by ZEFSAII (Michael W. Deem and Ramdas Pophale) SiO2 
 PCOD9219391
Probable space group: C 2/M
;
_chemical_formula_sum "Si O2"
_cell_formula_units_Z 48
_cell_length_a 11.967267
_cell_length_b 19.335578
_cell_length_c 10.784830
_cell_angle_alpha 90.000000
_cell_angle_beta 104.110366
_cell_angle_gamma 90.000000
_cell_volume 2420.249439
_symmetry_space_group_name_H-M "C 2/M"
_symmetry_group_IT_number 12
_symmetry_cell_setting 'monoclinic'
loop_
_space_group_symop_operation_xyz
x,y,z
-x,y,-z
-x,-y,-z
x,-y,z
1/2+x,1/2+y,z
1/2-x,1/2+y,-z
1/2-x,1/2-y,-z
1/2+x,1/2-y,z
loop_
_atom_site_type_symbol
_atom_site_label
_atom_site_fract_x
_atom_site_fract_y
_atom_site_fract_z
Si Si1 0.301956 0.366182 0.752720
Si Si2 0.410744 0.222250 0.361911
Si Si3 0.947070 0.730972 0.847988
Si Si4 0.332753 0.500000 0.348689
Si Si5 0.869432 0.919039 0.017608
Si Si6 0.218098 0.145107 0.760630
Si Si7 0.093066 0.000000 0.348744
O O1 0.189911 0.334962 0.656250
O O2 0.390748 0.303255 0.790505
O O3 0.283360 0.391873 0.888269
O O4 0.358338 0.431344 0.701067
O O5 0.500000 0.218745 0.500000
O O6 0.468477 0.211527 0.242128
O O7 0.351539 0.298312 0.338667
O O8 0.841007 0.677684 0.824871
O O9 0.000000 0.736787 0.000000
O O10 0.269505 0.571098 0.300939
O O11 0.455073 0.500000 0.309274
O O12 0.366624 0.500000 0.500169
O O13 0.845519 0.000000 0.035552
O O14 0.851086 0.871751 0.132126
O O15 0.000000 0.915002 0.000000
#
# Coordination Sequence:
#
# PCOD9219391 Si02
#       7
#     8   8   8   4   8   8   4
#     4  11  23  41  67  94 125 163 212 263 318 370
#     4  11  26  42  66  93 128 170 216 258 313 381
#     4  11  24  44  67  92 130 171 212 258 315 380
#     4  11  24  39  63  97 128 160 209 262 325 366
#     4  11  20  36  64  97 126 155 200 264 322 368
#     4  11  24  41  67  95 128 165 209 264 318 374
#     4  11  24  39  65  94 128 163 206 269 317 370
#
# _framework density 19.832667000000001
#
# number of rings (size 3 to 8) (size 9 to 14) (size 15 to 20)
#    0.000    1.000    1.667    5.500    7.000    4.000 
#    0.000    1.667    0.000    0.000    0.000    0.000 
#    0.000    0.000    0.000    0.000    0.000    0.000 
#
# Total GULP energy -134197.745360 kJ/mol
# GULP energy per Si atom -5591.572723 kJ/mol
# Density = 1.978753 g / cm^3
# Si number density = 19.832667 Si / 1000 Ang^3
#
#
#
# Elastic Constant Matrix: (Units=GPa)
#
#
# Indices 1 2 3 4 5 6 
#
# 1 66.1673 54.3970 28.5652 0.0000 15.3759 0.0000
# 2 54.3970 156.5126 48.0279 0.0000 18.7289 0.0000
# 3 28.5652 48.0279 112.8125 0.0000 25.4942 0.0000
# 4 0.0000 0.0000 0.0000 19.2442 0.0000 -3.1535
# 5 15.3759 18.7289 25.4942 0.0000 35.1610 0.0000
# 6 0.0000 0.0000 0.0000 -3.1535 0.0000 15.3817
#
#
#
# Elastic Compliance Matrix: (Units=1/GPa)
#
#
# Indices 1 2 3 4 5 6 
#
# 1 0.022535 -0.006703 -0.001713 0.000000 -0.005042 0.000000
# 2 -0.006703 0.009459 -0.002217 0.000000 -0.000500 0.000000
# 3 -0.001713 -0.002217 0.011727 0.000000 -0.006573 0.000000
# 4 0.000000 0.000000 0.000000 0.053770 0.000000 0.011024
# 5 -0.005042 -0.000500 -0.006573 0.000000 0.035678 0.000000
# 6 0.000000 0.000000 0.000000 0.011024 0.000000 0.067273
#
#
# Mechanical properties :
#
#
# Convention : Reuss Voigt Hill
#
# Bulk Modulus (GPa) = 44.53214 66.38583 55.45898
# Shear Modulus (GPa) = 21.81568 27.59087 24.70328
#
# Velocity S-wave (km/s) = 3.32020 3.73390 3.53311
# Velocity P-wave (km/s) = 6.09926 7.22046 6.68341
#
# Compressibility (1/GPa) = 0.02245569
#
# Stress axis : x y z
#
# Youngs Moduli (GPa) = 44.37502 105.71852 85.27202
#
# Poissons Ratio (x) = 0.70866 0.14606
# Poissons Ratio (y) = 0.29746 0.18903
# Poissons Ratio (z) = 0.07601 0.23435
#
# Static dielectric constant tensor:
#      x y z
#    x 1.709980 0.000000 -0.025460 
#    y 0.000000 1.710130 0.000000 
#    z -0.025460 0.000000 1.718550 
# 
# From -- ./inp_files/131819.got.cif
#   From: 2010.05.17/outbox.cif.g08.bks.cpg/sg12_66_cif.got.tgz:131819.got - 2010.06.03 13:09:07.
