data_PCOD9219219
_publ_section_title
;
Structure prediction by ZEFSAII (Michael W. Deem and Ramdas Pophale) SiO2 
 PCOD9219219
Probable space group: C 2/M
;
_chemical_formula_sum "Si O2"
_cell_formula_units_Z 64
_cell_length_a 12.444721
_cell_length_b 19.248363
_cell_length_c 26.492607
_cell_angle_alpha 90.000000
_cell_angle_beta 150.292932
_cell_angle_gamma 90.000000
_cell_volume 3144.886714
_symmetry_space_group_name_H-M "C 2/M"
_symmetry_group_IT_number 12
_symmetry_cell_setting 'monoclinic'
loop_
_space_group_symop_operation_xyz
x,y,z
-x,y,-z
-x,-y,-z
x,-y,z
1/2+x,1/2+y,z
1/2-x,1/2+y,-z
1/2-x,1/2-y,-z
1/2+x,1/2-y,z
loop_
_atom_site_type_symbol
_atom_site_label
_atom_site_fract_x
_atom_site_fract_y
_atom_site_fract_z
Si Si1 0.103148 0.159834 0.697998
Si Si2 0.914779 0.920642 0.412314
Si Si3 0.540907 0.147543 0.302971
Si Si4 0.533558 0.796073 0.402057
Si Si5 0.903157 0.350975 0.087283
Si Si6 0.758894 0.079109 0.884005
Si Si7 0.643714 0.696590 0.310968
Si Si8 0.759376 0.706665 0.927723
O O1 0.047865 0.118544 0.624501
O O2 0.338565 0.144649 0.815844
O O3 0.118429 0.240639 0.688816
O O4 0.915022 0.155012 0.662392
O O5 0.661313 0.913062 0.321271
O O6 0.000000 0.888351 0.500000
O O7 0.986884 0.000000 0.438509
O O8 0.571760 0.145394 0.375504
O O9 0.302384 0.134802 0.184380
O O10 0.634151 0.221135 0.321652
O O11 0.750000 0.750000 0.500000
O O12 0.382117 0.818392 0.386300
O O13 0.864061 0.409578 0.113119
O O14 0.822433 0.280312 0.082516
O O15 0.788398 0.346818 0.986263
O O16 0.745574 0.000000 0.860099
O O17 0.000000 0.093306 0.000000
O O18 0.438649 0.685354 0.190041
O O19 0.000000 0.713342 0.000000
#
# Coordination Sequence:
#
# PCOD9219219 Si02
#       8
#     8   8   8   8   8   8   8   8
#     4  11  21  37  57  87 119 154 194 243 306 362
#     4  11  22  39  63  87 112 148 202 257 296 357
#     4  11  22  35  61  84 120 156 200 246 309 369
#     4  11  23  38  58  85 125 163 194 253 313 375
#     4  11  21  32  57  80 117 154 190 243 293 363
#     4  11  23  37  54  83 119 158 204 255 307 359
#     4  11  22  37  57  91 126 156 197 248 303 378
#     4  11  20  32  55  86 116 147 192 235 294 362
#
# _framework density 20.350494999999999
#
# number of rings (size 3 to 8) (size 9 to 14) (size 15 to 20)
#    0.000    1.000    6.250    1.500    1.750    1.500 
#    0.000    0.000    0.000    2.625    0.000    2.625 
#    0.000    0.000    0.000    0.000    0.000    0.000 
#
# Total GULP energy -178331.819850 kJ/mol
# GULP energy per Si atom -5572.869370 kJ/mol
# Density = 2.030418 g / cm^3
# Si number density = 20.350495 Si / 1000 Ang^3
#
#
#
# Elastic Constant Matrix: (Units=GPa)
#
#
# Indices 1 2 3 4 5 6 
#
# 1 159.0072 21.6924 52.7865 0.0002 2.7776 0.0000
# 2 21.6924 27.4172 12.3028 0.0005 -8.3010 0.0002
# 3 52.7865 12.3028 91.8007 0.0011 -2.8086 0.0006
# 4 0.0002 0.0005 0.0011 15.1321 0.0008 0.3669
# 5 2.7776 -8.3010 -2.8086 0.0008 38.1726 0.0003
# 6 0.0000 0.0002 0.0006 0.3669 0.0003 16.4511
#
#
#
# Elastic Compliance Matrix: (Units=1/GPa)
#
#
# Indices 1 2 3 4 5 6 
#
# 1 0.008464 -0.005451 -0.004201 0.000000 -0.002110 0.000000
# 2 -0.005451 0.044970 -0.002587 -0.000002 0.009985 0.000000
# 3 -0.004201 -0.002587 0.013678 -0.000001 0.000750 0.000000
# 4 0.000000 -0.000002 -0.000001 0.066121 -0.000002 -0.001475
# 5 -0.002110 0.009985 0.000750 -0.000002 0.028577 -0.000001
# 6 0.000000 0.000000 0.000000 -0.001475 -0.000001 0.060819
#
#
# Mechanical properties :
#
#
# Convention : Reuss Voigt Hill
#
# Bulk Modulus (GPa) = 23.45481 50.19870 36.82676
# Shear Modulus (GPa) = 19.13375 26.71405 22.92390
#
# Velocity S-wave (km/s) = 3.06961 3.62705 3.35991
# Velocity P-wave (km/s) = 4.91058 6.50087 5.76086
#
# Compressibility (1/GPa) = 0.04263518
#
# Stress axis : x y z
#
# Youngs Moduli (GPa) = 118.14573 22.23703 73.10756
#
# Poissons Ratio (x) = 0.12120 0.30713
# Poissons Ratio (y) = 0.64396 0.18914
# Poissons Ratio (z) = 0.49634 0.05753
#
# Static dielectric constant tensor:
#      x y z
#    x 1.854770 0.000000 0.039660 
#    y 0.000000 1.704660 0.000000 
#    z 0.039660 0.000000 1.925780 
# 
# From -- ./inp_files/359000.got.cif
#   From: 2010.05.17/outbox.cif.g08.bks.cpg/sg12_180_cif.got.tgz:359000.got - 2010.06.03 13:09:07.
