data_PCOD9219094
_publ_section_title
;
Structure prediction by ZEFSAII (Michael W. Deem and Ramdas Pophale) SiO2 
 PCOD9219094
Probable space group: C 2/M
;
_chemical_formula_sum "Si O2"
_cell_formula_units_Z 40
_cell_length_a 16.861571
_cell_length_b 12.854694
_cell_length_c 17.404090
_cell_angle_alpha 90.000000
_cell_angle_beta 30.539788
_cell_angle_gamma 90.000000
_cell_volume 1916.865151
_symmetry_space_group_name_H-M "C 2/M"
_symmetry_group_IT_number 12
_symmetry_cell_setting 'monoclinic'
loop_
_space_group_symop_operation_xyz
x,y,z
-x,y,-z
-x,-y,-z
x,-y,z
1/2+x,1/2+y,z
1/2-x,1/2+y,-z
1/2-x,1/2-y,-z
1/2+x,1/2-y,z
loop_
_atom_site_type_symbol
_atom_site_label
_atom_site_fract_x
_atom_site_fract_y
_atom_site_fract_z
Si Si1 0.979616 0.000000 0.699530
Si Si2 0.462798 0.000000 0.273701
Si Si3 0.500000 0.824496 0.000000
Si Si4 0.230219 0.175820 0.730879
Si Si5 0.513316 0.500000 0.120347
Si Si6 0.129224 0.500000 0.993315
Si Si7 0.337070 0.000000 0.747723
Si Si8 0.785419 0.821666 0.542886
O O1 0.068769 0.102468 0.595076
O O2 0.803513 0.000000 0.817607
O O3 0.973369 0.000000 0.798057
O O4 0.360427 0.098893 0.334962
O O5 0.516764 0.000000 0.316612
O O6 0.618634 0.000000 0.093269
O O7 0.353296 0.754165 0.141380
O O8 0.459001 0.899723 0.964450
O O9 0.298993 0.246989 0.605467
O O10 0.337496 0.099898 0.691671
O O11 0.092614 0.100425 0.812907
O O12 0.672636 0.500000 0.935180
O O13 0.750000 0.750000 0.500000
#
# Coordination Sequence:
#
# PCOD9219094 Si02
#       8
#     4   4   4   8   4   4   4   8
#     4  11  24  42  67  99 134 172 231 284 324 409
#     4  11  24  42  70 103 133 175 231 286 329 401
#     4  11  22  41  66 100 130 179 224 277 346 394
#     4  11  21  41  67  96 139 181 213 277 347 407
#     4  11  19  38  69 101 131 167 223 286 342 386
#     4  11  24  41  68  99 133 172 234 288 325 393
#     4  11  23  39  70 112 135 162 234 298 332 387
#     4  11  24  44  67  93 138 189 219 265 352 417
#
# _framework density 20.867404000000001
#
# number of rings (size 3 to 8) (size 9 to 14) (size 15 to 20)
#    0.000    1.000    7.000    0.600    0.000    1.600 
#    0.000   10.000    0.000    0.000    0.000    0.000 
#    0.000    0.000    0.000    0.000    0.000    0.000 
#
# Total GULP energy -111728.811739 kJ/mol
# GULP energy per Si atom -5586.440587 kJ/mol
# Density = 2.081991 g / cm^3
# Si number density = 20.867404 Si / 1000 Ang^3
#
#
#
# Elastic Constant Matrix: (Units=GPa)
#
#
# Indices 1 2 3 4 5 6 
#
# 1 103.8773 47.4971 29.6894 -0.0001 15.9758 0.0000
# 2 47.4971 151.1285 49.1618 -0.0001 14.9156 0.0000
# 3 29.6894 49.1618 95.5520 0.0001 10.0289 0.0000
# 4 -0.0001 -0.0001 0.0001 11.8430 0.0000 27.6785
# 5 15.9758 14.9156 10.0289 0.0000 39.3488 0.0000
# 6 0.0000 0.0000 0.0000 27.6785 0.0000 37.1406
#
#
#
# Elastic Compliance Matrix: (Units=1/GPa)
#
#
# Indices 1 2 3 4 5 6 
#
# 1 0.011970 -0.002809 -0.001927 0.000000 -0.003304 0.000000
# 2 -0.002809 0.008766 -0.003502 0.000000 -0.001290 0.000000
# 3 -0.001927 -0.003502 0.012992 0.000000 -0.001201 0.000000
# 4 0.000000 0.000000 0.000000 -0.113843 0.000000 0.084840
# 5 -0.003304 -0.001290 -0.001201 0.000000 0.027550 0.000000
# 6 0.000000 0.000000 0.000000 0.084840 0.000000 -0.036301
#
#
# Mechanical properties :
#
#
# Convention : Reuss Voigt Hill
#
# Bulk Modulus (GPa) = 57.96461 67.02828 62.49644
# Shear Modulus (GPa) = -75.03206 32.61379 -21.20914
#
# Velocity S-wave (km/s) = -6.00289 3.95765 -3.19152
# Velocity P-wave (km/s) = 4.49537 7.28524 4.05379
#
# Compressibility (1/GPa) = 0.01725191
#
# Stress axis : x y z
#
# Youngs Moduli (GPa) = 83.54155 114.07417 76.96887
#
# Poissons Ratio (x) = 0.32043 0.14834
# Poissons Ratio (y) = 0.23467 0.26955
# Poissons Ratio (z) = 0.16101 0.39950
#
# Static dielectric constant tensor:
#      x y z
#    x 1.716140 0.000000 0.005040 
#    y 0.000000 1.719360 0.000000 
#    z 0.005040 0.000000 1.758650 
# 
# From -- ./inp_files/277216.got.cif
#   From: 2010.05.17/outbox.cif.g08.bks.cpg/sg12_139_cif.got.tgz:277216.got - 2010.06.03 13:09:07.
