data_PCOD9219429
_publ_section_title
;
Structure prediction by ZEFSAII (Michael W. Deem and Ramdas Pophale) SiO2 
 PCOD9219429
Probable space group: C 2/M
;
_chemical_formula_sum "Si O2"
_cell_formula_units_Z 42
_cell_length_a 11.896138
_cell_length_b 14.203900
_cell_length_c 12.513012
_cell_angle_alpha 90.000000
_cell_angle_beta 81.437242
_cell_angle_gamma 90.000000
_cell_volume 2090.775288
_symmetry_space_group_name_H-M "C 2/M"
_symmetry_group_IT_number 12
_symmetry_cell_setting 'monoclinic'
loop_
_space_group_symop_operation_xyz
x,y,z
-x,y,-z
-x,-y,-z
x,-y,z
1/2+x,1/2+y,z
1/2-x,1/2+y,-z
1/2-x,1/2-y,-z
1/2+x,1/2-y,z
loop_
_atom_site_type_symbol
_atom_site_label
_atom_site_fract_x
_atom_site_fract_y
_atom_site_fract_z
Si Si1 0.630571 0.391178 0.502802
Si Si2 0.520288 0.000000 0.622391
Si Si3 0.678219 0.000000 0.181221
Si Si4 0.270453 0.000000 0.162035
Si Si5 0.467599 0.500000 0.882219
Si Si6 0.311044 0.842291 0.317176
Si Si7 0.000000 0.500000 0.000000
Si Si8 0.360699 0.636329 0.247124
O O1 0.500000 0.363556 0.500000
O O2 0.644727 0.500000 0.464094
O O3 0.716215 0.328235 0.421831
O O4 0.653662 0.390474 0.625913
O O5 0.500000 0.000000 0.500000
O O6 0.591296 0.907093 0.644843
O O7 0.405953 0.000000 0.705969
O O8 0.761750 0.089799 0.188405
O O9 0.600033 0.000000 0.086441
O O10 0.167400 0.000000 0.096295
O O11 0.255642 0.092170 0.235645
O O12 0.397571 0.000000 0.100330
O O13 0.523880 0.589292 0.813456
O O14 0.500000 0.500000 0.000000
O O15 0.356547 0.748679 0.254558
#
# Coordination Sequence:
#
# PCOD9219429 Si02
#       8
#     8   4   4   4   4   8   2   8
#     4  11  20  37  66 100 140 185 224 276 347 426
#     4  11  22  40  65  96 143 187 230 279 355 428
#     4  11  23  43  66  92 133 184 226 288 353 421
#     4  11  23  46  69  90 136 178 226 280 350 421
#     4  11  24  48  73  98 128 182 234 299 354 413
#     4  11  23  41  65 104 137 181 230 285 348 417
#     4  12  24  50  70  92 134 192 232 286 366 408
#     4  11  24  42  68 105 137 176 236 290 352 413
#
# _framework density 20.088242000000001
#
# number of rings (size 3 to 8) (size 9 to 14) (size 15 to 20)
#    0.000    0.952    5.714    4.000    0.000    3.810 
#    1.714    1.905    0.000    0.000    0.000    0.000 
#    0.000    0.000    0.000    0.000    0.000    0.000 
#
# Total GULP energy -116991.712051 kJ/mol
# GULP energy per Si atom -5571.033907 kJ/mol
# Density = 2.004252 g / cm^3
# Si number density = 20.088242 Si / 1000 Ang^3
#
#
#
# Elastic Constant Matrix: (Units=GPa)
#
#
# Indices 1 2 3 4 5 6 
#
# 1 127.1935 28.5879 23.4938 0.0000 11.8865 0.0000
# 2 28.5879 129.3124 14.9662 0.0000 7.4472 0.0000
# 3 23.4938 14.9662 90.8283 0.0000 9.0866 0.0000
# 4 0.0000 0.0000 0.0000 22.6182 0.0000 -8.5108
# 5 11.8865 7.4472 9.0866 0.0000 51.1726 0.0000
# 6 0.0000 0.0000 0.0000 -8.5108 0.0000 -3.6433
#
#
#
# Elastic Compliance Matrix: (Units=1/GPa)
#
#
# Indices 1 2 3 4 5 6 
#
# 1 0.008703 -0.001628 -0.001837 0.000000 -0.001459 0.000000
# 2 -0.001628 0.008232 -0.000869 0.000000 -0.000666 0.000000
# 3 -0.001837 -0.000869 0.011782 0.000000 -0.001539 0.000000
# 4 0.000000 0.000000 0.000000 0.023530 0.000000 -0.054965
# 5 -0.001459 -0.000666 -0.001539 0.000000 0.020251 0.000000
# 6 0.000000 0.000000 0.000000 -0.054965 0.000000 -0.146076
#
#
# Mechanical properties :
#
#
# Convention : Reuss Voigt Hill
#
# Bulk Modulus (GPa) = 49.87414 53.49222 51.68318
# Shear Modulus (GPa) = -85.86941 32.71525 -26.57708
#
# Velocity S-wave (km/s) = -6.54514 4.03994 -3.64128
# Velocity P-wave (km/s) = 5.67777 6.96045 2.84700
#
# Compressibility (1/GPa) = 0.02005047
#
# Stress axis : x y z
#
# Youngs Moduli (GPa) = 114.89651 121.47858 84.87445
#
# Poissons Ratio (x) = 0.19771 0.15593
# Poissons Ratio (y) = 0.18699 0.07374
# Poissons Ratio (z) = 0.21108 0.10555
#
# Static dielectric constant tensor:
#      x y z
#    x 1.731520 0.000000 0.019680 
#    y 0.000000 1.750220 0.000000 
#    z 0.019680 0.000000 1.683810 
# 
# From -- ./inp_files/129734.got.cif
#   From: 2010.05.17/outbox.cif.g08.bks.cpg/sg12_65_cif.got.tgz:129734.got - 2010.06.03 13:09:07.
