data_PCOD9219359
_publ_section_title
;
Structure prediction by ZEFSAII (Michael W. Deem and Ramdas Pophale) SiO2 
 PCOD9219359
Probable space group: C 2/M
;
_chemical_formula_sum "Si O2"
_cell_formula_units_Z 56
_cell_length_a 18.753450
_cell_length_b 20.916380
_cell_length_c 16.346825
_cell_angle_alpha 90.000000
_cell_angle_beta 153.282315
_cell_angle_gamma 90.000000
_cell_volume 2882.851821
_symmetry_space_group_name_H-M "C 2/M"
_symmetry_group_IT_number 12
_symmetry_cell_setting 'monoclinic'
loop_
_space_group_symop_operation_xyz
x,y,z
-x,y,-z
-x,-y,-z
x,-y,z
1/2+x,1/2+y,z
1/2-x,1/2+y,-z
1/2-x,1/2-y,-z
1/2+x,1/2-y,z
loop_
_atom_site_type_symbol
_atom_site_label
_atom_site_fract_x
_atom_site_fract_y
_atom_site_fract_z
Si Si1 0.680096 0.347199 0.949008
Si Si2 0.140565 0.718976 0.006626
Si Si3 0.374247 0.574204 0.663300
Si Si4 0.122547 0.427228 0.739612
Si Si5 0.771501 0.609951 0.324049
Si Si6 0.211247 0.687972 0.403855
Si Si7 0.176305 0.759148 0.643220
O O1 0.630088 0.290558 0.959156
O O2 0.545434 0.400583 0.810635
O O3 0.724829 0.316237 0.908908
O O4 0.836287 0.378499 0.147161
O O5 0.969628 0.689447 0.812425
O O6 0.198834 0.720246 0.159246
O O7 0.347480 0.500000 0.616329
O O8 0.354775 0.583877 0.741089
O O9 0.254042 0.623942 0.496866
O O10 0.147297 0.500000 0.789475
O O11 0.234524 0.411088 0.776520
O O12 0.941817 0.416892 0.527829
O O13 0.778353 0.686593 0.334579
O O14 0.250000 0.750000 0.500000
O O15 0.314907 0.697437 0.428102
O O16 0.000000 0.757427 0.500000
#
# Coordination Sequence:
#
# PCOD9219359 Si02
#       7
#     8   8   8   8   8   8   8
#     4  11  22  38  61  87 123 166 212 265 318 375
#     4  11  23  40  65  92 125 162 216 269 322 379
#     4  12  25  41  61  92 131 170 214 267 327 390
#     4  11  21  35  54  85 128 174 213 250 309 391
#     4  11  20  36  58  86 128 173 209 254 318 387
#     4  12  24  41  68  94 126 172 220 271 322 382
#     4  12  22  39  66  97 133 166 212 276 331 376
#
# _framework density 19.42521
#
# number of rings (size 3 to 8) (size 9 to 14) (size 15 to 20)
#    0.000    0.571    5.714    4.286    2.000    0.571 
#    0.000    2.143    0.000    6.429    0.000    0.000 
#    0.000    0.000    0.000    0.000    0.000    0.000 
#
# Total GULP energy -156582.821787 kJ/mol
# GULP energy per Si atom -5592.243635 kJ/mol
# Density = 1.938100 g / cm^3
# Si number density = 19.425210 Si / 1000 Ang^3
#
#
#
# Elastic Constant Matrix: (Units=GPa)
#
#
# Indices 1 2 3 4 5 6 
#
# 1 73.9211 32.0733 15.7188 0.0000 -9.7111 0.0000
# 2 32.0733 101.5282 16.5115 0.0000 -7.4959 0.0000
# 3 15.7188 16.5115 69.6091 0.0000 3.2390 0.0000
# 4 0.0000 0.0000 0.0000 9.8880 0.0000 6.9673
# 5 -9.7111 -7.4959 3.2390 0.0000 26.6014 0.0000
# 6 0.0000 0.0000 0.0000 6.9673 0.0000 15.3179
#
#
#
# Elastic Compliance Matrix: (Units=1/GPa)
#
#
# Indices 1 2 3 4 5 6 
#
# 1 0.016770 -0.004426 -0.002981 0.000000 0.005238 0.000000
# 2 -0.004426 0.011691 -0.001862 0.000000 0.001905 0.000000
# 3 -0.002981 -0.001862 0.015644 0.000000 -0.003518 0.000000
# 4 0.000000 0.000000 0.000000 0.148832 0.000000 -0.067695
# 5 0.005238 0.001905 -0.003518 0.000000 0.040469 0.000000
# 6 0.000000 0.000000 0.000000 -0.067695 0.000000 0.096074
#
#
# Mechanical properties :
#
#
# Convention : Reuss Voigt Hill
#
# Bulk Modulus (GPa) = 39.11256 41.51841 40.31549
# Shear Modulus (GPa) = 14.02356 22.41178 18.21767
#
# Velocity S-wave (km/s) = 2.68978 3.40037 3.06573
# Velocity P-wave (km/s) = 5.46125 6.06931 5.77329
#
# Compressibility (1/GPa) = 0.02556723
#
# Stress axis : x y z
#
# Youngs Moduli (GPa) = 59.62875 85.53340 63.92031
#
# Poissons Ratio (x) = 0.37860 0.19053
# Poissons Ratio (y) = 0.26394 0.11904
# Poissons Ratio (z) = 0.17774 0.15929
#
# Static dielectric constant tensor:
#      x y z
#    x 1.705790 0.000000 0.025430 
#    y 0.000000 1.649730 0.000000 
#    z 0.025430 0.000000 1.705780 
# 
# From -- ./inp_files/75993.got.cif
#   From: 2010.05.17/outbox.cif.g08.bks.cpg/sg12_38_cif.got.tgz:75993.got - 2010.06.03 13:09:07.
