data_PCOD9219936
_publ_section_title
;
Structure prediction by ZEFSAII (Michael W. Deem and Ramdas Pophale) SiO2 
 PCOD9219936
Probable space group: C 2/M
;
_chemical_formula_sum "Si O2"
_cell_formula_units_Z 40
_cell_length_a 8.988456
_cell_length_b 17.459952
_cell_length_c 11.456954
_cell_angle_alpha 90.000000
_cell_angle_beta 81.998120
_cell_angle_gamma 90.000000
_cell_volume 1780.525034
_symmetry_space_group_name_H-M "C 2/M"
_symmetry_group_IT_number 12
_symmetry_cell_setting 'monoclinic'
loop_
_space_group_symop_operation_xyz
x,y,z
-x,y,-z
-x,-y,-z
x,-y,z
1/2+x,1/2+y,z
1/2-x,1/2+y,-z
1/2-x,1/2-y,-z
1/2+x,1/2-y,z
loop_
_atom_site_type_symbol
_atom_site_label
_atom_site_fract_x
_atom_site_fract_y
_atom_site_fract_z
Si Si1 0.777271 0.159046 0.963178
Si Si2 0.970449 0.801178 0.235447
Si Si3 0.728517 0.912566 0.221065
Si Si4 0.111944 0.370381 0.759412
Si Si5 0.660277 0.686438 0.432088
O O1 0.678548 0.109799 0.879093
O O2 0.936374 0.162561 0.879954
O O3 0.750000 0.250000 0.000000
O O4 0.759684 0.115563 0.086155
O O5 0.837196 0.858390 0.285489
O O6 0.903568 0.720081 0.212113
O O7 0.090102 0.778492 0.321333
O O8 0.549780 0.902895 0.255393
O O9 0.770767 0.000000 0.234329
O O10 0.223671 0.374751 0.635854
O O11 0.500000 0.657501 0.500000
O O12 0.750000 0.750000 0.500000
#
# Coordination Sequence:
#
# PCOD9219936 Si02
#       5
#     8   8   8   8   8
#     4  11  21  36  62  96 138 180 225 274 328 394
#     4  11  22  39  64 101 133 176 225 283 335 397
#     4  12  26  42  66 102 146 186 223 272 345 417
#     4  11  22  39  64 101 135 175 229 282 335 393
#     4  11  23  38  66 106 130 158 227 302 340 387
#
# _framework density 22.465285000000002
#
# number of rings (size 3 to 8) (size 9 to 14) (size 15 to 20)
#    0.000    0.800    6.000    2.400    0.000    3.200 
#    0.000    3.000    0.000    3.600    0.000    0.000 
#    0.000    0.000    0.000    0.000    0.000    0.000 
#
# Total GULP energy -111399.690646 kJ/mol
# GULP energy per Si atom -5569.984532 kJ/mol
# Density = 2.241415 g / cm^3
# Si number density = 22.465285 Si / 1000 Ang^3
#
#
#
# Elastic Constant Matrix: (Units=GPa)
#
#
# Indices 1 2 3 4 5 6 
#
# 1 136.5107 12.6522 50.4952 0.0000 -8.0942 0.0000
# 2 12.6522 73.8574 -7.9428 0.0000 5.4551 0.0000
# 3 50.4952 -7.9428 90.6006 0.0000 1.4578 0.0000
# 4 0.0000 0.0000 0.0000 3.5113 0.0000 0.6217
# 5 -8.0942 5.4551 1.4578 0.0000 47.5684 0.0000
# 6 0.0000 0.0000 0.0000 0.6217 0.0000 20.2768
#
#
#
# Elastic Compliance Matrix: (Units=1/GPa)
#
#
# Indices 1 2 3 4 5 6 
#
# 1 0.009788 -0.002447 -0.005704 0.000000 0.002121 0.000000
# 2 -0.002447 0.014404 0.002661 0.000000 -0.002150 0.000000
# 3 -0.005704 0.002661 0.014477 0.000000 -0.001719 0.000000
# 4 0.000000 0.000000 0.000000 0.286348 0.000000 -0.008779
# 5 0.002121 -0.002150 -0.001719 0.000000 0.021682 0.000000
# 6 0.000000 0.000000 0.000000 -0.008779 0.000000 0.049587
#
#
# Mechanical properties :
#
#
# Convention : Reuss Voigt Hill
#
# Bulk Modulus (GPa) = 36.11434 45.70865 40.91149
# Shear Modulus (GPa) = 12.00496 30.65559 21.33028
#
# Velocity S-wave (km/s) = 2.31417 3.69802 3.08470
# Velocity P-wave (km/s) = 4.82193 6.21485 5.56217
#
# Compressibility (1/GPa) = 0.02768983
#
# Stress axis : x y z
#
# Youngs Moduli (GPa) = 102.16849 69.42669 69.07362
#
# Poissons Ratio (x) = 0.16987 0.39398
# Poissons Ratio (y) = 0.24998 -0.18380
# Poissons Ratio (z) = 0.58274 -0.18474
#
# Static dielectric constant tensor:
#      x y z
#    x 1.977450 0.000000 0.035280 
#    y 0.000000 1.821400 0.000000 
#    z 0.035280 0.000000 1.966230 
# 
# From -- ./inp_files/118865.got.cif
#   From: 2010.05.17/outbox.cif.g08.bks.cpg/sg12_60_cif.got.tgz:118865.got - 2010.06.03 13:09:07.
