data_PCOD9219345
_publ_section_title
;
Structure prediction by ZEFSAII (Michael W. Deem and Ramdas Pophale) SiO2 
 PCOD9219345
Probable space group: C 2/M
;
_chemical_formula_sum "Si O2"
_cell_formula_units_Z 56
_cell_length_a 12.789780
_cell_length_b 17.514083
_cell_length_c 13.965416
_cell_angle_alpha 90.000000
_cell_angle_beta 127.330308
_cell_angle_gamma 90.000000
_cell_volume 2487.453418
_symmetry_space_group_name_H-M "C 2/M"
_symmetry_group_IT_number 12
_symmetry_cell_setting 'monoclinic'
loop_
_space_group_symop_operation_xyz
x,y,z
-x,y,-z
-x,-y,-z
x,-y,z
1/2+x,1/2+y,z
1/2-x,1/2+y,-z
1/2-x,1/2-y,-z
1/2+x,1/2-y,z
loop_
_atom_site_type_symbol
_atom_site_label
_atom_site_fract_x
_atom_site_fract_y
_atom_site_fract_z
Si Si1 0.849632 0.298852 0.306448
Si Si2 0.042418 0.643273 0.921207
Si Si3 0.329294 0.336126 0.153740
Si Si4 0.053024 0.816935 0.134491
Si Si5 0.309903 0.689140 0.464298
Si Si6 0.054045 0.588430 0.329825
Si Si7 0.019383 0.917855 0.625959
O O1 0.841432 0.247602 0.206166
O O2 0.705326 0.336804 0.235384
O O3 0.856055 0.236762 0.396618
O O4 0.968857 0.358311 0.356006
O O5 0.963479 0.724039 0.867350
O O6 0.016747 0.595197 0.812519
O O7 0.195914 0.659768 0.021240
O O8 0.000000 0.608723 0.000000
O O9 0.452026 0.351923 0.153540
O O10 0.342330 0.395272 0.250055
O O11 0.000000 0.836861 0.000000
O O12 0.250000 0.750000 0.500000
O O13 0.424604 0.652145 0.590953
O O14 0.198245 0.624622 0.390159
O O15 0.062442 0.500000 0.364699
O O16 0.000000 0.921544 0.500000
O O17 0.978676 0.000000 0.641003
#
# Coordination Sequence:
#
# PCOD9219345 Si02
#       7
#     8   8   8   8   8   8   8
#     4  12  21  41  68 100 134 176 238 284 341 411
#     4  11  21  39  67 103 136 179 234 294 347 408
#     4  12  21  40  68  97 135 179 239 286 338 415
#     4  11  20  35  64 103 128 172 229 291 328 396
#     4  12  25  46  73  99 132 179 242 287 333 421
#     4  12  27  45  69 106 148 184 225 293 371 423
#     4  11  25  42  65  97 134 173 219 286 354 405
#
# _framework density 22.512986000000001
#
# number of rings (size 3 to 8) (size 9 to 14) (size 15 to 20)
#    0.000    0.429    7.143    3.429    0.000    0.857 
#    0.000    4.286    0.000    1.714    0.000    0.000 
#    0.000    0.000    0.000    0.000    0.000    0.000 
#
# Total GULP energy -156437.628128 kJ/mol
# GULP energy per Si atom -5587.058147 kJ/mol
# Density = 2.246174 g / cm^3
# Si number density = 22.512986 Si / 1000 Ang^3
#
#
#
# Elastic Constant Matrix: (Units=GPa)
#
#
# Indices 1 2 3 4 5 6 
#
# 1 118.9806 23.3641 27.1049 0.0000 2.1422 0.0000
# 2 23.3641 94.5959 23.6686 0.0000 1.6738 0.0000
# 3 27.1049 23.6686 85.1334 0.0000 7.9744 0.0000
# 4 0.0000 0.0000 0.0000 10.8844 0.0000 3.5844
# 5 2.1422 1.6738 7.9744 0.0000 39.6641 0.0000
# 6 0.0000 0.0000 0.0000 3.5844 0.0000 12.5451
#
#
#
# Elastic Compliance Matrix: (Units=1/GPa)
#
#
# Indices 1 2 3 4 5 6 
#
# 1 0.009302 -0.001672 -0.002503 0.000000 0.000071 0.000000
# 2 -0.001672 0.011663 -0.002724 0.000000 0.000146 0.000000
# 3 -0.002503 -0.002724 0.013532 0.000000 -0.002470 0.000000
# 4 0.000000 0.000000 0.000000 0.101417 0.000000 -0.028977
# 5 0.000071 0.000146 -0.002470 0.000000 0.025698 0.000000
# 6 0.000000 0.000000 0.000000 -0.028977 0.000000 0.087992
#
#
# Mechanical properties :
#
#
# Convention : Reuss Voigt Hill
#
# Bulk Modulus (GPa) = 48.31327 49.66501 48.98914
# Shear Modulus (GPa) = 18.49775 27.59021 23.04398
#
# Velocity S-wave (km/s) = 2.86955 3.50455 3.20282
# Velocity P-wave (km/s) = 5.69964 6.20357 5.95694
#
# Compressibility (1/GPa) = 0.02069825
#
# Stress axis : x y z
#
# Youngs Moduli (GPa) = 107.50201 85.73910 73.89916
#
# Poissons Ratio (x) = 0.14339 0.18500
# Poissons Ratio (y) = 0.17979 0.20128
# Poissons Ratio (z) = 0.26912 0.23353
#
# Static dielectric constant tensor:
#      x y z
#    x 1.919590 0.000000 -0.025090 
#    y 0.000000 1.842710 0.000000 
#    z -0.025090 0.000000 1.826700 
# 
# From -- ./inp_files/206740.got.cif
#   From: 2010.05.17/outbox.cif.g08.bks.cpg/sg12_104_cif.got.tgz:206740.got - 2010.06.03 13:09:07.
