data_PCOD9219000
_publ_section_title
;
Structure prediction by ZEFSAII (Michael W. Deem and Ramdas Pophale) SiO2 
 PCOD9219000
Probable space group: C 2/M
;
_chemical_formula_sum "Si O2"
_cell_formula_units_Z 52
_cell_length_a 10.583618
_cell_length_b 28.122264
_cell_length_c 10.567421
_cell_angle_alpha 90.000000
_cell_angle_beta 73.476788
_cell_angle_gamma 90.000000
_cell_volume 3015.353655
_symmetry_space_group_name_H-M "C 2/M"
_symmetry_group_IT_number 12
_symmetry_cell_setting 'monoclinic'
loop_
_space_group_symop_operation_xyz
x,y,z
-x,y,-z
-x,-y,-z
x,-y,z
1/2+x,1/2+y,z
1/2-x,1/2+y,-z
1/2-x,1/2-y,-z
1/2+x,1/2-y,z
loop_
_atom_site_type_symbol
_atom_site_label
_atom_site_fract_x
_atom_site_fract_y
_atom_site_fract_z
Si Si1 0.000000 0.783020 0.000000
Si Si2 0.146103 0.260885 0.419244
Si Si3 0.935768 0.347727 0.709741
Si Si4 0.214863 0.552756 0.935773
Si Si5 0.759391 0.848320 0.994332
Si Si6 0.006343 0.446696 0.778311
Si Si7 0.650063 0.208000 0.795146
O O1 0.058354 0.749835 0.873906
O O2 0.882832 0.815049 0.981934
O O3 0.250000 0.250000 0.500000
O O4 0.130416 0.316296 0.382029
O O5 0.211841 0.231068 0.286507
O O6 0.000000 0.244582 0.500000
O O7 0.975958 0.403330 0.692065
O O8 0.067754 0.319073 0.711168
O O9 0.833804 0.346258 0.856255
O O10 0.275005 0.500000 0.917495
O O11 0.301056 0.598241 0.945753
O O12 0.139303 0.560175 0.823697
O O13 0.104917 0.553128 0.079065
O O14 0.674789 0.828077 0.902387
O O15 0.008342 0.500000 0.722124
#
# Coordination Sequence:
#
# PCOD9219000 Si02
#       7
#     4   8   8   8   8   8   8
#     4  12  22  30  47  80 109 142 176 220 264 322
#     4  12  26  40  53  74 109 151 189 222 262 318
#     4  11  19  34  56  79 108 140 177 222 272 318
#     4   8  14  26  45  73 109 140 166 205 264 333
#     4  11  20  31  52  80 109 139 178 219 274 324
#     4   8  14  26  48  78 106 132 167 215 273 322
#     4  12  21  35  54  79 107 140 178 225 266 325
#
# _framework density 17.245076000000001
#
# number of rings (size 3 to 8) (size 9 to 14) (size 15 to 20)
#    0.000    1.538    6.154    2.308    0.000    0.000 
#    0.000    0.385    0.000    0.462    0.000    0.000 
#    0.000    3.077    0.000    0.000    0.000    0.000 
#
# Total GULP energy -144892.157704 kJ/mol
# GULP energy per Si atom -5572.775296 kJ/mol
# Density = 1.720583 g / cm^3
# Si number density = 17.245076 Si / 1000 Ang^3
#
#
#
# Elastic Constant Matrix: (Units=GPa)
#
#
# Indices 1 2 3 4 5 6 
#
# 1 66.0108 44.0799 20.2197 0.0000 1.4495 0.0000
# 2 44.0799 155.5016 29.1969 0.0000 7.6481 0.0000
# 3 20.2197 29.1969 47.7976 0.0000 -4.3514 0.0000
# 4 0.0000 0.0000 0.0000 9.6924 0.0000 18.5749
# 5 1.4495 7.6481 -4.3514 0.0000 33.4852 0.0000
# 6 0.0000 0.0000 0.0000 18.5749 0.0000 1.5574
#
#
#
# Elastic Compliance Matrix: (Units=1/GPa)
#
#
# Indices 1 2 3 4 5 6 
#
# 1 0.019953 -0.004556 -0.005709 0.000000 -0.000565 0.000000
# 2 -0.004556 0.008478 -0.003450 0.000000 -0.002187 0.000000
# 3 -0.005709 -0.003450 0.025844 0.000000 0.004394 0.000000
# 4 0.000000 0.000000 0.000000 -0.004720 0.000000 0.056299
# 5 -0.000565 -0.002187 0.004394 0.000000 0.030959 0.000000
# 6 0.000000 0.000000 0.000000 0.056299 0.000000 -0.029377
#
#
# Mechanical properties :
#
#
# Convention : Reuss Voigt Hill
#
# Bulk Modulus (GPa) = 37.25253 50.70032 43.97642
# Shear Modulus (GPa) = 57.13316 20.66789 38.90053
#
# Velocity S-wave (km/s) = 5.76212 3.46566 4.75462
# Velocity P-wave (km/s) = 8.11900 6.74375 7.46312
#
# Compressibility (1/GPa) = 0.02684381
#
# Stress axis : x y z
#
# Youngs Moduli (GPa) = 50.11873 117.95523 38.69356
#
# Poissons Ratio (x) = 0.53744 0.22089
# Poissons Ratio (y) = 0.22836 0.13350
# Poissons Ratio (z) = 0.28611 0.40698
#
# Static dielectric constant tensor:
#      x y z
#    x 1.575170 0.000000 0.011590 
#    y 0.000000 1.623390 0.000000 
#    z 0.011590 0.000000 1.632800 
# 
# From -- ./inp_files/136288.got.cif
#   From: 2010.05.17/outbox.cif.g08.bks.cpg/sg12_69_cif.got.tgz:136288.got - 2010.06.03 13:09:07.
