data_PCOD9219577
_publ_section_title
;
Structure prediction by ZEFSAII (Michael W. Deem and Ramdas Pophale) SiO2 
 PCOD9219577
Probable space group: C 2/M
;
_chemical_formula_sum "Si O2"
_cell_formula_units_Z 64
_cell_length_a 22.887562
_cell_length_b 15.428152
_cell_length_c 7.218735
_cell_angle_alpha 90.000000
_cell_angle_beta 76.541194
_cell_angle_gamma 90.000000
_cell_volume 2479.024976
_symmetry_space_group_name_H-M "C 2/M"
_symmetry_group_IT_number 12
_symmetry_cell_setting 'monoclinic'
loop_
_space_group_symop_operation_xyz
x,y,z
-x,y,-z
-x,-y,-z
x,-y,z
1/2+x,1/2+y,z
1/2-x,1/2+y,-z
1/2-x,1/2-y,-z
1/2+x,1/2-y,z
loop_
_atom_site_type_symbol
_atom_site_label
_atom_site_fract_x
_atom_site_fract_y
_atom_site_fract_z
Si Si1 0.581415 0.148577 0.084661
Si Si2 0.931242 0.142868 0.870590
Si Si3 0.809860 0.850764 0.781946
Si Si4 0.454713 0.097530 0.307908
Si Si5 0.713522 0.900993 0.129603
Si Si6 0.635312 0.235491 0.533534
Si Si7 0.715587 0.094102 0.571619
Si Si8 0.936718 0.096940 0.289423
O O1 0.574730 0.253315 0.091605
O O2 0.525690 0.111904 0.243834
O O3 0.646181 0.118594 0.108201
O O4 0.568387 0.114614 0.885883
O O5 0.873019 0.112397 0.803489
O O6 0.993913 0.122661 0.724097
O O7 0.932269 0.099023 0.069756
O O8 0.735858 0.653278 0.014202
O O9 0.827388 0.759286 0.676392
O O10 0.776156 0.899737 0.641664
O O11 0.419080 0.168786 0.452099
O O12 0.441922 0.000000 0.376906
O O13 0.721755 0.902438 0.345404
O O14 0.726354 0.000000 0.059218
O O15 0.678701 0.182415 0.639984
O O16 0.607011 0.325996 0.616211
O O17 0.687362 0.000000 0.635862
O O18 0.923535 0.000000 0.366399
#
# Coordination Sequence:
#
# PCOD9219577 Si02
#       8
#     8   8   8   8   8   8   8   8
#     4  11  20  41  74 114 159 203 267 321 391 472
#     4  11  23  47  75 111 153 205 262 325 393 468
#     4  12  29  47  80 111 154 209 263 318 390 461
#     4  11  21  39  76 118 162 209 259 324 394 470
#     4  11  26  48  75 112 159 208 261 323 389 467
#     4  12  25  48  73 114 159 197 260 319 390 468
#     4  11  27  51  76 114 161 206 261 322 386 471
#     4  11  25  48  78 110 153 203 259 331 392 458
#
# _framework density 25.816600000000001
#
# number of rings (size 3 to 8) (size 9 to 14) (size 15 to 20)
#    0.000    0.750    2.500    5.625    1.750    5.500 
#    2.250    0.625    0.000    3.000    0.000    0.000 
#    0.000    0.000    0.000    0.000    0.000    0.000 
#
# Total GULP energy -179358.264352 kJ/mol
# GULP energy per Si atom -5604.945761 kJ/mol
# Density = 2.575784 g / cm^3
# Si number density = 25.816600 Si / 1000 Ang^3
#
#
#
# Elastic Constant Matrix: (Units=GPa)
#
#
# Indices 1 2 3 4 5 6 
#
# 1 188.1913 61.0836 59.3419 0.0000 19.6371 0.0000
# 2 61.0836 198.9529 26.1878 0.0000 -16.4938 0.0000
# 3 59.3419 26.1878 75.4853 0.0000 18.5509 0.0000
# 4 0.0000 0.0000 0.0000 21.7551 0.0000 1.1830
# 5 19.6371 -16.4938 18.5509 0.0000 48.8891 0.0000
# 6 0.0000 0.0000 0.0000 1.1830 0.0000 22.2177
#
#
#
# Elastic Compliance Matrix: (Units=1/GPa)
#
#
# Indices 1 2 3 4 5 6 
#
# 1 0.007661 -0.001855 -0.004929 0.000000 -0.001833 0.000000
# 2 -0.001855 0.006067 -0.001469 0.000000 0.003350 0.000000
# 3 -0.004929 -0.001469 0.019043 0.000000 -0.005742 0.000000
# 4 0.000000 0.000000 0.000000 0.046100 0.000000 -0.002455
# 5 -0.001833 0.003350 -0.005742 0.000000 0.024500 0.000000
# 6 0.000000 0.000000 0.000000 -0.002455 0.000000 0.045140
#
#
# Mechanical properties :
#
#
# Convention : Reuss Voigt Hill
#
# Bulk Modulus (GPa) = 61.48354 83.98401 72.73377
# Shear Modulus (GPa) = 29.33588 39.64012 34.48800
#
# Velocity S-wave (km/s) = 3.37459 3.92273 3.65894
# Velocity P-wave (km/s) = 6.24908 7.28826 6.78858
#
# Compressibility (1/GPa) = 0.01626452
#
# Stress axis : x y z
#
# Youngs Moduli (GPa) = 130.52373 164.82327 52.51224
#
# Poissons Ratio (x) = 0.30582 0.25882
# Poissons Ratio (y) = 0.24218 0.07716
# Poissons Ratio (z) = 0.64332 0.24219
#
# Static dielectric constant tensor:
#      x y z
#    x 2.004680 0.000000 -0.020270 
#    y 0.000000 2.028500 0.000000 
#    z -0.020270 0.000000 2.065160 
# 
# From -- ./inp_files/96872.got.cif
#   From: 2010.05.17/outbox.cif.g08.bks.cpg/sg12_49_cif.got.tgz:96872.got - 2010.06.03 13:09:07.
