data_PCOD9219604
_publ_section_title
;
Structure prediction by ZEFSAII (Michael W. Deem and Ramdas Pophale) SiO2 
 PCOD9219604
Probable space group: C 2/M
;
_chemical_formula_sum "Si O2"
_cell_formula_units_Z 28
_cell_length_a 16.826012
_cell_length_b 13.235783
_cell_length_c 6.942022
_cell_angle_alpha 90.000000
_cell_angle_beta 121.640938
_cell_angle_gamma 90.000000
_cell_volume 1316.212909
_symmetry_space_group_name_H-M "C 2/M"
_symmetry_group_IT_number 12
_symmetry_cell_setting 'monoclinic'
loop_
_space_group_symop_operation_xyz
x,y,z
-x,y,-z
-x,-y,-z
x,-y,z
1/2+x,1/2+y,z
1/2-x,1/2+y,-z
1/2-x,1/2-y,-z
1/2+x,1/2-y,z
loop_
_atom_site_type_symbol
_atom_site_label
_atom_site_fract_x
_atom_site_fract_y
_atom_site_fract_z
Si Si1 0.718882 0.500000 0.722125
Si Si2 0.500000 0.334562 0.000000
Si Si3 0.152929 0.211734 0.459059
Si Si4 0.442071 0.500000 0.229218
Si Si5 0.000000 0.667271 0.500000
Si Si6 0.562887 0.000000 0.889562
O O1 0.678736 0.598452 0.561058
O O2 0.666474 0.500000 0.860322
O O3 0.829278 0.500000 0.901834
O O4 0.586971 0.276127 0.189487
O O5 0.469030 0.404190 0.137508
O O6 0.250000 0.250000 0.500000
O O7 0.089626 0.267052 0.541595
O O8 0.500000 0.500000 0.500000
O O9 0.963549 0.596028 0.279414
O O10 0.500000 0.000000 0.000000
#
# Coordination Sequence:
#
# PCOD9219604 Si02
#       6
#     4   4   8   4   4   4
#     4  12  25  45  74 106 144 186 248 307 369 430
#     4  11  24  42  68  99 150 182 232 313 362 425
#     4  12  27  45  75 110 147 194 256 302 375 449
#     4  11  20  44  68  99 134 183 233 299 370 428
#     4  11  28  51  74 110 148 201 250 303 374 450
#     4  11  27  52  76 103 155 198 243 306 371 446
#
# _framework density 21.273153000000001
#
# number of rings (size 3 to 8) (size 9 to 14) (size 15 to 20)
#    0.000    0.571    2.857    4.286   10.000    2.286 
#    0.000    0.000    0.000    0.000    0.000    0.000 
#    0.000    0.000    0.000    0.000    0.000    0.000 
#
# Total GULP energy -78199.839694 kJ/mol
# GULP energy per Si atom -5585.702835 kJ/mol
# Density = 2.122473 g / cm^3
# Si number density = 21.273153 Si / 1000 Ang^3
#
#
#
# Elastic Constant Matrix: (Units=GPa)
#
#
# Indices 1 2 3 4 5 6 
#
# 1 243.1070 84.1744 86.0247 0.0000 18.2652 0.0000
# 2 84.1744 130.4342 51.3757 0.0000 0.4569 0.0000
# 3 86.0247 51.3757 152.0653 0.0000 11.0133 0.0000
# 4 0.0000 0.0000 0.0000 86.9428 0.0000 -48.4559
# 5 18.2652 0.4569 11.0133 0.0000 49.3650 0.0000
# 6 0.0000 0.0000 0.0000 -48.4559 0.0000 76.9698
#
#
#
# Elastic Compliance Matrix: (Units=1/GPa)
#
#
# Indices 1 2 3 4 5 6 
#
# 1 0.006107 -0.003026 -0.002308 0.000000 -0.001717 0.000000
# 2 -0.003026 0.010360 -0.001893 0.000000 0.001446 0.000000
# 3 -0.002308 -0.001893 0.008597 0.000000 -0.001047 0.000000
# 4 0.000000 0.000000 0.000000 0.017719 0.000000 0.011155
# 5 -0.001717 0.001446 -0.001047 0.000000 0.021113 0.000000
# 6 0.000000 0.000000 0.000000 0.011155 0.000000 0.020014
#
#
# Mechanical properties :
#
#
# Convention : Reuss Voigt Hill
#
# Bulk Modulus (GPa) = 94.25131 107.63956 100.94544
# Shear Modulus (GPa) = 49.06756 62.92430 55.99593
#
# Velocity S-wave (km/s) = 4.80786 5.44458 5.13610
# Velocity P-wave (km/s) = 8.67307 9.49911 9.09548
#
# Compressibility (1/GPa) = 0.01060993
#
# Stress axis : x y z
#
# Youngs Moduli (GPa) = 163.75245 96.52511 116.31686
#
# Poissons Ratio (x) = 0.29207 0.26847
# Poissons Ratio (y) = 0.49549 0.22020
# Poissons Ratio (z) = 0.37795 0.18274
#
# Static dielectric constant tensor:
#      x y z
#    x 1.079810 0.000000 -0.062670 
#    y 0.000000 1.627460 0.000000 
#    z -0.062670 0.000000 1.780140 
# 
# From -- ./inp_files/14653.got.cif
#   From: 2010.05.17/outbox.cif.g08.bks.cpg/sg12_8_cif.got.tgz:14653.got - 2010.06.03 13:09:07.
