data_PCOD9219241
_publ_section_title
;
Structure prediction by ZEFSAII (Michael W. Deem and Ramdas Pophale) SiO2 
 PCOD9219241
Probable space group: C 2/M
;
_chemical_formula_sum "Si O2"
_cell_formula_units_Z 40
_cell_length_a 28.111728
_cell_length_b 13.103200
_cell_length_c 6.946484
_cell_angle_alpha 90.000000
_cell_angle_beta 128.419215
_cell_angle_gamma 90.000000
_cell_volume 2004.752180
_symmetry_space_group_name_H-M "C 2/M"
_symmetry_group_IT_number 12
_symmetry_cell_setting 'monoclinic'
loop_
_space_group_symop_operation_xyz
x,y,z
-x,y,-z
-x,-y,-z
x,-y,z
1/2+x,1/2+y,z
1/2-x,1/2+y,-z
1/2-x,1/2-y,-z
1/2+x,1/2-y,z
loop_
_atom_site_type_symbol
_atom_site_label
_atom_site_fract_x
_atom_site_fract_y
_atom_site_fract_z
Si Si1 0.867450 0.271974 0.784705
Si Si2 0.519212 0.885623 0.822085
Si Si3 0.787987 0.615143 0.863213
Si Si4 0.388071 0.824164 0.413178
Si Si5 0.646929 0.382580 0.555877
O O1 0.926620 0.304287 0.055162
O O2 0.809228 0.303028 0.759687
O O3 0.870576 0.338249 0.594993
O O4 0.867633 0.158591 0.697047
O O5 0.456171 0.863273 0.555595
O O6 0.541251 0.000000 0.834511
O O7 0.500000 0.882635 0.000000
O O8 0.790984 0.500000 0.790514
O O9 0.719443 0.631304 0.761010
O O10 0.836950 0.625403 0.155816
O O11 0.385062 0.700682 0.388673
O O12 0.631031 0.500000 0.544315
#
# Coordination Sequence:
#
# PCOD9219241 Si02
#       5
#     8   8   8   8   8
#     4   9  20  34  54  74 110 136 168 210 263 301
#     4   9  16  31  51  79 105 132 167 209 261 318
#     4  11  20  33  54  81 106 135 169 211 263 318
#     4   9  20  34  54  74 110 136 168 210 263 301
#     4   9  20  37  53  73 105 139 182 215 244 300
#
# _framework density 19.952590000000001
#
# number of rings (size 3 to 8) (size 9 to 14) (size 15 to 20)
#    1.200    1.400    0.000    2.400    0.000    3.200 
#    0.000    5.000    0.000    0.000    0.000    2.800 
#    0.000    0.000    0.000    0.000    0.000    0.000 
#
# Total GULP energy -111418.123430 kJ/mol
# GULP energy per Si atom -5570.906171 kJ/mol
# Density = 1.990718 g / cm^3
# Si number density = 19.952590 Si / 1000 Ang^3
#
#
#
# Elastic Constant Matrix: (Units=GPa)
#
#
# Indices 1 2 3 4 5 6 
#
# 1 30.0887 4.3855 6.3723 0.0000 1.4762 0.0000
# 2 4.3855 89.9279 16.9495 0.0000 20.6188 0.0000
# 3 6.3723 16.9495 102.0424 0.0000 21.1451 0.0000
# 4 0.0000 0.0000 0.0000 23.1654 0.0000 -0.3585
# 5 1.4762 20.6188 21.1451 0.0000 24.9613 0.0000
# 6 0.0000 0.0000 0.0000 -0.3585 0.0000 18.8341
#
#
#
# Elastic Compliance Matrix: (Units=1/GPa)
#
#
# Indices 1 2 3 4 5 6 
#
# 1 0.033842 -0.001485 -0.002069 0.000000 0.000978 0.000000
# 2 -0.001485 0.013784 0.000175 0.000000 -0.011446 0.000000
# 3 -0.002069 0.000175 0.012013 0.000000 -0.010199 0.000000
# 4 0.000000 0.000000 0.000000 0.043181 0.000000 0.000822
# 5 0.000978 -0.011446 -0.010199 0.000000 0.058099 0.000000
# 6 0.000000 0.000000 0.000000 0.000822 0.000000 0.053111
#
#
# Mechanical properties :
#
#
# Convention : Reuss Voigt Hill
#
# Bulk Modulus (GPa) = 18.91025 30.83039 24.87032
# Shear Modulus (GPa) = 20.97193 26.34896 23.66044
#
# Velocity S-wave (km/s) = 3.24557 3.63792 3.44733
# Velocity P-wave (km/s) = 4.85212 5.75598 5.32327
#
# Compressibility (1/GPa) = 0.05288137
#
# Stress axis : x y z
#
# Youngs Moduli (GPa) = 29.54934 72.54859 83.24030
#
# Poissons Ratio (x) = 0.10770 0.17225
# Poissons Ratio (y) = 0.04387 -0.01457
# Poissons Ratio (z) = 0.06115 -0.01270
#
# Static dielectric constant tensor:
#      x y z
#    x 1.732260 0.000000 -0.032760 
#    y 0.000000 1.683780 0.000000 
#    z -0.032760 0.000000 1.740880 
# 
# From -- ./inp_files/109561.got.cif
#   From: 2010.05.17/outbox.cif.g08.bks.cpg/sg12_55_cif.got.tgz:109561.got - 2010.06.03 13:09:07.
