data_PCOD9219582
_publ_section_title
;
Structure prediction by ZEFSAII (Michael W. Deem and Ramdas Pophale) SiO2 
 PCOD9219582
Probable space group: C 2/M
;
_chemical_formula_sum "Si O2"
_cell_formula_units_Z 48
_cell_length_a 13.620957
_cell_length_b 21.456958
_cell_length_c 11.654006
_cell_angle_alpha 90.000000
_cell_angle_beta 134.813149
_cell_angle_gamma 90.000000
_cell_volume 2416.282507
_symmetry_space_group_name_H-M "C 2/M"
_symmetry_group_IT_number 12
_symmetry_cell_setting 'monoclinic'
loop_
_space_group_symop_operation_xyz
x,y,z
-x,y,-z
-x,-y,-z
x,-y,z
1/2+x,1/2+y,z
1/2-x,1/2+y,-z
1/2-x,1/2-y,-z
1/2+x,1/2-y,z
loop_
_atom_site_type_symbol
_atom_site_label
_atom_site_fract_x
_atom_site_fract_y
_atom_site_fract_z
Si Si1 0.227910 0.321844 0.514168
Si Si2 0.159370 0.132501 0.632793
Si Si3 0.573280 0.867654 0.758243
Si Si4 0.234269 0.500000 0.214893
Si Si5 0.849888 0.844729 0.860039
Si Si6 0.866329 0.295464 0.959764
Si Si7 0.467276 0.000000 0.159469
O O1 0.250000 0.250000 0.500000
O O2 0.273672 0.359016 0.437814
O O3 0.321582 0.334345 0.702243
O O4 0.067313 0.337717 0.408293
O O5 0.180099 0.062092 0.691743
O O6 0.236217 0.176376 0.787021
O O7 0.000000 0.149749 0.500000
O O8 0.709190 0.874330 0.792189
O O9 0.535310 0.936250 0.771990
O O10 0.616125 0.822197 0.899109
O O11 0.103532 0.500000 0.193055
O O12 0.166560 0.500000 0.033488
O O13 0.862862 0.778677 0.939004
O O14 0.000000 0.876425 0.000000
O O15 0.000000 0.319511 0.000000
#
# Coordination Sequence:
#
# PCOD9219582 Si02
#       7
#     8   8   8   4   8   8   4
#     4  12  24  42  64  95 134 171 220 269 324 395
#     4  12  25  38  67 101 134 167 212 269 340 383
#     4  12  24  43  69  97 128 176 223 269 328 391
#     4  11  21  44  63 100 133 167 215 274 331 383
#     4  11  26  42  63  96 135 175 216 270 331 393
#     4  11  20  42  65  98 128 169 214 268 330 396
#     4  11  22  40  75  93 126 172 227 270 317 395
#
# _framework density 19.865226
#
# number of rings (size 3 to 8) (size 9 to 14) (size 15 to 20)
#    0.000    0.500    6.667    2.250    4.667    0.000 
#    0.000    2.917    0.000    0.000    0.000    0.000 
#    0.000    0.000    0.000    0.000    0.000    0.000 
#
# Total GULP energy -134154.664733 kJ/mol
# GULP energy per Si atom -5589.777697 kJ/mol
# Density = 1.982001 g / cm^3
# Si number density = 19.865226 Si / 1000 Ang^3
#
#
#
# Elastic Constant Matrix: (Units=GPa)
#
#
# Indices 1 2 3 4 5 6 
#
# 1 65.9795 -8.9679 28.5783 0.0000 23.8659 0.0000
# 2 -8.9679 58.1692 1.8393 0.0000 9.7794 0.0000
# 3 28.5783 1.8393 129.8684 0.0000 24.8844 0.0000
# 4 0.0000 0.0000 0.0000 22.0194 0.0000 3.2035
# 5 23.8659 9.7794 24.8844 0.0000 44.2458 0.0000
# 6 0.0000 0.0000 0.0000 3.2035 0.0000 -13.1925
#
#
#
# Elastic Compliance Matrix: (Units=1/GPa)
#
#
# Indices 1 2 3 4 5 6 
#
# 1 0.020949 0.005159 -0.002577 0.000000 -0.010991 0.000000
# 2 0.005159 0.019162 -0.000069 0.000000 -0.006979 0.000000
# 3 -0.002577 -0.000069 0.008965 0.000000 -0.003637 0.000000
# 4 0.000000 0.000000 0.000000 0.043865 0.000000 0.010652
# 5 -0.010991 -0.006979 -0.003637 0.000000 0.032117 0.000000
# 6 0.000000 0.000000 0.000000 0.010652 0.000000 -0.073214
#
#
# Mechanical properties :
#
#
# Convention : Reuss Voigt Hill
#
# Bulk Modulus (GPa) = 18.48383 32.99071 25.73727
# Shear Modulus (GPa) = 77.09766 26.11904 51.60835
#
# Velocity S-wave (km/s) = 6.23655 3.62997 5.10251
# Velocity P-wave (km/s) = 7.82204 5.84912 6.90639
#
# Compressibility (1/GPa) = 0.05410133
#
# Stress axis : x y z
#
# Youngs Moduli (GPa) = 47.73455 52.18631 111.54479
#
# Poissons Ratio (x) = -0.26923 0.28746
# Poissons Ratio (y) = -0.24626 0.00774
# Poissons Ratio (z) = 0.12302 0.00362
#
# Static dielectric constant tensor:
#      x y z
#    x 1.732040 0.000000 0.012340 
#    y 0.000000 1.684070 0.000000 
#    z 0.012340 0.000000 1.721690 
# 
# From -- ./inp_files/135565.got.cif
#   From: 2010.05.17/outbox.cif.g08.bks.cpg/sg12_68_cif.got.tgz:135565.got - 2010.06.03 13:09:07.
