data_PCOD9219494
_publ_section_title
;
Structure prediction by ZEFSAII (Michael W. Deem and Ramdas Pophale) SiO2 
 PCOD9219494
Probable space group: C 2/M
;
_chemical_formula_sum "Si O2"
_cell_formula_units_Z 40
_cell_length_a 17.764724
_cell_length_b 11.308070
_cell_length_c 11.011291
_cell_angle_alpha 90.000000
_cell_angle_beta 112.370245
_cell_angle_gamma 90.000000
_cell_volume 2045.533633
_symmetry_space_group_name_H-M "C 2/M"
_symmetry_group_IT_number 12
_symmetry_cell_setting 'monoclinic'
loop_
_space_group_symop_operation_xyz
x,y,z
-x,y,-z
-x,-y,-z
x,-y,z
1/2+x,1/2+y,z
1/2-x,1/2+y,-z
1/2-x,1/2-y,-z
1/2+x,1/2-y,z
loop_
_atom_site_type_symbol
_atom_site_label
_atom_site_fract_x
_atom_site_fract_y
_atom_site_fract_z
Si Si1 0.701849 0.358319 0.630077
Si Si2 0.012916 0.360769 0.866984
Si Si3 0.893486 0.000000 0.798846
Si Si4 0.331631 0.736878 0.128210
Si Si5 0.419911 0.500000 0.101985
Si Si6 0.636354 0.265410 0.346904
O O1 0.693169 0.500000 0.644853
O O2 0.688629 0.280982 0.742890
O O3 0.641980 0.311675 0.487872
O O4 0.792249 0.328263 0.636106
O O5 0.995579 0.500000 0.852914
O O6 0.948727 0.290768 0.745296
O O7 0.103462 0.335614 0.873458
O O8 0.000000 0.320819 0.000000
O O9 0.850034 0.117991 0.726838
O O10 0.985565 0.000000 0.803663
O O11 0.907105 0.000000 0.949988
O O12 0.376795 0.615906 0.122831
O O13 0.250000 0.750000 0.000000
#
# Coordination Sequence:
#
# PCOD9219494 Si02
#       6
#     8   8   4   8   4   8
#     4  11  24  44  65  94 131 170 212 264 322 380
#     4  11  24  44  68  94 129 172 214 261 321 383
#     4  11  20  39  63  97 124 165 220 259 312 377
#     4  12  25  41  64  97 129 166 215 266 324 376
#     4  11  22  37  65  91 131 163 211 270 311 378
#     4  11  23  42  67  93 126 173 217 258 317 385
#
# _framework density 19.554798999999999
#
# number of rings (size 3 to 8) (size 9 to 14) (size 15 to 20)
#    0.000    0.800    4.000    4.200    1.400    2.400 
#    1.800    3.000    0.000    0.000    0.000    0.000 
#    0.000    0.000    0.000    0.000    0.000    0.000 
#
# Total GULP energy -111757.110010 kJ/mol
# GULP energy per Si atom -5587.855501 kJ/mol
# Density = 1.951029 g / cm^3
# Si number density = 19.554799 Si / 1000 Ang^3
#
#
#
# Elastic Constant Matrix: (Units=GPa)
#
#
# Indices 1 2 3 4 5 6 
#
# 1 70.4614 13.2578 43.1007 0.0000 5.4338 0.0000
# 2 13.2578 73.1876 28.8821 0.0000 3.2794 0.0000
# 3 43.1007 28.8821 143.2124 0.0000 2.0078 0.0000
# 4 0.0000 0.0000 0.0000 36.6748 0.0000 15.6869
# 5 5.4338 3.2794 2.0078 0.0000 34.8030 0.0000
# 6 0.0000 0.0000 0.0000 15.6869 0.0000 105.5323
#
#
#
# Elastic Compliance Matrix: (Units=1/GPa)
#
#
# Indices 1 2 3 4 5 6 
#
# 1 0.017680 -0.001097 -0.005066 0.000000 -0.002365 0.000000
# 2 -0.001097 0.014966 -0.002673 0.000000 -0.001085 0.000000
# 3 -0.005066 -0.002673 0.009039 0.000000 0.000521 0.000000
# 4 0.000000 0.000000 0.000000 0.029118 0.000000 -0.004328
# 5 -0.002365 -0.001085 0.000521 0.000000 0.029174 0.000000
# 6 0.000000 0.000000 0.000000 -0.004328 0.000000 0.010119
#
#
# Mechanical properties :
#
#
# Convention : Reuss Voigt Hill
#
# Bulk Modulus (GPa) = 41.64624 50.81585 46.23104
# Shear Modulus (GPa) = 36.82602 48.84340 42.83471
#
# Velocity S-wave (km/s) = 4.34432 5.00319 4.68535
# Velocity P-wave (km/s) = 6.81965 7.70835 7.27758
#
# Compressibility (1/GPa) = 0.02401177
#
# Stress axis : x y z
#
# Youngs Moduli (GPa) = 56.56067 66.81977 110.63010
#
# Poissons Ratio (x) = 0.07333 0.56051
# Poissons Ratio (y) = 0.06207 0.29568
# Poissons Ratio (z) = 0.28656 0.17859
#
# Static dielectric constant tensor:
#      x y z
#    x 1.692430 0.000000 -0.010270 
#    y 0.000000 1.733030 0.000000 
#    z -0.010270 0.000000 1.679560 
# 
# From -- ./inp_files/141145.got.cif
#   From: 2010.05.17/outbox.cif.g08.bks.cpg/sg12_71_cif.got.tgz:141145.got - 2010.06.03 13:09:07.
