data_PCOD9219127
_publ_section_title
;
Structure prediction by ZEFSAII (Michael W. Deem and Ramdas Pophale) SiO2 
 PCOD9219127
Probable space group: C 2/M
;
_chemical_formula_sum "Si O2"
_cell_formula_units_Z 40
_cell_length_a 28.210438
_cell_length_b 7.670712
_cell_length_c 19.892163
_cell_angle_alpha 90.000000
_cell_angle_beta 28.444355
_cell_angle_gamma 90.000000
_cell_volume 2050.277715
_symmetry_space_group_name_H-M "C 2/M"
_symmetry_group_IT_number 12
_symmetry_cell_setting 'monoclinic'
loop_
_space_group_symop_operation_xyz
x,y,z
-x,y,-z
-x,-y,-z
x,-y,z
1/2+x,1/2+y,z
1/2-x,1/2+y,-z
1/2-x,1/2-y,-z
1/2+x,1/2-y,z
loop_
_atom_site_type_symbol
_atom_site_label
_atom_site_fract_x
_atom_site_fract_y
_atom_site_fract_z
Si Si1 0.160665 0.711442 0.734625
Si Si2 0.088754 0.786767 0.436807
Si Si3 0.810775 0.294513 0.151064
Si Si4 0.006239 0.201852 0.164351
Si Si5 0.888301 0.787355 0.438590
O O1 0.152984 0.500000 0.741965
O O2 0.149991 0.771738 0.825454
O O3 0.272572 0.762346 0.573233
O O4 0.077102 0.780969 0.789446
O O5 0.199320 0.727760 0.276676
O O6 0.079017 0.736013 0.527200
O O7 0.000000 0.724824 0.500000
O O8 0.086472 0.000000 0.437816
O O9 0.798087 0.500000 0.178134
O O10 0.891188 0.272933 0.992948
O O11 0.958800 0.278875 0.291359
O O12 0.024871 0.000000 0.154597
O O13 0.888512 0.000000 0.436661
#
# Coordination Sequence:
#
# PCOD9219127 Si02
#       5
#     8   8   8   8   8
#     4   9  17  31  48  63  87 124 159 186 212 251
#     4   8  14  29  53  71  82 108 154 196 222 256
#     4   9  18  31  47  68  91 116 150 189 223 257
#     4  11  20  28  42  67  99 125 144 177 224 270
#     4   8  16  29  44  66  92 117 148 186 226 261
#
# _framework density 19.509553
#
# number of rings (size 3 to 8) (size 9 to 14) (size 15 to 20)
#    0.000    3.000    0.000    4.200    0.000    3.200 
#    0.000    2.000    0.000    3.000    0.000    0.000 
#    0.000    0.000    0.000    0.000    0.000    0.000 
#
# Total GULP energy -111524.073849 kJ/mol
# GULP energy per Si atom -5576.203692 kJ/mol
# Density = 1.946515 g / cm^3
# Si number density = 19.509553 Si / 1000 Ang^3
#
#
#
# Elastic Constant Matrix: (Units=GPa)
#
#
# Indices 1 2 3 4 5 6 
#
# 1 102.9545 -4.4771 74.1798 0.0034 -21.6472 0.0049
# 2 -4.4771 23.9372 -4.9693 -0.0037 1.7911 0.0062
# 3 74.1798 -4.9693 161.6181 -0.0019 8.0627 0.0084
# 4 0.0034 -0.0037 -0.0019 13.8325 0.0043 9.1967
# 5 -21.6472 1.7911 8.0627 0.0043 15.1246 -0.0003
# 6 0.0049 0.0062 0.0084 9.1967 -0.0003 0.0713
#
#
#
# Elastic Compliance Matrix: (Units=1/GPa)
#
#
# Indices 1 2 3 4 5 6 
#
# 1 0.039695 -0.002220 -0.021712 0.000003 0.068651 -0.000056
# 2 -0.002220 0.042674 0.002816 -0.000031 -0.009732 0.000070
# 3 -0.021712 0.002816 0.018293 -0.000009 -0.041161 0.000045
# 4 0.000003 -0.000031 -0.000009 -0.000853 0.000015 0.110018
# 5 0.068651 -0.009732 -0.041161 0.000015 0.187470 -0.000147
# 6 -0.000056 0.000070 0.000045 0.110018 -0.000147 -0.165476
#
#
# Mechanical properties :
#
#
# Convention : Reuss Voigt Hill
#
# Bulk Modulus (GPa) = 17.11444 46.44186 31.77815
# Shear Modulus (GPa) = 27.24623 20.72411 23.98517
#
# Velocity S-wave (km/s) = 3.74111 3.26276 3.51009
# Velocity P-wave (km/s) = 5.23952 6.16851 5.72290
#
# Compressibility (1/GPa) = 0.05843020
#
# Stress axis : x y z
#
# Youngs Moduli (GPa) = 25.19198 23.43368 54.66554
#
# Poissons Ratio (x) = 0.05202 1.18692
# Poissons Ratio (y) = 0.05592 -0.15396
# Poissons Ratio (z) = 0.54698 -0.06600
#
# Static dielectric constant tensor:
#      x y z
#    x 1.656900 0.000000 0.020390 
#    y 0.000000 1.738110 0.000000 
#    z 0.020390 0.000000 1.700300 
# 
# From -- ./inp_files/152707.got.cif
#   From: 2010.05.17/outbox.cif.g08.bks.cpg/sg12_77_cif.got.tgz:152707.got - 2010.06.03 13:09:07.
