data_PCOD9219081
_publ_section_title
;
Structure prediction by ZEFSAII (Michael W. Deem and Ramdas Pophale) SiO2 
 PCOD9219081
Probable space group: C 2/M
;
_chemical_formula_sum "Si O2"
_cell_formula_units_Z 44
_cell_length_a 21.715000
_cell_length_b 16.593045
_cell_length_c 6.675402
_cell_angle_alpha 90.000000
_cell_angle_beta 81.576136
_cell_angle_gamma 90.000000
_cell_volume 2379.317852
_symmetry_space_group_name_H-M "C 2/M"
_symmetry_group_IT_number 12
_symmetry_cell_setting 'monoclinic'
loop_
_space_group_symop_operation_xyz
x,y,z
-x,y,-z
-x,-y,-z
x,-y,z
1/2+x,1/2+y,z
1/2-x,1/2+y,-z
1/2-x,1/2-y,-z
1/2+x,1/2-y,z
loop_
_atom_site_type_symbol
_atom_site_label
_atom_site_fract_x
_atom_site_fract_y
_atom_site_fract_z
Si Si1 0.331363 0.656888 0.541190
Si Si2 0.196939 0.405068 0.479798
Si Si3 0.383677 0.784175 0.229232
Si Si4 0.000000 0.210542 0.000000
Si Si5 0.051235 0.091872 0.304738
Si Si6 0.808557 0.706089 0.872491
O O1 0.262856 0.620173 0.549405
O O2 0.353165 0.700539 0.325977
O O3 0.383067 0.599296 0.611329
O O4 0.329779 0.730292 0.697018
O O5 0.187538 0.500000 0.498612
O O6 0.141587 0.354714 0.613653
O O7 0.203317 0.374676 0.247505
O O8 0.456034 0.764510 0.163267
O O9 0.357639 0.805521 0.023769
O O10 0.958662 0.153245 0.874485
O O11 0.000000 0.109886 0.500000
O O12 0.042403 0.000000 0.239088
O O13 0.750000 0.750000 0.000000
#
# Coordination Sequence:
#
# PCOD9219081 Si02
#       6
#     8   8   8   4   8   8
#     4  11  20  38  63  90 122 159 196 241 303 367
#     4  11  24  39  61  94 125 152 195 260 312 347
#     4  11  22  39  63  87 120 160 210 244 290 362
#     4  12  23  40  63  86 118 176 212 236 287 358
#     4  11  23  37  56  89 129 158 194 246 296 354
#     4  11  19  38  62  86 118 158 198 241 295 366
#
# _framework density 18.492695000000001
#
# number of rings (size 3 to 8) (size 9 to 14) (size 15 to 20)
#    0.000    0.909    7.273    1.909    0.000    0.727 
#    0.000    2.273    0.000    1.091    0.000    0.000 
#    0.000    0.000    0.000    0.000    0.000    0.000 
#
# Total GULP energy -122695.831958 kJ/mol
# GULP energy per Si atom -5577.083271 kJ/mol
# Density = 1.845060 g / cm^3
# Si number density = 18.492695 Si / 1000 Ang^3
#
#
#
# Elastic Constant Matrix: (Units=GPa)
#
#
# Indices 1 2 3 4 5 6 
#
# 1 61.8925 33.2133 29.6652 0.0000 -8.9536 0.0000
# 2 33.2133 109.5902 40.6720 0.0000 -8.7564 0.0000
# 3 29.6652 40.6720 84.8741 0.0000 2.7834 0.0000
# 4 0.0000 0.0000 0.0000 23.8156 0.0000 1.0023
# 5 -8.9536 -8.7564 2.7834 0.0000 39.5754 0.0000
# 6 0.0000 0.0000 0.0000 1.0023 0.0000 13.9504
#
#
#
# Elastic Compliance Matrix: (Units=1/GPa)
#
#
# Indices 1 2 3 4 5 6 
#
# 1 0.021771 -0.004095 -0.005792 0.000000 0.004427 0.000000
# 2 -0.004095 0.012196 -0.004482 0.000000 0.002087 0.000000
# 3 -0.005792 -0.004482 0.016067 0.000000 -0.003432 0.000000
# 4 0.000000 0.000000 0.000000 0.042117 0.000000 -0.003026
# 5 0.004427 0.002087 -0.003432 0.000000 0.026973 0.000000
# 6 0.000000 0.000000 0.000000 -0.003026 0.000000 0.071900
#
#
# Mechanical properties :
#
#
# Convention : Reuss Voigt Hill
#
# Bulk Modulus (GPa) = 46.95615 51.49533 49.22574
# Shear Modulus (GPa) = 22.04007 25.65538 23.84772
#
# Velocity S-wave (km/s) = 3.45603 3.72872 3.59496
# Velocity P-wave (km/s) = 6.43214 6.81503 6.62635
#
# Compressibility (1/GPa) = 0.02129646
#
# Stress axis : x y z
#
# Youngs Moduli (GPa) = 45.93238 81.99483 62.23984
#
# Poissons Ratio (x) = 0.33574 0.36052
# Poissons Ratio (y) = 0.18808 0.27893
# Poissons Ratio (z) = 0.26606 0.36747
#
# Static dielectric constant tensor:
#      x y z
#    x 1.687060 0.000000 -0.029830 
#    y 0.000000 1.638190 0.000000 
#    z -0.029830 0.000000 1.712160 
# 
# From -- ./inp_files/20430.got.cif
#   From: 2010.05.17/outbox.cif.g08.bks.cpg/sg12_11_cif.got.tgz:20430.got - 2010.06.03 13:09:07.
