data_PCOD9219443
_publ_section_title
;
Structure prediction by ZEFSAII (Michael W. Deem and Ramdas Pophale) SiO2 
 PCOD9219443
Probable space group: C 2/M
;
_chemical_formula_sum "Si O2"
_cell_formula_units_Z 48
_cell_length_a 17.822142
_cell_length_b 16.468022
_cell_length_c 8.401161
_cell_angle_alpha 90.000000
_cell_angle_beta 87.951616
_cell_angle_gamma 90.000000
_cell_volume 2464.126746
_symmetry_space_group_name_H-M "C 2/M"
_symmetry_group_IT_number 12
_symmetry_cell_setting 'monoclinic'
loop_
_space_group_symop_operation_xyz
x,y,z
-x,y,-z
-x,-y,-z
x,-y,z
1/2+x,1/2+y,z
1/2-x,1/2+y,-z
1/2-x,1/2-y,-z
1/2+x,1/2-y,z
loop_
_atom_site_type_symbol
_atom_site_label
_atom_site_fract_x
_atom_site_fract_y
_atom_site_fract_z
Si Si1 0.085799 0.175222 0.347136
Si Si2 0.316420 0.344834 0.090921
Si Si3 0.578289 0.212031 0.085130
Si Si4 0.247658 0.711819 0.675406
Si Si5 0.439896 0.406667 0.318503
Si Si6 0.179741 0.407100 0.902966
O O1 0.174039 0.164063 0.315526
O O2 0.075563 0.155545 0.534750
O O3 0.025310 0.116758 0.264360
O O4 0.069857 0.263977 0.271674
O O5 0.367042 0.282109 0.987621
O O6 0.264024 0.288347 0.206883
O O7 0.376169 0.393618 0.192265
O O8 0.259366 0.395631 0.988065
O O9 0.617951 0.129314 0.028320
O O10 0.500000 0.218143 0.000000
O O11 0.250000 0.750000 0.500000
O O12 0.184903 0.649110 0.744053
O O13 0.437547 0.500000 0.373064
O O14 0.166268 0.500000 0.865633
#
# Coordination Sequence:
#
# PCOD9219443 Si02
#       6
#     8   8   8   8   8   8
#     4  11  20  38  59  82 120 158 195 230 287 351
#     4  11  20  39  60  88 118 154 196 237 284 356
#     4  11  21  39  63  84 112 156 205 234 286 353
#     4  11  21  39  63  84 113 159 202 229 282 355
#     4  11  24  36  55  92 125 150 190 241 296 345
#     4  11  24  39  60  90 120 146 192 253 291 331
#
# _framework density 19.479516
#
# number of rings (size 3 to 8) (size 9 to 14) (size 15 to 20)
#    0.000    1.000    6.667    2.500    0.000    1.667 
#    0.000    0.833    0.000    0.000    0.000    3.500 
#    0.000    0.000    0.000    0.000    0.000    0.000 
#
# Total GULP energy -133694.357157 kJ/mol
# GULP energy per Si atom -5570.598215 kJ/mol
# Density = 1.943518 g / cm^3
# Si number density = 19.479516 Si / 1000 Ang^3
#
#
#
# Elastic Constant Matrix: (Units=GPa)
#
#
# Indices 1 2 3 4 5 6 
#
# 1 76.6089 3.8638 20.3875 0.0000 0.0477 0.0000
# 2 3.8638 97.6000 44.1248 0.0000 -12.3297 0.0000
# 3 20.3875 44.1248 94.1361 0.0000 -0.2599 0.0000
# 4 0.0000 0.0000 0.0000 12.2831 0.0000 -2.1091
# 5 0.0477 -12.3297 -0.2599 0.0000 23.1919 0.0000
# 6 0.0000 0.0000 0.0000 -2.1091 0.0000 20.9231
#
#
#
# Elastic Compliance Matrix: (Units=1/GPa)
#
#
# Indices 1 2 3 4 5 6 
#
# 1 0.013939 0.001115 -0.003540 0.000000 0.000524 0.000000
# 2 0.001115 0.014275 -0.006912 0.000000 0.007510 0.000000
# 3 -0.003540 -0.006912 0.014620 0.000000 -0.003504 0.000000
# 4 0.000000 0.000000 0.000000 0.082846 0.000000 0.008351
# 5 0.000524 0.007510 -0.003504 0.000000 0.047071 0.000000
# 6 0.000000 0.000000 0.000000 0.008351 0.000000 0.048636
#
#
# Mechanical properties :
#
#
# Convention : Reuss Voigt Hill
#
# Bulk Modulus (GPa) = 41.39123 45.01080 43.20101
# Shear Modulus (GPa) = 20.15200 24.61089 22.38145
#
# Velocity S-wave (km/s) = 3.21989 3.55832 3.39333
# Velocity P-wave (km/s) = 5.92607 6.32765 6.13015
#
# Compressibility (1/GPa) = 0.02415971
#
# Stress axis : x y z
#
# Youngs Moduli (GPa) = 71.74211 70.05065 68.40034
#
# Poissons Ratio (x) = -0.07809 0.24213
# Poissons Ratio (y) = -0.07998 0.47279
# Poissons Ratio (z) = 0.25396 0.48419
#
# Static dielectric constant tensor:
#      x y z
#    x 1.738030 0.000000 -0.017280 
#    y 0.000000 1.661740 0.000000 
#    z -0.017280 0.000000 1.774190 
# 
# From -- ./inp_files/74544.got.cif
#   From: 2010.05.17/outbox.cif.g08.bks.cpg/sg12_38_cif.got.tgz:74544.got - 2010.06.03 13:09:07.
