data_PCOD9219566
_publ_section_title
;
Structure prediction by ZEFSAII (Michael W. Deem and Ramdas Pophale) SiO2 
 PCOD9219566
Probable space group: C 2/M
;
_chemical_formula_sum "Si O2"
_cell_formula_units_Z 32
_cell_length_a 21.256960
_cell_length_b 12.998139
_cell_length_c 9.355647
_cell_angle_alpha 90.000000
_cell_angle_beta 35.143143
_cell_angle_gamma 90.000000
_cell_volume 1487.965626
_symmetry_space_group_name_H-M "C 2/M"
_symmetry_group_IT_number 12
_symmetry_cell_setting 'monoclinic'
loop_
_space_group_symop_operation_xyz
x,y,z
-x,y,-z
-x,-y,-z
x,-y,z
1/2+x,1/2+y,z
1/2-x,1/2+y,-z
1/2-x,1/2-y,-z
1/2+x,1/2-y,z
loop_
_atom_site_type_symbol
_atom_site_label
_atom_site_fract_x
_atom_site_fract_y
_atom_site_fract_z
Si Si1 0.500000 0.824001 0.000000
Si Si2 0.389301 0.000000 0.060452
Si Si3 0.500000 0.179955 0.500000
Si Si4 0.486762 0.673747 0.776364
Si Si5 0.894578 0.500000 0.535947
Si Si6 0.848314 0.000000 0.522472
Si Si7 0.334394 0.500000 0.198639
O O1 0.402686 0.898637 0.131743
O O2 0.531360 0.751956 0.811895
O O3 0.495382 0.000000 0.764124
O O4 0.274949 0.000000 0.195599
O O5 0.548627 0.254335 0.288131
O O6 0.409089 0.102888 0.603452
O O7 0.584571 0.598453 0.551204
O O8 0.397226 0.599900 0.017296
O O9 0.787672 0.500000 0.637059
O O10 0.844318 0.000000 0.353737
#
# Coordination Sequence:
#
# PCOD9219566 Si02
#       7
#     4   4   4   8   4   4   4
#     4  11  20  41  66  94 134 167 224 267 318 388
#     4  11  24  40  64 100 131 168 221 269 324 381
#     4  11  26  47  64  94 140 179 218 261 332 398
#     4  11  23  45  67 100 132 174 219 269 332 390
#     4  11  25  47  63  96 138 176 218 272 322 393
#     4  11  24  41  70 104 132 164 219 285 325 380
#     4  11  23  43  73  98 132 166 223 283 322 380
#
# _framework density 21.505873000000001
#
# number of rings (size 3 to 8) (size 9 to 14) (size 15 to 20)
#    0.000    1.000    5.000    2.250    0.000    6.000 
#    9.000    0.000    0.000    0.000    0.000    0.000 
#    0.000    0.000    0.000    0.000    0.000    0.000 
#
# Total GULP energy -89435.377264 kJ/mol
# GULP energy per Si atom -5589.711079 kJ/mol
# Density = 2.145692 g / cm^3
# Si number density = 21.505873 Si / 1000 Ang^3
#
#
#
# Elastic Constant Matrix: (Units=GPa)
#
#
# Indices 1 2 3 4 5 6 
#
# 1 74.0902 40.4830 20.4969 0.0000 1.6024 0.0000
# 2 40.4830 150.1450 27.6634 0.0000 1.4641 0.0000
# 3 20.4969 27.6634 77.7173 0.0000 -22.3748 0.0000
# 4 0.0000 0.0000 0.0000 4.3046 0.0000 38.0669
# 5 1.6024 1.4641 -22.3748 0.0000 39.7817 0.0000
# 6 0.0000 0.0000 0.0000 38.0669 0.0000 187.1818
#
#
#
# Elastic Compliance Matrix: (Units=1/GPa)
#
#
# Indices 1 2 3 4 5 6 
#
# 1 0.016671 -0.003763 -0.003831 0.000000 -0.002688 0.000000
# 2 -0.003763 0.008115 -0.002313 0.000000 -0.001448 0.000000
# 3 -0.003831 -0.002313 0.017624 0.000000 0.010152 0.000000
# 4 0.000000 0.000000 0.000000 -0.290955 0.000000 0.059171
# 5 -0.002688 -0.001448 0.010152 0.000000 0.031008 0.000000
# 6 0.000000 0.000000 0.000000 0.059171 0.000000 -0.006691
#
#
# Mechanical properties :
#
#
# Convention : Reuss Voigt Hill
#
# Bulk Modulus (GPa) = 44.25663 53.24878 48.75270
# Shear Modulus (GPa) = -25.39594 60.47425 17.53915
#
# Velocity S-wave (km/s) = -3.44013 5.30857 2.85888
# Velocity P-wave (km/s) = 2.20096 7.89863 5.79796
#
# Compressibility (1/GPa) = 0.02259549
#
# Stress axis : x y z
#
# Youngs Moduli (GPa) = 59.98393 123.22743 56.74221
#
# Poissons Ratio (x) = 0.46369 0.21739
# Poissons Ratio (y) = 0.22571 0.13125
# Poissons Ratio (z) = 0.22981 0.28503
#
# Static dielectric constant tensor:
#      x y z
#    x 1.810320 0.000000 0.051990 
#    y 0.000000 1.785000 0.000000 
#    z 0.051990 0.000000 1.779300 
# 
# From -- ./inp_files/127376.got.cif
#   From: 2010.05.17/outbox.cif.g08.bks.cpg/sg12_64_cif.got.tgz:127376.got - 2010.06.03 13:09:07.
