data_PCOD9219605
_publ_section_title
;
Structure prediction by ZEFSAII (Michael W. Deem and Ramdas Pophale) SiO2 
 PCOD9219605
Probable space group: C 2/M
;
_chemical_formula_sum "Si O2"
_cell_formula_units_Z 48
_cell_length_a 15.941277
_cell_length_b 10.891324
_cell_length_c 21.980151
_cell_angle_alpha 90.000000
_cell_angle_beta 39.172359
_cell_angle_gamma 90.000000
_cell_volume 2410.541730
_symmetry_space_group_name_H-M "C 2/M"
_symmetry_group_IT_number 12
_symmetry_cell_setting 'monoclinic'
loop_
_space_group_symop_operation_xyz
x,y,z
-x,y,-z
-x,-y,-z
x,-y,z
1/2+x,1/2+y,z
1/2-x,1/2+y,-z
1/2-x,1/2-y,-z
1/2+x,1/2-y,z
loop_
_atom_site_type_symbol
_atom_site_label
_atom_site_fract_x
_atom_site_fract_y
_atom_site_fract_z
Si Si1 0.949255 0.000000 0.775661
Si Si2 0.216822 0.000000 0.702396
Si Si3 0.214673 0.751582 0.115613
Si Si4 0.725756 0.257490 0.777901
Si Si5 0.626767 0.500000 0.557358
Si Si6 0.941899 0.356089 0.904690
Si Si7 0.606530 0.000000 0.517593
Si Si8 0.499027 0.271000 0.428379
O O1 0.860740 0.119281 0.835128
O O2 0.073526 0.000000 0.751271
O O3 0.017279 0.000000 0.671980
O O4 0.224578 0.881312 0.739637
O O5 0.330869 0.000000 0.586117
O O6 0.257700 0.714698 0.159557
O O7 0.113356 0.668282 0.132834
O O8 0.345852 0.775279 0.001688
O O9 0.592384 0.184409 0.834855
O O10 0.859941 0.191827 0.679690
O O11 0.768966 0.500000 0.507972
O O12 0.606124 0.372917 0.533407
O O13 0.926760 0.500000 0.926981
O O14 0.532417 0.870956 0.570533
O O15 0.500000 0.274873 0.500000
#
# Coordination Sequence:
#
# PCOD9219605 Si02
#       8
#     4   4   8   8   4   8   4   8
#     4  11  20  44  69  93 134 180 219 273 335 404
#     4  11  23  44  70  95 132 181 226 279 331 406
#     4  11  24  45  69 100 133 179 227 273 336 406
#     4  12  25  42  70 100 134 175 230 273 341 400
#     4  11  25  42  70  99 135 174 228 282 343 400
#     4  11  26  45  68 100 138 178 222 285 337 401
#     4  11  24  47  72  92 135 185 230 275 349 406
#     4  12  24  44  66 100 135 178 223 281 341 410
#
# _framework density 19.912534999999998
#
# number of rings (size 3 to 8) (size 9 to 14) (size 15 to 20)
#    0.000    0.667    5.833    2.000    3.500    0.667 
#    3.000    0.833    0.000    0.000    0.000    0.000 
#    0.000    0.000    0.000    0.000    0.000    0.000 
#
# Total GULP energy -134084.894584 kJ/mol
# GULP energy per Si atom -5586.870608 kJ/mol
# Density = 1.986721 g / cm^3
# Si number density = 19.912535 Si / 1000 Ang^3
#
#
#
# Elastic Constant Matrix: (Units=GPa)
#
#
# Indices 1 2 3 4 5 6 
#
# 1 141.8420 53.1308 55.9705 0.0000 -0.3628 0.0000
# 2 53.1308 77.0150 10.5610 0.0000 -3.5292 0.0000
# 3 55.9705 10.5610 75.8293 0.0000 -16.4592 0.0000
# 4 0.0000 0.0000 0.0000 34.3805 0.0000 -0.5765
# 5 -0.3628 -3.5292 -16.4592 0.0000 28.6986 0.0000
# 6 0.0000 0.0000 0.0000 -0.5765 0.0000 46.0634
#
#
#
# Elastic Compliance Matrix: (Units=1/GPa)
#
#
# Indices 1 2 3 4 5 6 
#
# 1 0.014910 -0.009069 -0.011357 0.000000 -0.007440 0.000000
# 2 -0.009069 0.018765 0.005205 0.000000 0.005178 0.000000
# 3 -0.011357 0.005205 0.023932 0.000000 0.014222 0.000000
# 4 0.000000 0.000000 0.000000 0.029092 0.000000 0.000364
# 5 -0.007440 0.005178 0.014222 0.000000 0.043544 0.000000
# 6 0.000000 0.000000 0.000000 0.000364 0.000000 0.021714
#
#
# Mechanical properties :
#
#
# Convention : Reuss Voigt Hill
#
# Bulk Modulus (GPa) = 36.81391 59.33456 48.07423
# Shear Modulus (GPa) = 26.11589 33.49678 29.80633
#
# Velocity S-wave (km/s) = 3.62543 4.10591 3.87313
# Velocity P-wave (km/s) = 6.00441 7.23466 6.64805
#
# Compressibility (1/GPa) = 0.02716365
#
# Stress axis : x y z
#
# Youngs Moduli (GPa) = 67.07090 53.29133 41.78475
#
# Poissons Ratio (x) = 0.48332 0.47454
# Poissons Ratio (y) = 0.60829 -0.21748
# Poissons Ratio (z) = 0.76171 -0.27736
#
# Static dielectric constant tensor:
#      x y z
#    x 1.714400 0.000000 -0.010800 
#    y 0.000000 1.828490 0.000000 
#    z -0.010800 0.000000 1.706660 
# 
# From -- ./inp_files/310254.got.cif
#   From: 2010.05.17/outbox.cif.g08.bks.cpg/sg12_156_cif.got.tgz:310254.got - 2010.06.03 13:09:07.
