data_PCOD9219084
_publ_section_title
;
Structure prediction by ZEFSAII (Michael W. Deem and Ramdas Pophale) SiO2 
 PCOD9219084
Probable space group: C 2/M
;
_chemical_formula_sum "Si O2"
_cell_formula_units_Z 64
_cell_length_a 19.467426
_cell_length_b 30.806477
_cell_length_c 13.972241
_cell_angle_alpha 90.000000
_cell_angle_beta 156.417017
_cell_angle_gamma 90.000000
_cell_volume 3352.432646
_symmetry_space_group_name_H-M "C 2/M"
_symmetry_group_IT_number 12
_symmetry_cell_setting 'monoclinic'
loop_
_space_group_symop_operation_xyz
x,y,z
-x,y,-z
-x,-y,-z
x,-y,z
1/2+x,1/2+y,z
1/2-x,1/2+y,-z
1/2-x,1/2-y,-z
1/2+x,1/2-y,z
loop_
_atom_site_type_symbol
_atom_site_label
_atom_site_fract_x
_atom_site_fract_y
_atom_site_fract_z
Si Si1 0.683695 0.639734 0.185088
Si Si2 0.123415 0.450991 0.564528
Si Si3 0.544870 0.209129 0.444601
Si Si4 0.598651 0.694066 0.524867
Si Si5 0.835777 0.418733 0.065466
Si Si6 0.530940 0.547268 0.425012
Si Si7 0.176686 0.612449 0.170747
Si Si8 0.287581 0.667610 0.996448
O O1 0.748417 0.589879 0.266158
O O2 0.827304 0.670190 0.419245
O O3 0.500000 0.642583 0.000000
O O4 0.674065 0.659692 0.065963
O O5 0.197286 0.500000 0.656759
O O6 0.000000 0.448217 0.500000
O O7 0.000272 0.443691 0.315268
O O8 0.500000 0.204212 0.500000
O O9 0.630053 0.255882 0.538105
O O10 0.353230 0.204534 0.157841
O O11 0.500000 0.694066 0.500000
O O12 0.758980 0.662128 0.742186
O O13 0.463106 0.674908 0.276438
O O14 0.658320 0.444490 0.857035
O O15 0.842680 0.404725 0.962963
O O16 0.809594 0.375286 0.092405
O O17 0.500000 0.547365 0.500000
O O18 0.596169 0.500000 0.479294
O O19 0.670587 0.584220 0.586229
O O20 0.000000 0.606820 0.000000
#
# Coordination Sequence:
#
# PCOD9219084 Si02
#       8
#     8   8   8   8   8   8   8   8
#     4  11  23  40  59  85 122 153 185 238 298 345
#     4  11  22  39  64  88 111 148 199 245 283 338
#     4   9  20  37  61  86 113 151 198 240 281 338
#     4  11  20  37  61  88 115 152 199 239 278 338
#     4  11  19  38  64  82 111 148 199 237 284 336
#     4   9  18  35  57  79 106 146 191 231 275 335
#     4  11  23  36  56  87 123 155 183 237 291 347
#     4  11  19  38  63  85 108 153 198 238 283 333
#
# _framework density 19.090613999999999
#
# number of rings (size 3 to 8) (size 9 to 14) (size 15 to 20)
#    0.000    1.500    5.000    1.500    0.000    2.500 
#    0.000    0.625    0.000    0.000    0.000    0.000 
#    0.000    0.000    0.000    0.000    0.000    0.000 
#
# Total GULP energy -178443.925250 kJ/mol
# GULP energy per Si atom -5576.372664 kJ/mol
# Density = 1.904716 g / cm^3
# Si number density = 19.090614 Si / 1000 Ang^3
#
#
#
# Elastic Constant Matrix: (Units=GPa)
#
#
# Indices 1 2 3 4 5 6 
#
# 1 61.2346 30.2040 36.9714 0.0000 13.7059 0.0000
# 2 30.2040 131.0799 30.6272 0.0000 21.0331 0.0000
# 3 36.9714 30.6272 79.2901 0.0001 4.8911 0.0000
# 4 0.0000 0.0000 0.0001 16.7045 0.0000 -5.4358
# 5 13.7059 21.0331 4.8911 0.0000 30.5828 0.0000
# 6 0.0000 0.0000 0.0000 -5.4358 0.0000 11.5275
#
#
#
# Elastic Compliance Matrix: (Units=1/GPa)
#
#
# Indices 1 2 3 4 5 6 
#
# 1 0.025655 -0.002083 -0.010642 0.000000 -0.008363 0.000000
# 2 -0.002083 0.009502 -0.002377 0.000000 -0.005221 0.000000
# 3 -0.010642 -0.002377 0.018277 0.000000 0.003481 0.000000
# 4 0.000000 0.000000 0.000000 0.070715 0.000000 0.033346
# 5 -0.008363 -0.005221 0.003481 0.000000 0.039480 0.000000
# 6 0.000000 0.000000 0.000000 0.033346 0.000000 0.102474
#
#
# Mechanical properties :
#
#
# Convention : Reuss Voigt Hill
#
# Bulk Modulus (GPa) = 43.04651 51.91219 47.47935
# Shear Modulus (GPa) = 16.44456 23.34975 19.89716
#
# Velocity S-wave (km/s) = 2.93814 3.50108 3.23189
# Velocity P-wave (km/s) = 5.84018 6.60265 6.23308
#
# Compressibility (1/GPa) = 0.02323069
#
# Stress axis : x y z
#
# Youngs Moduli (GPa) = 38.97831 105.23950 54.71212
#
# Poissons Ratio (x) = 0.21923 0.58225
# Poissons Ratio (y) = 0.08120 0.13005
# Poissons Ratio (z) = 0.41481 0.25015
#
# Static dielectric constant tensor:
#      x y z
#    x 1.633310 0.000000 -0.032980 
#    y 0.000000 1.707540 0.000000 
#    z -0.032980 0.000000 1.715560 
# 
# From -- ./inp_files/236021.got.cif
#   From: 2010.05.17/outbox.cif.g08.bks.cpg/sg12_119_cif.got.tgz:236021.got - 2010.06.03 13:09:07.
