data_PCOD9219172
_publ_section_title
;
Structure prediction by ZEFSAII (Michael W. Deem and Ramdas Pophale) SiO2 
 PCOD9219172
Probable space group: C 2/M
;
_chemical_formula_sum "Si O2"
_cell_formula_units_Z 56
_cell_length_a 20.563537
_cell_length_b 8.921342
_cell_length_c 26.655008
_cell_angle_alpha 90.000000
_cell_angle_beta 39.606995
_cell_angle_gamma 90.000000
_cell_volume 3117.448663
_symmetry_space_group_name_H-M "C 2/M"
_symmetry_group_IT_number 12
_symmetry_cell_setting 'monoclinic'
loop_
_space_group_symop_operation_xyz
x,y,z
-x,y,-z
-x,-y,-z
x,-y,z
1/2+x,1/2+y,z
1/2-x,1/2+y,-z
1/2-x,1/2-y,-z
1/2+x,1/2-y,z
loop_
_atom_site_type_symbol
_atom_site_label
_atom_site_fract_x
_atom_site_fract_y
_atom_site_fract_z
Si Si1 0.915585 0.172519 0.505462
Si Si2 0.097452 0.819514 0.332685
Si Si3 0.431095 0.179152 0.176628
Si Si4 0.392103 0.675842 0.092000
Si Si5 0.740509 0.177829 0.333310
Si Si6 0.846006 0.320822 0.914190
Si Si7 0.191048 0.179016 0.169889
O O1 0.823158 0.272277 0.579922
O O2 0.000000 0.174909 0.500000
O O3 0.982293 0.220039 0.417812
O O4 0.882095 0.000000 0.519658
O O5 0.175399 0.738600 0.324227
O O6 0.125847 0.786174 0.258655
O O7 0.108409 0.000000 0.333914
O O8 0.403223 0.251885 0.140008
O O9 0.350601 0.245494 0.263996
O O10 0.547435 0.214612 0.121739
O O11 0.419323 0.000000 0.180740
O O12 0.365820 0.500000 0.111892
O O13 0.304359 0.760963 0.113892
O O14 0.500000 0.688880 0.000000
O O15 0.749045 0.000000 0.325436
O O16 0.834205 0.500000 0.920117
O O17 0.848977 0.256888 0.856276
O O18 0.750000 0.250000 0.000000
O O19 0.192835 0.000000 0.162212
#
# Coordination Sequence:
#
# PCOD9219172 Si02
#       7
#     8   8   8   8   8   8   8
#     4   8  15  29  49  74 111 151 184 221 272 335
#     4   9  18  33  53  80 113 151 187 224 275 338
#     4  11  23  39  58  80 110 150 191 231 282 341
#     4  11  23  37  56  84 114 143 181 234 287 333
#     4  11  20  30  51  83 115 146 184 234 283 327
#     4  11  25  43  62  83 111 148 192 238 286 342
#     4  11  22  37  60  85 114 150 188 230 280 340
#
# _framework density 17.963407
#
# number of rings (size 3 to 8) (size 9 to 14) (size 15 to 20)
#    0.000    1.714    1.429    4.714    0.000    8.857 
#    0.000    0.000    0.000    0.857    0.000    0.000 
#    0.000    0.000    0.000    0.000    0.000    0.000 
#
# Total GULP energy -156376.958561 kJ/mol
# GULP energy per Si atom -5584.891377 kJ/mol
# Density = 1.792252 g / cm^3
# Si number density = 17.963407 Si / 1000 Ang^3
#
#
#
# Elastic Constant Matrix: (Units=GPa)
#
#
# Indices 1 2 3 4 5 6 
#
# 1 23.0151 4.8809 -8.9767 0.0002 -2.4228 -0.0004
# 2 4.8809 47.9534 29.7785 0.0002 -6.9295 -0.0006
# 3 -8.9767 29.7785 90.2044 0.0001 -4.3845 -0.0002
# 4 0.0002 0.0002 0.0001 27.7795 0.0000 3.4353
# 5 -2.4228 -6.9295 -4.3845 0.0000 20.8049 0.0001
# 6 -0.0004 -0.0006 -0.0002 3.4353 0.0001 25.6576
#
#
#
# Elastic Compliance Matrix: (Units=1/GPa)
#
#
# Indices 1 2 3 4 5 6 
#
# 1 0.049125 -0.009491 0.008230 0.000000 0.004294 0.000001
# 2 -0.009491 0.029109 -0.010241 0.000000 0.006432 0.000000
# 3 0.008230 -0.010241 0.015324 0.000000 0.000777 0.000000
# 4 0.000000 0.000000 0.000000 0.036604 0.000000 -0.004901
# 5 0.004294 0.006432 0.000777 0.000000 0.050872 0.000000
# 6 0.000001 0.000000 0.000000 -0.004901 0.000000 0.039631
#
#
# Mechanical properties :
#
#
# Convention : Reuss Voigt Hill
#
# Bulk Modulus (GPa) = 14.17350 23.61537 18.89443
# Shear Modulus (GPa) = 18.71366 23.88107 21.29736
#
# Velocity S-wave (km/s) = 3.23114 3.65009 3.44699
# Velocity P-wave (km/s) = 4.67201 5.56229 5.13648
#
# Compressibility (1/GPa) = 0.07055421
#
# Stress axis : x y z
#
# Youngs Moduli (GPa) = 20.35634 34.35402 65.25877
#
# Poissons Ratio (x) = 0.32604 -0.53711
# Poissons Ratio (y) = 0.19319 0.66833
# Poissons Ratio (z) = -0.16754 0.35183
#
# Static dielectric constant tensor:
#      x y z
#    x 1.583700 0.000000 0.011540 
#    y 0.000000 1.597030 0.000000 
#    z 0.011540 0.000000 1.648160 
# 
# From -- ./inp_files/362913.got.cif
#   From: 2010.05.17/outbox.cif.g08.bks.cpg/sg12_182_cif.got.tgz:362913.got - 2010.06.03 13:09:07.
