data_PCOD9219747
_publ_section_title
;
Structure prediction by ZEFSAII (Michael W. Deem and Ramdas Pophale) SiO2 
 PCOD9219747
Probable space group: C 2/M
;
_chemical_formula_sum "Si O2"
_cell_formula_units_Z 56
_cell_length_a 10.559371
_cell_length_b 23.068198
_cell_length_c 15.650337
_cell_angle_alpha 90.000000
_cell_angle_beta 59.580741
_cell_angle_gamma 90.000000
_cell_volume 3287.423991
_symmetry_space_group_name_H-M "C 2/M"
_symmetry_group_IT_number 12
_symmetry_cell_setting 'monoclinic'
loop_
_space_group_symop_operation_xyz
x,y,z
-x,y,-z
-x,-y,-z
x,-y,z
1/2+x,1/2+y,z
1/2-x,1/2+y,-z
1/2-x,1/2-y,-z
1/2+x,1/2-y,z
loop_
_atom_site_type_symbol
_atom_site_label
_atom_site_fract_x
_atom_site_fract_y
_atom_site_fract_z
Si Si1 0.668202 0.677236 0.947320
Si Si2 0.661388 0.312214 0.293230
Si Si3 0.548649 0.500000 0.623620
Si Si4 0.831694 0.681850 0.062453
Si Si5 0.837817 0.327073 0.716792
Si Si6 0.851839 0.874758 0.374994
Si Si7 0.261728 0.500000 0.616754
Si Si8 0.832876 0.374209 0.386955
O O1 0.666723 0.747766 0.944619
O O2 0.762024 0.658842 0.833360
O O3 0.500000 0.657659 0.000000
O O4 0.741769 0.660079 0.011450
O O5 0.753405 0.331830 0.178400
O O6 0.658908 0.242567 0.294670
O O7 0.496945 0.336493 0.341305
O O8 0.741072 0.336747 0.349875
O O9 0.594068 0.440954 0.654226
O O10 0.378103 0.500000 0.654541
O O11 0.639317 0.500000 0.503327
O O12 0.000000 0.662224 0.000000
O O13 0.740116 0.352943 0.674154
O O14 0.002858 0.350933 0.659648
O O15 0.750523 0.871690 0.493931
O O16 0.171271 0.440707 0.643971
#
# Coordination Sequence:
#
# PCOD9219747 Si02
#       8
#     8   8   4   8   8   8   4   8
#     4   9  17  32  50  70 104 141 173 215 258 308
#     4  11  21  34  54  81 112 146 179 210 264 336
#     4   9  18  37  59  75  95 136 198 234 247 295
#     4   9  17  30  50  74 100 136 180 220 256 298
#     4  11  23  34  50  85 118 139 172 215 274 333
#     4  11  22  36  55  78 108 148 184 216 259 315
#     4   9  18  37  59  75  95 137 194 235 255 289
#     4  11  22  36  55  78 110 145 179 224 262 305
#
# _framework density 17.034614999999999
#
# number of rings (size 3 to 8) (size 9 to 14) (size 15 to 20)
#    0.000    1.857    1.429    3.429    0.000    8.571 
#    0.000    2.143    0.000    0.000    0.000   20.000 
#    0.000    0.000    0.000    0.000    0.000    0.000 
#
# Total GULP energy -156283.979608 kJ/mol
# GULP energy per Si atom -5581.570700 kJ/mol
# Density = 1.699584 g / cm^3
# Si number density = 17.034615 Si / 1000 Ang^3
#
#
#
# Elastic Constant Matrix: (Units=GPa)
#
#
# Indices 1 2 3 4 5 6 
#
# 1 164.7613 52.9270 58.8129 0.0000 1.2940 0.0000
# 2 52.9270 93.7023 34.2429 0.0000 1.9916 0.0000
# 3 58.8129 34.2429 98.4089 0.0000 0.0425 0.0000
# 4 0.0000 0.0000 0.0000 -8.2017 0.0000 3.5184
# 5 1.2940 1.9916 0.0425 0.0000 31.2307 0.0000
# 6 0.0000 0.0000 0.0000 3.5184 0.0000 -14.2713
#
#
#
# Elastic Compliance Matrix: (Units=1/GPa)
#
#
# Indices 1 2 3 4 5 6 
#
# 1 0.008567 -0.003397 -0.003938 0.000000 -0.000133 0.000000
# 2 -0.003397 0.013593 -0.002699 0.000000 -0.000722 0.000000
# 3 -0.003938 -0.002699 0.013454 0.000000 0.000317 0.000000
# 4 0.000000 0.000000 0.000000 -0.136345 0.000000 -0.033614
# 5 -0.000133 -0.000722 0.000317 0.000000 0.032071 0.000000
# 6 0.000000 0.000000 0.000000 -0.033614 0.000000 -0.078358
#
#
# Mechanical properties :
#
#
# Convention : Reuss Voigt Hill
#
# Bulk Modulus (GPa) = 64.32716 72.09313 68.21014
# Shear Modulus (GPa) = -41.06206 15.81085 -12.62560
#
# Velocity S-wave (km/s) = -4.91502 3.04988 -2.72540
# Velocity P-wave (km/s) = 2.37376 7.40377 5.49775
#
# Compressibility (1/GPa) = 0.01554553
#
# Stress axis : x y z
#
# Youngs Moduli (GPa) = 116.72040 73.56839 74.32582
#
# Poissons Ratio (x) = 0.24994 0.29270
# Poissons Ratio (y) = 0.39654 0.20062
# Poissons Ratio (z) = 0.45965 0.19857
#
# Static dielectric constant tensor:
#      x y z
#    x 1.562780 0.000000 -0.000830 
#    y 0.000000 1.566810 0.000000 
#    z -0.000830 0.000000 1.564030 
# 
# From -- ./inp_files/198827.got.cif
#   From: 2010.05.17/outbox.cif.g08.bks.cpg/sg12_100_cif.got.tgz:198827.got - 2010.06.03 13:09:07.
