data_PCOD9219233
_publ_section_title
;
Structure prediction by ZEFSAII (Michael W. Deem and Ramdas Pophale) SiO2 
 PCOD9219233
Probable space group: C 2/M
;
_chemical_formula_sum "Si O2"
_cell_formula_units_Z 56
_cell_length_a 10.000729
_cell_length_b 28.349961
_cell_length_c 18.116658
_cell_angle_alpha 90.000000
_cell_angle_beta 142.143310
_cell_angle_gamma 90.000000
_cell_volume 3152.174375
_symmetry_space_group_name_H-M "C 2/M"
_symmetry_group_IT_number 12
_symmetry_cell_setting 'monoclinic'
loop_
_space_group_symop_operation_xyz
x,y,z
-x,y,-z
-x,-y,-z
x,-y,z
1/2+x,1/2+y,z
1/2-x,1/2+y,-z
1/2-x,1/2-y,-z
1/2+x,1/2-y,z
loop_
_atom_site_type_symbol
_atom_site_label
_atom_site_fract_x
_atom_site_fract_y
_atom_site_fract_z
Si Si1 0.126378 0.055610 0.214426
Si Si2 0.367910 0.056869 0.014598
Si Si3 0.062665 0.400147 0.354200
Si Si4 0.260752 0.055371 0.709383
Si Si5 0.746679 0.696514 0.584058
Si Si6 0.753929 0.799888 0.592086
Si Si7 0.367022 0.400624 0.626925
O O1 0.316255 0.082826 0.254432
O O2 0.156455 0.063969 0.315254
O O3 0.881401 0.072929 0.090216
O O4 0.144227 0.000000 0.205436
O O5 0.353553 0.000000 0.000143
O O6 0.500000 0.074268 0.000000
O O7 0.513413 0.066006 0.149613
O O8 0.201601 0.432881 0.359626
O O9 0.094996 0.347555 0.335847
O O10 0.168085 0.401511 0.482029
O O11 0.075791 0.085773 0.668999
O O12 0.210247 0.000000 0.697483
O O13 0.500000 0.684750 0.500000
O O14 0.815133 0.747416 0.646577
O O15 0.728492 0.701837 0.488297
O O16 0.500000 0.806077 0.500000
O O17 0.877130 0.847913 0.666305
#
# Coordination Sequence:
#
# PCOD9219233 Si02
#       7
#     8   8   8   8   8   8   8
#     4  11  22  35  53  74 103 140 174 214 253 293
#     4   9  18  37  57  71  90 130 190 229 243 280
#     4  11  22  33  48  80 113 135 164 205 263 321
#     4  11  22  35  53  74 103 142 178 212 249 300
#     4   9  17  32  50  69 102 140 169 205 246 295
#     4   9  17  30  50  73  98 134 175 209 244 291
#     4  11  20  33  52  78 109 139 168 205 256 318
#
# _framework density 17.765515000000001
#
# number of rings (size 3 to 8) (size 9 to 14) (size 15 to 20)
#    0.000    1.857    1.429    5.143    0.000    4.000 
#    0.000    2.143    0.000    0.000    0.000    6.000 
#    0.000    0.000    0.000    0.000    0.000    0.000 
#
# Total GULP energy -156068.981981 kJ/mol
# GULP energy per Si atom -5573.892214 kJ/mol
# Density = 1.772508 g / cm^3
# Si number density = 17.765515 Si / 1000 Ang^3
#
#
#
# Elastic Constant Matrix: (Units=GPa)
#
#
# Indices 1 2 3 4 5 6 
#
# 1 94.8739 19.8655 10.8976 0.0000 32.1477 0.0000
# 2 19.8655 89.9837 31.6422 0.0000 27.3568 0.0000
# 3 10.8976 31.6422 43.4925 0.0000 22.7198 0.0000
# 4 0.0000 0.0000 0.0000 -8.7110 0.0000 3.8578
# 5 32.1477 27.3568 22.7198 0.0000 34.0937 0.0000
# 6 0.0000 0.0000 0.0000 3.8578 0.0000 25.7751
#
#
#
# Elastic Compliance Matrix: (Units=1/GPa)
#
#
# Indices 1 2 3 4 5 6 
#
# 1 0.016491 0.000254 0.006002 0.000000 -0.019753 0.000000
# 2 0.000254 0.016214 -0.007576 0.000000 -0.008202 0.000000
# 3 0.006002 -0.007576 0.041083 0.000000 -0.026958 0.000000
# 4 0.000000 0.000000 0.000000 -0.107661 0.000000 0.016114
# 5 -0.019753 -0.008202 -0.026958 0.000000 0.072502 0.000000
# 6 0.000000 0.000000 0.000000 0.016114 0.000000 0.036385
#
#
# Mechanical properties :
#
#
# Convention : Reuss Voigt Hill
#
# Bulk Modulus (GPa) = 14.05507 39.24008 26.64757
# Shear Modulus (GPa) = 49.32403 21.29454 35.30928
#
# Velocity S-wave (km/s) = 5.27486 3.46590 4.46300
# Velocity P-wave (km/s) = 6.71026 6.17676 6.44903
#
# Compressibility (1/GPa) = 0.07114869
#
# Stress axis : x y z
#
# Youngs Moduli (GPa) = 60.63892 61.67340 24.34122
#
# Poissons Ratio (x) = -0.01568 -0.14609
# Poissons Ratio (y) = -0.01541 0.18440
# Poissons Ratio (z) = -0.36395 0.46723
#
# Static dielectric constant tensor:
#      x y z
#    x 1.598130 0.000000 -0.005660 
#    y 0.000000 1.691910 0.000000 
#    z -0.005660 0.000000 1.602320 
# 
# From -- ./inp_files/125346.got.cif
#   From: 2010.05.17/outbox.cif.g08.bks.cpg/sg12_63_cif.got.tgz:125346.got - 2010.06.03 13:09:07.
