data_PCOD9219135
_publ_section_title
;
Structure prediction by ZEFSAII (Michael W. Deem and Ramdas Pophale) SiO2 
 PCOD9219135
Probable space group: C 2/M
;
_chemical_formula_sum "Si O2"
_cell_formula_units_Z 40
_cell_length_a 28.632142
_cell_length_b 7.863125
_cell_length_c 26.815094
_cell_angle_alpha 90.000000
_cell_angle_beta 159.477053
_cell_angle_gamma 90.000000
_cell_volume 2116.501425
_symmetry_space_group_name_H-M "C 2/M"
_symmetry_group_IT_number 12
_symmetry_cell_setting 'monoclinic'
loop_
_space_group_symop_operation_xyz
x,y,z
-x,y,-z
-x,-y,-z
x,-y,z
1/2+x,1/2+y,z
1/2-x,1/2+y,-z
1/2-x,1/2-y,-z
1/2+x,1/2-y,z
loop_
_atom_site_type_symbol
_atom_site_label
_atom_site_fract_x
_atom_site_fract_y
_atom_site_fract_z
Si Si1 0.789674 0.203729 0.151920
Si Si2 0.289683 0.703730 0.427441
Si Si3 0.499994 0.708181 0.281011
Si Si4 0.499999 0.701494 0.167865
Si Si5 0.499996 0.708305 0.443133
O O1 0.871076 0.262932 0.184205
O O2 0.871586 0.262688 0.282334
O O3 0.799729 0.000000 0.161837
O O4 0.635839 0.248711 0.995138
O O5 0.299732 0.500000 0.437628
O O6 0.371086 0.762931 0.557961
O O7 0.371596 0.762686 0.460851
O O8 0.135849 0.748719 0.276554
O O9 0.499994 0.500000 0.279937
O O10 0.499993 0.772182 0.224556
O O11 0.499994 0.500000 0.172270
O O12 0.500000 0.767306 0.500000
O O13 0.499996 0.500000 0.444185
#
# Coordination Sequence:
#
# PCOD9219135 Si02
#       5
#     8   8   8   8   8
#     4   9  17  31  50  70  92 119 154 192 230 270
#     4   9  17  31  50  70  92 119 154 192 230 270
#     4   8  16  30  47  67  92 125 159 189 221 263
#     4  11  20  29  43  68 102 129 151 182 222 271
#     4   8  15  31  55  75  87 108 151 202 239 269
#
# _framework density 18.899113
#
# number of rings (size 3 to 8) (size 9 to 14) (size 15 to 20)
#    0.000    3.000    0.000    4.200    0.000    0.000 
#    0.000    7.000    0.000    8.400    0.000    0.000 
#    0.000    0.000    0.000    0.000    0.000    0.000 
#
# Total GULP energy -111523.430107 kJ/mol
# GULP energy per Si atom -5576.171505 kJ/mol
# Density = 1.885610 g / cm^3
# Si number density = 18.899113 Si / 1000 Ang^3
#
#
#
# Elastic Constant Matrix: (Units=GPa)
#
#
# Indices 1 2 3 4 5 6 
#
# 1 155.9316 11.0254 109.7840 0.0001 -11.3858 0.0000
# 2 11.0254 16.1410 4.2929 0.0003 -1.9754 0.0001
# 3 109.7840 4.2929 189.0964 0.0006 21.0635 0.0002
# 4 0.0001 0.0003 0.0006 0.5527 0.0002 -2.7963
# 5 -11.3858 -1.9754 21.0635 0.0002 13.1873 0.0001
# 6 0.0000 0.0001 0.0002 -2.7963 0.0001 10.1002
#
#
#
# Elastic Compliance Matrix: (Units=1/GPa)
#
#
# Indices 1 2 3 4 5 6 
#
# 1 0.024938 -0.005134 -0.020284 -0.000007 0.053161 -0.000002
# 2 -0.005134 0.065622 0.001082 0.000116 0.003669 0.000031
# 3 -0.020284 0.001082 0.023079 0.000010 -0.054213 0.000003
# 4 -0.000007 0.000116 0.000010 -4.514549 0.000073 -1.249900
# 5 0.053161 0.003669 -0.054213 0.000073 0.208871 0.000020
# 6 -0.000002 0.000031 0.000003 -1.249900 0.000020 -0.247039
#
#
# Mechanical properties :
#
#
# Convention : Reuss Voigt Hill
#
# Bulk Modulus (GPa) = 15.39212 67.93039 41.66126
# Shear Modulus (GPa) = -1.14449 20.50582 9.68067
#
# Velocity S-wave (km/s) = -0.77903 3.29753 2.26570
# Velocity P-wave (km/s) = 2.71161 7.10774 5.37926
#
# Compressibility (1/GPa) = 0.06496830
#
# Stress axis : x y z
#
# Youngs Moduli (GPa) = 40.09865 15.23882 43.33009
#
# Poissons Ratio (x) = 0.07824 0.87889
# Poissons Ratio (y) = 0.20586 -0.04689
# Poissons Ratio (z) = 0.81335 -0.01649
#
# Static dielectric constant tensor:
#      x y z
#    x 1.657610 0.000000 0.016590 
#    y 0.000000 1.684450 0.000000 
#    z 0.016590 0.000000 1.714260 
# 
# From -- ./inp_files/50431.got.cif
#   From: 2010.05.17/outbox.cif.g08.bks.cpg/sg12_26_cif.got.tgz:50431.got - 2010.06.03 13:09:07.
