data_PCOD9219887
_publ_section_title
;
Structure prediction by ZEFSAII (Michael W. Deem and Ramdas Pophale) SiO2 
 PCOD9219887
Probable space group: C 2/M
;
_chemical_formula_sum "Si O2"
_cell_formula_units_Z 48
_cell_length_a 9.280914
_cell_length_b 22.086565
_cell_length_c 14.669048
_cell_angle_alpha 90.000000
_cell_angle_beta 117.714641
_cell_angle_gamma 90.000000
_cell_volume 2661.944305
_symmetry_space_group_name_H-M "C 2/M"
_symmetry_group_IT_number 12
_symmetry_cell_setting 'monoclinic'
loop_
_space_group_symop_operation_xyz
x,y,z
-x,y,-z
-x,-y,-z
x,-y,z
1/2+x,1/2+y,z
1/2-x,1/2+y,-z
1/2-x,1/2-y,-z
1/2+x,1/2-y,z
loop_
_atom_site_type_symbol
_atom_site_label
_atom_site_fract_x
_atom_site_fract_y
_atom_site_fract_z
Si Si1 0.264448 0.684710 0.243920
Si Si2 0.557983 0.128059 0.913797
Si Si3 0.414192 0.630286 0.741671
Si Si4 0.055615 0.000000 0.169495
Si Si5 0.233224 0.500000 0.953848
Si Si6 0.835713 0.796144 0.901777
Si Si7 0.684583 0.776477 0.574684
O O1 0.413351 0.644006 0.254834
O O2 0.248119 0.737295 0.163746
O O3 0.299185 0.722399 0.346083
O O4 0.095227 0.647740 0.194007
O O5 0.621602 0.059523 0.924347
O O6 0.710657 0.169204 0.929890
O O7 0.500000 0.137007 0.000000
O O8 0.405782 0.559410 0.760206
O O9 0.390766 0.661551 0.833731
O O10 0.283012 0.665559 0.640895
O O11 0.166585 0.000000 0.111257
O O12 0.869319 0.000000 0.075063
O O13 0.000000 0.778745 0.000000
O O14 0.500000 0.793350 0.500000
O O15 0.750000 0.750000 0.500000
#
# Coordination Sequence:
#
# PCOD9219887 Si02
#       7
#     8   8   8   4   4   8   8
#     4  11  24  38  61  94 123 158 207 265 320 375
#     4  12  24  37  58  89 128 169 215 254 303 370
#     4  11  23  40  63  91 123 165 211 253 313 376
#     4  11  22  40  65  87 129 172 220 250 300 372
#     4  11  23  40  60  88 126 187 214 247 295 368
#     4  11  21  36  57  86 127 165 204 256 312 374
#     4  11  23  43  70  95 121 159 207 268 330 384
#
# _framework density 18.031934
#
# number of rings (size 3 to 8) (size 9 to 14) (size 15 to 20)
#    0.000    0.833    3.333    5.750    2.333    2.667 
#    0.000    0.417    0.000    3.000    0.000    0.000 
#    0.000    0.000    0.000    0.000    0.000    0.000 
#
# Total GULP energy -134144.845996 kJ/mol
# GULP energy per Si atom -5589.368583 kJ/mol
# Density = 1.799089 g / cm^3
# Si number density = 18.031934 Si / 1000 Ang^3
#
#
#
# Elastic Constant Matrix: (Units=GPa)
#
#
# Indices 1 2 3 4 5 6 
#
# 1 109.5227 46.1793 44.1705 0.0000 -0.4368 0.0000
# 2 46.1793 139.1787 57.3198 0.0000 -5.7305 0.0000
# 3 44.1705 57.3198 106.2556 0.0000 -3.6207 0.0000
# 4 0.0000 0.0000 0.0000 3.6471 0.0000 -5.4405
# 5 -0.4368 -5.7305 -3.6207 0.0000 25.9450 0.0000
# 6 0.0000 0.0000 0.0000 -5.4405 0.0000 27.0466
#
#
#
# Elastic Compliance Matrix: (Units=1/GPa)
#
#
# Indices 1 2 3 4 5 6 
#
# 1 0.011572 -0.002418 -0.003534 0.000000 -0.000833 0.000000
# 2 -0.002418 0.009790 -0.004224 0.000000 0.001532 0.000000
# 3 -0.003534 -0.004224 0.013188 0.000000 0.000848 0.000000
# 4 0.000000 0.000000 0.000000 0.391744 0.000000 0.078801
# 5 -0.000833 0.001532 0.000848 0.000000 0.038986 0.000000
# 6 0.000000 0.000000 0.000000 0.078801 0.000000 0.052824
#
#
# Mechanical properties :
#
#
# Convention : Reuss Voigt Hill
#
# Bulk Modulus (GPa) = 70.43596 72.25513 71.34554
# Shear Modulus (GPa) = 9.20489 25.14689 17.17589
#
# Velocity S-wave (km/s) = 2.26182 3.73845 3.08965
# Velocity P-wave (km/s) = 6.77995 7.66762 7.23741
#
# Compressibility (1/GPa) = 0.01419729
#
# Stress axis : x y z
#
# Youngs Moduli (GPa) = 86.41327 102.14493 75.82693
#
# Poissons Ratio (x) = 0.24702 0.26800
# Poissons Ratio (y) = 0.20898 0.32027
# Poissons Ratio (z) = 0.30542 0.43143
#
# Static dielectric constant tensor:
#      x y z
#    x 1.599700 0.000000 -0.000630 
#    y 0.000000 1.618130 0.000000 
#    z -0.000630 0.000000 1.611680 
# 
# From -- ./inp_files/197214.got.cif
#   From: 2010.05.17/outbox.cif.g08.bks.cpg/sg12_99_cif.got.tgz:197214.got - 2010.06.03 13:09:07.
