data_PCOD9219223
_publ_section_title
;
Structure prediction by ZEFSAII (Michael W. Deem and Ramdas Pophale) SiO2 
 PCOD9219223
Probable space group: C 2/M
;
_chemical_formula_sum "Si O2"
_cell_formula_units_Z 56
_cell_length_a 28.343852
_cell_length_b 18.589796
_cell_length_c 17.037678
_cell_angle_alpha 90.000000
_cell_angle_beta 156.849467
_cell_angle_gamma 90.000000
_cell_volume 3529.394555
_symmetry_space_group_name_H-M "C 2/M"
_symmetry_group_IT_number 12
_symmetry_cell_setting 'monoclinic'
loop_
_space_group_symop_operation_xyz
x,y,z
-x,y,-z
-x,-y,-z
x,-y,z
1/2+x,1/2+y,z
1/2-x,1/2+y,-z
1/2-x,1/2-y,-z
1/2+x,1/2-y,z
loop_
_atom_site_type_symbol
_atom_site_label
_atom_site_fract_x
_atom_site_fract_y
_atom_site_fract_z
Si Si1 0.462394 0.312477 0.209345
Si Si2 0.318380 0.199311 0.234485
Si Si3 0.029503 0.914998 0.173968
Si Si4 0.802258 0.914958 0.711455
Si Si5 0.848449 0.584293 0.143395
Si Si6 0.075520 0.334097 0.432543
Si Si7 0.898463 0.147076 0.285861
O O1 0.521593 0.366572 0.238513
O O2 0.531893 0.237773 0.322994
O O3 0.452366 0.345654 0.281194
O O4 0.324797 0.297417 0.974215
O O5 0.344398 0.132789 0.216035
O O6 0.381735 0.187339 0.414313
O O7 0.361856 0.272653 0.259330
O O8 0.138187 0.896569 0.281223
O O9 0.037037 0.000000 0.204134
O O10 0.907387 0.904608 0.936786
O O11 0.686010 0.870800 0.557403
O O12 0.774622 0.000000 0.668563
O O13 0.857315 0.500000 0.174211
O O14 0.962788 0.612517 0.270014
O O15 0.723968 0.602018 0.908318
O O16 0.000000 0.118989 0.500000
#
# Coordination Sequence:
#
# PCOD9219223 Si02
#       7
#     8   8   8   8   8   8   8
#     4  11  20  32  58  80 105 142 181 219 262 317
#     4  11  20  37  53  76 107 147 177 217 266 309
#     4   9  19  37  55  79 107 135 174 223 271 319
#     4   9  19  35  56  78 109 139 167 220 280 317
#     4  11  23  34  50  79 110 139 179 222 259 313
#     4  12  20  33  57  80 105 141 181 216 263 321
#     4  11  20  38  55  74 109 150 181 210 261 306
#
# _framework density 15.866744000000001
#
# number of rings (size 3 to 8) (size 9 to 14) (size 15 to 20)
#    0.000    1.429    5.714    2.571    0.000    4.857 
#    0.000    0.000    0.000    0.000    0.000    0.000 
#    0.000    6.286    0.000    0.000    0.000    0.000 
#
# Total GULP energy -156306.457041 kJ/mol
# GULP energy per Si atom -5582.373466 kJ/mol
# Density = 1.583063 g / cm^3
# Si number density = 15.866744 Si / 1000 Ang^3
#
#
#
# Elastic Constant Matrix: (Units=GPa)
#
#
# Indices 1 2 3 4 5 6 
#
# 1 114.9734 64.8529 55.1657 0.0000 17.8619 0.0000
# 2 64.8529 82.7595 46.7243 0.0000 15.3415 0.0000
# 3 55.1657 46.7243 90.4042 0.0000 13.9183 0.0000
# 4 0.0000 0.0000 0.0000 12.7866 0.0000 4.7824
# 5 17.8619 15.3415 13.9183 0.0000 27.4711 0.0000
# 6 0.0000 0.0000 0.0000 4.7824 0.0000 32.4138
#
#
#
# Elastic Compliance Matrix: (Units=1/GPa)
#
#
# Indices 1 2 3 4 5 6 
#
# 1 0.017239 -0.010261 -0.004743 0.000000 -0.003076 0.000000
# 2 -0.010261 0.023969 -0.005523 0.000000 -0.003915 0.000000
# 3 -0.004743 -0.005523 0.017202 0.000000 -0.002547 0.000000
# 4 0.000000 0.000000 0.000000 0.082775 0.000000 -0.012213
# 5 -0.003076 -0.003915 -0.002547 0.000000 0.041879 0.000000
# 6 0.000000 0.000000 0.000000 -0.012213 0.000000 0.032653
#
#
# Mechanical properties :
#
#
# Convention : Reuss Voigt Hill
#
# Bulk Modulus (GPa) = 57.61988 69.06920 63.34454
# Shear Modulus (GPa) = 19.04352 22.62724 20.83538
#
# Velocity S-wave (km/s) = 3.46817 3.78044 3.62767
# Velocity P-wave (km/s) = 7.24095 7.91713 7.58658
#
# Compressibility (1/GPa) = 0.01735512
#
# Stress axis : x y z
#
# Youngs Moduli (GPa) = 58.00731 41.72133 58.13178
#
# Poissons Ratio (x) = 0.42812 0.27569
# Poissons Ratio (y) = 0.59524 0.32109
# Poissons Ratio (z) = 0.27510 0.23045
#
# Static dielectric constant tensor:
#      x y z
#    x 1.514980 0.000000 0.003300 
#    y 0.000000 1.511360 0.000000 
#    z 0.003300 0.000000 1.537670 
# 
# From -- ./inp_files/296952.got.cif
#   From: 2010.05.17/outbox.cif.g08.bks.cpg/sg12_149_cif.got.tgz:296952.got - 2010.06.03 13:09:07.
