data_PCOD9219346
_publ_section_title
;
Structure prediction by ZEFSAII (Michael W. Deem and Ramdas Pophale) SiO2 
 PCOD9219346
Probable space group: C 2/M
;
_chemical_formula_sum "Si O2"
_cell_formula_units_Z 32
_cell_length_a 7.010531
_cell_length_b 14.000892
_cell_length_c 14.277462
_cell_angle_alpha 90.000000
_cell_angle_beta 116.922329
_cell_angle_gamma 90.000000
_cell_volume 1249.504977
_symmetry_space_group_name_H-M "C 2/M"
_symmetry_group_IT_number 12
_symmetry_cell_setting 'monoclinic'
loop_
_space_group_symop_operation_xyz
x,y,z
-x,y,-z
-x,-y,-z
x,-y,z
1/2+x,1/2+y,z
1/2-x,1/2+y,-z
1/2-x,1/2-y,-z
1/2+x,1/2-y,z
loop_
_atom_site_type_symbol
_atom_site_label
_atom_site_fract_x
_atom_site_fract_y
_atom_site_fract_z
Si Si1 0.852905 0.384586 0.093439
Si Si2 0.912235 0.668208 0.573340
Si Si3 0.551661 0.612966 0.864853
Si Si4 0.226277 0.822718 0.718009
O O1 0.904382 0.500000 0.104117
O O2 0.663071 0.367760 0.125418
O O3 0.052815 0.324947 0.175076
O O4 0.755405 0.354368 0.972001
O O5 0.750000 0.750000 0.500000
O O6 0.788425 0.623228 0.634594
O O7 0.000000 0.615625 0.500000
O O8 0.114050 0.725146 0.661299
O O9 0.572524 0.500000 0.875741
O O10 0.563929 0.635571 0.758222
#
# Coordination Sequence:
#
# PCOD9219346 Si02
#       4
#     8   8   8   8
#     4   9  19  36  59  89 121 150 183 224 276 343
#     4   9  22  40  57  78 103 147 197 245 288 328
#     4   9  19  36  59  89 121 151 183 222 276 346
#     4  11  20  35  64  81 109 151 196 230 284 342
#
# _framework density 25.610142
#
# number of rings (size 3 to 8) (size 9 to 14) (size 15 to 20)
#    0.000    2.500    0.000    3.000    7.000    2.000 
#    0.000    5.000    0.000   30.000    0.000    0.000 
#    0.000    0.000    0.000    0.000    0.000    0.000 
#
# Total GULP energy -89382.812272 kJ/mol
# GULP energy per Si atom -5586.425767 kJ/mol
# Density = 2.555185 g / cm^3
# Si number density = 25.610142 Si / 1000 Ang^3
#
#
#
# Elastic Constant Matrix: (Units=GPa)
#
#
# Indices 1 2 3 4 5 6 
#
# 1 139.3836 16.3083 66.8391 0.0000 -21.8266 0.0000
# 2 16.3083 73.0550 25.2137 0.0000 6.2390 0.0000
# 3 66.8391 25.2137 156.5634 0.0000 -32.8793 0.0000
# 4 0.0000 0.0000 0.0000 64.3579 0.0000 71.4085
# 5 -21.8266 6.2390 -32.8793 0.0000 90.9162 0.0000
# 6 0.0000 0.0000 0.0000 71.4085 0.0000 121.3889
#
#
#
# Elastic Compliance Matrix: (Units=1/GPa)
#
#
# Indices 1 2 3 4 5 6 
#
# 1 0.009134 -0.000896 -0.003552 0.000000 0.000970 0.000000
# 2 -0.000896 0.014922 -0.002468 0.000000 -0.002132 0.000000
# 3 -0.003552 -0.002468 0.008828 0.000000 0.002509 0.000000
# 4 0.000000 0.000000 0.000000 0.044741 0.000000 -0.026319
# 5 0.000970 -0.002132 0.002509 0.000000 0.012286 0.000000
# 6 0.000000 0.000000 0.000000 -0.026319 0.000000 0.023721
#
#
# Mechanical properties :
#
#
# Convention : Reuss Voigt Hill
#
# Bulk Modulus (GPa) = 52.48645 65.08047 58.78346
# Shear Modulus (GPa) = 37.36517 72.70864 55.03691
#
# Velocity S-wave (km/s) = 3.82383 5.33406 4.64079
# Velocity P-wave (km/s) = 6.32728 7.96263 7.19159
#
# Compressibility (1/GPa) = 0.01905254
#
# Stress axis : x y z
#
# Youngs Moduli (GPa) = 109.47783 67.01371 113.27786
#
# Poissons Ratio (x) = 0.06006 0.40231
# Poissons Ratio (y) = 0.09811 0.27960
# Poissons Ratio (z) = 0.38881 0.16541
#
# Static dielectric constant tensor:
#      x y z
#    x 2.064450 0.000000 -0.000950 
#    y 0.000000 2.072460 0.000000 
#    z -0.000950 0.000000 2.050900 
# 
# From -- ./inp_files/118678.got.cif
#   From: 2010.05.17/outbox.cif.g08.bks.cpg/sg12_60_cif.got.tgz:118678.got - 2010.06.03 13:09:07.
