data_PCOD9219679
_publ_section_title
;
Structure prediction by ZEFSAII (Michael W. Deem and Ramdas Pophale) SiO2 
 PCOD9219679
Probable space group: C 2/M
;
_chemical_formula_sum "Si O2"
_cell_formula_units_Z 56
_cell_length_a 30.259183
_cell_length_b 7.672458
_cell_length_c 14.606982
_cell_angle_alpha 90.000000
_cell_angle_beta 119.928366
_cell_angle_gamma 90.000000
_cell_volume 2938.974910
_symmetry_space_group_name_H-M "C 2/M"
_symmetry_group_IT_number 12
_symmetry_cell_setting 'monoclinic'
loop_
_space_group_symop_operation_xyz
x,y,z
-x,y,-z
-x,-y,-z
x,-y,z
1/2+x,1/2+y,z
1/2-x,1/2+y,-z
1/2-x,1/2-y,-z
1/2+x,1/2-y,z
loop_
_atom_site_type_symbol
_atom_site_label
_atom_site_fract_x
_atom_site_fract_y
_atom_site_fract_z
Si Si1 0.381622 0.786843 0.700415
Si Si2 0.277377 0.296197 0.249372
Si Si3 0.507741 0.213667 0.114937
Si Si4 0.807211 0.697888 0.090609
Si Si5 0.333429 0.210466 0.836030
Si Si6 0.402060 0.210733 0.075753
Si Si7 0.203203 0.291767 0.521228
O O1 0.438756 0.730985 0.784596
O O2 0.346568 0.728407 0.748984
O O3 0.350345 0.731670 0.578766
O O4 0.382388 0.000000 0.700478
O O5 0.277290 0.500000 0.225426
O O6 0.310047 0.209983 0.203302
O O7 0.220017 0.222633 0.182436
O O8 0.290582 0.278750 0.369770
O O9 0.460141 0.272739 0.128258
O O10 0.508194 0.000000 0.113291
O O11 0.500000 0.266384 0.000000
O O12 0.809759 0.500000 0.061394
O O13 0.858080 0.780573 0.098351
O O14 0.750000 0.750000 0.000000
O O15 0.328414 0.000000 0.825806
O O16 0.378787 0.246129 0.951632
O O17 0.405890 0.000000 0.092064
O O18 0.202071 0.500000 0.527481
O O19 0.250000 0.250000 0.500000
#
# Coordination Sequence:
#
# PCOD9219679 Si02
#       7
#     8   8   8   8   8   8   8
#     4   9  16  26  43  70 104 134 163 204 250 300
#     4  11  21  35  52  72 102 136 175 216 256 299
#     4   9  14  22  42  71 101 132 164 199 252 307
#     4  11  21  33  50  75 106 138 171 208 255 306
#     4   9  14  24  43  70 101 129 154 196 247 294
#     4   9  16  26  43  70 104 134 163 204 250 300
#     4  11  21  33  50  75 106 138 171 208 255 306
#
# _framework density 19.054264
#
# number of rings (size 3 to 8) (size 9 to 14) (size 15 to 20)
#    0.000    2.143    4.286    1.286    0.000    0.000 
#    0.000    0.000    0.000    0.857    0.000   10.000 
#    0.000    6.857    0.000    0.000    0.000    0.000 
#
# Total GULP energy -156016.044856 kJ/mol
# GULP energy per Si atom -5572.001602 kJ/mol
# Density = 1.901090 g / cm^3
# Si number density = 19.054264 Si / 1000 Ang^3
#
#
#
# Elastic Constant Matrix: (Units=GPa)
#
#
# Indices 1 2 3 4 5 6 
#
# 1 121.5344 0.8087 44.8135 0.0000 6.5016 0.0000
# 2 0.8087 34.7964 -8.4079 0.0000 3.6430 0.0000
# 3 44.8135 -8.4079 68.1590 0.0000 9.4251 0.0000
# 4 0.0000 0.0000 0.0000 13.8652 0.0000 -2.3740
# 5 6.5016 3.6430 9.4251 0.0000 32.1066 0.0000
# 6 0.0000 0.0000 0.0000 -2.3740 0.0000 9.7067
#
#
#
# Elastic Compliance Matrix: (Units=1/GPa)
#
#
# Indices 1 2 3 4 5 6 
#
# 1 0.011005 -0.002097 -0.007524 0.000000 0.000218 0.000000
# 2 -0.002097 0.030694 0.005824 0.000000 -0.004768 0.000000
# 3 -0.007524 0.005824 0.021073 0.000000 -0.005323 0.000000
# 4 0.000000 0.000000 0.000000 0.075275 0.000000 0.018410
# 5 0.000218 -0.004768 -0.005323 0.000000 0.033206 0.000000
# 6 0.000000 0.000000 0.000000 0.018410 0.000000 0.107524
#
#
# Mechanical properties :
#
#
# Convention : Reuss Voigt Hill
#
# Bulk Modulus (GPa) = 18.12315 33.21316 25.66816
# Shear Modulus (GPa) = 16.40615 23.62072 20.01343
#
# Velocity S-wave (km/s) = 2.93750 3.52469 3.24441
# Velocity P-wave (km/s) = 4.58663 5.83381 5.24740
#
# Compressibility (1/GPa) = 0.05517804
#
# Stress axis : x y z
#
# Youngs Moduli (GPa) = 90.86898 32.57991 47.45353
#
# Poissons Ratio (x) = 0.06831 0.35706
# Poissons Ratio (y) = 0.19053 -0.27638
# Poissons Ratio (z) = 0.68373 -0.18975
#
# Static dielectric constant tensor:
#      x y z
#    x 1.699740 0.000000 0.003120 
#    y 0.000000 1.755010 0.000000 
#    z 0.003120 0.000000 1.656070 
# 
# From -- ./inp_files/248578.got.cif
#   From: 2010.05.17/outbox.cif.g08.bks.cpg/sg12_125_cif.got.tgz:248578.got - 2010.06.03 13:09:07.
