data_PCOD9219388
_publ_section_title
;
Structure prediction by ZEFSAII (Michael W. Deem and Ramdas Pophale) SiO2 
 PCOD9219388
Probable space group: C 2/M
;
_chemical_formula_sum "Si O2"
_cell_formula_units_Z 58
_cell_length_a 18.066275
_cell_length_b 18.967579
_cell_length_c 13.943291
_cell_angle_alpha 90.000000
_cell_angle_beta 39.476520
_cell_angle_gamma 90.000000
_cell_volume 3037.668260
_symmetry_space_group_name_H-M "C 2/M"
_symmetry_group_IT_number 12
_symmetry_cell_setting 'monoclinic'
loop_
_space_group_symop_operation_xyz
x,y,z
-x,y,-z
-x,-y,-z
x,-y,z
1/2+x,1/2+y,z
1/2-x,1/2+y,-z
1/2-x,1/2-y,-z
1/2+x,1/2-y,z
loop_
_atom_site_type_symbol
_atom_site_label
_atom_site_fract_x
_atom_site_fract_y
_atom_site_fract_z
Si Si1 0.169743 0.179451 0.401122
Si Si2 0.079219 0.272738 0.837528
Si Si3 0.082718 0.695204 0.169288
Si Si4 0.817148 0.833492 0.838380
Si Si5 0.966710 0.083682 0.313735
Si Si6 0.418640 0.158593 0.491506
Si Si7 0.157075 0.116992 0.765521
Si Si8 0.500000 0.500000 0.000000
O O1 0.303813 0.184556 0.299727
O O2 0.169318 0.159473 0.289402
O O3 0.101905 0.124278 0.533974
O O4 0.114157 0.257441 0.470985
O O5 0.122470 0.196339 0.828960
O O6 0.000610 0.265484 0.822695
O O7 0.000000 0.305103 0.000000
O O8 0.143609 0.753495 0.175777
O O9 0.997718 0.648192 0.318538
O O10 0.185709 0.658343 0.007268
O O11 0.903464 0.885145 0.808543
O O12 0.904420 0.099744 0.274842
O O13 0.967589 0.000000 0.325900
O O14 0.500000 0.141948 0.500000
O O15 0.296492 0.117576 0.615370
O O16 0.101509 0.061531 0.893140
#
# Coordination Sequence:
#
# PCOD9219388 Si02
#       8
#     8   8   8   8   8   8   8   2
#     4  11  21  38  61  95 128 157 205 266 312 372
#     4  11  20  36  64  95 118 158 202 254 320 370
#     4  11  21  36  60  92 130 158 199 260 320 372
#     4  11  22  35  60  91 128 160 202 262 311 364
#     4  12  24  41  62  86 122 170 212 252 314 372
#     4  11  21  39  64  95 128 161 202 261 326 366
#     4  11  24  39  64  91 125 165 209 257 306 378
#     4  12  24  44  62  88 130 158 218 256 306 376
#
# _framework density 19.093592000000001
#
# number of rings (size 3 to 8) (size 9 to 14) (size 15 to 20)
#    0.000    0.828    6.897    1.241    0.000    4.414 
#    0.000    0.345    1.517    1.241    0.000    0.000 
#    0.000    0.000    0.000    0.000    0.000    0.000 
#
# Total GULP energy -161740.216665 kJ/mol
# GULP energy per Si atom -5577.248851 kJ/mol
# Density = 1.905013 g / cm^3
# Si number density = 19.093592 Si / 1000 Ang^3
#
#
#
# Elastic Constant Matrix: (Units=GPa)
#
#
# Indices 1 2 3 4 5 6 
#
# 1 61.2998 2.3189 16.0142 0.0000 -19.9396 0.0000
# 2 2.3189 57.1032 13.7162 0.0000 -17.2495 0.0000
# 3 16.0142 13.7162 103.0107 0.0000 -32.6230 0.0000
# 4 0.0000 0.0000 0.0000 6.1810 0.0000 -14.6925
# 5 -19.9396 -17.2495 -32.6230 0.0000 36.4691 0.0000
# 6 0.0000 0.0000 0.0000 -14.6925 0.0000 -1.9347
#
#
#
# Elastic Compliance Matrix: (Units=1/GPa)
#
#
# Indices 1 2 3 4 5 6 
#
# 1 0.020281 0.002967 0.000570 0.000000 0.013002 0.000000
# 2 0.002967 0.020882 0.000558 0.000000 0.011999 0.000000
# 3 0.000570 0.000558 0.013572 0.000000 0.012716 0.000000
# 4 0.000000 0.000000 0.000000 0.008492 0.000000 -0.064490
# 5 0.013002 0.011999 0.012716 0.000000 0.051580 0.000000
# 6 0.000000 0.000000 0.000000 -0.064490 0.000000 -0.027130
#
#
# Mechanical properties :
#
#
# Convention : Reuss Voigt Hill
#
# Bulk Modulus (GPa) = 15.89190 31.72359 23.80774
# Shear Modulus (GPa) = 49.76997 20.76737 35.26867
#
# Velocity S-wave (km/s) = 5.11106 3.30155 4.30251
# Velocity P-wave (km/s) = 6.57052 5.58431 6.09739
#
# Compressibility (1/GPa) = 0.06292514
#
# Stress axis : x y z
#
# Youngs Moduli (GPa) = 49.30607 47.88794 73.68117
#
# Poissons Ratio (x) = -0.14209 -0.04197
# Poissons Ratio (y) = -0.14630 -0.04112
# Poissons Ratio (z) = -0.02808 -0.02673
#
# Static dielectric constant tensor:
#      x y z
#    x 1.684560 0.000000 0.006780 
#    y 0.000000 1.626340 0.000000 
#    z 0.006780 0.000000 1.697560 
# 
# From -- ./inp_files/227265.got.cif
#   From: 2010.05.17/outbox.cif.g08.bks.cpg/sg12_114_cif.got.tgz:227265.got - 2010.06.03 13:09:07.
