data_PCOD9219349
_publ_section_title
;
Structure prediction by ZEFSAII (Michael W. Deem and Ramdas Pophale) SiO2 
 PCOD9219349
Probable space group: C 2/M
;
_chemical_formula_sum "Si O2"
_cell_formula_units_Z 64
_cell_length_a 13.905026
_cell_length_b 25.670288
_cell_length_c 17.242322
_cell_angle_alpha 90.000000
_cell_angle_beta 147.597437
_cell_angle_gamma 90.000000
_cell_volume 3298.020388
_symmetry_space_group_name_H-M "C 2/M"
_symmetry_group_IT_number 12
_symmetry_cell_setting 'monoclinic'
loop_
_space_group_symop_operation_xyz
x,y,z
-x,y,-z
-x,-y,-z
x,-y,z
1/2+x,1/2+y,z
1/2-x,1/2+y,-z
1/2-x,1/2-y,-z
1/2+x,1/2-y,z
loop_
_atom_site_type_symbol
_atom_site_label
_atom_site_fract_x
_atom_site_fract_y
_atom_site_fract_z
Si Si1 0.144241 0.909202 0.417492
Si Si2 0.564110 0.336895 0.216360
Si Si3 0.996169 0.556062 0.590813
Si Si4 0.201664 0.649592 0.326348
Si Si5 0.307806 0.804014 0.081079
Si Si6 0.865604 0.331831 0.292121
Si Si7 0.196327 0.256700 0.552875
Si Si8 0.651157 0.442381 0.669949
O O1 0.102370 0.872693 0.316150
O O2 0.294243 0.946675 0.484914
O O3 0.241060 0.879527 0.555093
O O4 0.962464 0.932587 0.329412
O O5 0.699844 0.341400 0.236828
O O6 0.625095 0.280725 0.288404
O O7 0.359656 0.341158 0.053031
O O8 0.085729 0.500000 0.668226
O O9 0.070835 0.608943 0.679134
O O10 0.000000 0.563671 0.500000
O O11 0.322551 0.701911 0.415844
O O12 0.237455 0.608547 0.281240
O O13 0.996942 0.669911 0.186238
O O14 0.313585 0.801563 0.178558
O O15 0.250000 0.750000 0.000000
O O16 0.029677 0.297231 0.439254
O O17 0.250000 0.250000 0.500000
O O18 0.500000 0.445335 0.500000
O O19 0.740283 0.500000 0.732641
#
# Coordination Sequence:
#
# PCOD9219349 Si02
#       8
#     8   8   8   8   8   8   8   8
#     4  11  20  39  64  97 125 166 214 272 335 382
#     4  12  23  37  61  89 132 169 208 262 327 396
#     4  11  20  35  65  99 127 162 216 271 330 395
#     4  11  22  40  64  94 127 172 221 267 324 399
#     4  12  24  43  59  88 133 177 217 255 325 401
#     4  12  23  41  61  94 131 171 211 275 332 383
#     4  12  19  38  62  91 130 167 214 270 328 388
#     4   9  21  40  65  99 131 163 218 282 332 382
#
# _framework density 19.405581000000002
#
# number of rings (size 3 to 8) (size 9 to 14) (size 15 to 20)
#    0.000    0.750    7.500    1.125    0.000    3.500 
#    0.000    0.625    0.000    6.000    0.000    0.000 
#    0.000    0.000    0.000    0.000    0.000    0.000 
#
# Total GULP energy -178219.781376 kJ/mol
# GULP energy per Si atom -5569.368168 kJ/mol
# Density = 1.936141 g / cm^3
# Si number density = 19.405581 Si / 1000 Ang^3
#
#
#
# Elastic Constant Matrix: (Units=GPa)
#
#
# Indices 1 2 3 4 5 6 
#
# 1 124.5740 47.9865 44.2025 0.0000 6.5038 0.0000
# 2 47.9865 133.7031 36.9971 0.0000 6.0790 0.0000
# 3 44.2025 36.9971 93.1745 0.0000 12.7569 -0.0001
# 4 0.0000 0.0000 0.0000 4.4667 0.0000 15.8677
# 5 6.5038 6.0790 12.7569 0.0000 29.4215 -0.0001
# 6 0.0000 0.0000 -0.0001 15.8677 -0.0001 -4.4549
#
#
#
# Elastic Compliance Matrix: (Units=1/GPa)
#
#
# Indices 1 2 3 4 5 6 
#
# 1 0.010436 -0.002668 -0.003882 0.000000 -0.000073 0.000000
# 2 -0.002668 0.009087 -0.002303 0.000000 -0.000289 0.000000
# 3 -0.003882 -0.002303 0.014146 0.000000 -0.004800 0.000000
# 4 0.000000 0.000000 0.000000 0.016398 0.000000 0.058405
# 5 -0.000073 -0.000289 -0.004800 0.000000 0.036146 0.000000
# 6 0.000000 0.000000 0.000000 0.058405 0.000000 -0.016441
#
#
# Mechanical properties :
#
#
# Convention : Reuss Voigt Hill
#
# Bulk Modulus (GPa) = 62.64226 67.75821 65.20023
# Shear Modulus (GPa) = 53.88037 20.70434 37.29236
#
# Velocity S-wave (km/s) = 5.27500 3.26993 4.38851
# Velocity P-wave (km/s) = 8.33376 7.01778 7.70392
#
# Compressibility (1/GPa) = 0.01596367
#
# Stress axis : x y z
#
# Youngs Moduli (GPa) = 95.81971 110.04390 70.69369
#
# Poissons Ratio (x) = 0.29362 0.27440
# Poissons Ratio (y) = 0.25567 0.16280
# Poissons Ratio (z) = 0.37193 0.25342
#
# Static dielectric constant tensor:
#      x y z
#    x 2.014820 0.000000 -0.073830 
#    y 0.000000 1.796100 0.000000 
#    z -0.073830 0.000000 1.696090 
# 
# From -- ./inp_files/272851.got.cif
#   From: 2010.05.17/outbox.cif.g08.bks.cpg/sg12_137_cif.got.tgz:272851.got - 2010.06.03 13:09:07.
