data_PCOD9219033
_publ_section_title
;
Structure prediction by ZEFSAII (Michael W. Deem and Ramdas Pophale) SiO2 
 PCOD9219033
Probable space group: C 2/M
;
_chemical_formula_sum "Si O2"
_cell_formula_units_Z 32
_cell_length_a 13.248125
_cell_length_b 20.525131
_cell_length_c 11.518609
_cell_angle_alpha 90.000000
_cell_angle_beta 147.417759
_cell_angle_gamma 90.000000
_cell_volume 1686.684570
_symmetry_space_group_name_H-M "C 2/M"
_symmetry_group_IT_number 12
_symmetry_cell_setting 'monoclinic'
loop_
_space_group_symop_operation_xyz
x,y,z
-x,y,-z
-x,-y,-z
x,-y,z
1/2+x,1/2+y,z
1/2-x,1/2+y,-z
1/2-x,1/2-y,-z
1/2+x,1/2-y,z
loop_
_atom_site_type_symbol
_atom_site_label
_atom_site_fract_x
_atom_site_fract_y
_atom_site_fract_z
Si Si1 0.326220 0.691048 0.652951
Si Si2 0.305879 0.262192 0.251626
Si Si3 0.039557 0.574398 0.400561
Si Si4 0.755583 0.341879 0.012758
O O1 0.250000 0.750000 0.500000
O O2 0.309916 0.722697 0.765063
O O3 0.534712 0.667262 0.822886
O O4 0.194885 0.627649 0.518268
O O5 0.500000 0.282879 0.500000
O O6 0.210602 0.320580 0.087586
O O7 0.348809 0.210691 0.190618
O O8 0.097731 0.500000 0.436570
O O9 0.000000 0.581935 0.500000
O O10 0.852182 0.591904 0.146529
#
# Coordination Sequence:
#
# PCOD9219033 Si02
#       4
#     8   8   8   8
#     4  12  21  36  64  94 122 157 205 255 306 357
#     4  11  19  36  55  92 125 144 197 258 306 343
#     4  11  24  42  58  86 131 162 199 252 302 371
#     4  11  21  35  60  84 122 162 191 246 309 363
#
# _framework density 18.972131000000001
#
# number of rings (size 3 to 8) (size 9 to 14) (size 15 to 20)
#    0.000    0.750    7.500    2.250    0.000    1.000 
#    0.000    2.500    0.000    3.750    0.000    0.000 
#    0.000    0.000    0.000    0.000    0.000    0.000 
#
# Total GULP energy -89284.055857 kJ/mol
# GULP energy per Si atom -5580.253491 kJ/mol
# Density = 1.892895 g / cm^3
# Si number density = 18.972131 Si / 1000 Ang^3
#
#
#
# Elastic Constant Matrix: (Units=GPa)
#
#
# Indices 1 2 3 4 5 6 
#
# 1 75.2965 48.1720 44.1281 0.0000 8.6756 0.0000
# 2 48.1720 138.1894 62.3028 0.0000 7.5540 0.0000
# 3 44.1281 62.3028 120.0141 0.0000 -2.6111 0.0000
# 4 0.0000 0.0000 0.0000 23.2885 0.0000 0.8779
# 5 8.6756 7.5540 -2.6111 0.0000 36.3573 0.0000
# 6 0.0000 0.0000 0.0000 0.8779 0.0000 24.9179
#
#
#
# Elastic Compliance Matrix: (Units=1/GPa)
#
#
# Indices 1 2 3 4 5 6 
#
# 1 0.019435 -0.004293 -0.005006 0.000000 -0.004105 0.000000
# 2 -0.004293 0.010595 -0.003954 0.000000 -0.001461 0.000000
# 3 -0.005006 -0.003954 0.012289 0.000000 0.002899 0.000000
# 4 0.000000 0.000000 0.000000 0.042997 0.000000 -0.001515
# 5 -0.004105 -0.001461 0.002899 0.000000 0.028996 0.000000
# 6 0.000000 0.000000 0.000000 -0.001515 0.000000 0.040185
#
#
# Mechanical properties :
#
#
# Convention : Reuss Voigt Hill
#
# Bulk Modulus (GPa) = 63.24287 71.41174 67.32731
# Shear Modulus (GPa) = 26.84223 28.83922 27.84073
#
# Velocity S-wave (km/s) = 3.76550 3.90305 3.83489
# Velocity P-wave (km/s) = 7.23272 7.61799 7.42786
#
# Compressibility (1/GPa) = 0.01581206
#
# Stress axis : x y z
#
# Youngs Moduli (GPa) = 51.45483 94.38100 81.37566
#
# Poissons Ratio (x) = 0.40519 0.40741
# Poissons Ratio (y) = 0.22090 0.32173
# Poissons Ratio (z) = 0.25761 0.37314
#
# Static dielectric constant tensor:
#      x y z
#    x 1.736210 0.000000 0.014490 
#    y 0.000000 1.661940 0.000000 
#    z 0.014490 0.000000 1.726440 
# 
# From -- ./inp_files/131482.got.cif
#   From: 2010.05.17/outbox.cif.g08.bks.cpg/sg12_66_cif.got.tgz:131482.got - 2010.06.03 13:09:07.
