data_PCOD9219147
_publ_section_title
;
Structure prediction by ZEFSAII (Michael W. Deem and Ramdas Pophale) SiO2 
 PCOD9219147
Probable space group: C 2/M
;
_chemical_formula_sum "Si O2"
_cell_formula_units_Z 40
_cell_length_a 19.987157
_cell_length_b 8.611656
_cell_length_c 27.926982
_cell_angle_alpha 90.000000
_cell_angle_beta 28.238687
_cell_angle_gamma 90.000000
_cell_volume 2274.346467
_symmetry_space_group_name_H-M "C 2/M"
_symmetry_group_IT_number 12
_symmetry_cell_setting 'monoclinic'
loop_
_space_group_symop_operation_xyz
x,y,z
-x,y,-z
-x,-y,-z
x,-y,z
1/2+x,1/2+y,z
1/2-x,1/2+y,-z
1/2-x,1/2-y,-z
1/2+x,1/2-y,z
loop_
_atom_site_type_symbol
_atom_site_label
_atom_site_fract_x
_atom_site_fract_y
_atom_site_fract_z
Si Si1 0.312547 0.187450 0.558513
Si Si2 0.507694 0.688974 0.713575
Si Si3 0.083429 0.185504 0.333232
Si Si4 0.605764 0.687543 0.112553
Si Si5 0.303810 0.686961 0.264620
O O1 0.451910 0.259738 0.448458
O O2 0.281789 0.231209 0.633032
O O3 0.171733 0.233689 0.617778
O O4 0.324777 0.000000 0.549219
O O5 0.506670 0.500000 0.714110
O O6 0.444345 0.743169 0.703347
O O7 0.422683 0.737973 0.814610
O O8 0.225701 0.246119 0.268028
O O9 0.086431 0.000000 0.330349
O O10 0.609136 0.500000 0.110236
O O11 0.466057 0.735434 0.170818
O O12 0.750000 0.750000 0.000000
O O13 0.300959 0.500000 0.264165
#
# Coordination Sequence:
#
# PCOD9219147 Si02
#       5
#     8   8   8   8   8
#     4   9  17  32  51  67  93 136 171 190 222 279
#     4   8  17  33  50  70  97 129 161 192 235 288
#     4  11  20  29  46  74 104 128 155 197 239 274
#     4   9  18  36  58  73  89 119 161 203 240 284
#     4   9  19  34  50  69  96 131 163 190 232 289
#
# _framework density 17.58747
#
# number of rings (size 3 to 8) (size 9 to 14) (size 15 to 20)
#    0.000    2.800    0.000    4.200    0.000    4.000 
#    0.000    7.000    0.000    6.000    0.000    0.000 
#    0.000    0.000    0.000    0.000    0.000    0.000 
#
# Total GULP energy -111536.232578 kJ/mol
# GULP energy per Si atom -5576.811629 kJ/mol
# Density = 1.754744 g / cm^3
# Si number density = 17.587470 Si / 1000 Ang^3
#
#
#
# Elastic Constant Matrix: (Units=GPa)
#
#
# Indices 1 2 3 4 5 6 
#
# 1 139.2482 22.0785 48.3350 -0.0006 -22.4875 0.0005
# 2 22.0785 10.1647 16.8981 -0.0004 -4.3324 0.0004
# 3 48.3350 16.8981 110.3776 -0.0013 -15.7620 0.0004
# 4 -0.0006 -0.0004 -0.0013 30.5151 -0.0002 -3.2853
# 5 -22.4875 -4.3324 -15.7620 -0.0002 8.9577 0.0000
# 6 0.0005 0.0004 0.0004 -3.2853 0.0000 26.0684
#
#
#
# Elastic Compliance Matrix: (Units=1/GPa)
#
#
# Indices 1 2 3 4 5 6 
#
# 1 0.014923 -0.021697 0.000852 0.000000 0.028469 0.000000
# 2 -0.021697 0.173825 -0.017206 0.000001 -0.000674 -0.000002
# 3 0.000852 -0.017206 0.013941 0.000001 0.018348 0.000000
# 4 0.000000 0.000001 0.000001 0.033221 0.000003 0.004187
# 5 0.028469 -0.000674 0.018348 0.000003 0.215063 -0.000001
# 6 0.000000 -0.000002 0.000000 0.004187 -0.000001 0.038888
#
#
# Mechanical properties :
#
#
# Convention : Reuss Voigt Hill
#
# Bulk Modulus (GPa) = 7.89974 48.26819 28.08396
# Shear Modulus (GPa) = 8.22152 24.60683 16.41417
#
# Velocity S-wave (km/s) = 2.16444 3.74453 3.05829
# Velocity P-wave (km/s) = 3.27839 6.79702 5.33607
#
# Compressibility (1/GPa) = 0.12658644
#
# Stress axis : x y z
#
# Youngs Moduli (GPa) = 67.00895 5.75292 71.73121
#
# Poissons Ratio (x) = 0.12482 -0.06112
# Poissons Ratio (y) = 1.45390 1.23424
# Poissons Ratio (z) = -0.05710 0.09899
#
# Static dielectric constant tensor:
#      x y z
#    x 1.617940 0.000000 -0.001300 
#    y 0.000000 1.602580 0.000000 
#    z -0.001300 0.000000 1.566680 
# 
# From -- ./inp_files/151621.got.cif
#   From: 2010.05.17/outbox.cif.g08.bks.cpg/sg12_76_cif.got.tgz:151621.got - 2010.06.03 13:09:07.
