data_PCOD9219065
_publ_section_title
;
Structure prediction by ZEFSAII (Michael W. Deem and Ramdas Pophale) SiO2 
 PCOD9219065
Probable space group: C 2/M
;
_chemical_formula_sum "Si O2"
_cell_formula_units_Z 38
_cell_length_a 14.778165
_cell_length_b 17.309578
_cell_length_c 11.004652
_cell_angle_alpha 90.000000
_cell_angle_beta 132.179008
_cell_angle_gamma 90.000000
_cell_volume 2086.081146
_symmetry_space_group_name_H-M "C 2/M"
_symmetry_group_IT_number 12
_symmetry_cell_setting 'monoclinic'
loop_
_space_group_symop_operation_xyz
x,y,z
-x,y,-z
-x,-y,-z
x,-y,z
1/2+x,1/2+y,z
1/2-x,1/2+y,-z
1/2-x,1/2-y,-z
1/2+x,1/2-y,z
loop_
_atom_site_type_symbol
_atom_site_label
_atom_site_fract_x
_atom_site_fract_y
_atom_site_fract_z
Si Si1 0.792466 0.000000 0.815664
Si Si2 0.893994 0.868296 0.086421
Si Si3 0.000000 0.500000 0.500000
Si Si4 0.064242 0.000000 0.307507
Si Si5 0.756730 0.500000 0.692481
Si Si6 0.500000 0.250000 0.000000
Si Si7 0.476801 0.000000 0.184330
Si Si8 0.692427 0.131703 0.086430
O O1 0.652024 0.000000 0.647732
O O2 0.878587 0.000000 0.775843
O O3 0.827371 0.075308 0.927895
O O4 0.790034 0.834644 0.080073
O O5 0.979828 0.925060 0.240066
O O6 0.978110 0.806032 0.094700
O O7 0.995723 0.500000 0.647747
O O8 0.169078 0.000000 0.499994
O O9 0.739758 0.574940 0.759923
O O10 0.897250 0.500000 0.775830
O O11 0.383410 0.193967 0.905289
O O12 0.399478 0.075307 0.072095
#
# Coordination Sequence:
#
# PCOD9219065 Si02
#       8
#     4   8   2   4   4   4   4   8
#     4  11  19  37  62  92 119 147 205 258 295 341
#     4  11  22  39  62  89 119 159 203 247 299 364
#     4  12  20  32  72  96 108 156 204 266 296 328
#     4  11  21  38  66  87 120 155 201 261 302 339
#     4  11  21  38  66  87 120 155 201 261 302 339
#     4  12  22  38  62  86 124 170 196 232 308 370
#     4  11  19  37  62  92 119 147 205 258 295 341
#     4  11  22  39  62  89 119 159 203 247 299 364
#
# _framework density 18.215973000000002
#
# number of rings (size 3 to 8) (size 9 to 14) (size 15 to 20)
#    0.000    0.842    7.368    3.789    0.000    1.684 
#    0.000    1.053    4.632    0.000    0.000    0.000 
#    0.000    0.000    0.000    0.000    0.000    0.000 
#
# Total GULP energy -105779.179605 kJ/mol
# GULP energy per Si atom -5567.325242 kJ/mol
# Density = 1.817451 g / cm^3
# Si number density = 18.215973 Si / 1000 Ang^3
#
#
#
# Elastic Constant Matrix: (Units=GPa)
#
#
# Indices 1 2 3 4 5 6 
#
# 1 163.5585 38.7384 16.4393 0.0000 9.3787 0.0000
# 2 38.7384 82.9482 2.7772 0.0000 3.8492 0.0000
# 3 16.4393 2.7772 79.9576 0.0000 -0.4248 0.0000
# 4 0.0000 0.0000 0.0000 -0.0157 0.0000 -4.4077
# 5 9.3787 3.8492 -0.4248 0.0000 30.8235 0.0000
# 6 0.0000 0.0000 0.0000 -4.4077 0.0000 -41.1721
#
#
#
# Elastic Compliance Matrix: (Units=1/GPa)
#
#
# Indices 1 2 3 4 5 6 
#
# 1 0.007109 -0.003192 -0.001360 0.000000 -0.001783 0.000000
# 2 -0.003192 0.013574 0.000181 0.000000 -0.000721 0.000000
# 3 -0.001360 0.000181 0.012783 0.000000 0.000567 0.000000
# 4 0.000000 0.000000 0.000000 2.192290 0.000000 -0.234697
# 5 -0.001783 -0.000721 0.000567 0.000000 0.033083 0.000000
# 6 0.000000 0.000000 0.000000 -0.234697 0.000000 0.000837
#
#
# Mechanical properties :
#
#
# Convention : Reuss Voigt Hill
#
# Bulk Modulus (GPa) = 40.44707 49.15269 44.79988
# Shear Modulus (GPa) = 2.19620 15.82775 9.01198
#
# Velocity S-wave (km/s) = 1.09921 2.95090 2.22666
# Velocity P-wave (km/s) = 4.88502 6.21709 5.59087
#
# Compressibility (1/GPa) = 0.02472367
#
# Stress axis : x y z
#
# Youngs Moduli (GPa) = 140.66797 73.67177 78.22872
#
# Poissons Ratio (x) = 0.23514 0.10641
# Poissons Ratio (y) = 0.44897 -0.01415
# Poissons Ratio (z) = 0.19134 -0.01333
#
# Static dielectric constant tensor:
#      x y z
#    x 1.661980 0.000000 0.008510 
#    y 0.000000 1.640470 0.000000 
#    z 0.008510 0.000000 1.582440 
# 
# From -- ./inp_files/145318.got.cif
#   From: 2010.05.17/outbox.cif.g08.bks.cpg/sg12_73_cif.got.tgz:145318.got - 2010.06.03 13:09:07.
