data_PCOD9219042
_publ_section_title
;
Structure prediction by ZEFSAII (Michael W. Deem and Ramdas Pophale) SiO2 
 PCOD9219042
Probable space group: C 2/M
;
_chemical_formula_sum "Si O2"
_cell_formula_units_Z 40
_cell_length_a 19.172362
_cell_length_b 22.340908
_cell_length_c 8.263570
_cell_angle_alpha 90.000000
_cell_angle_beta 149.906361
_cell_angle_gamma 90.000000
_cell_volume 1774.766407
_symmetry_space_group_name_H-M "C 2/M"
_symmetry_group_IT_number 12
_symmetry_cell_setting 'monoclinic'
loop_
_space_group_symop_operation_xyz
x,y,z
-x,y,-z
-x,-y,-z
x,-y,z
1/2+x,1/2+y,z
1/2-x,1/2+y,-z
1/2-x,1/2-y,-z
1/2+x,1/2-y,z
loop_
_atom_site_type_symbol
_atom_site_label
_atom_site_fract_x
_atom_site_fract_y
_atom_site_fract_z
Si Si1 0.938208 0.192796 0.633646
Si Si2 0.204113 0.000000 0.286428
Si Si3 0.500000 0.893606 0.000000
Si Si4 0.500000 0.598489 0.000000
Si Si5 0.582835 0.000000 0.974468
Si Si6 0.167966 0.713575 0.197424
Si Si7 0.225141 0.000000 0.949136
Si Si8 0.500000 0.397432 0.500000
O O1 0.779489 0.209639 0.274345
O O2 0.024791 0.150214 0.690651
O O3 0.909962 0.145019 0.718687
O O4 0.032111 0.248916 0.871040
O O5 0.100907 0.056528 0.099258
O O6 0.297618 0.000000 0.640939
O O7 0.256948 0.000000 0.205902
O O8 0.506148 0.940473 0.162414
O O9 0.382569 0.848166 0.824333
O O10 0.652330 0.000000 0.938036
O O11 0.250000 0.750000 0.500000
O O12 0.128732 0.941528 0.723822
#
# Coordination Sequence:
#
# PCOD9219042 Si02
#       8
#     8   4   4   4   4   8   4   4
#     4  12  24  40  68  98 135 185 227 298 347 416
#     4  11  22  35  68  99 133 185 229 286 348 416
#     4  11  23  44  68 100 143 185 230 296 360 419
#     4  11  19  36  60 100 127 173 242 274 338 421
#     4  11  26  42  70 102 141 185 234 295 355 429
#     4  12  22  41  70 100 131 181 238 284 345 423
#     4  11  22  43  66 103 143 182 234 301 346 419
#     4  11  24  40  62 100 146 175 236 290 358 413
#
# _framework density 22.538177000000001
#
# number of rings (size 3 to 8) (size 9 to 14) (size 15 to 20)
#    0.000    0.600    6.000    3.600    2.800    0.800 
#    0.000    2.000    0.000    0.000    0.000    0.000 
#    0.000    0.000    0.000    0.000    0.000    0.000 
#
# Total GULP energy -111424.938749 kJ/mol
# GULP energy per Si atom -5571.246937 kJ/mol
# Density = 2.248688 g / cm^3
# Si number density = 22.538177 Si / 1000 Ang^3
#
#
#
# Elastic Constant Matrix: (Units=GPa)
#
#
# Indices 1 2 3 4 5 6 
#
# 1 127.7070 50.2814 20.2299 0.0000 11.1670 0.0000
# 2 50.2814 152.1053 29.0673 0.0000 11.9135 0.0000
# 3 20.2299 29.0673 65.2555 0.0000 15.2575 0.0000
# 4 0.0000 0.0000 0.0000 18.8892 0.0000 5.3981
# 5 11.1670 11.9135 15.2575 0.0000 31.1701 0.0000
# 6 0.0000 0.0000 0.0000 5.3981 0.0000 19.8327
#
#
#
# Elastic Compliance Matrix: (Units=1/GPa)
#
#
# Indices 1 2 3 4 5 6 
#
# 1 0.009232 -0.002677 -0.001282 0.000000 -0.001657 0.000000
# 2 -0.002677 0.008012 -0.002537 0.000000 -0.000861 0.000000
# 3 -0.001282 -0.002537 0.018653 0.000000 -0.007701 0.000000
# 4 0.000000 0.000000 0.000000 0.057406 0.000000 -0.015625
# 5 -0.001657 -0.000861 -0.007701 0.000000 0.036774 0.000000
# 6 0.000000 0.000000 0.000000 -0.015625 0.000000 0.054675
#
#
# Mechanical properties :
#
#
# Convention : Reuss Voigt Hill
#
# Bulk Modulus (GPa) = 43.66212 60.46945 52.06578
# Shear Modulus (GPa) = 24.34514 30.34433 27.34473
#
# Velocity S-wave (km/s) = 3.29016 3.67325 3.48697
# Velocity P-wave (km/s) = 5.81792 6.69913 6.27401
#
# Compressibility (1/GPa) = 0.02290315
#
# Stress axis : x y z
#
# Youngs Moduli (GPa) = 108.31315 124.81696 53.61118
#
# Poissons Ratio (x) = 0.33416 0.06875
# Poissons Ratio (y) = 0.28997 0.13604
# Poissons Ratio (z) = 0.13889 0.31672
#
# Static dielectric constant tensor:
#      x y z
#    x 2.032550 0.000000 -0.120220 
#    y 0.000000 1.801330 0.000000 
#    z -0.120220 0.000000 2.137780 
# 
# From -- ./inp_files/90781.got.cif
#   From: 2010.05.17/outbox.cif.g08.bks.cpg/sg12_46_cif.got.tgz:90781.got - 2010.06.03 13:09:07.
