data_PCOD9219100
_publ_section_title
;
Structure prediction by ZEFSAII (Michael W. Deem and Ramdas Pophale) SiO2 
 PCOD9219100
Probable space group: C 2/M
;
_chemical_formula_sum "Si O2"
_cell_formula_units_Z 56
_cell_length_a 13.746773
_cell_length_b 21.304077
_cell_length_c 9.424811
_cell_angle_alpha 90.000000
_cell_angle_beta 90.806834
_cell_angle_gamma 90.000000
_cell_volume 2759.898259
_symmetry_space_group_name_H-M "C 2/M"
_symmetry_group_IT_number 12
_symmetry_cell_setting 'monoclinic'
loop_
_space_group_symop_operation_xyz
x,y,z
-x,y,-z
-x,-y,-z
x,-y,z
1/2+x,1/2+y,z
1/2-x,1/2+y,-z
1/2-x,1/2-y,-z
1/2+x,1/2-y,z
loop_
_atom_site_type_symbol
_atom_site_label
_atom_site_fract_x
_atom_site_fract_y
_atom_site_fract_z
Si Si1 0.268616 0.822445 0.043645
Si Si2 0.610636 0.847188 0.222323
Si Si3 0.898526 0.663145 0.314757
Si Si4 0.404350 0.597073 0.583988
Si Si5 0.862665 0.756841 0.547098
Si Si6 0.103687 0.927327 0.080611
Si Si7 0.194054 0.570255 0.461678
O O1 0.313708 0.824359 0.201207
O O2 0.178743 0.871847 0.036888
O O3 0.250000 0.750000 0.000000
O O4 0.350586 0.844534 0.934629
O O5 0.496194 0.858178 0.238818
O O6 0.626702 0.782116 0.307934
O O7 0.673601 0.897153 0.311716
O O8 0.915341 0.724224 0.413437
O O9 0.863795 0.610897 0.424298
O O10 0.500000 0.577483 0.500000
O O11 0.393363 0.672275 0.571189
O O12 0.408758 0.578549 0.749214
O O13 0.306514 0.571678 0.508967
O O14 0.750000 0.750000 0.500000
O O15 0.136340 0.000000 0.051524
O O16 0.000000 0.918527 0.000000
O O17 0.157456 0.500000 0.459673
#
# Coordination Sequence:
#
# PCOD9219100 Si02
#       7
#     8   8   8   8   8   8   8
#     4  12  26  43  70 102 141 179 231 285 341 408
#     4  11  24  40  65  99 131 175 220 273 336 399
#     4  11  23  43  67  96 138 176 218 277 343 403
#     4  12  24  40  70 101 128 172 227 281 339 402
#     4  11  19  39  65  97 135 170 216 276 337 394
#     4  11  27  49  69  96 141 189 228 281 353 418
#     4  11  24  43  67  95 131 172 224 281 333 398
#
# _framework density 20.290602
#
# number of rings (size 3 to 8) (size 9 to 14) (size 15 to 20)
#    0.000    0.714    4.286    5.143    2.000    5.143 
#    0.000    0.000    0.000    2.571    0.000    0.000 
#    0.000    0.000    0.000    0.000    0.000    0.000 
#
# Total GULP energy -156552.431959 kJ/mol
# GULP energy per Si atom -5591.158284 kJ/mol
# Density = 2.024442 g / cm^3
# Si number density = 20.290602 Si / 1000 Ang^3
#
#
#
# Elastic Constant Matrix: (Units=GPa)
#
#
# Indices 1 2 3 4 5 6 
#
# 1 99.5320 17.7399 13.0506 0.0000 -1.4834 0.0000
# 2 17.7399 137.4880 31.0211 0.0000 5.0219 0.0000
# 3 13.0506 31.0211 78.0275 0.0000 -1.0817 0.0000
# 4 0.0000 0.0000 0.0000 -7.6595 0.0000 4.4482
# 5 -1.4834 5.0219 -1.0817 0.0000 41.2854 0.0000
# 6 0.0000 0.0000 0.0000 4.4482 0.0000 12.3057
#
#
#
# Elastic Compliance Matrix: (Units=1/GPa)
#
#
# Indices 1 2 3 4 5 6 
#
# 1 0.010416 -0.001065 -0.001312 0.000000 0.000469 0.000000
# 2 -0.001065 0.008145 -0.003076 0.000000 -0.001110 0.000000
# 3 -0.001312 -0.003076 0.014268 0.000000 0.000701 0.000000
# 4 0.000000 0.000000 0.000000 -0.107904 0.000000 0.039005
# 5 0.000469 -0.001110 0.000701 0.000000 0.024392 0.000000
# 6 0.000000 0.000000 0.000000 0.039005 0.000000 0.067164
#
#
# Mechanical properties :
#
#
# Convention : Reuss Voigt Hill
#
# Bulk Modulus (GPa) = 45.61308 48.74120 47.17714
# Shear Modulus (GPa) = 144.11816 26.06870 85.09343
#
# Velocity S-wave (km/s) = 8.43690 3.58825 6.48293
# Velocity P-wave (km/s) = 10.83684 6.42193 8.90725
#
# Compressibility (1/GPa) = 0.02192354
#
# Stress axis : x y z
#
# Youngs Moduli (GPa) = 96.00715 122.77120 70.08735
#
# Poissons Ratio (x) = 0.13075 0.09197
# Poissons Ratio (y) = 0.10225 0.21556
# Poissons Ratio (z) = 0.12598 0.37759
#
# Static dielectric constant tensor:
#      x y z
#    x 1.761050 0.000000 -0.023740 
#    y 0.000000 1.730070 0.000000 
#    z -0.023740 0.000000 1.678800 
# 
# From -- ./inp_files/64091.got.cif
#   From: 2010.05.17/outbox.cif.g08.bks.cpg/sg12_33_cif.got.tgz:64091.got - 2010.06.03 13:09:07.
