data_PCOD9219569
_publ_section_title
;
Structure prediction by ZEFSAII (Michael W. Deem and Ramdas Pophale) SiO2 
 PCOD9219569
Probable space group: C 2/M
;
_chemical_formula_sum "Si O2"
_cell_formula_units_Z 64
_cell_length_a 19.302064
_cell_length_b 17.841930
_cell_length_c 14.998052
_cell_angle_alpha 90.000000
_cell_angle_beta 142.303247
_cell_angle_gamma 90.000000
_cell_volume 3158.379098
_symmetry_space_group_name_H-M "C 2/M"
_symmetry_group_IT_number 12
_symmetry_cell_setting 'monoclinic'
loop_
_space_group_symop_operation_xyz
x,y,z
-x,y,-z
-x,-y,-z
x,-y,z
1/2+x,1/2+y,z
1/2-x,1/2+y,-z
1/2-x,1/2-y,-z
1/2+x,1/2-y,z
loop_
_atom_site_type_symbol
_atom_site_label
_atom_site_fract_x
_atom_site_fract_y
_atom_site_fract_z
Si Si1 0.364874 0.738443 0.866261
Si Si2 0.807721 0.917288 0.739112
Si Si3 0.531880 0.707147 0.368570
Si Si4 0.765724 0.806664 0.097909
Si Si5 0.053752 0.633269 0.460709
Si Si6 0.075661 0.588044 0.852074
Si Si7 0.318643 0.587519 0.550954
Si Si8 0.387395 0.189644 0.709174
O O1 0.342036 0.649941 0.837859
O O2 0.298870 0.774436 0.881243
O O3 0.329594 0.774936 0.736310
O O4 0.500000 0.749560 0.000000
O O5 0.674323 0.907442 0.582263
O O6 0.864740 0.910161 0.699452
O O7 0.829995 0.000000 0.797890
O O8 0.400021 0.690037 0.248690
O O9 0.567121 0.776160 0.468270
O O10 0.598769 0.629236 0.433803
O O11 0.562001 0.745621 0.302888
O O12 0.750000 0.750000 0.000000
O O13 0.700529 0.881324 0.999884
O O14 0.972128 0.610352 0.295138
O O15 0.000000 0.613806 0.500000
O O16 0.066996 0.500000 0.853813
O O17 0.990862 0.632983 0.831283
O O18 0.295613 0.500000 0.507301
O O19 0.206788 0.639265 0.434798
#
# Coordination Sequence:
#
# PCOD9219569 Si02
#       8
#     8   8   8   8   8   8   8   8
#     4  12  24  42  68  91 124 173 223 267 309 385
#     4  11  23  37  60  97 133 161 207 267 325 382
#     4  11  21  39  67  89 132 174 213 261 315 388
#     4  12  24  45  62  92 129 173 220 257 316 386
#     4  11  22  39  64  96 128 165 213 262 321 389
#     4  11  23  41  67  94 129 165 209 271 328 373
#     4  11  22  39  65  98 132 165 208 266 330 381
#     4  11  20  41  67  96 121 170 219 266 315 380
#
# _framework density 20.263559000000001
#
# number of rings (size 3 to 8) (size 9 to 14) (size 15 to 20)
#    0.000    0.750    7.500    2.625    0.000    1.750 
#    0.000    1.875    0.000    2.625    0.000    0.000 
#    0.000    0.000    0.000    0.000    0.000    0.000 
#
# Total GULP energy -178657.980672 kJ/mol
# GULP energy per Si atom -5583.061896 kJ/mol
# Density = 2.021744 g / cm^3
# Si number density = 20.263559 Si / 1000 Ang^3
#
#
#
# Elastic Constant Matrix: (Units=GPa)
#
#
# Indices 1 2 3 4 5 6 
#
# 1 116.4948 39.0582 25.3243 0.0000 5.0538 0.0000
# 2 39.0582 112.5066 19.9314 0.0000 2.9400 0.0000
# 3 25.3243 19.9314 37.0060 0.0000 18.2360 0.0000
# 4 0.0000 0.0000 0.0000 26.0863 0.0000 2.3306
# 5 5.0538 2.9400 18.2360 0.0000 33.4485 0.0000
# 6 0.0000 0.0000 0.0000 2.3306 0.0000 11.0832
#
#
#
# Elastic Compliance Matrix: (Units=1/GPa)
#
#
# Indices 1 2 3 4 5 6 
#
# 1 0.010934 -0.002555 -0.007388 0.000000 0.002600 0.000000
# 2 -0.002555 0.010614 -0.005057 0.000000 0.002210 0.000000
# 3 -0.007388 -0.005057 0.046535 0.000000 -0.023810 0.000000
# 4 0.000000 0.000000 0.000000 0.039068 0.000000 -0.008215
# 5 0.002600 0.002210 -0.023810 0.000000 0.042291 0.000000
# 6 0.000000 0.000000 0.000000 -0.008215 0.000000 0.091954
#
#
# Mechanical properties :
#
#
# Convention : Reuss Voigt Hill
#
# Bulk Modulus (GPa) = 26.25832 48.29278 37.27555
# Shear Modulus (GPa) = 17.60005 26.23650 21.91828
#
# Velocity S-wave (km/s) = 2.95033 3.60218 3.29243
# Velocity P-wave (km/s) = 4.95907 6.41756 5.73487
#
# Compressibility (1/GPa) = 0.03808317
#
# Stress axis : x y z
#
# Youngs Moduli (GPa) = 91.45885 94.21938 21.48901
#
# Poissons Ratio (x) = 0.24073 0.15875
# Poissons Ratio (y) = 0.23368 0.10867
# Poissons Ratio (z) = 0.67566 0.47648
#
# Static dielectric constant tensor:
#      x y z
#    x 1.737520 0.000000 0.004200 
#    y 0.000000 1.716330 0.000000 
#    z 0.004200 0.000000 1.793220 
# 
# From -- ./inp_files/226889.got.cif
#   From: 2010.05.17/outbox.cif.g08.bks.cpg/sg12_114_cif.got.tgz:226889.got - 2010.06.03 13:09:07.
