data_PCOD9219723
_publ_section_title
;
Structure prediction by ZEFSAII (Michael W. Deem and Ramdas Pophale) SiO2 
 PCOD9219723
Probable space group: C 2/M
;
_chemical_formula_sum "Si O2"
_cell_formula_units_Z 64
_cell_length_a 28.767098
_cell_length_b 8.962647
_cell_length_c 21.390930
_cell_angle_alpha 90.000000
_cell_angle_beta 45.528819
_cell_angle_gamma 90.000000
_cell_volume 3935.669504
_symmetry_space_group_name_H-M "C 2/M"
_symmetry_group_IT_number 12
_symmetry_cell_setting 'monoclinic'
loop_
_space_group_symop_operation_xyz
x,y,z
-x,y,-z
-x,-y,-z
x,-y,z
1/2+x,1/2+y,z
1/2-x,1/2+y,-z
1/2-x,1/2-y,-z
1/2+x,1/2-y,z
loop_
_atom_site_type_symbol
_atom_site_label
_atom_site_fract_x
_atom_site_fract_y
_atom_site_fract_z
Si Si1 0.418529 0.172338 0.624603
Si Si2 0.434041 0.320486 0.344334
Si Si3 0.213759 0.319549 0.092831
Si Si4 0.756108 0.322063 0.316246
Si Si5 0.692522 0.180763 0.597516
Si Si6 0.738360 0.827302 0.206834
Si Si7 0.937565 0.319233 0.745022
Si Si8 0.395770 0.677449 0.521201
O O1 0.339827 0.177882 0.707951
O O2 0.444701 0.233703 0.665762
O O3 0.431158 0.249110 0.546688
O O4 0.437379 0.000000 0.602894
O O5 0.432059 0.500000 0.339706
O O6 0.376937 0.244666 0.358416
O O7 0.506467 0.256266 0.266571
O O8 0.417786 0.279707 0.431624
O O9 0.218064 0.500000 0.087801
O O10 0.244836 0.268371 0.129936
O O11 0.136526 0.283239 0.165643
O O12 0.250000 0.250000 0.000000
O O13 0.760621 0.500000 0.306448
O O14 0.795069 0.277423 0.341605
O O15 0.771534 0.253190 0.234164
O O16 0.680716 0.284429 0.401755
O O17 0.750000 0.250000 0.500000
O O18 0.695046 0.000000 0.589803
O O19 0.757960 0.000000 0.189123
O O20 0.944139 0.500000 0.739416
O O21 0.402318 0.500000 0.521090
#
# Coordination Sequence:
#
# PCOD9219723 Si02
#       8
#     8   8   8   8   8   8   8   8
#     4   8  15  28  45  63  87 122 164 197 232 283
#     4  11  22  34  46  66  95 128 170 211 248 292
#     4   9  18  33  54  79 106 129 158 194 236 295
#     4   9  17  30  46  66  94 126 163 208 247 285
#     4  11  21  34  50  69  95 129 172 217 256 290
#     4   8  15  28  46  71  98 125 157 196 237 286
#     4   9  19  35  49  67  97 129 160 200 242 290
#     4   9  17  29  42  61  91 123 161 206 244 277
#
# _framework density 16.261527999999998
#
# number of rings (size 3 to 8) (size 9 to 14) (size 15 to 20)
#    0.000    2.750    1.250    2.250    0.000    4.000 
#    0.000    5.000    0.000    0.000    0.000    0.875 
#    0.000    7.000    0.000    0.000    0.000    0.000 
#
# Total GULP energy -178280.285340 kJ/mol
# GULP energy per Si atom -5571.258917 kJ/mol
# Density = 1.622452 g / cm^3
# Si number density = 16.261528 Si / 1000 Ang^3
#
#
#
# Elastic Constant Matrix: (Units=GPa)
#
#
# Indices 1 2 3 4 5 6 
#
# 1 152.5194 48.4355 59.8087 -0.0034 12.6167 0.0015
# 2 48.4355 24.3240 29.2887 -0.0064 3.8259 0.0044
# 3 59.8087 29.2887 82.2341 -0.0051 19.6167 0.0034
# 4 -0.0034 -0.0064 -0.0051 21.5751 0.0035 6.3772
# 5 12.6167 3.8259 19.6167 0.0035 18.5640 -0.0014
# 6 0.0015 0.0044 0.0034 6.3772 -0.0014 24.1522
#
#
#
# Elastic Compliance Matrix: (Units=1/GPa)
#
#
# Indices 1 2 3 4 5 6 
#
# 1 0.018359 -0.037292 0.001434 -0.000009 -0.006307 0.000008
# 2 -0.037292 0.151664 -0.034074 0.000034 0.030094 -0.000028
# 3 0.001434 -0.034074 0.029161 0.000001 -0.024767 0.000000
# 4 -0.000009 0.000034 0.000001 0.050273 -0.000013 -0.013274
# 5 -0.006307 0.030094 -0.024767 -0.000013 0.078124 0.000006
# 6 0.000008 -0.000028 0.000000 -0.013274 0.000006 0.044909
#
#
# Mechanical properties :
#
#
# Convention : Reuss Voigt Hill
#
# Bulk Modulus (GPa) = 16.85718 59.34925 38.10322
# Shear Modulus (GPa) = 9.39627 20.96125 15.17876
#
# Velocity S-wave (km/s) = 2.40640 3.59417 3.05850
# Velocity P-wave (km/s) = 4.25556 7.33485 5.99624
#
# Compressibility (1/GPa) = 0.05932189
#
# Stress axis : x y z
#
# Youngs Moduli (GPa) = 54.47061 6.59350 34.29224
#
# Poissons Ratio (x) = 0.24588 -0.04919
# Poissons Ratio (y) = 2.03130 1.16846
# Poissons Ratio (z) = -0.07813 0.22467
#
# Static dielectric constant tensor:
#      x y z
#    x 1.568720 0.000000 0.003190 
#    y 0.000000 1.549320 0.000000 
#    z 0.003190 0.000000 1.546950 
# 
# From -- ./inp_files/326895.got.cif
#   From: 2010.05.17/outbox.cif.g08.bks.cpg/sg12_164_cif.got.tgz:326895.got - 2010.06.03 13:09:07.
