data_PCOD9219045
_publ_section_title
;
Structure prediction by ZEFSAII (Michael W. Deem and Ramdas Pophale) SiO2 
 PCOD9219045
Probable space group: C 2/M
;
_chemical_formula_sum "Si O2"
_cell_formula_units_Z 64
_cell_length_a 21.174791
_cell_length_b 17.028408
_cell_length_c 12.234348
_cell_angle_alpha 90.000000
_cell_angle_beta 47.200521
_cell_angle_gamma 90.000000
_cell_volume 3236.785072
_symmetry_space_group_name_H-M "C 2/M"
_symmetry_group_IT_number 12
_symmetry_cell_setting 'monoclinic'
loop_
_space_group_symop_operation_xyz
x,y,z
-x,y,-z
-x,-y,-z
x,-y,z
1/2+x,1/2+y,z
1/2-x,1/2+y,-z
1/2-x,1/2-y,-z
1/2+x,1/2-y,z
loop_
_atom_site_type_symbol
_atom_site_label
_atom_site_fract_x
_atom_site_fract_y
_atom_site_fract_z
Si Si1 0.375399 0.323356 0.223453
Si Si2 0.257134 0.177999 0.293744
Si Si3 0.214682 0.408287 0.524334
Si Si4 0.528345 0.717843 0.207767
Si Si5 0.691105 0.184878 0.004789
Si Si6 0.329046 0.909693 0.762625
Si Si7 0.604717 0.797376 0.501950
Si Si8 0.622488 0.409459 0.996101
O O1 0.326122 0.245823 0.241161
O O2 0.303403 0.378082 0.365270
O O3 0.448356 0.298657 0.222514
O O4 0.408661 0.368825 0.078234
O O5 0.274976 0.109795 0.359477
O O6 0.167355 0.222238 0.420628
O O7 0.263246 0.157561 0.159238
O O8 0.200689 0.500000 0.518218
O O9 0.140611 0.353956 0.557022
O O10 0.601796 0.774716 0.075748
O O11 0.487889 0.761086 0.360363
O O12 0.581316 0.636106 0.147449
O O13 0.665450 0.117195 0.118973
O O14 0.750000 0.250000 0.000000
O O15 0.379686 0.850564 0.623620
O O16 0.354246 0.000000 0.714984
O O17 0.226031 0.902173 0.864096
O O18 0.599672 0.500000 0.027247
#
# Coordination Sequence:
#
# PCOD9219045 Si02
#       8
#     8   8   8   8   8   8   8   8
#     4  11  19  36  61  96 129 162 206 260 319 385
#     4  11  20  39  64  87 126 168 213 246 315 399
#     4  11  21  36  61  94 132 167 203 256 325 388
#     4  12  23  36  63  95 129 165 206 267 320 381
#     4  12  23  43  64  88 121 173 220 259 311 388
#     4  11  23  44  70  94 123 167 225 272 315 375
#     4  11  20  39  63  95 125 168 208 260 320 383
#     4  11  22  37  64  99 133 167 206 267 330 377
#
# _framework density 19.772705999999999
#
# number of rings (size 3 to 8) (size 9 to 14) (size 15 to 20)
#    0.000    0.750    8.750    1.875    0.000    2.500 
#    0.000    1.875    0.000    0.750    0.000    3.500 
#    0.000    0.000    0.000    0.000    0.000    0.000 
#
# Total GULP energy -178621.896384 kJ/mol
# GULP energy per Si atom -5581.934262 kJ/mol
# Density = 1.972770 g / cm^3
# Si number density = 19.772706 Si / 1000 Ang^3
#
#
#
# Elastic Constant Matrix: (Units=GPa)
#
#
# Indices 1 2 3 4 5 6 
#
# 1 28.4594 20.2897 21.5290 0.0000 10.8163 0.0000
# 2 20.2897 86.3503 46.9055 0.0000 2.3617 0.0000
# 3 21.5290 46.9055 117.2603 0.0000 10.7512 0.0000
# 4 0.0000 0.0000 0.0000 29.2901 0.0000 3.3550
# 5 10.8163 2.3617 10.7512 0.0000 35.1944 0.0000
# 6 0.0000 0.0000 0.0000 3.3550 0.0000 22.6445
#
#
#
# Elastic Compliance Matrix: (Units=1/GPa)
#
#
# Indices 1 2 3 4 5 6 
#
# 1 0.049943 -0.009014 -0.004333 0.000000 -0.013420 0.000000
# 2 -0.009014 0.016447 -0.005223 0.000000 0.003262 0.000000
# 3 -0.004333 -0.005223 0.011583 0.000000 -0.001856 0.000000
# 4 0.000000 0.000000 0.000000 0.034731 0.000000 -0.005146
# 5 -0.013420 0.003262 -0.001856 0.000000 0.032886 0.000000
# 6 0.000000 0.000000 0.000000 -0.005146 0.000000 0.044923
#
#
# Mechanical properties :
#
#
# Convention : Reuss Voigt Hill
#
# Bulk Modulus (GPa) = 24.49072 45.50206 34.99639
# Shear Modulus (GPa) = 20.72416 26.98219 23.85317
#
# Velocity S-wave (km/s) = 3.24098 3.69808 3.47705
# Velocity P-wave (km/s) = 5.13987 6.42627 5.81873
#
# Compressibility (1/GPa) = 0.04083180
#
# Stress axis : x y z
#
# Youngs Moduli (GPa) = 20.02285 60.80246 86.33297
#
# Poissons Ratio (x) = 0.54809 0.37410
# Poissons Ratio (y) = 0.18049 0.45091
# Poissons Ratio (z) = 0.08676 0.31757
#
# Static dielectric constant tensor:
#      x y z
#    x 1.751060 0.000000 0.008970 
#    y 0.000000 1.683110 0.000000 
#    z 0.008970 0.000000 1.731450 
# 
# From -- ./inp_files/168758.got.cif
#   From: 2010.05.17/outbox.cif.g08.bks.cpg/sg12_85_cif.got.tgz:168758.got - 2010.06.03 13:09:07.
