data_PCOD9219500
_publ_section_title
;
Structure prediction by ZEFSAII (Michael W. Deem and Ramdas Pophale) SiO2 
 PCOD9219500
Probable space group: C 2/M
;
_chemical_formula_sum "Si O2"
_cell_formula_units_Z 48
_cell_length_a 12.522704
_cell_length_b 23.798855
_cell_length_c 12.148324
_cell_angle_alpha 90.000000
_cell_angle_beta 43.481497
_cell_angle_gamma 90.000000
_cell_volume 2491.350936
_symmetry_space_group_name_H-M "C 2/M"
_symmetry_group_IT_number 12
_symmetry_cell_setting 'monoclinic'
loop_
_space_group_symop_operation_xyz
x,y,z
-x,y,-z
-x,-y,-z
x,-y,z
1/2+x,1/2+y,z
1/2-x,1/2+y,-z
1/2-x,1/2-y,-z
1/2+x,1/2-y,z
loop_
_atom_site_type_symbol
_atom_site_label
_atom_site_fract_x
_atom_site_fract_y
_atom_site_fract_z
Si Si1 0.367185 0.500000 0.944343
Si Si2 0.802945 0.696968 0.832648
Si Si3 0.348465 0.804148 0.384911
Si Si4 0.232990 0.000000 0.736003
Si Si5 0.343359 0.306535 0.680484
Si Si6 0.097257 0.124294 0.151241
Si Si7 0.737489 0.878647 0.350663
O O1 0.549930 0.500000 0.840124
O O2 0.342869 0.559914 0.902989
O O3 0.269125 0.500000 0.130250
O O4 0.760557 0.756340 0.809046
O O5 0.806564 0.655068 0.725774
O O6 0.970671 0.709064 0.760585
O O7 0.694519 0.666944 0.002278
O O8 0.250000 0.750000 0.500000
O O9 0.271863 0.824980 0.329659
O O10 0.337265 0.850373 0.487887
O O11 0.302997 0.943352 0.636025
O O12 0.500000 0.285596 0.500000
O O13 0.394251 0.353059 0.730609
O O14 0.922625 0.125558 0.234324
#
# Coordination Sequence:
#
# PCOD9219500 Si02
#       7
#     4   8   8   4   8   8   8
#     4   9  18  38  61  93 124 158 203 267 304 345
#     4  12  23  38  63  93 123 162 202 257 311 363
#     4  12  23  40  60  86 132 166 200 248 314 373
#     4   9  18  34  63  92 125 156 205 262 307 344
#     4  12  23  41  61  87 127 169 201 251 309 373
#     4  11  23  40  66  94 121 162 214 254 302 366
#     4  11  20  39  65  93 123 162 205 254 307 365
#
# _framework density 19.266655
#
# number of rings (size 3 to 8) (size 9 to 14) (size 15 to 20)
#    0.000    0.833    6.667    1.500    0.000    0.667 
#    3.000    3.750    0.000    1.000    0.000    0.000 
#    0.000    0.000    0.000    0.000    0.000    0.000 
#
# Total GULP energy -134084.904544 kJ/mol
# GULP energy per Si atom -5586.871023 kJ/mol
# Density = 1.922280 g / cm^3
# Si number density = 19.266655 Si / 1000 Ang^3
#
#
#
# Elastic Constant Matrix: (Units=GPa)
#
#
# Indices 1 2 3 4 5 6 
#
# 1 107.4356 14.1105 25.7961 0.0000 14.6352 0.0000
# 2 14.1105 118.5432 31.1697 0.0000 22.4429 0.0000
# 3 25.7961 31.1697 64.5664 0.0000 9.1993 0.0000
# 4 0.0000 0.0000 0.0000 28.9706 0.0000 2.0535
# 5 14.6352 22.4429 9.1993 0.0000 26.9111 0.0000
# 6 0.0000 0.0000 0.0000 2.0535 0.0000 8.9672
#
#
#
# Elastic Compliance Matrix: (Units=1/GPa)
#
#
# Indices 1 2 3 4 5 6 
#
# 1 0.010866 0.000724 -0.003955 0.000000 -0.005160 0.000000
# 2 0.000724 0.011057 -0.004475 0.000000 -0.008085 0.000000
# 3 -0.003955 -0.004475 0.019332 0.000000 -0.000726 0.000000
# 4 0.000000 0.000000 0.000000 0.035087 0.000000 -0.008035
# 5 -0.005160 -0.008085 -0.000726 0.000000 0.046956 0.000000
# 6 0.000000 0.000000 0.000000 -0.008035 0.000000 0.113358
#
#
# Mechanical properties :
#
#
# Convention : Reuss Voigt Hill
#
# Bulk Modulus (GPa) = 38.69788 48.07755 43.38772
# Shear Modulus (GPa) = 19.18045 27.60105 23.39075
#
# Velocity S-wave (km/s) = 3.15862 3.78905 3.48811
# Velocity P-wave (km/s) = 5.78200 6.64458 6.22824
#
# Compressibility (1/GPa) = 0.02584121
#
# Stress axis : x y z
#
# Youngs Moduli (GPa) = 92.03442 90.44120 51.72826
#
# Poissons Ratio (x) = -0.06544 0.20459
# Poissons Ratio (y) = -0.06660 0.23148
# Poissons Ratio (z) = 0.36401 0.40472
#
# Static dielectric constant tensor:
#      x y z
#    x 1.660450 0.000000 -0.020200 
#    y 0.000000 1.684470 0.000000 
#    z -0.020200 0.000000 1.686430 
# 
# From -- ./inp_files/135214.got.cif
#   From: 2010.05.17/outbox.cif.g08.bks.cpg/sg12_68_cif.got.tgz:135214.got - 2010.06.03 13:09:07.
