data_PCOD9219970
_publ_section_title
;
Structure prediction by ZEFSAII (Michael W. Deem and Ramdas Pophale) SiO2 
 PCOD9219970
Probable space group: C 2/M
;
_chemical_formula_sum "Si O2"
_cell_formula_units_Z 56
_cell_length_a 16.191811
_cell_length_b 16.900234
_cell_length_c 11.473298
_cell_angle_alpha 90.000000
_cell_angle_beta 66.241818
_cell_angle_gamma 90.000000
_cell_volume 2873.545197
_symmetry_space_group_name_H-M "C 2/M"
_symmetry_group_IT_number 12
_symmetry_cell_setting 'monoclinic'
loop_
_space_group_symop_operation_xyz
x,y,z
-x,y,-z
-x,-y,-z
x,-y,z
1/2+x,1/2+y,z
1/2-x,1/2+y,-z
1/2-x,1/2-y,-z
1/2+x,1/2-y,z
loop_
_atom_site_type_symbol
_atom_site_label
_atom_site_fract_x
_atom_site_fract_y
_atom_site_fract_z
Si Si1 0.650919 0.644860 0.644318
Si Si2 0.859787 0.303337 0.215863
Si Si3 0.194947 0.095269 0.367153
Si Si4 0.129732 0.000000 0.817600
Si Si5 0.352570 0.777402 0.955088
Si Si6 0.976644 0.588755 0.875135
Si Si7 0.563499 0.349813 0.260052
Si Si8 0.412125 0.500000 0.901458
O O1 0.669653 0.731470 0.684709
O O2 0.701671 0.620089 0.498307
O O3 0.665952 0.578088 0.733766
O O4 0.543870 0.642685 0.676386
O O5 0.780509 0.367934 0.251675
O O6 0.946280 0.351286 0.213235
O O7 0.879280 0.266720 0.076374
O O8 0.108736 0.138990 0.359633
O O9 0.188292 0.000000 0.362292
O O10 0.020392 0.000000 0.863585
O O11 0.141965 0.000000 0.948297
O O12 0.380526 0.868264 0.915585
O O13 0.408334 0.725926 0.830829
O O14 0.250000 0.750000 0.000000
O O15 0.980461 0.500000 0.825513
O O16 0.000000 0.583997 0.000000
O O17 0.604979 0.422640 0.163548
#
# Coordination Sequence:
#
# PCOD9219970 Si02
#       8
#     8   8   8   4   8   8   8   4
#     4  11  22  38  60  85 120 164 207 247 300 363
#     4  11  22  38  63  87 122 161 204 252 301 358
#     4  12  24  39  59  89 125 162 207 254 297 361
#     4   9  18  33  55  83 117 153 197 246 300 369
#     4  11  21  38  60  91 124 150 197 257 308 362
#     4   9  19  37  62  88 117 156 198 246 303 358
#     4  11  21  37  59  87 120 159 195 252 312 360
#     4   9  18  31  55  85 113 150 192 238 309 364
#
# _framework density 19.488122000000001
#
# number of rings (size 3 to 8) (size 9 to 14) (size 15 to 20)
#    0.000    1.429    4.286    2.143    0.000    2.286 
#    1.286    0.000    0.000    0.000    0.000    1.000 
#    0.000    0.000    0.000    0.000    0.000    0.000 
#
# Total GULP energy -156216.645257 kJ/mol
# GULP energy per Si atom -5579.165902 kJ/mol
# Density = 1.944377 g / cm^3
# Si number density = 19.488122 Si / 1000 Ang^3
#
#
#
# Elastic Constant Matrix: (Units=GPa)
#
#
# Indices 1 2 3 4 5 6 
#
# 1 45.0864 18.1163 -12.6310 0.0000 -8.8830 0.0000
# 2 18.1163 129.3880 19.8369 0.0000 3.6412 0.0000
# 3 -12.6310 19.8369 59.3059 0.0000 14.6885 0.0000
# 4 0.0000 0.0000 0.0000 25.3995 0.0000 -2.4565
# 5 -8.8830 3.6412 14.6885 0.0000 25.8994 0.0000
# 6 0.0000 0.0000 0.0000 -2.4565 0.0000 15.7455
#
#
#
# Elastic Compliance Matrix: (Units=1/GPa)
#
#
# Indices 1 2 3 4 5 6 
#
# 1 0.027057 -0.004855 0.005723 0.000000 0.006717 0.000000
# 2 -0.004855 0.009022 -0.003869 0.000000 -0.000740 0.000000
# 3 0.005723 -0.003869 0.021818 0.000000 -0.009867 0.000000
# 4 0.000000 0.000000 0.000000 0.039974 0.000000 0.006236
# 5 0.006717 -0.000740 -0.009867 0.000000 0.046615 0.000000
# 6 0.000000 0.000000 0.000000 0.006236 0.000000 0.064483
#
#
# Mechanical properties :
#
#
# Convention : Reuss Voigt Hill
#
# Bulk Modulus (GPa) = 19.26909 31.60275 25.43592
# Shear Modulus (GPa) = 21.52669 27.30609 24.41639
#
# Velocity S-wave (km/s) = 3.32717 3.74728 3.54345
# Velocity P-wave (km/s) = 4.96680 5.91391 5.46093
#
# Compressibility (1/GPa) = 0.05189658
#
# Stress axis : x y z
#
# Youngs Moduli (GPa) = 36.95902 110.83562 45.83272
#
# Poissons Ratio (x) = 0.53809 -0.26229
# Poissons Ratio (y) = 0.17943 0.17731
# Poissons Ratio (z) = -0.21151 0.42879
#
# Static dielectric constant tensor:
#      x y z
#    x 1.692760 0.000000 -0.011170 
#    y 0.000000 1.695320 0.000000 
#    z -0.011170 0.000000 1.695960 
# 
# From -- ./inp_files/156567.got.cif
#   From: 2010.05.17/outbox.cif.g08.bks.cpg/sg12_79_cif.got.tgz:156567.got - 2010.06.03 13:09:07.
