data_PCOD9219428
_publ_section_title
;
Structure prediction by ZEFSAII (Michael W. Deem and Ramdas Pophale) SiO2 
 PCOD9219428
Probable space group: C 2/M
;
_chemical_formula_sum "Si O2"
_cell_formula_units_Z 50
_cell_length_a 15.608091
_cell_length_b 17.173326
_cell_length_c 8.397252
_cell_angle_alpha 90.000000
_cell_angle_beta 56.872082
_cell_angle_gamma 90.000000
_cell_volume 1884.957595
_symmetry_space_group_name_H-M "C 2/M"
_symmetry_group_IT_number 12
_symmetry_cell_setting 'monoclinic'
loop_
_space_group_symop_operation_xyz
x,y,z
-x,y,-z
-x,-y,-z
x,-y,z
1/2+x,1/2+y,z
1/2-x,1/2+y,-z
1/2-x,1/2-y,-z
1/2+x,1/2-y,z
loop_
_atom_site_type_symbol
_atom_site_label
_atom_site_fract_x
_atom_site_fract_y
_atom_site_fract_z
Si Si1 0.858346 0.632869 0.591720
Si Si2 0.951720 0.879449 0.836466
Si Si3 0.252058 0.293151 0.724757
Si Si4 0.726114 0.914550 0.024868
Si Si5 0.835837 0.084738 0.407382
Si Si6 0.000000 0.000000 0.500000
Si Si7 0.964069 0.290765 0.207367
O O1 0.813719 0.715816 0.696219
O O2 0.860554 0.586190 0.752620
O O3 0.770256 0.590557 0.577247
O O4 0.947901 0.654861 0.377538
O O5 0.061797 0.904231 0.800320
O O6 0.968190 0.785511 0.821316
O O7 0.961127 0.930002 0.665215
O O8 0.835778 0.899541 0.999403
O O9 0.325488 0.349551 0.549975
O O10 0.153807 0.269450 0.719097
O O11 0.216819 0.344740 0.909238
O O12 0.726653 0.000000 0.947169
O O13 0.847751 0.000000 0.476403
O O14 0.000000 0.325052 0.000000
#
# Coordination Sequence:
#
# PCOD9219428 Si02
#       7
#     8   8   8   8   8   2   8
#     4  11  23  42  65  96 142 192 237 296 350 424
#     4  12  23  38  67 102 151 186 229 272 352 440
#     4  11  22  43  66  97 141 195 238 284 348 431
#     4  12  26  42  67 110 152 185 228 292 377 438
#     4  11  20  37  65  95 140 192 231 279 343 430
#     4  12  24  40  58 112 160 196 198 278 364 438
#     4  11  24  46  71  97 132 187 253 299 340 415
#
# _framework density 26.525794000000001
#
# number of rings (size 3 to 8) (size 9 to 14) (size 15 to 20)
#    0.000    0.640    4.800    4.320    0.000    0.000 
#    0.000    2.000    0.000   18.240    0.000    0.000 
#    0.000    0.000    0.000    0.000    0.000    0.000 
#
# Total GULP energy -139568.837143 kJ/mol
# GULP energy per Si atom -5582.753486 kJ/mol
# Density = 2.646542 g / cm^3
# Si number density = 26.525794 Si / 1000 Ang^3
#
#
#
# Elastic Constant Matrix: (Units=GPa)
#
#
# Indices 1 2 3 4 5 6 
#
# 1 91.1506 27.6911 0.6641 0.0000 -13.1673 0.0000
# 2 27.6911 150.6033 54.5361 0.0000 -2.4233 0.0000
# 3 0.6641 54.5361 171.3308 0.0000 -0.2110 0.0000
# 4 0.0000 0.0000 0.0000 29.2325 0.0000 3.5599
# 5 -13.1673 -2.4233 -0.2110 0.0000 36.5276 0.0000
# 6 0.0000 0.0000 0.0000 3.5599 0.0000 41.8559
#
#
#
# Elastic Compliance Matrix: (Units=1/GPa)
#
#
# Indices 1 2 3 4 5 6 
#
# 1 0.012334 -0.002468 0.000743 0.000000 0.004287 0.000000
# 2 -0.002468 0.008007 -0.002540 0.000000 -0.000373 0.000000
# 3 0.000743 -0.002540 0.006642 0.000000 0.000138 0.000000
# 4 0.000000 0.000000 0.000000 0.034567 0.000000 -0.002940
# 5 0.004287 -0.000373 0.000138 0.000000 0.028898 0.000000
# 6 0.000000 0.000000 0.000000 -0.002940 0.000000 0.024142
#
#
# Mechanical properties :
#
#
# Convention : Reuss Voigt Hill
#
# Bulk Modulus (GPa) = 54.18613 64.31860 59.25236
# Shear Modulus (GPa) = 38.67835 43.53609 41.10722
#
# Velocity S-wave (km/s) = 3.82270 4.05566 3.94090
# Velocity P-wave (km/s) = 6.32109 6.79936 6.56458
#
# Compressibility (1/GPa) = 0.01845491
#
# Stress axis : x y z
#
# Youngs Moduli (GPa) = 81.07364 124.88412 150.54865
#
# Poissons Ratio (x) = 0.30821 -0.11187
# Poissons Ratio (y) = 0.20009 0.38235
# Poissons Ratio (z) = -0.06024 0.31717
#
# Static dielectric constant tensor:
#      x y z
#    x 1.511510 0.000000 -0.268940 
#    y 0.000000 2.030030 0.000000 
#    z -0.268940 0.000000 1.994330 
# 
# From -- ./inp_files/75805.got.cif
#   From: 2010.05.17/outbox.cif.g08.bks.cpg/sg12_38_cif.got.tgz:75805.got - 2010.06.03 13:09:07.
