data_PCOD9219218
_publ_section_title
;
Structure prediction by ZEFSAII (Michael W. Deem and Ramdas Pophale) SiO2 
 PCOD9219218
Probable space group: C 2/M
;
_chemical_formula_sum "Si O2"
_cell_formula_units_Z 52
_cell_length_a 16.412946
_cell_length_b 17.239528
_cell_length_c 9.307951
_cell_angle_alpha 90.000000
_cell_angle_beta 86.379269
_cell_angle_gamma 90.000000
_cell_volume 2628.441150
_symmetry_space_group_name_H-M "C 2/M"
_symmetry_group_IT_number 12
_symmetry_cell_setting 'monoclinic'
loop_
_space_group_symop_operation_xyz
x,y,z
-x,y,-z
-x,-y,-z
x,-y,z
1/2+x,1/2+y,z
1/2-x,1/2+y,-z
1/2-x,1/2-y,-z
1/2+x,1/2-y,z
loop_
_atom_site_type_symbol
_atom_site_label
_atom_site_fract_x
_atom_site_fract_y
_atom_site_fract_z
Si Si1 0.037023 0.413486 0.147667
Si Si2 0.500000 0.742769 0.500000
Si Si3 0.892601 0.628428 0.354494
Si Si4 0.849605 0.823147 0.671080
Si Si5 0.241853 0.593055 0.873627
Si Si6 0.745152 0.412894 0.554304
Si Si7 0.795742 0.334801 0.820697
O O1 0.068869 0.500000 0.117780
O O2 0.110375 0.360508 0.185556
O O3 0.969308 0.415040 0.277896
O O4 0.000000 0.386205 0.000000
O O5 0.565232 0.794771 0.583477
O O6 0.557610 0.695854 0.382483
O O7 0.827885 0.625124 0.228932
O O8 0.838674 0.592091 0.487307
O O9 0.828116 0.891368 0.785554
O O10 0.805214 0.850465 0.530448
O O11 0.802985 0.749596 0.747605
O O12 0.229330 0.500000 0.896487
O O13 0.236024 0.645138 0.017135
O O14 0.715487 0.500000 0.532014
O O15 0.745963 0.389320 0.718673
#
# Coordination Sequence:
#
# PCOD9219218 Si02
#       7
#     8   4   8   8   8   8   8
#     4  11  20  32  54  89 132 165 194 241 308 383
#     4  12  24  40  62  92 128 166 206 264 304 374
#     4  11  20  37  60  86 127 158 207 247 309 368
#     4  11  24  43  61  92 126 166 213 255 313 368
#     4  11  24  42  66  93 125 164 211 257 309 373
#     4  11  23  40  65  91 124 166 211 260 308 367
#     4  12  22  38  62  95 127 164 204 258 313 372
#
# _framework density 19.783588000000002
#
# number of rings (size 3 to 8) (size 9 to 14) (size 15 to 20)
#    0.000    0.769    4.615    5.077    2.154    0.000 
#    0.000    5.769    0.000    0.000    0.000    2.154 
#    0.000    0.000    0.000    0.000    0.000    0.000 
#
# Total GULP energy -144972.366704 kJ/mol
# GULP energy per Si atom -5575.860258 kJ/mol
# Density = 1.973856 g / cm^3
# Si number density = 19.783588 Si / 1000 Ang^3
#
#
#
# Elastic Constant Matrix: (Units=GPa)
#
#
# Indices 1 2 3 4 5 6 
#
# 1 59.3000 46.3888 21.0097 0.0000 -14.5653 0.0000
# 2 46.3888 87.8150 37.7974 0.0000 16.5189 0.0000
# 3 21.0097 37.7974 111.5842 0.0000 -5.1119 0.0000
# 4 0.0000 0.0000 0.0000 29.1962 0.0000 -37.3670
# 5 -14.5653 16.5189 -5.1119 0.0000 31.4648 0.0000
# 6 0.0000 0.0000 0.0000 -37.3670 0.0000 99.3159
#
#
#
# Elastic Compliance Matrix: (Units=1/GPa)
#
#
# Indices 1 2 3 4 5 6 
#
# 1 0.067725 -0.049701 0.006766 0.000000 0.058542 0.000000
# 2 -0.049701 0.052014 -0.010645 0.000000 -0.052044 0.000000
# 3 0.006766 -0.010645 0.011781 0.000000 0.010635 0.000000
# 4 0.000000 0.000000 0.000000 0.066063 0.000000 0.024856
# 5 0.058542 -0.052044 0.010635 0.000000 0.087932 0.000000
# 6 0.000000 0.000000 0.000000 0.024856 0.000000 0.019421
#
#
# Mechanical properties :
#
#
# Convention : Reuss Voigt Hill
#
# Bulk Modulus (GPa) = 41.05150 52.12122 46.58636
# Shear Modulus (GPa) = 11.89861 42.22893 27.06377
#
# Velocity S-wave (km/s) = 2.45508 4.62512 3.70265
# Velocity P-wave (km/s) = 5.36954 7.41116 6.47137
#
# Compressibility (1/GPa) = 0.02435965
#
# Stress axis : x y z
#
# Youngs Moduli (GPa) = 14.76555 19.22548 84.88165
#
# Poissons Ratio (x) = 0.95552 -0.57428
# Poissons Ratio (y) = 0.73386 0.90359
# Poissons Ratio (z) = -0.09990 0.20466
#
# Static dielectric constant tensor:
#      x y z
#    x 1.695240 0.000000 -0.008410 
#    y 0.000000 1.747600 0.000000 
#    z -0.008410 0.000000 1.752370 
# 
# From -- ./inp_files/75270.got.cif
#   From: 2010.05.17/outbox.cif.g08.bks.cpg/sg12_38_cif.got.tgz:75270.got - 2010.06.03 13:09:07.
