data_PCOD9219221
_publ_section_title
;
Structure prediction by ZEFSAII (Michael W. Deem and Ramdas Pophale) SiO2 
 PCOD9219221
Probable space group: C 2/M
;
_chemical_formula_sum "Si O2"
_cell_formula_units_Z 42
_cell_length_a 12.438376
_cell_length_b 21.996641
_cell_length_c 9.261753
_cell_angle_alpha 90.000000
_cell_angle_beta 64.163579
_cell_angle_gamma 90.000000
_cell_volume 2280.741073
_symmetry_space_group_name_H-M "C 2/M"
_symmetry_group_IT_number 12
_symmetry_cell_setting 'monoclinic'
loop_
_space_group_symop_operation_xyz
x,y,z
-x,y,-z
-x,-y,-z
x,-y,z
1/2+x,1/2+y,z
1/2-x,1/2+y,-z
1/2-x,1/2-y,-z
1/2+x,1/2-y,z
loop_
_atom_site_type_symbol
_atom_site_label
_atom_site_fract_x
_atom_site_fract_y
_atom_site_fract_z
Si Si1 0.395023 0.613656 0.900677
Si Si2 0.734843 0.801276 0.182678
Si Si3 0.486164 0.800622 0.178909
Si Si4 0.377952 0.676563 0.360295
Si Si5 0.500000 0.500000 0.000000
Si Si6 0.757523 0.839133 0.732412
O O1 0.522659 0.630764 0.756612
O O2 0.413859 0.553549 0.980512
O O3 0.303808 0.612522 0.820106
O O4 0.343515 0.668087 0.030896
O O5 0.610908 0.818472 0.178727
O O6 0.758999 0.824360 0.331034
O O7 0.738966 0.727920 0.192956
O O8 0.436096 0.742550 0.295812
O O9 0.377505 0.848353 0.241790
O O10 0.500000 0.786072 0.000000
O O11 0.343858 0.665942 0.544722
#
# Coordination Sequence:
#
# PCOD9219221 Si02
#       6
#     8   8   8   8   2   8
#     4  12  22  42  61  87 120 165 215 260 296 359
#     4  11  20  36  61  88 130 166 199 250 310 389
#     4  11  20  32  56  93 130 168 192 237 312 389
#     4  11  22  34  56  93 135 159 195 246 322 382
#     4  12  28  44  70  86 110 178 236 258 286 358
#     4  11  23  35  57  96 134 160 191 259 325 385
#
# _framework density 18.415065999999999
#
# number of rings (size 3 to 8) (size 9 to 14) (size 15 to 20)
#    0.000    0.762    5.714    5.714    0.000    2.286 
#    0.000    1.905    0.000    2.286    0.000    1.333 
#    0.000    0.000    0.000    0.000    0.000    0.000 
#
# Total GULP energy -116909.411461 kJ/mol
# GULP energy per Si atom -5567.114831 kJ/mol
# Density = 1.837315 g / cm^3
# Si number density = 18.415066 Si / 1000 Ang^3
#
#
#
# Elastic Constant Matrix: (Units=GPa)
#
#
# Indices 1 2 3 4 5 6 
#
# 1 140.9868 33.6359 20.6940 0.0000 -1.3089 0.0000
# 2 33.6359 53.3697 25.4600 0.0000 3.9626 0.0000
# 3 20.6940 25.4600 98.5919 0.0000 -1.7946 0.0000
# 4 0.0000 0.0000 0.0000 0.1693 0.0000 7.5778
# 5 -1.3089 3.9626 -1.7946 0.0000 22.4165 0.0000
# 6 0.0000 0.0000 0.0000 7.5778 0.0000 24.6183
#
#
#
# Elastic Compliance Matrix: (Units=1/GPa)
#
#
# Indices 1 2 3 4 5 6 
#
# 1 0.008407 -0.005214 -0.000393 0.000000 0.001381 0.000000
# 2 -0.005214 0.025010 -0.005458 0.000000 -0.005163 0.000000
# 3 -0.000393 -0.005458 0.011669 0.000000 0.001876 0.000000
# 4 0.000000 0.000000 0.000000 -0.462262 0.000000 0.142290
# 5 0.001381 -0.005163 0.001876 0.000000 0.045753 0.000000
# 6 0.000000 0.000000 0.000000 0.142290 0.000000 -0.003178
#
#
# Mechanical properties :
#
#
# Convention : Reuss Voigt Hill
#
# Bulk Modulus (GPa) = 43.56059 50.28091 46.92075
# Shear Modulus (GPa) = -14.50038 23.65139 4.57550
#
# Velocity S-wave (km/s) = -2.80914 3.58767 1.57799
# Velocity P-wave (km/s) = 3.63105 6.67273 5.37168
#
# Compressibility (1/GPa) = 0.02295653
#
# Stress axis : x y z
#
# Youngs Moduli (GPa) = 118.94546 39.98375 85.69723
#
# Poissons Ratio (x) = 0.20846 0.03369
# Poissons Ratio (y) = 0.62013 0.46775
# Poissons Ratio (z) = 0.04677 0.21824
#
# Static dielectric constant tensor:
#      x y z
#    x 1.726120 0.000000 0.016150 
#    y 0.000000 1.563520 0.000000 
#    z 0.016150 0.000000 1.687070 
# 
# From -- ./inp_files/49182.got.cif
#   From: 2010.05.17/outbox.cif.g08.bks.cpg/sg12_25_cif.got.tgz:49182.got - 2010.06.03 13:09:07.
