data_PCOD9219518
_publ_section_title
;
Structure prediction by ZEFSAII (Michael W. Deem and Ramdas Pophale) SiO2 
 PCOD9219518
Probable space group: C 2/M
;
_chemical_formula_sum "Si O2"
_cell_formula_units_Z 60
_cell_length_a 13.867963
_cell_length_b 19.296738
_cell_length_c 11.197903
_cell_angle_alpha 90.000000
_cell_angle_beta 62.046150
_cell_angle_gamma 90.000000
_cell_volume 2647.000478
_symmetry_space_group_name_H-M "C 2/M"
_symmetry_group_IT_number 12
_symmetry_cell_setting 'monoclinic'
loop_
_space_group_symop_operation_xyz
x,y,z
-x,y,-z
-x,-y,-z
x,-y,z
1/2+x,1/2+y,z
1/2-x,1/2+y,-z
1/2-x,1/2-y,-z
1/2+x,1/2-y,z
loop_
_atom_site_type_symbol
_atom_site_label
_atom_site_fract_x
_atom_site_fract_y
_atom_site_fract_z
Si Si1 0.821109 0.874980 0.115918
Si Si2 0.923160 0.344152 0.723129
Si Si3 0.346238 0.919858 0.395713
Si Si4 0.845867 0.000000 0.931848
Si Si5 0.740317 0.615545 0.205932
Si Si6 0.860321 0.773720 0.587280
Si Si7 0.110071 0.271418 0.010296
Si Si8 0.672316 0.676657 0.634998
O O1 0.690145 0.887569 0.207015
O O2 0.832551 0.802846 0.036890
O O3 0.869530 0.859278 0.220270
O O4 0.869660 0.938629 0.017283
O O5 0.909957 0.293081 0.619787
O O6 0.032618 0.388853 0.659523
O O7 0.921143 0.294919 0.839739
O O8 0.308289 0.914528 0.279281
O O9 0.260434 0.875122 0.523057
O O10 0.343900 0.000000 0.433811
O O11 0.807589 0.940196 0.856025
O O12 0.646236 0.661490 0.321876
O O13 0.817607 0.668263 0.089787
O O14 0.735291 0.746472 0.639762
O O15 0.900617 0.798414 0.434029
O O16 0.000000 0.265769 0.000000
#
# Coordination Sequence:
#
# PCOD9219518 Si02
#       8
#     8   8   8   4   8   8   8   8
#     4  11  24  40  59  90 122 168 217 265 321 379
#     4  11  21  35  60  90 126 162 209 260 304 376
#     4  11  24  37  58  98 143 173 200 244 324 405
#     4  12  24  36  66  91 130 167 208 261 323 398
#     4  11  20  40  59  91 129 168 210 258 317 382
#     4   9  19  37  62  81 112 164 220 262 291 351
#     4  12  22  39  65  90 123 165 218 272 317 374
#     4   9  20  40  62  80 125 170 212 260 306 375
#
# _framework density 22.667166000000002
#
# number of rings (size 3 to 8) (size 9 to 14) (size 15 to 20)
#    0.000    1.333    6.000    1.200    1.867    2.133 
#    0.000    4.667    0.000    0.000    0.000    0.000 
#    0.000    6.667    0.000    0.000    0.000    0.000 
#
# Total GULP energy -167319.337527 kJ/mol
# GULP energy per Si atom -5577.311251 kJ/mol
# Density = 2.261557 g / cm^3
# Si number density = 22.667166 Si / 1000 Ang^3
#
#
#
# Elastic Constant Matrix: (Units=GPa)
#
#
# Indices 1 2 3 4 5 6 
#
# 1 63.4877 9.4589 26.7872 0.0000 9.0428 0.0000
# 2 9.4589 152.6064 51.2560 0.0000 13.0365 0.0000
# 3 26.7872 51.2560 94.5916 0.0000 28.1530 0.0000
# 4 0.0000 0.0000 0.0000 26.4640 0.0000 22.1289
# 5 9.0428 13.0365 28.1530 0.0000 30.8545 0.0000
# 6 0.0000 0.0000 0.0000 22.1289 0.0000 26.0634
#
#
#
# Elastic Compliance Matrix: (Units=1/GPa)
#
#
# Indices 1 2 3 4 5 6 
#
# 1 0.017968 0.000714 -0.005241 0.000000 -0.000785 0.000000
# 2 0.000714 0.008053 -0.004792 0.000000 0.000761 0.000000
# 3 -0.005241 -0.004792 0.018661 0.000000 -0.013466 0.000000
# 4 0.000000 0.000000 0.000000 0.130284 0.000000 -0.110616
# 5 -0.000785 0.000761 -0.013466 0.000000 0.044606 0.000000
# 6 0.000000 0.000000 0.000000 -0.110616 0.000000 0.132286
#
#
# Mechanical properties :
#
#
# Convention : Reuss Voigt Hill
#
# Bulk Modulus (GPa) = 38.39966 53.96554 46.18260
# Shear Modulus (GPa) = 13.18643 31.55528 22.37085
#
# Velocity S-wave (km/s) = 2.41455 3.73515 3.14495
# Velocity P-wave (km/s) = 4.97502 6.51623 5.79707
#
# Compressibility (1/GPa) = 0.02604190
#
# Stress axis : x y z
#
# Youngs Moduli (GPa) = 55.65429 124.17467 53.58852
#
# Poissons Ratio (x) = -0.08864 0.28088
# Poissons Ratio (y) = -0.03973 0.25682
# Poissons Ratio (z) = 0.29171 0.59509
#
# Static dielectric constant tensor:
#      x y z
#    x 1.946950 0.000000 -0.015500 
#    y 0.000000 1.781710 0.000000 
#    z -0.015500 0.000000 1.893510 
# 
# From -- ./inp_files/146113.got.cif
#   From: 2010.05.17/outbox.cif.g08.bks.cpg/sg12_74_cif.got.tgz:146113.got - 2010.06.03 13:09:07.
