data_PCOD9219492
_publ_section_title
;
Structure prediction by ZEFSAII (Michael W. Deem and Ramdas Pophale) SiO2 
 PCOD9219492
Probable space group: C 2/M
;
_chemical_formula_sum "Si O2"
_cell_formula_units_Z 64
_cell_length_a 11.567800
_cell_length_b 26.560677
_cell_length_c 14.835219
_cell_angle_alpha 90.000000
_cell_angle_beta 38.160415
_cell_angle_gamma 90.000000
_cell_volume 2816.292022
_symmetry_space_group_name_H-M "C 2/M"
_symmetry_group_IT_number 12
_symmetry_cell_setting 'monoclinic'
loop_
_space_group_symop_operation_xyz
x,y,z
-x,y,-z
-x,-y,-z
x,-y,z
1/2+x,1/2+y,z
1/2-x,1/2+y,-z
1/2-x,1/2-y,-z
1/2+x,1/2-y,z
loop_
_atom_site_type_symbol
_atom_site_label
_atom_site_fract_x
_atom_site_fract_y
_atom_site_fract_z
Si Si1 0.780456 0.266705 0.126338
Si Si2 0.295374 0.554790 0.173117
Si Si3 0.530499 0.554371 0.196028
Si Si4 0.210872 0.837999 0.334636
Si Si5 0.292960 0.809470 0.478279
Si Si6 0.015652 0.837535 0.192510
Si Si7 0.808874 0.663972 0.755711
Si Si8 0.640290 0.554577 0.329606
O O1 0.716963 0.292934 0.259376
O O2 0.669726 0.295983 0.117057
O O3 0.730947 0.208250 0.149808
O O4 0.000000 0.273548 0.000000
O O5 0.211296 0.500000 0.203269
O O6 0.341066 0.555746 0.252781
O O7 0.191146 0.606012 0.213774
O O8 0.500000 0.556749 0.000000
O O9 0.619292 0.500000 0.117044
O O10 0.615783 0.608452 0.120097
O O11 0.523072 0.555072 0.308400
O O12 0.322328 0.827729 0.357754
O O13 0.253156 0.892968 0.266231
O O14 0.000000 0.839777 0.500000
O O15 0.250000 0.750000 0.500000
O O16 0.122055 0.836011 0.635205
O O17 0.487839 0.822007 0.406924
O O18 0.868270 0.830182 0.202793
O O19 0.500000 0.554300 0.500000
O O20 0.742361 0.500000 0.267847
#
# Coordination Sequence:
#
# PCOD9219492 Si02
#       8
#     8   8   8   8   8   8   8   8
#     4  12  25  41  61  91 129 168 211 267 329 385
#     4   9  19  39  64  88 123 172 222 273 329 395
#     4   9  17  33  60  90 122 163 210 262 324 384
#     4  11  20  39  63  86 123 168 215 262 321 389
#     4  12  22  40  64  90 126 169 215 264 322 391
#     4  11  21  41  64  92 126 165 214 266 320 396
#     4  11  24  40  62  96 125 165 215 268 331 397
#     4   9  16  29  55  90 121 157 209 262 323 388
#
# _framework density 22.724917000000001
#
# number of rings (size 3 to 8) (size 9 to 14) (size 15 to 20)
#    0.000    1.500    3.750    2.250    0.000    0.500 
#    4.500    1.250    0.000    4.500    0.000    0.000 
#    0.000    0.000    0.000    0.000    0.000    0.000 
#
# Total GULP energy -178464.463201 kJ/mol
# GULP energy per Si atom -5577.014475 kJ/mol
# Density = 2.267319 g / cm^3
# Si number density = 22.724917 Si / 1000 Ang^3
#
#
#
# Elastic Constant Matrix: (Units=GPa)
#
#
# Indices 1 2 3 4 5 6 
#
# 1 89.8330 52.1440 31.0691 0.0000 4.3091 0.0000
# 2 52.1440 241.5644 28.8518 0.0000 -7.3712 0.0000
# 3 31.0691 28.8518 48.5440 0.0000 -3.5003 0.0000
# 4 0.0000 0.0000 0.0000 -0.9493 0.0000 -9.7423
# 5 4.3091 -7.3712 -3.5003 0.0000 40.5787 0.0000
# 6 0.0000 0.0000 0.0000 -9.7423 0.0000 29.8797
#
#
#
# Elastic Compliance Matrix: (Units=1/GPa)
#
#
# Indices 1 2 3 4 5 6 
#
# 1 0.015735 -0.002429 -0.008834 0.000000 -0.002874 0.000000
# 2 -0.002429 0.004845 -0.001251 0.000000 0.001030 0.000000
# 3 -0.008834 -0.001251 0.027218 0.000000 0.003059 0.000000
# 4 0.000000 0.000000 0.000000 -0.242380 0.000000 -0.079028
# 5 -0.002874 0.001030 0.003059 0.000000 0.025400 0.000000
# 6 0.000000 0.000000 0.000000 -0.079028 0.000000 0.007701
#
#
# Mechanical properties :
#
#
# Convention : Reuss Voigt Hill
#
# Bulk Modulus (GPa) = 43.91779 67.11902 55.51840
# Shear Modulus (GPa) = -38.80050 31.76027 -3.52012
#
# Velocity S-wave (km/s) = -4.13655 3.74250 -1.24594
# Velocity P-wave (km/s) = 1.85660 6.94799 4.73432
#
# Compressibility (1/GPa) = 0.02276982
#
# Stress axis : x y z
#
# Youngs Moduli (GPa) = 63.55270 206.40582 36.74080
#
# Poissons Ratio (x) = 0.50138 0.32458
# Poissons Ratio (y) = 0.15438 0.04595
# Poissons Ratio (z) = 0.56144 0.25812
#
# Static dielectric constant tensor:
#      x y z
#    x 1.903330 0.000000 0.136190 
#    y 0.000000 1.906600 0.000000 
#    z 0.136190 0.000000 0.750950 
# 
# From -- ./inp_files/209393.got.cif
#   From: 2010.05.17/outbox.cif.g08.bks.cpg/sg12_105_cif.got.tgz:209393.got - 2010.06.03 13:09:07.
