data_PCOD9219012
_publ_section_title
;
Structure prediction by ZEFSAII (Michael W. Deem and Ramdas Pophale) SiO2 
 PCOD9219012
Probable space group: C 2/M
;
_chemical_formula_sum "Si O2"
_cell_formula_units_Z 48
_cell_length_a 13.762971
_cell_length_b 21.859790
_cell_length_c 14.298994
_cell_angle_alpha 90.000000
_cell_angle_beta 149.948030
_cell_angle_gamma 90.000000
_cell_volume 2154.345005
_symmetry_space_group_name_H-M "C 2/M"
_symmetry_group_IT_number 12
_symmetry_cell_setting 'monoclinic'
loop_
_space_group_symop_operation_xyz
x,y,z
-x,y,-z
-x,-y,-z
x,-y,z
1/2+x,1/2+y,z
1/2-x,1/2+y,-z
1/2-x,1/2-y,-z
1/2+x,1/2-y,z
loop_
_atom_site_type_symbol
_atom_site_label
_atom_site_fract_x
_atom_site_fract_y
_atom_site_fract_z
Si Si1 0.728537 0.725760 0.218328
Si Si2 0.557671 0.231522 0.784351
Si Si3 0.886353 0.608314 0.692337
Si Si4 0.186878 0.930047 0.910319
Si Si5 0.730101 0.131247 0.214920
Si Si6 0.854342 0.849577 0.671401
O O1 0.866936 0.704386 0.249800
O O2 0.784559 0.797601 0.272198
O O3 0.741925 0.683291 0.320203
O O4 0.500000 0.724403 0.000000
O O5 0.451594 0.179519 0.754266
O O6 0.427542 0.291798 0.670314
O O7 0.750000 0.250000 0.000000
O O8 0.752575 0.596956 0.671362
O O9 0.777378 0.607191 0.503034
O O10 0.089688 0.573439 0.870041
O O11 0.177050 0.900413 0.798133
O O12 0.045808 0.888384 0.855493
O O13 0.124565 0.000000 0.856369
O O14 0.500000 0.129668 0.000000
#
# Coordination Sequence:
#
# PCOD9219012 Si02
#       6
#     8   8   8   8   8   8
#     4  11  19  34  63  94 135 171 207 271 334 400
#     4  12  19  38  64  94 137 170 210 273 341 401
#     4  11  23  39  60  95 131 170 218 274 332 390
#     4  11  24  45  68  92 134 184 226 272 324 393
#     4   9  18  35  60  91 126 172 213 259 332 390
#     4  12  24  39  63  99 133 171 223 268 337 398
#
# _framework density 22.280553999999999
#
# number of rings (size 3 to 8) (size 9 to 14) (size 15 to 20)
#    0.000    1.000    6.667    1.500    0.000    5.000 
#    0.000    0.833    0.000    4.500    0.000    5.833 
#    0.000    0.000    0.000    0.000    0.000    0.000 
#
# Total GULP energy -134160.949421 kJ/mol
# GULP energy per Si atom -5590.039559 kJ/mol
# Density = 2.222984 g / cm^3
# Si number density = 22.280554 Si / 1000 Ang^3
#
#
#
# Elastic Constant Matrix: (Units=GPa)
#
#
# Indices 1 2 3 4 5 6 
#
# 1 134.1373 26.8017 18.8536 0.0000 -19.9408 0.0000
# 2 26.8017 93.9617 3.8296 0.0000 0.6977 0.0000
# 3 18.8536 3.8296 94.4388 0.0000 -14.9876 0.0000
# 4 0.0000 0.0000 0.0000 12.6863 0.0000 2.3100
# 5 -19.9408 0.6977 -14.9876 0.0000 20.1995 0.0000
# 6 0.0000 0.0000 0.0000 2.3100 0.0000 12.9359
#
#
#
# Elastic Compliance Matrix: (Units=1/GPa)
#
#
# Indices 1 2 3 4 5 6 
#
# 1 0.009406 -0.002738 -0.000315 0.000000 0.009146 0.000000
# 2 -0.002738 0.011468 -0.000465 0.000000 -0.003444 0.000000
# 3 -0.000315 -0.000465 0.012042 0.000000 0.008640 0.000000
# 4 0.000000 0.000000 0.000000 0.081474 0.000000 -0.014549
# 5 0.009146 -0.003444 0.008640 0.000000 0.065065 0.000000
# 6 0.000000 0.000000 0.000000 -0.014549 0.000000 0.079902
#
#
# Mechanical properties :
#
#
# Convention : Reuss Voigt Hill
#
# Bulk Modulus (GPa) = 38.64081 46.83417 42.73749
# Shear Modulus (GPa) = 18.18047 27.36787 22.77417
#
# Velocity S-wave (km/s) = 2.85963 3.50856 3.20058
# Velocity P-wave (km/s) = 5.31825 6.12202 5.73424
#
# Compressibility (1/GPa) = 0.02587937
#
# Stress axis : x y z
#
# Youngs Moduli (GPa) = 106.31356 87.19781 83.04426
#
# Poissons Ratio (x) = 0.23875 0.02618
# Poissons Ratio (y) = 0.29110 0.03862
# Poissons Ratio (z) = 0.03352 0.04055
#
# Static dielectric constant tensor:
#      x y z
#    x 1.850570 0.000000 -0.016040 
#    y 0.000000 1.796880 0.000000 
#    z -0.016040 0.000000 1.915360 
# 
# From -- ./inp_files/218560.got.cif
#   From: 2010.05.17/outbox.cif.g08.bks.cpg/sg12_110_cif.got.tgz:218560.got - 2010.06.03 13:09:07.
