data_PCOD9219656
_publ_section_title
;
Structure prediction by ZEFSAII (Michael W. Deem and Ramdas Pophale) SiO2 
 PCOD9219656
Probable space group: C 2/M
;
_chemical_formula_sum "Si O2"
_cell_formula_units_Z 40
_cell_length_a 14.948801
_cell_length_b 8.287888
_cell_length_c 27.763079
_cell_angle_alpha 90.000000
_cell_angle_beta 141.729680
_cell_angle_gamma 90.000000
_cell_volume 2130.442064
_symmetry_space_group_name_H-M "C 2/M"
_symmetry_group_IT_number 12
_symmetry_cell_setting 'monoclinic'
loop_
_space_group_symop_operation_xyz
x,y,z
-x,y,-z
-x,-y,-z
x,-y,z
1/2+x,1/2+y,z
1/2-x,1/2+y,-z
1/2-x,1/2-y,-z
1/2+x,1/2-y,z
loop_
_atom_site_type_symbol
_atom_site_label
_atom_site_fract_x
_atom_site_fract_y
_atom_site_fract_z
Si Si1 0.957485 0.691408 0.295237
Si Si2 0.177592 0.693646 0.121458
Si Si3 0.354257 0.805153 0.001369
Si Si4 0.998486 0.195321 0.420709
Si Si5 0.229915 0.196410 0.594459
O O1 0.953160 0.500000 0.287028
O O2 0.813173 0.759831 0.210884
O O3 0.973740 0.731479 0.358292
O O4 0.106308 0.754537 0.334398
O O5 0.169707 0.500000 0.116363
O O6 0.193541 0.749015 0.072574
O O7 0.022005 0.749122 0.076250
O O8 0.353266 0.000000 0.001362
O O9 0.250000 0.750000 0.000000
O O10 0.868843 0.241719 0.402088
O O11 0.145404 0.246583 0.510167
O O12 0.999953 0.000000 0.417462
O O13 0.231512 0.000000 0.594222
#
# Coordination Sequence:
#
# PCOD9219656 Si02
#       5
#     8   8   8   8   8
#     4  11  21  32  49  78 108 131 164 216 259 290
#     4   9  20  38  54  74 104 138 169 198 244 312
#     4   9  19  37  60  79 100 131 168 206 248 299
#     4   9  17  34  55  71  95 138 179 209 249 306
#     4   8  17  33  52  72  98 135 177 211 249 302
#
# _framework density 18.775445000000001
#
# number of rings (size 3 to 8) (size 9 to 14) (size 15 to 20)
#    0.000    2.800    0.000    3.600    0.000    3.200 
#    0.000   13.000    0.000    0.000    0.000    0.000 
#    0.000    0.000    0.000    0.000    0.000    0.000 
#
# Total GULP energy -111521.835341 kJ/mol
# GULP energy per Si atom -5576.091767 kJ/mol
# Density = 1.873271 g / cm^3
# Si number density = 18.775445 Si / 1000 Ang^3
#
#
#
# Elastic Constant Matrix: (Units=GPa)
#
#
# Indices 1 2 3 4 5 6 
#
# 1 91.6003 8.9211 37.5338 0.0000 26.2528 0.0000
# 2 8.9211 9.5684 9.3475 0.0000 4.6468 0.0000
# 3 37.5338 9.3475 102.7283 0.0000 28.5186 0.0000
# 4 0.0000 0.0000 0.0000 21.8502 0.0000 -3.9124
# 5 26.2528 4.6468 28.5186 0.0000 15.8071 0.0000
# 6 0.0000 0.0000 0.0000 -3.9124 0.0000 24.6846
#
#
#
# Elastic Compliance Matrix: (Units=1/GPa)
#
#
# Indices 1 2 3 4 5 6 
#
# 1 0.021796 -0.003698 0.004248 0.000000 -0.042777 0.000000
# 2 -0.003698 0.122813 -0.003018 0.000000 -0.024517 0.000000
# 3 0.004248 -0.003018 0.020373 0.000000 -0.042925 0.000000
# 4 0.000000 0.000000 0.000000 0.047103 0.000000 0.007466
# 5 -0.042777 -0.024517 -0.042925 0.000000 0.218960 0.000000
# 6 0.000000 0.000000 0.000000 0.007466 0.000000 0.041694
#
#
# Mechanical properties :
#
#
# Convention : Reuss Voigt Hill
#
# Bulk Modulus (GPa) = 6.24812 35.05573 20.65192
# Shear Modulus (GPa) = 9.41578 22.34135 15.87857
#
# Velocity S-wave (km/s) = 2.24184 3.45327 2.91126
# Velocity P-wave (km/s) = 3.16799 5.88317 4.72482
#
# Compressibility (1/GPa) = 0.16004824
#
# Stress axis : x y z
#
# Youngs Moduli (GPa) = 45.87903 8.14247 49.08359
#
# Poissons Ratio (x) = 0.03011 -0.20852
# Poissons Ratio (y) = 0.16965 0.14812
# Poissons Ratio (z) = -0.19490 0.02457
#
# Static dielectric constant tensor:
#      x y z
#    x 1.645940 0.000000 0.024460 
#    y 0.000000 1.657120 0.000000 
#    z 0.024460 0.000000 1.645250 
# 
# From -- ./inp_files/211458.got.cif
#   From: 2010.05.17/outbox.cif.g08.bks.cpg/sg12_106_cif.got.tgz:211458.got - 2010.06.03 13:09:07.
