data_PCOD9219741
_publ_section_title
;
Structure prediction by ZEFSAII (Michael W. Deem and Ramdas Pophale) SiO2 
 PCOD9219741
Probable space group: C 2/M
;
_chemical_formula_sum "Si O2"
_cell_formula_units_Z 48
_cell_length_a 29.084771
_cell_length_b 17.163892
_cell_length_c 9.415063
_cell_angle_alpha 90.000000
_cell_angle_beta 27.257044
_cell_angle_gamma 90.000000
_cell_volume 2152.554755
_symmetry_space_group_name_H-M "C 2/M"
_symmetry_group_IT_number 12
_symmetry_cell_setting 'monoclinic'
loop_
_space_group_symop_operation_xyz
x,y,z
-x,y,-z
-x,-y,-z
x,-y,z
1/2+x,1/2+y,z
1/2-x,1/2+y,-z
1/2-x,1/2-y,-z
1/2+x,1/2-y,z
loop_
_atom_site_type_symbol
_atom_site_label
_atom_site_fract_x
_atom_site_fract_y
_atom_site_fract_z
Si Si1 0.403781 0.204895 0.124662
Si Si2 0.156023 0.412792 0.478536
Si Si3 0.971012 0.211997 0.426520
Si Si4 0.275703 0.650886 0.579472
Si Si5 0.365332 0.581055 0.068802
Si Si6 0.714424 0.595338 0.126700
O O1 0.400162 0.137172 0.249872
O O2 0.352215 0.276898 0.349685
O O3 0.328193 0.180422 0.204563
O O4 0.507010 0.229977 0.765267
O O5 0.114434 0.500000 0.587360
O O6 0.269706 0.415487 0.230126
O O7 0.184147 0.387822 0.241572
O O8 0.871532 0.157766 0.688772
O O9 0.000000 0.248310 0.500000
O O10 0.061017 0.150503 0.160561
O O11 0.321414 0.587557 0.346958
O O12 0.269352 0.617866 0.753843
O O13 0.420463 0.500000 0.895358
O O14 0.693300 0.500000 0.171552
#
# Coordination Sequence:
#
# PCOD9219741 Si02
#       6
#     8   8   8   8   8   8
#     4   9  20  38  55  77 115 162 204 229 285 358
#     4   9  18  34  56  81 108 149 196 239 288 344
#     4  11  21  34  53  83 122 160 192 235 298 358
#     4   9  19  34  54  78 113 157 198 239 275 344
#     4   9  16  29  49  72 109 153 185 220 279 349
#     4  11  22  34  57  94 125 149 187 244 303 347
#
# _framework density 22.299084000000001
#
# number of rings (size 3 to 8) (size 9 to 14) (size 15 to 20)
#    0.000    2.333    1.667    2.000    0.000    4.667 
#    0.000    4.167    0.000    0.500    0.000    2.333 
#    0.000    0.000    0.000    0.000    0.000    0.000 
#
# Total GULP energy -133835.400523 kJ/mol
# GULP energy per Si atom -5576.475022 kJ/mol
# Density = 2.224833 g / cm^3
# Si number density = 22.299084 Si / 1000 Ang^3
#
#
#
# Elastic Constant Matrix: (Units=GPa)
#
#
# Indices 1 2 3 4 5 6 
#
# 1 92.7518 7.2688 41.3974 0.0000 31.7346 0.0000
# 2 7.2688 64.0646 62.2158 0.0000 11.7072 0.0000
# 3 41.3974 62.2158 107.7579 0.0000 25.8370 0.0000
# 4 0.0000 0.0000 0.0000 64.5325 0.0000 19.5792
# 5 31.7346 11.7072 25.8370 0.0000 44.5416 0.0000
# 6 0.0000 0.0000 0.0000 19.5792 0.0000 24.0186
#
#
#
# Elastic Compliance Matrix: (Units=1/GPa)
#
#
# Indices 1 2 3 4 5 6 
#
# 1 0.017674 0.009389 -0.009989 0.000000 -0.009266 0.000000
# 2 0.009389 0.040862 -0.026739 0.000000 -0.001919 0.000000
# 3 -0.009989 -0.026739 0.029230 0.000000 -0.002810 0.000000
# 4 0.000000 0.000000 0.000000 0.020588 0.000000 -0.016783
# 5 -0.009266 -0.001919 -0.002810 0.000000 0.031187 0.000000
# 6 0.000000 0.000000 0.000000 -0.016783 0.000000 0.055315
#
#
# Mechanical properties :
#
#
# Convention : Reuss Voigt Hill
#
# Bulk Modulus (GPa) = 30.22342 54.03760 42.13051
# Shear Modulus (GPa) = 19.18913 36.86470 28.02692
#
# Velocity S-wave (km/s) = 2.93667 4.07036 3.54907
# Velocity P-wave (km/s) = 5.00817 6.81000 5.97737
#
# Compressibility (1/GPa) = 0.03308693
#
# Stress axis : x y z
#
# Youngs Moduli (GPa) = 56.57949 24.47250 34.21186
#
# Poissons Ratio (x) = -0.22976 0.34174
# Poissons Ratio (y) = -0.53120 0.91480
# Poissons Ratio (z) = 0.56517 0.65438
#
# Static dielectric constant tensor:
#      x y z
#    x 1.851990 0.000000 0.027590 
#    y 0.000000 1.856630 0.000000 
#    z 0.027590 0.000000 1.838240 
# 
# From -- ./inp_files/112729.got.cif
#   From: 2010.05.17/outbox.cif.g08.bks.cpg/sg12_57_cif.got.tgz:112729.got - 2010.06.03 13:09:07.
