data_PCOD9219915
_publ_section_title
;
Structure prediction by ZEFSAII (Michael W. Deem and Ramdas Pophale) SiO2 
 PCOD9219915
Probable space group: C 2/M
;
_chemical_formula_sum "Si O2"
_cell_formula_units_Z 56
_cell_length_a 20.710420
_cell_length_b 8.643862
_cell_length_c 22.654590
_cell_angle_alpha 90.000000
_cell_angle_beta 48.380159
_cell_angle_gamma 90.000000
_cell_volume 3031.822130
_symmetry_space_group_name_H-M "C 2/M"
_symmetry_group_IT_number 12
_symmetry_cell_setting 'monoclinic'
loop_
_space_group_symop_operation_xyz
x,y,z
-x,y,-z
-x,-y,-z
x,-y,z
1/2+x,1/2+y,z
1/2-x,1/2+y,-z
1/2-x,1/2-y,-z
1/2+x,1/2-y,z
loop_
_atom_site_type_symbol
_atom_site_label
_atom_site_fract_x
_atom_site_fract_y
_atom_site_fract_z
Si Si1 0.571247 0.685111 0.247075
Si Si2 0.690710 0.684210 0.731692
Si Si3 0.500172 0.815295 0.831062
Si Si4 0.075479 0.815066 0.001791
Si Si5 0.500400 0.185068 0.591133
Si Si6 0.135150 0.185244 0.421404
Si Si7 0.267904 0.815979 0.164868
O O1 0.560015 0.500000 0.253191
O O2 0.546066 0.754893 0.199633
O O3 0.513794 0.757872 0.334001
O O4 0.671023 0.718293 0.202500
O O5 0.687381 0.500000 0.727767
O O6 0.598751 0.756444 0.771354
O O7 0.768528 0.753224 0.645830
O O8 0.711204 0.728634 0.787050
O O9 0.454427 0.746971 0.916919
O O10 0.498408 0.000000 0.834634
O O11 0.086804 0.000000 0.997177
O O12 0.162307 0.735893 0.925692
O O13 0.000000 0.781490 0.000000
O O14 0.422363 0.253415 0.598662
O O15 0.587115 0.249356 0.508205
O O16 0.498468 0.000000 0.588592
O O17 0.133112 0.000000 0.422432
O O18 0.274604 0.000000 0.171644
#
# Coordination Sequence:
#
# PCOD9219915 Si02
#       7
#     8   8   8   8   8   8   8
#     4  11  24  43  64  91 129 167 207 255 314 373
#     4  12  23  39  63  93 126 162 208 258 311 368
#     4  12  26  43  65  91 125 166 209 255 314 376
#     4  11  23  40  64  93 125 162 207 257 311 366
#     4  11  21  36  60  92 127 164 207 256 311 365
#     4  11  21  36  60  92 126 163 209 258 308 361
#     4  11  23  39  65  94 123 162 208 257 309 368
#
# _framework density 18.470739999999999
#
# number of rings (size 3 to 8) (size 9 to 14) (size 15 to 20)
#    0.000    0.714    2.857    7.286    0.000    2.857 
#    0.000    0.714    0.000    0.000    0.000    0.000 
#    0.000    0.000    0.000    0.000    0.000    0.000 
#
# Total GULP energy -156684.785698 kJ/mol
# GULP energy per Si atom -5595.885204 kJ/mol
# Density = 1.842870 g / cm^3
# Si number density = 18.470740 Si / 1000 Ang^3
#
#
#
# Elastic Constant Matrix: (Units=GPa)
#
#
# Indices 1 2 3 4 5 6 
#
# 1 58.1891 26.8375 22.6633 -0.0001 8.5376 0.0003
# 2 26.8375 92.6241 21.8700 -0.0001 8.7213 0.0001
# 3 22.6633 21.8700 115.3047 -0.0001 1.8562 0.0003
# 4 -0.0001 -0.0001 -0.0001 36.8131 0.0000 1.6911
# 5 8.5376 8.7213 1.8562 0.0000 33.5169 -0.0001
# 6 0.0003 0.0001 0.0003 1.6911 -0.0001 25.8659
#
#
#
# Elastic Compliance Matrix: (Units=1/GPa)
#
#
# Indices 1 2 3 4 5 6 
#
# 1 0.021333 -0.005062 -0.003169 0.000000 -0.003941 0.000000
# 2 -0.005062 0.012777 -0.001397 0.000000 -0.001958 0.000000
# 3 -0.003169 -0.001397 0.009550 0.000000 0.000642 0.000000
# 4 0.000000 0.000000 0.000000 0.027246 0.000000 -0.001781
# 5 -0.003941 -0.001958 0.000642 0.000000 0.031314 0.000000
# 6 0.000000 0.000000 0.000000 -0.001781 0.000000 0.038777
#
#
# Mechanical properties :
#
#
# Convention : Reuss Voigt Hill
#
# Bulk Modulus (GPa) = 40.97731 45.42885 43.20308
# Shear Modulus (GPa) = 29.69335 32.22231 30.95783
#
# Velocity S-wave (km/s) = 4.01382 4.18126 4.09840
# Velocity P-wave (km/s) = 6.61167 6.92524 6.77027
#
# Compressibility (1/GPa) = 0.02440375
#
# Stress axis : x y z
#
# Youngs Moduli (GPa) = 46.87675 78.26486 104.70892
#
# Poissons Ratio (x) = 0.39614 0.33187
# Poissons Ratio (y) = 0.23727 0.14629
# Poissons Ratio (z) = 0.14857 0.10934
#
# Static dielectric constant tensor:
#      x y z
#    x 1.608780 0.000000 -0.005760 
#    y 0.000000 1.613760 0.000000 
#    z -0.005760 0.000000 1.625300 
# 
# From -- ./inp_files/319650.got.cif
#   From: 2010.05.17/outbox.cif.g08.bks.cpg/sg12_160_cif.got.tgz:319650.got - 2010.06.03 13:09:07.
