data_PCOD9219450
_publ_section_title
;
Structure prediction by ZEFSAII (Michael W. Deem and Ramdas Pophale) SiO2 
 PCOD9219450
Probable space group: C 2/M
;
_chemical_formula_sum "Si O2"
_cell_formula_units_Z 42
_cell_length_a 9.361888
_cell_length_b 16.508664
_cell_length_c 12.656471
_cell_angle_alpha 90.000000
_cell_angle_beta 103.373407
_cell_angle_gamma 90.000000
_cell_volume 1903.043706
_symmetry_space_group_name_H-M "C 2/M"
_symmetry_group_IT_number 12
_symmetry_cell_setting 'monoclinic'
loop_
_space_group_symop_operation_xyz
x,y,z
-x,y,-z
-x,-y,-z
x,-y,z
1/2+x,1/2+y,z
1/2-x,1/2+y,-z
1/2-x,1/2-y,-z
1/2+x,1/2-y,z
loop_
_atom_site_type_symbol
_atom_site_label
_atom_site_fract_x
_atom_site_fract_y
_atom_site_fract_z
Si Si1 0.623581 0.813537 0.113113
Si Si2 0.008845 0.373941 0.698545
Si Si3 0.165342 0.138265 0.230725
Si Si4 0.396947 0.713203 0.572303
Si Si5 0.893484 0.088946 0.079759
Si Si6 0.000000 0.500000 0.500000
O O1 0.586905 0.870213 0.209493
O O2 0.646057 0.724075 0.166240
O O3 0.772351 0.845329 0.084883
O O4 0.500000 0.814122 0.000000
O O5 0.173502 0.393515 0.767572
O O6 0.977709 0.430100 0.591554
O O7 0.991512 0.282317 0.649336
O O8 0.164460 0.151034 0.354814
O O9 0.018586 0.088073 0.188951
O O10 0.500000 0.677889 0.500000
O O11 0.250000 0.750000 0.500000
O O12 0.826042 0.000000 0.053061
O O13 0.000000 0.106832 0.000000
#
# Coordination Sequence:
#
# PCOD9219450 Si02
#       6
#     8   8   8   8   8   2
#     4  11  24  44  74 104 132 176 234 284 342 413
#     4  11  24  40  67  96 132 178 226 276 333 410
#     4  11  23  42  69  99 132 177 228 287 341 404
#     4  11  20  38  61  94 128 170 229 289 335 391
#     4  11  26  45  65  98 144 177 219 279 349 412
#     4  12  24  44  62  94 136 184 224 268 334 412
#
# _framework density 22.069908999999999
#
# number of rings (size 3 to 8) (size 9 to 14) (size 15 to 20)
#    0.000    0.952    2.857    4.000    5.333    2.667 
#    0.000    0.000    0.000    1.714    0.000    0.000 
#    0.000    0.000    0.000    0.000    0.000    0.000 
#
# Total GULP energy -116905.653355 kJ/mol
# GULP energy per Si atom -5566.935874 kJ/mol
# Density = 2.201968 g / cm^3
# Si number density = 22.069909 Si / 1000 Ang^3
#
#
#
# Elastic Constant Matrix: (Units=GPa)
#
#
# Indices 1 2 3 4 5 6 
#
# 1 94.6282 21.5459 22.4511 0.0000 -2.5318 0.0000
# 2 21.5459 65.8485 7.9905 0.0000 -15.7451 0.0000
# 3 22.4511 7.9905 113.9525 0.0000 -14.8873 0.0000
# 4 0.0000 0.0000 0.0000 9.5467 0.0000 -2.6795
# 5 -2.5318 -15.7451 -14.8873 0.0000 45.8127 0.0000
# 6 0.0000 0.0000 0.0000 -2.6795 0.0000 12.0819
#
#
#
# Elastic Compliance Matrix: (Units=1/GPa)
#
#
# Indices 1 2 3 4 5 6 
#
# 1 0.011975 -0.003989 -0.002269 0.000000 -0.001446 0.000000
# 2 -0.003989 0.017896 0.000319 0.000000 0.006034 0.000000
# 3 -0.002269 0.000319 0.009606 0.000000 0.003106 0.000000
# 4 0.000000 0.000000 0.000000 0.111701 0.000000 0.024773
# 5 -0.001446 0.006034 0.003106 0.000000 0.024831 0.000000
# 6 0.000000 0.000000 0.000000 0.024773 0.000000 0.088263
#
#
# Mechanical properties :
#
#
# Convention : Reuss Voigt Hill
#
# Bulk Modulus (GPa) = 36.23140 42.04492 39.13816
# Shear Modulus (GPa) = 17.52244 28.31770 22.92007
#
# Velocity S-wave (km/s) = 2.82077 3.58591 3.22611
# Velocity P-wave (km/s) = 5.20205 6.01973 5.62576
#
# Compressibility (1/GPa) = 0.02760037
#
# Stress axis : x y z
#
# Youngs Moduli (GPa) = 83.50396 55.87970 104.10224
#
# Poissons Ratio (x) = 0.22290 0.23617
# Poissons Ratio (y) = 0.33310 -0.03324
# Poissons Ratio (z) = 0.18944 -0.01784
#
# Static dielectric constant tensor:
#      x y z
#    x 1.843550 0.000000 -0.018890 
#    y 0.000000 1.888780 0.000000 
#    z -0.018890 0.000000 1.732060 
# 
# From -- ./inp_files/120625.got.cif
#   From: 2010.05.17/outbox.cif.g08.bks.cpg/sg12_61_cif.got.tgz:120625.got - 2010.06.03 13:09:07.
