data_PCOD9219580
_publ_section_title
;
Structure prediction by ZEFSAII (Michael W. Deem and Ramdas Pophale) SiO2 
 PCOD9219580
Probable space group: C 2/M
;
_chemical_formula_sum "Si O2"
_cell_formula_units_Z 48
_cell_length_a 11.631331
_cell_length_b 20.477238
_cell_length_c 14.851418
_cell_angle_alpha 90.000000
_cell_angle_beta 36.849128
_cell_angle_gamma 90.000000
_cell_volume 2121.338517
_symmetry_space_group_name_H-M "C 2/M"
_symmetry_group_IT_number 12
_symmetry_cell_setting 'monoclinic'
loop_
_space_group_symop_operation_xyz
x,y,z
-x,y,-z
-x,-y,-z
x,-y,z
1/2+x,1/2+y,z
1/2-x,1/2+y,-z
1/2-x,1/2-y,-z
1/2+x,1/2-y,z
loop_
_atom_site_type_symbol
_atom_site_label
_atom_site_fract_x
_atom_site_fract_y
_atom_site_fract_z
Si Si1 0.818995 0.137138 0.417131
Si Si2 0.214136 0.000000 0.828654
Si Si3 0.919153 0.633661 0.761061
Si Si4 0.836315 0.864242 0.675676
Si Si5 0.028470 0.425272 0.086960
Si Si6 0.209181 0.720586 0.319318
Si Si7 0.789298 0.500000 0.589061
O O1 0.642175 0.154702 0.597039
O O2 0.819305 0.180098 0.326353
O O3 0.754605 0.064397 0.436265
O O4 0.035517 0.136277 0.315656
O O5 0.343874 0.936871 0.771596
O O6 0.162974 0.000000 0.756180
O O7 0.000000 0.000000 0.000000
O O8 0.805914 0.684005 0.767102
O O9 0.885025 0.622250 0.889924
O O10 0.695247 0.923444 0.746394
O O11 0.730003 0.794706 0.735209
O O12 0.000000 0.866592 0.500000
O O13 0.104529 0.500000 0.041900
O O14 0.000000 0.403889 0.000000
O O15 0.000000 0.723209 0.500000
O O16 0.000000 0.500000 0.500000
#
# Coordination Sequence:
#
# PCOD9219580 Si02
#       7
#     8   4   8   8   8   8   4
#     4  11  21  36  68  99 129 159 212 270 319 374
#     4  12  24  38  62  98 130 169 218 260 322 383
#     4  11  20  42  64  91 128 170 205 265 323 372
#     4  11  24  39  66 100 125 169 216 260 311 388
#     4  11  26  45  63  85 131 176 215 254 320 384
#     4   9  21  37  64  99 129 159 207 267 325 367
#     4  12  20  38  62  95 130 161 211 268 325 372
#
# _framework density 22.627223999999998
#
# number of rings (size 3 to 8) (size 9 to 14) (size 15 to 20)
#    0.000    1.167    5.833    0.500    3.500    3.667 
#    0.000    1.667    0.000    0.000    0.000    0.000 
#    0.000    0.000    0.000    0.000    0.000    0.000 
#
# Total GULP energy -133629.537539 kJ/mol
# GULP energy per Si atom -5567.897397 kJ/mol
# Density = 2.257572 g / cm^3
# Si number density = 22.627224 Si / 1000 Ang^3
#
#
#
# Elastic Constant Matrix: (Units=GPa)
#
#
# Indices 1 2 3 4 5 6 
#
# 1 94.1525 23.2447 -0.5798 0.0080 23.3770 -0.0108
# 2 23.2447 89.1512 1.0083 -0.0026 6.4514 -0.0326
# 3 -0.5798 1.0083 37.1269 -0.0109 21.6982 -0.0350
# 4 0.0080 -0.0026 -0.0109 19.3067 0.0029 -19.8385
# 5 23.3770 6.4514 21.6982 0.0029 47.3380 0.0023
# 6 -0.0108 -0.0326 -0.0350 -19.8385 0.0023 149.1000
#
#
#
# Elastic Compliance Matrix: (Units=1/GPa)
#
#
# Indices 1 2 3 4 5 6 
#
# 1 0.013567 -0.002963 0.005425 0.000000 -0.008782 0.000002
# 2 -0.002963 0.011994 -0.000371 0.000006 -0.000001 0.000003
# 3 0.005425 -0.000371 0.039018 0.000038 -0.020513 0.000015
# 4 0.000000 0.000006 0.000038 0.059998 -0.000023 0.007983
# 5 -0.008782 -0.000001 -0.020513 -0.000023 0.034864 -0.000009
# 6 0.000002 0.000003 0.000015 0.007983 -0.000009 0.007769
#
#
# Mechanical properties :
#
#
# Convention : Reuss Voigt Hill
#
# Bulk Modulus (GPa) = 14.54339 29.75298 22.14818
# Shear Modulus (GPa) = 26.88912 56.26613 41.57762
#
# Velocity S-wave (km/s) = 3.45099 4.99205 4.29126
# Velocity P-wave (km/s) = 4.72445 6.81213 5.86198
#
# Compressibility (1/GPa) = 0.06875978
#
# Stress axis : x y z
#
# Youngs Moduli (GPa) = 73.71046 83.37678 25.62917
#
# Poissons Ratio (x) = 0.24705 -0.13904
# Poissons Ratio (y) = 0.21841 0.00952
# Poissons Ratio (z) = -0.39989 0.03096
#
# Static dielectric constant tensor:
#      x y z
#    x 1.951950 0.000010 0.077020 
#    y 0.000010 1.797470 0.000000 
#    z 0.077020 0.000000 1.922520 
# 
# From -- ./inp_files/207953.got.cif
#   From: 2010.05.17/outbox.cif.g08.bks.cpg/sg12_104_cif.got.tgz:207953.got - 2010.06.03 13:09:07.
