data_PCOD9219397
_publ_section_title
;
Structure prediction by ZEFSAII (Michael W. Deem and Ramdas Pophale) SiO2 
 PCOD9219397
Probable space group: C 2/M
;
_chemical_formula_sum "Si O2"
_cell_formula_units_Z 64
_cell_length_a 8.569356
_cell_length_b 15.596777
_cell_length_c 28.429828
_cell_angle_alpha 90.000000
_cell_angle_beta 54.060522
_cell_angle_gamma 90.000000
_cell_volume 3076.435791
_symmetry_space_group_name_H-M "C 2/M"
_symmetry_group_IT_number 12
_symmetry_cell_setting 'monoclinic'
loop_
_space_group_symop_operation_xyz
x,y,z
-x,y,-z
-x,-y,-z
x,-y,z
1/2+x,1/2+y,z
1/2-x,1/2+y,-z
1/2-x,1/2-y,-z
1/2+x,1/2-y,z
loop_
_atom_site_type_symbol
_atom_site_label
_atom_site_fract_x
_atom_site_fract_y
_atom_site_fract_z
Si Si1 0.948398 0.146635 0.626402
Si Si2 0.237139 0.783007 0.800148
Si Si3 0.810266 0.402536 0.507199
Si Si4 0.291600 0.906552 0.705459
Si Si5 0.553711 0.194077 0.039525
Si Si6 0.140467 0.330579 0.598869
Si Si7 0.140670 0.903392 0.255279
Si Si8 0.850017 0.709092 0.879053
O O1 0.130008 0.095638 0.573954
O O2 0.042891 0.238298 0.620598
O O3 0.794420 0.155967 0.612300
O O4 0.848263 0.110091 0.690633
O O5 0.299409 0.832898 0.743018
O O6 0.275331 0.680810 0.785836
O O7 0.345204 0.822665 0.826153
O O8 0.006806 0.786143 0.849041
O O9 0.850731 0.500000 0.484985
O O10 0.771431 0.346474 0.467946
O O11 0.000000 0.368439 0.500000
O O12 0.463318 0.894973 0.638509
O O13 0.086662 0.900742 0.716327
O O14 0.305310 0.000000 0.725966
O O15 0.366106 0.255045 0.076568
O O16 0.587626 0.154730 0.085853
O O17 0.500000 0.145441 0.000000
O O18 0.750000 0.250000 0.000000
O O19 0.210819 0.000000 0.230148
#
# Coordination Sequence:
#
# PCOD9219397 Si02
#       8
#     8   8   8   8   8   8   8   8
#     4  12  25  41  63  88 116 153 201 253 315 380
#     4  11  20  37  56  85 122 163 207 254 306 359
#     4  11  24  43  64  87 117 149 192 256 317 380
#     4  11  24  41  61  86 120 164 207 256 316 377
#     4   8  14  28  50  86 130 163 203 257 302 350
#     4  12  25  41  63  88 116 153 201 253 316 379
#     4  11  24  41  61  86 120 164 208 255 315 379
#     4   9  18  29  54  84 124 167 203 255 306 350
#
# _framework density 20.803294999999999
#
# number of rings (size 3 to 8) (size 9 to 14) (size 15 to 20)
#    0.000    1.375    2.500    3.750    1.750    4.500 
#    0.000    0.000    0.000    0.000    0.000    0.000 
#    0.000  252.000    0.000    0.000    0.000    0.000 
#
# Total GULP energy -178398.286136 kJ/mol
# GULP energy per Si atom -5574.946442 kJ/mol
# Density = 2.075595 g / cm^3
# Si number density = 20.803295 Si / 1000 Ang^3
#
#
#
# Elastic Constant Matrix: (Units=GPa)
#
#
# Indices 1 2 3 4 5 6 
#
# 1 105.6971 19.5381 28.1017 -0.0001 12.7379 0.0000
# 2 19.5381 81.6130 14.6768 0.0000 4.3905 0.0000
# 3 28.1017 14.6768 81.5892 0.0000 12.3389 -0.0001
# 4 -0.0001 0.0000 0.0000 -4.1775 0.0000 -2.7512
# 5 12.7379 4.3905 12.3389 0.0000 50.6398 0.0000
# 6 0.0000 0.0000 -0.0001 -2.7512 0.0000 9.8022
#
#
#
# Elastic Compliance Matrix: (Units=1/GPa)
#
#
# Indices 1 2 3 4 5 6 
#
# 1 0.010867 -0.001943 -0.003121 0.000000 -0.001805 0.000000
# 2 -0.001943 0.013026 -0.001637 0.000000 -0.000242 0.000000
# 3 -0.003121 -0.001637 0.014002 0.000000 -0.002485 0.000000
# 4 0.000000 0.000000 0.000000 -0.202032 0.000000 -0.056705
# 5 -0.001805 -0.000242 -0.002485 0.000000 0.020828 0.000000
# 6 0.000000 0.000000 0.000000 -0.056705 0.000000 0.086102
#
#
# Mechanical properties :
#
#
# Convention : Reuss Voigt Hill
#
# Bulk Modulus (GPa) = 40.82914 43.72585 42.27749
# Shear Modulus (GPa) = -140.28811 25.02509 -57.63151
#
# Velocity S-wave (km/s) = -8.22082 3.47210 -5.26908
# Velocity P-wave (km/s) = 8.39287 6.09412 4.08056
#
# Compressibility (1/GPa) = 0.02449231
#
# Stress axis : x y z
#
# Youngs Moduli (GPa) = 92.01855 76.77182 71.42035
#
# Poissons Ratio (x) = 0.14920 0.22287
# Poissons Ratio (y) = 0.17883 0.11693
# Poissons Ratio (z) = 0.28715 0.12569
#
# Static dielectric constant tensor:
#      x y z
#    x 1.766700 0.000000 0.031570 
#    y 0.000000 1.755100 0.000000 
#    z 0.031570 0.000000 1.816140 
# 
# From -- ./inp_files/372368.got.cif
#   From: 2010.05.17/outbox.cif.g08.bks.cpg/sg12_187_cif.got.tgz:372368.got - 2010.06.03 13:09:07.
