data_PCOD9219647
_publ_section_title
;
Structure prediction by ZEFSAII (Michael W. Deem and Ramdas Pophale) SiO2 
 PCOD9219647
Probable space group: C 2/M
;
_chemical_formula_sum "Si O2"
_cell_formula_units_Z 40
_cell_length_a 14.707892
_cell_length_b 9.166243
_cell_length_c 17.646078
_cell_angle_alpha 90.000000
_cell_angle_beta 128.730039
_cell_angle_gamma 90.000000
_cell_volume 1855.844832
_symmetry_space_group_name_H-M "C 2/M"
_symmetry_group_IT_number 12
_symmetry_cell_setting 'monoclinic'
loop_
_space_group_symop_operation_xyz
x,y,z
-x,y,-z
-x,-y,-z
x,-y,z
1/2+x,1/2+y,z
1/2-x,1/2+y,-z
1/2-x,1/2-y,-z
1/2+x,1/2-y,z
loop_
_atom_site_type_symbol
_atom_site_label
_atom_site_fract_x
_atom_site_fract_y
_atom_site_fract_z
Si Si1 0.781853 0.834989 0.188545
Si Si2 0.018725 0.831352 0.207888
Si Si3 0.965584 0.168173 0.394873
Si Si4 0.152657 0.174625 0.002149
Si Si5 0.650680 0.830341 0.400163
O O1 0.901331 0.826253 0.199858
O O2 0.688390 0.726754 0.104136
O O3 0.832120 0.812012 0.299070
O O4 0.737698 0.000000 0.158221
O O5 0.116071 0.738085 0.301126
O O6 0.055467 0.000000 0.223027
O O7 0.970006 0.783020 0.100570
O O8 0.037318 0.294250 0.391291
O O9 0.000000 0.173718 0.500000
O O10 0.996480 0.000000 0.385703
O O11 0.160747 0.000000 0.001005
O O12 0.250000 0.250000 0.000000
O O13 0.750000 0.750000 0.500000
O O14 0.676885 0.000000 0.406835
#
# Coordination Sequence:
#
# PCOD9219647 Si02
#       5
#     8   8   8   8   8
#     4   8  14  24  39  60  86 115 146 181 221 267
#     4   8  15  27  40  58  86 117 149 184 225 270
#     4   9  18  33  50  68  94 126 157 191 231 272
#     4   9  15  22  35  56  84 115 143 178 223 268
#     4  11  21  32  48  69  94 123 156 193 231 274
#
# _framework density 21.553526000000002
#
# number of rings (size 3 to 8) (size 9 to 14) (size 15 to 20)
#    0.000    3.000    0.000    4.800    0.000    8.400 
#    0.000    0.000    0.000    0.000    0.000    1.400 
#    0.000   11.200    0.000    0.000    0.000    0.000 
#
# Total GULP energy -111435.705773 kJ/mol
# GULP energy per Si atom -5571.785289 kJ/mol
# Density = 2.150447 g / cm^3
# Si number density = 21.553526 Si / 1000 Ang^3
#
#
#
# Elastic Constant Matrix: (Units=GPa)
#
#
# Indices 1 2 3 4 5 6 
#
# 1 35.5130 4.7845 4.6289 0.0000 2.9622 0.0000
# 2 4.7845 112.8326 103.8135 0.0000 16.7785 0.0000
# 3 4.6289 103.8135 248.0884 0.0000 7.9428 0.0000
# 4 0.0000 0.0000 0.0000 45.9543 0.0000 1.9968
# 5 2.9622 16.7785 7.9428 0.0000 9.0166 0.0000
# 6 0.0000 0.0000 0.0000 1.9968 0.0000 5.7586
#
#
#
# Elastic Compliance Matrix: (Units=1/GPa)
#
#
# Indices 1 2 3 4 5 6 
#
# 1 0.029004 0.000877 -0.000567 0.000000 -0.010661 0.000000
# 2 0.000877 0.020547 -0.007595 0.000000 -0.031833 0.000000
# 3 -0.000567 -0.007595 0.006957 0.000000 0.008191 0.000000
# 4 0.000000 0.000000 0.000000 0.022094 0.000000 -0.007661
# 5 -0.010661 -0.031833 0.008191 0.000000 0.166429 0.000000
# 6 0.000000 0.000000 0.000000 -0.007661 0.000000 0.176309
#
#
# Mechanical properties :
#
#
# Convention : Reuss Voigt Hill
#
# Bulk Modulus (GPa) = 23.84467 69.20974 46.52721
# Shear Modulus (GPa) = 11.11383 31.02638 21.07010
#
# Velocity S-wave (km/s) = 2.27323 3.79820 3.13001
# Velocity P-wave (km/s) = 4.23994 7.17045 5.89035
#
# Compressibility (1/GPa) = 0.04193809
#
# Stress axis : x y z
#
# Youngs Moduli (GPa) = 34.47838 48.66819 143.73120
#
# Poissons Ratio (x) = -0.04268 0.08146
# Poissons Ratio (y) = -0.03023 1.09168
# Poissons Ratio (z) = 0.01954 0.36965
#
# Static dielectric constant tensor:
#      x y z
#    x 1.952470 0.000000 -0.055670 
#    y 0.000000 1.736090 0.000000 
#    z -0.055670 0.000000 1.888730 
# 
# From -- ./inp_files/220196.got.cif
#   From: 2010.05.17/outbox.cif.g08.bks.cpg/sg12_111_cif.got.tgz:220196.got - 2010.06.03 13:09:07.
