data_PCOD9219236
_publ_section_title
;
Structure prediction by ZEFSAII (Michael W. Deem and Ramdas Pophale) SiO2 
 PCOD9219236
Probable space group: C 2/M
;
_chemical_formula_sum "Si O2"
_cell_formula_units_Z 36
_cell_length_a 16.192790
_cell_length_b 23.486551
_cell_length_c 16.552695
_cell_angle_alpha 90.000000
_cell_angle_beta 162.369960
_cell_angle_gamma 90.000000
_cell_volume 1906.625212
_symmetry_space_group_name_H-M "C 2/M"
_symmetry_group_IT_number 12
_symmetry_cell_setting 'monoclinic'
loop_
_space_group_symop_operation_xyz
x,y,z
-x,y,-z
-x,-y,-z
x,-y,z
1/2+x,1/2+y,z
1/2-x,1/2+y,-z
1/2-x,1/2-y,-z
1/2+x,1/2-y,z
loop_
_atom_site_type_symbol
_atom_site_label
_atom_site_fract_x
_atom_site_fract_y
_atom_site_fract_z
Si Si1 0.204832 0.500000 0.767650
Si Si2 0.793214 0.617807 0.138427
Si Si3 0.739938 0.690558 0.937712
Si Si4 0.778560 0.334873 0.356038
Si Si5 0.186784 0.798610 0.601616
O O1 0.171451 0.554255 0.795695
O O2 0.000000 0.500000 0.500000
O O3 0.500000 0.500000 0.000000
O O4 0.070290 0.651078 0.419372
O O5 0.728033 0.636663 0.986529
O O6 0.522065 0.640985 0.930157
O O7 0.485914 0.696300 0.641285
O O8 0.750000 0.750000 0.000000
O O9 0.008783 0.681520 0.133745
O O10 0.766867 0.267752 0.334142
O O11 0.000000 0.359487 0.500000
O O12 0.000000 0.822998 0.500000
#
# Coordination Sequence:
#
# PCOD9219236 Si02
#       5
#     4   8   8   8   8
#     4  12  26  44  58  84 121 162 209 240 278 344
#     4  12  23  36  58  79 113 157 197 243 285 328
#     4  12  21  37  56  87 116 151 196 242 297 353
#     4  11  20  33  53  81 113 153 191 229 286 347
#     4  11  22  36  55  84 120 152 186 234 298 368
#
# _framework density 18.881530000000001
#
# number of rings (size 3 to 8) (size 9 to 14) (size 15 to 20)
#    0.000    0.444    4.444    6.667    0.000    3.556 
#    0.000    0.000    0.000    0.000    0.000    4.667 
#    0.000    0.000    0.000    0.000    0.000    0.000 
#
# Total GULP energy -100477.272669 kJ/mol
# GULP energy per Si atom -5582.070704 kJ/mol
# Density = 1.883855 g / cm^3
# Si number density = 18.881530 Si / 1000 Ang^3
#
#
#
# Elastic Constant Matrix: (Units=GPa)
#
#
# Indices 1 2 3 4 5 6 
#
# 1 78.2342 37.0951 4.2911 -0.0016 13.7853 0.0181
# 2 37.0951 73.7003 12.5848 0.0007 -0.4911 0.0075
# 3 4.2911 12.5848 98.4724 -0.0029 9.7375 0.0353
# 4 -0.0016 0.0007 -0.0029 17.1538 -0.0013 -9.0549
# 5 13.7853 -0.4911 9.7375 -0.0013 39.9379 0.0155
# 6 0.0181 0.0075 0.0353 -9.0549 0.0155 3.4740
#
#
#
# Elastic Compliance Matrix: (Units=1/GPa)
#
#
# Indices 1 2 3 4 5 6 
#
# 1 0.018412 -0.009496 0.001077 0.000074 -0.006735 0.000137
# 2 -0.009496 0.018784 -0.002391 -0.000016 0.004092 -0.000027
# 3 0.001077 -0.002391 0.010712 0.000130 -0.003013 0.000243
# 4 0.000074 -0.000016 0.000130 -0.155091 0.000095 -0.404244
# 5 -0.006735 0.004092 -0.003013 0.000095 0.028148 0.000178
# 6 0.000137 -0.000027 0.000243 -0.404244 0.000178 -0.765805
#
#
# Mechanical properties :
#
#
# Convention : Reuss Voigt Hill
#
# Bulk Modulus (GPa) = 38.04159 39.81654 38.92907
# Shear Modulus (GPa) = -6.13906 25.20885 9.53490
#
# Velocity S-wave (km/s) = -1.80511 3.65788 2.24963
# Velocity P-wave (km/s) = 3.98079 6.24287 5.23546
#
# Compressibility (1/GPa) = 0.02628702
#
# Stress axis : x y z
#
# Youngs Moduli (GPa) = 54.31113 53.23741 93.35622
#
# Poissons Ratio (x) = 0.50556 -0.10056
# Poissons Ratio (y) = 0.51575 0.22325
# Poissons Ratio (z) = -0.05850 0.12731
#
# Static dielectric constant tensor:
#      x y z
#    x 1.859400 0.000010 -0.076310 
#    y 0.000010 1.645090 -0.000010 
#    z -0.076310 -0.000010 1.767890 
# 
# From -- ./inp_files/16782.got.cif
#   From: 2010.05.17/outbox.cif.g08.bks.cpg/sg12_9_cif.got.tgz:16782.got - 2010.06.03 13:09:07.
