data_PCOD9219069
_publ_section_title
;
Structure prediction by ZEFSAII (Michael W. Deem and Ramdas Pophale) SiO2 
 PCOD9219069
Probable space group: C 2/M
;
_chemical_formula_sum "Si O2"
_cell_formula_units_Z 44
_cell_length_a 9.215438
_cell_length_b 29.647206
_cell_length_c 7.681458
_cell_angle_alpha 90.000000
_cell_angle_beta 71.385583
_cell_angle_gamma 90.000000
_cell_volume 1988.881236
_symmetry_space_group_name_H-M "C 2/M"
_symmetry_group_IT_number 12
_symmetry_cell_setting 'monoclinic'
loop_
_space_group_symop_operation_xyz
x,y,z
-x,y,-z
-x,-y,-z
x,-y,z
1/2+x,1/2+y,z
1/2-x,1/2+y,-z
1/2-x,1/2-y,-z
1/2+x,1/2-y,z
loop_
_atom_site_type_symbol
_atom_site_label
_atom_site_fract_x
_atom_site_fract_y
_atom_site_fract_z
Si Si1 0.088359 0.176208 0.800515
Si Si2 0.500000 0.619597 0.500000
Si Si3 0.101497 0.450341 0.204349
Si Si4 0.754618 0.451326 0.474179
Si Si5 0.064908 0.354887 0.281037
Si Si6 0.406600 0.231794 0.358356
O O1 0.270139 0.168464 0.751848
O O2 0.048730 0.228771 0.789639
O O3 0.026027 0.150807 0.655741
O O4 0.000000 0.157786 0.000000
O O5 0.350689 0.587712 0.560267
O O6 0.134635 0.500000 0.105874
O O7 0.212885 0.447942 0.330787
O O8 0.101391 0.398066 0.144352
O O9 0.923798 0.452898 0.328596
O O10 0.681951 0.500000 0.468461
O O11 0.000000 0.369435 0.500000
O O12 0.939427 0.317882 0.267666
O O13 0.500000 0.230353 0.500000
O O14 0.250000 0.250000 0.500000
#
# Coordination Sequence:
#
# PCOD9219069 Si02
#       6
#     8   4   8   8   8   8
#     4  12  26  41  62 100 137 168 218 271 325 391
#     4  12  21  38  64  88 132 178 213 264 330 380
#     4   9  16  30  57  96 127 160 217 269 317 384
#     4   9  17  29  56  94 123 163 223 270 314 384
#     4  11  19  37  65  88 129 172 213 261 324 389
#     4  11  22  39  66  91 122 169 212 261 322 379
#
# _framework density 22.122990000000001
#
# number of rings (size 3 to 8) (size 9 to 14) (size 15 to 20)
#    0.000    1.455    8.182    1.364    0.000    0.727 
#    0.000    0.000    0.000    4.909    0.000    2.545 
#    0.000    0.000    0.000    0.000    0.000    0.000 
#
# Total GULP energy -122484.067672 kJ/mol
# GULP energy per Si atom -5567.457621 kJ/mol
# Density = 2.207264 g / cm^3
# Si number density = 22.122990 Si / 1000 Ang^3
#
#
#
# Elastic Constant Matrix: (Units=GPa)
#
#
# Indices 1 2 3 4 5 6 
#
# 1 77.6059 31.8427 11.1560 0.0000 -8.4180 0.0000
# 2 31.8427 201.6816 13.5518 0.0000 6.4775 0.0000
# 3 11.1560 13.5518 48.7136 0.0000 -4.0286 0.0000
# 4 0.0000 0.0000 0.0000 -39.2511 0.0000 -28.4754
# 5 -8.4180 6.4775 -4.0286 0.0000 14.5316 0.0000
# 6 0.0000 0.0000 0.0000 -28.4754 0.0000 7.9593
#
#
#
# Elastic Compliance Matrix: (Units=1/GPa)
#
#
# Indices 1 2 3 4 5 6 
#
# 1 0.015253 -0.002577 -0.001996 0.000000 0.009431 0.000000
# 2 -0.002577 0.005594 -0.001326 0.000000 -0.004354 0.000000
# 3 -0.001996 -0.001326 0.021807 0.000000 0.005480 0.000000
# 4 0.000000 0.000000 0.000000 -0.007086 0.000000 -0.025351
# 5 0.009431 -0.004354 0.005480 0.000000 0.077739 0.000000
# 6 0.000000 0.000000 0.000000 -0.025351 0.000000 0.034944
#
#
# Mechanical properties :
#
#
# Convention : Reuss Voigt Hill
#
# Bulk Modulus (GPa) = 32.40886 49.01135 40.71010
# Shear Modulus (GPa) = 29.35383 14.74468 22.04925
#
# Velocity S-wave (km/s) = 3.64654 2.58444 3.16043
# Velocity P-wave (km/s) = 5.69306 5.57745 5.63555
#
# Compressibility (1/GPa) = 0.03085576
#
# Stress axis : x y z
#
# Youngs Moduli (GPa) = 65.56099 178.75854 45.85582
#
# Poissons Ratio (x) = 0.46066 0.09154
# Poissons Ratio (y) = 0.16895 0.06081
# Poissons Ratio (z) = 0.13088 0.23706
#
# Static dielectric constant tensor:
#      x y z
#    x 1.777090 0.000000 -0.000230 
#    y 0.000000 2.072250 0.000000 
#    z -0.000230 0.000000 1.829990 
# 
# From -- ./inp_files/41630.got.cif
#   From: 2010.05.17/outbox.cif.g08.bks.cpg/sg12_21_cif.got.tgz:41630.got - 2010.06.03 13:09:07.
