data_PCOD9219958
_publ_section_title
;
Structure prediction by ZEFSAII (Michael W. Deem and Ramdas Pophale) SiO2 
 PCOD9219958
Probable space group: C 2/M
;
_chemical_formula_sum "Si O2"
_cell_formula_units_Z 48
_cell_length_a 13.660037
_cell_length_b 28.966382
_cell_length_c 8.633232
_cell_angle_alpha 90.000000
_cell_angle_beta 129.198408
_cell_angle_gamma 90.000000
_cell_volume 2647.280598
_symmetry_space_group_name_H-M "C 2/M"
_symmetry_group_IT_number 12
_symmetry_cell_setting 'monoclinic'
loop_
_space_group_symop_operation_xyz
x,y,z
-x,y,-z
-x,-y,-z
x,-y,z
1/2+x,1/2+y,z
1/2-x,1/2+y,-z
1/2-x,1/2-y,-z
1/2+x,1/2-y,z
loop_
_atom_site_type_symbol
_atom_site_label
_atom_site_fract_x
_atom_site_fract_y
_atom_site_fract_z
Si Si1 0.249977 0.354887 0.564527
Si Si2 0.249978 0.645113 0.935430
Si Si3 0.147965 0.052413 0.461354
Si Si4 1.000000 0.307016 0.185763
Si Si5 0.000001 0.799608 0.188495
Si Si6 0.852034 0.947587 0.165424
O O1 0.244431 0.352634 0.744432
O O2 0.270614 0.407472 0.532669
O O3 0.373793 0.326243 0.634699
O O4 0.124667 0.332478 0.370369
O O5 0.124669 0.667522 0.878969
O O6 0.373795 0.673757 0.112890
O O7 0.270614 0.592528 0.008560
O O8 0.156020 0.055623 0.656019
O O9 0.999999 0.059090 0.271096
O O10 0.183217 0.000000 0.452417
O O11 0.000000 0.253567 0.238806
O O12 0.000000 0.307296 0.000000
O O13 0.000000 0.800133 0.000000
O O14 0.816781 0.000000 0.085983
#
# Coordination Sequence:
#
# PCOD9219958 Si02
#       6
#     8   8   8   8   8   8
#     4  11  21  37  58  85 116 147 185 233 283 331
#     4  11  21  37  58  85 116 147 185 233 283 331
#     4   9  18  34  57  85 114 145 184 227 273 331
#     4  11  23  39  56  79 114 155 192 229 276 333
#     4   9  20  37  58  83 112 146 190 234 276 329
#     4   9  18  34  57  85 114 145 184 227 273 331
#
# _framework density 18.131813999999999
#
# number of rings (size 3 to 8) (size 9 to 14) (size 15 to 20)
#    0.000    2.000    1.667    3.500    0.000    0.667 
#    0.000    7.500    0.000    5.000    0.000    0.000 
#    0.000    0.000    0.000    0.000    0.000    0.000 
#
# Total GULP energy -134029.511295 kJ/mol
# GULP energy per Si atom -5584.562971 kJ/mol
# Density = 1.809055 g / cm^3
# Si number density = 18.131814 Si / 1000 Ang^3
#
#
#
# Elastic Constant Matrix: (Units=GPa)
#
#
# Indices 1 2 3 4 5 6 
#
# 1 82.5423 69.2008 50.4232 0.0000 28.2644 0.0000
# 2 69.2008 175.9168 65.8361 0.0000 25.7375 0.0000
# 3 50.4232 65.8361 75.3992 0.0000 26.3655 0.0000
# 4 0.0000 0.0000 0.0000 4.2060 0.0000 -22.5314
# 5 28.2644 25.7375 26.3655 0.0000 28.7420 0.0000
# 6 0.0000 0.0000 0.0000 -22.5314 0.0000 1.2617
#
#
#
# Elastic Compliance Matrix: (Units=1/GPa)
#
#
# Indices 1 2 3 4 5 6 
#
# 1 0.026126 -0.005244 -0.008173 0.000000 -0.013499 0.000000
# 2 -0.005244 0.009523 -0.005344 0.000000 0.001531 0.000000
# 3 -0.008173 -0.005344 0.027841 0.000000 -0.012717 0.000000
# 4 0.000000 0.000000 0.000000 -0.002511 0.000000 -0.044851
# 5 -0.013499 0.001531 -0.012717 0.000000 0.058362 0.000000
# 6 0.000000 0.000000 0.000000 -0.044851 0.000000 -0.008373
#
#
# Mechanical properties :
#
#
# Convention : Reuss Voigt Hill
#
# Bulk Modulus (GPa) = 38.50626 78.30872 58.40749
# Shear Modulus (GPa) = 31.81752 16.73516 24.27634
#
# Velocity S-wave (km/s) = 4.19357 3.04134 3.66304
# Velocity P-wave (km/s) = 6.68812 7.45757 7.08330
#
# Compressibility (1/GPa) = 0.02596980
#
# Stress axis : x y z
#
# Youngs Moduli (GPa) = 38.27573 105.00689 35.91781
#
# Poissons Ratio (x) = 0.55062 0.29355
# Poissons Ratio (y) = 0.20070 0.19194
# Poissons Ratio (z) = 0.31282 0.56115
#
# Static dielectric constant tensor:
#      x y z
#    x 1.598820 0.000000 -0.011370 
#    y 0.000000 1.611820 0.000000 
#    z -0.011370 0.000000 1.600310 
# 
# From -- ./inp_files/52745.got.cif
#   From: 2010.05.17/outbox.cif.g08.bks.cpg/sg12_27_cif.got.tgz:52745.got - 2010.06.03 13:09:07.
