data_PCOD9219803
_publ_section_title
;
Structure prediction by ZEFSAII (Michael W. Deem and Ramdas Pophale) SiO2 
 PCOD9219803
Probable space group: C 2/M
;
_chemical_formula_sum "Si O2"
_cell_formula_units_Z 56
_cell_length_a 31.474667
_cell_length_b 8.425830
_cell_length_c 12.302781
_cell_angle_alpha 90.000000
_cell_angle_beta 63.742109
_cell_angle_gamma 90.000000
_cell_volume 2926.027834
_symmetry_space_group_name_H-M "C 2/M"
_symmetry_group_IT_number 12
_symmetry_cell_setting 'monoclinic'
loop_
_space_group_symop_operation_xyz
x,y,z
-x,y,-z
-x,-y,-z
x,-y,z
1/2+x,1/2+y,z
1/2-x,1/2+y,-z
1/2-x,1/2-y,-z
1/2+x,1/2-y,z
loop_
_atom_site_type_symbol
_atom_site_label
_atom_site_fract_x
_atom_site_fract_y
_atom_site_fract_z
Si Si1 0.232794 0.189750 0.804075
Si Si2 0.385373 0.189049 0.439026
Si Si3 0.338769 0.310767 0.704776
Si Si4 0.461298 0.691279 0.195372
Si Si5 0.797824 0.308959 0.387934
Si Si6 0.845371 0.193942 0.943599
Si Si7 0.566446 0.693428 0.010915
O O1 0.284912 0.262384 0.738289
O O2 0.203000 0.239959 0.732145
O O3 0.237440 0.000000 0.799468
O O4 0.203697 0.241799 0.943408
O O5 0.373478 0.246897 0.573017
O O6 0.433946 0.246904 0.330806
O O7 0.342675 0.245209 0.408129
O O8 0.384452 0.000000 0.439885
O O9 0.341848 0.500000 0.701277
O O10 0.349162 0.252127 0.815182
O O11 0.460298 0.500000 0.197907
O O12 0.516154 0.739589 0.120964
O O13 0.435217 0.744714 0.113241
O O14 0.797477 0.500000 0.384085
O O15 0.750000 0.250000 0.500000
O O16 0.888955 0.247665 0.969516
O O17 0.845937 0.000000 0.942604
O O18 0.567562 0.500000 0.008210
#
# Coordination Sequence:
#
# PCOD9219803 Si02
#       7
#     8   8   8   8   8   8   8
#     4  11  21  35  56  81 110 141 176 225 279 322
#     4  11  23  37  53  77 111 145 177 220 273 318
#     4  11  22  36  54  75 105 147 190 223 261 320
#     4   9  17  32  60  88 108 137 173 216 271 328
#     4  11  22  35  53  77 107 142 179 220 265 316
#     4   9  19  34  54  80 108 141 181 227 270 315
#     4   8  15  32  57  86 112 133 172 224 269 316
#
# _framework density 19.138573999999998
#
# number of rings (size 3 to 8) (size 9 to 14) (size 15 to 20)
#    0.000    2.000    1.429    3.857    0.000    2.857 
#    0.000    4.286    0.000    9.429    0.000    0.000 
#    0.000    0.000    0.000    0.000    0.000    0.000 
#
# Total GULP energy -156374.896773 kJ/mol
# GULP energy per Si atom -5584.817742 kJ/mol
# Density = 1.909501 g / cm^3
# Si number density = 19.138574 Si / 1000 Ang^3
#
#
#
# Elastic Constant Matrix: (Units=GPa)
#
#
# Indices 1 2 3 4 5 6 
#
# 1 29.5760 3.3460 29.4161 0.0000 1.4406 0.0000
# 2 3.3460 16.8553 17.7675 0.0000 -3.9372 0.0000
# 3 29.4161 17.7675 171.3345 0.0000 -3.6236 0.0000
# 4 0.0000 0.0000 0.0000 18.7192 0.0000 0.5899
# 5 1.4406 -3.9372 -3.6236 0.0000 24.9320 0.0000
# 6 0.0000 0.0000 0.0000 0.5899 0.0000 14.8450
#
#
#
# Elastic Compliance Matrix: (Units=1/GPa)
#
#
# Indices 1 2 3 4 5 6 
#
# 1 0.041101 -0.001675 -0.006960 0.000000 -0.003651 0.000000
# 2 -0.001675 0.069022 -0.006658 0.000000 0.010029 0.000000
# 3 -0.006960 -0.006658 0.007732 0.000000 0.000475 0.000000
# 4 0.000000 0.000000 0.000000 0.053488 0.000000 -0.002125
# 5 -0.003651 0.010029 0.000475 0.000000 0.041973 0.000000
# 6 0.000000 0.000000 0.000000 -0.002125 0.000000 0.067447
#
#
# Mechanical properties :
#
#
# Convention : Reuss Voigt Hill
#
# Bulk Modulus (GPa) = 11.45891 35.42501 23.44196
# Shear Modulus (GPa) = 14.68695 22.84834 18.76764
#
# Velocity S-wave (km/s) = 2.77320 3.45894 3.13488
# Velocity P-wave (km/s) = 4.03169 5.87387 5.03770
#
# Compressibility (1/GPa) = 0.08726831
#
# Stress axis : x y z
#
# Youngs Moduli (GPa) = 24.33033 14.48819 129.33344
#
# Poissons Ratio (x) = 0.02427 0.90017
# Poissons Ratio (y) = 0.04076 0.86108
# Poissons Ratio (z) = 0.16934 0.09646
#
# Static dielectric constant tensor:
#      x y z
#    x 1.658320 0.000000 0.010000 
#    y 0.000000 1.658590 0.000000 
#    z 0.010000 0.000000 1.642250 
# 
# From -- ./inp_files/187148.got.cif
#   From: 2010.05.17/outbox.cif.g08.bks.cpg/sg12_94_cif.got.tgz:187148.got - 2010.06.03 13:09:07.
