data_PCOD9219715
_publ_section_title
;
Structure prediction by ZEFSAII (Michael W. Deem and Ramdas Pophale) SiO2 
 PCOD9219715
Probable space group: C 2/M
;
_chemical_formula_sum "Si O2"
_cell_formula_units_Z 50
_cell_length_a 19.788231
_cell_length_b 7.513867
_cell_length_c 17.558815
_cell_angle_alpha 90.000000
_cell_angle_beta 126.101414
_cell_angle_gamma 90.000000
_cell_volume 2109.423528
_symmetry_space_group_name_H-M "C 2/M"
_symmetry_group_IT_number 12
_symmetry_cell_setting 'monoclinic'
loop_
_space_group_symop_operation_xyz
x,y,z
-x,y,-z
-x,-y,-z
x,-y,z
1/2+x,1/2+y,z
1/2-x,1/2+y,-z
1/2-x,1/2-y,-z
1/2+x,1/2-y,z
loop_
_atom_site_type_symbol
_atom_site_label
_atom_site_fract_x
_atom_site_fract_y
_atom_site_fract_z
Si Si1 0.077013 0.785376 0.371423
Si Si2 0.500000 0.000000 0.000000
Si Si3 0.093097 0.705591 0.551316
Si Si4 0.889731 0.784448 0.192527
Si Si5 0.269991 0.299182 0.239461
Si Si6 0.560597 0.715005 0.940011
Si Si7 0.116781 0.794752 0.237908
O O1 0.109854 0.712383 0.472666
O O2 0.130600 0.728198 0.332990
O O3 0.980507 0.730682 0.287899
O O4 0.077994 0.000000 0.380259
O O5 0.432170 0.158487 0.983341
O O6 0.093002 0.500000 0.576318
O O7 0.157909 0.800926 0.648417
O O8 0.000000 0.779495 0.500000
O O9 0.813586 0.717496 0.193762
O O10 0.885075 0.746150 0.099412
O O11 0.890152 0.000000 0.198581
O O12 0.245553 0.500000 0.205323
O O13 0.192506 0.212913 0.230718
O O14 0.563066 0.500000 0.957387
O O15 0.468407 0.783574 0.851097
O O16 0.093310 0.000000 0.233261
#
# Coordination Sequence:
#
# PCOD9219715 Si02
#       7
#     8   2   8   8   8   8   8
#     4   9  17  34  56  71 103 147 195 241 283 329
#     4  12  22  36  68 106 112 146 188 226 284 366
#     4  11  22  33  46  76 112 147 191 250 296 325
#     4   8  16  34  56  81 108 147 191 233 280 333
#     4  11  21  33  56  81 108 151 198 235 283 343
#     4   9  20  40  63  91 124 148 183 237 282 336
#     4   9  20  38  56  81 113 151 185 232 292 335
#
# _framework density 23.703157999999998
#
# number of rings (size 3 to 8) (size 9 to 14) (size 15 to 20)
#    0.000    2.400    1.600    3.120    1.120    1.920 
#    7.200    0.000    0.000    0.960    0.000    0.000 
#    0.000    0.000    0.000    0.000    0.000    0.000 
#
# Total GULP energy -139279.358633 kJ/mol
# GULP energy per Si atom -5571.174345 kJ/mol
# Density = 2.364921 g / cm^3
# Si number density = 23.703158 Si / 1000 Ang^3
#
#
#
# Elastic Constant Matrix: (Units=GPa)
#
#
# Indices 1 2 3 4 5 6 
#
# 1 127.8281 5.0536 29.6754 0.0000 -42.0438 0.0000
# 2 5.0536 86.3661 6.2161 0.0000 -7.8749 0.0000
# 3 29.6754 6.2161 66.2260 0.0000 -32.5072 0.0000
# 4 0.0000 0.0000 0.0000 23.7826 0.0000 4.5168
# 5 -42.0438 -7.8749 -32.5072 0.0000 45.5110 0.0000
# 6 0.0000 0.0000 0.0000 4.5168 0.0000 22.8797
#
#
#
# Elastic Compliance Matrix: (Units=1/GPa)
#
#
# Indices 1 2 3 4 5 6 
#
# 1 0.011245 0.000293 0.000089 0.000000 0.010503 0.000000
# 2 0.000293 0.011773 -0.000159 0.000000 0.002194 0.000000
# 3 0.000089 -0.000159 0.023255 0.000000 0.016665 0.000000
# 4 0.000000 0.000000 0.000000 0.043685 0.000000 -0.008624
# 5 0.010503 0.002194 0.016665 0.000000 0.043958 0.000000
# 6 0.000000 0.000000 0.000000 -0.008624 0.000000 0.045409
#
#
# Mechanical properties :
#
#
# Convention : Reuss Voigt Hill
#
# Bulk Modulus (GPa) = 21.40477 40.25672 30.83075
# Shear Modulus (GPa) = 25.71306 34.39967 30.05637
#
# Velocity S-wave (km/s) = 3.29720 3.81369 3.56481
# Velocity P-wave (km/s) = 4.85235 6.03430 5.47531
#
# Compressibility (1/GPa) = 0.04671855
#
# Stress axis : x y z
#
# Youngs Moduli (GPa) = 88.92657 84.94014 43.00163
#
# Poissons Ratio (x) = -0.02491 -0.00382
# Poissons Ratio (y) = -0.02608 0.00686
# Poissons Ratio (z) = -0.00790 0.01354
#
# Static dielectric constant tensor:
#      x y z
#    x 1.943040 0.000000 -0.048760 
#    y 0.000000 1.836400 0.000000 
#    z -0.048760 0.000000 2.036990 
# 
# From -- ./inp_files/274241.got.cif
#   From: 2010.05.17/outbox.cif.g08.bks.cpg/sg12_138_cif.got.tgz:274241.got - 2010.06.03 13:09:07.
