data_PCOD9219583
_publ_section_title
;
Structure prediction by ZEFSAII (Michael W. Deem and Ramdas Pophale) SiO2 
 PCOD9219583
Probable space group: C 2/M
;
_chemical_formula_sum "Si O2"
_cell_formula_units_Z 40
_cell_length_a 19.420444
_cell_length_b 11.407597
_cell_length_c 9.189534
_cell_angle_alpha 90.000000
_cell_angle_beta 103.706084
_cell_angle_gamma 90.000000
_cell_volume 1977.881791
_symmetry_space_group_name_H-M "C 2/M"
_symmetry_group_IT_number 12
_symmetry_cell_setting 'monoclinic'
loop_
_space_group_symop_operation_xyz
x,y,z
-x,y,-z
-x,-y,-z
x,-y,z
1/2+x,1/2+y,z
1/2-x,1/2+y,-z
1/2-x,1/2-y,-z
1/2+x,1/2-y,z
loop_
_atom_site_type_symbol
_atom_site_label
_atom_site_fract_x
_atom_site_fract_y
_atom_site_fract_z
Si Si1 0.949171 0.132456 0.336454
Si Si2 0.069909 0.500000 0.345744
Si Si3 0.455735 0.223832 0.839271
Si Si4 0.322361 0.763123 0.210875
Si Si5 0.824785 0.140378 0.896825
Si Si6 0.099943 0.500000 0.695419
O O1 0.872983 0.186320 0.338987
O O2 0.000000 0.132307 0.500000
O O3 0.988061 0.212868 0.237738
O O4 0.940936 0.000000 0.277455
O O5 0.083349 0.617853 0.262297
O O6 0.106214 0.500000 0.522207
O O7 0.984194 0.500000 0.321920
O O8 0.397898 0.317486 0.863198
O O9 0.500000 0.178394 0.000000
O O10 0.242733 0.797059 0.212685
O O11 0.363207 0.886538 0.218200
O O12 0.322408 0.690274 0.060470
O O13 0.817665 0.000000 0.890855
#
# Coordination Sequence:
#
# PCOD9219583 Si02
#       6
#     8   4   8   8   8   4
#     4  11  23  41  66  97 130 172 218 259 316 386
#     4  11  23  38  66  96 128 163 217 264 319 380
#     4  12  23  40  66  97 128 167 215 271 322 375
#     4  11  22  40  66  92 125 172 214 259 324 384
#     4  11  24  41  63  96 131 166 213 269 328 376
#     4  11  20  42  66  90 127 173 210 261 322 388
#
# _framework density 20.223655999999998
#
# number of rings (size 3 to 8) (size 9 to 14) (size 15 to 20)
#    0.000    0.800    5.000    2.700    0.000    1.600 
#    3.600    4.000    0.000    0.000    0.000    0.000 
#    0.000    0.000    0.000    0.000    0.000    0.000 
#
# Total GULP energy -111729.922443 kJ/mol
# GULP energy per Si atom -5586.496122 kJ/mol
# Density = 2.017763 g / cm^3
# Si number density = 20.223656 Si / 1000 Ang^3
#
#
#
# Elastic Constant Matrix: (Units=GPa)
#
#
# Indices 1 2 3 4 5 6 
#
# 1 80.0690 18.9243 16.0059 0.0000 18.5525 0.0000
# 2 18.9243 128.3530 27.6461 0.0000 0.6863 0.0000
# 3 16.0059 27.6461 50.8511 0.0000 4.5746 0.0000
# 4 0.0000 0.0000 0.0000 5.6656 0.0000 -8.4458
# 5 18.5525 0.6863 4.5746 0.0000 30.1519 0.0000
# 6 0.0000 0.0000 0.0000 -8.4458 0.0000 11.2283
#
#
#
# Elastic Compliance Matrix: (Units=1/GPa)
#
#
# Indices 1 2 3 4 5 6 
#
# 1 0.015609 -0.001552 -0.003253 0.000000 -0.009075 0.000000
# 2 -0.001552 0.008987 -0.004527 0.000000 0.001437 0.000000
# 3 -0.003253 -0.004527 0.023279 0.000000 -0.001427 0.000000
# 4 0.000000 0.000000 0.000000 -1.455003 0.000000 -1.094443
# 5 -0.009075 0.001437 -0.001427 0.000000 0.038933 0.000000
# 6 0.000000 0.000000 0.000000 -1.094443 0.000000 -0.734171
#
#
# Mechanical properties :
#
#
# Convention : Reuss Voigt Hill
#
# Bulk Modulus (GPa) = 34.23331 42.71396 38.47364
# Shear Modulus (GPa) = -2.41084 22.52227 10.05571
#
# Velocity S-wave (km/s) = -1.09301 3.34077 2.23227
# Velocity P-wave (km/s) = 3.92061 6.00397 5.07045
#
# Compressibility (1/GPa) = 0.02921132
#
# Stress axis : x y z
#
# Youngs Moduli (GPa) = 64.06481 111.26909 42.95793
#
# Poissons Ratio (x) = 0.17272 0.13973
# Poissons Ratio (y) = 0.09945 0.19446
# Poissons Ratio (z) = 0.20839 0.50369
#
# Static dielectric constant tensor:
#      x y z
#    x 1.709140 0.000000 0.036250 
#    y 0.000000 1.705420 0.000000 
#    z 0.036250 0.000000 1.739340 
# 
# From -- ./inp_files/83768.got.cif
#   From: 2010.05.17/outbox.cif.g08.bks.cpg/sg12_42_cif.got.tgz:83768.got - 2010.06.03 13:09:07.
