data_PCOD9219452
_publ_section_title
;
Structure prediction by ZEFSAII (Michael W. Deem and Ramdas Pophale) SiO2 
 PCOD9219452
Probable space group: C 2/M
;
_chemical_formula_sum "Si O2"
_cell_formula_units_Z 48
_cell_length_a 17.870437
_cell_length_b 16.063314
_cell_length_c 17.603122
_cell_angle_alpha 90.000000
_cell_angle_beta 28.451064
_cell_angle_gamma 90.000000
_cell_volume 2407.349026
_symmetry_space_group_name_H-M "C 2/M"
_symmetry_group_IT_number 12
_symmetry_cell_setting 'monoclinic'
loop_
_space_group_symop_operation_xyz
x,y,z
-x,y,-z
-x,-y,-z
x,-y,z
1/2+x,1/2+y,z
1/2-x,1/2+y,-z
1/2-x,1/2-y,-z
1/2+x,1/2-y,z
loop_
_atom_site_type_symbol
_atom_site_label
_atom_site_fract_x
_atom_site_fract_y
_atom_site_fract_z
Si Si1 0.913169 0.762678 0.895665
Si Si2 0.651622 0.500000 0.263204
Si Si3 0.833647 0.269572 0.612258
Si Si4 0.658294 0.842037 0.894574
Si Si5 0.283126 0.841230 0.409250
Si Si6 0.210984 0.000000 0.390719
Si Si7 0.141727 0.098878 0.695301
O O1 0.056551 0.710911 0.729801
O O2 0.971236 0.857724 0.845766
O O3 0.750000 0.750000 0.000000
O O4 0.894270 0.724532 0.996050
O O5 0.734716 0.414513 0.164565
O O6 0.680297 0.500000 0.328829
O O7 0.465089 0.500000 0.415468
O O8 0.749775 0.208494 0.747463
O O9 0.839438 0.216658 0.528319
O O10 0.734979 0.351308 0.678151
O O11 0.000000 0.290312 0.500000
O O12 0.500000 0.879959 0.000000
O O13 0.223796 0.875220 0.542357
O O14 0.302940 0.920244 0.337348
O O15 0.140377 0.000000 0.705082
#
# Coordination Sequence:
#
# PCOD9219452 Si02
#       7
#     8   4   8   8   8   4   8
#     4  11  26  43  64  94 130 169 210 258 331 388
#     4  11  23  34  64 100 134 159 204 265 325 391
#     4  11  23  40  69  95 126 168 219 263 320 384
#     4  12  22  41  62  95 130 169 207 260 326 385
#     4  11  22  42  65  94 130 166 212 260 317 386
#     4  11  20  38  62 102 127 162 210 259 315 383
#     4  11  25  46  67  92 127 174 222 267 312 375
#
# _framework density 19.938946999999999
#
# number of rings (size 3 to 8) (size 9 to 14) (size 15 to 20)
#    0.000    0.833    5.833    3.250    7.000    1.000 
#    1.500    1.667    0.000    0.000    0.000    0.000 
#    0.000    0.000    0.000    0.000    0.000    0.000 
#
# Total GULP energy -134095.434062 kJ/mol
# GULP energy per Si atom -5587.309753 kJ/mol
# Density = 1.989356 g / cm^3
# Si number density = 19.938947 Si / 1000 Ang^3
#
#
#
# Elastic Constant Matrix: (Units=GPa)
#
#
# Indices 1 2 3 4 5 6 
#
# 1 74.5329 33.3886 26.8981 0.0001 -26.1187 0.0000
# 2 33.3886 164.7294 32.3153 -0.0023 -5.9006 0.0021
# 3 26.8981 32.3153 62.1255 -0.0011 -5.3178 0.0012
# 4 0.0001 -0.0023 -0.0011 24.2849 0.0010 -0.2002
# 5 -26.1187 -5.9006 -5.3178 0.0010 44.8389 -0.0006
# 6 0.0000 0.0021 0.0012 -0.2002 -0.0006 5.9891
#
#
#
# Elastic Compliance Matrix: (Units=1/GPa)
#
#
# Indices 1 2 3 4 5 6 
#
# 1 0.020841 -0.002500 -0.006781 -0.000001 0.011007 0.000003
# 2 -0.002500 0.007070 -0.002668 0.000001 -0.000842 -0.000002
# 3 -0.006781 -0.002668 0.020257 0.000001 -0.001899 -0.000003
# 4 -0.000001 0.000001 0.000001 0.041189 -0.000001 0.001377
# 5 0.011007 -0.000842 -0.001899 -0.000001 0.028378 0.000003
# 6 0.000003 -0.000002 -0.000003 0.001377 0.000003 0.167017
#
#
# Mechanical properties :
#
#
# Convention : Reuss Voigt Hill
#
# Bulk Modulus (GPa) = 41.19924 54.06577 47.63250
# Shear Modulus (GPa) = 15.78585 28.94163 22.36374
#
# Velocity S-wave (km/s) = 2.81679 3.81401 3.35268
# Velocity P-wave (km/s) = 5.59344 6.82422 6.23926
#
# Compressibility (1/GPa) = 0.02427230
#
# Stress axis : x y z
#
# Youngs Moduli (GPa) = 47.98238 141.43574 49.36458
#
# Poissons Ratio (x) = 0.35355 0.33474
# Poissons Ratio (y) = 0.11994 0.13168
# Poissons Ratio (z) = 0.32537 0.37728
#
# Static dielectric constant tensor:
#      x y z
#    x 1.728220 0.000000 0.003500 
#    y 0.000000 1.707750 0.000000 
#    z 0.003500 0.000000 1.738510 
# 
# From -- ./inp_files/278054.got.cif
#   From: 2010.05.17/outbox.cif.g08.bks.cpg/sg12_140_cif.got.tgz:278054.got - 2010.06.03 13:09:07.
