data_PCOD9219982
_publ_section_title
;
Structure prediction by ZEFSAII (Michael W. Deem and Ramdas Pophale) SiO2 
 PCOD9219982
Probable space group: C 2/M
;
_chemical_formula_sum "Si O2"
_cell_formula_units_Z 56
_cell_length_a 8.587642
_cell_length_b 28.448141
_cell_length_c 20.339208
_cell_angle_alpha 90.000000
_cell_angle_beta 145.268309
_cell_angle_gamma 90.000000
_cell_volume 2830.962596
_symmetry_space_group_name_H-M "C 2/M"
_symmetry_group_IT_number 12
_symmetry_cell_setting 'monoclinic'
loop_
_space_group_symop_operation_xyz
x,y,z
-x,y,-z
-x,-y,-z
x,-y,z
1/2+x,1/2+y,z
1/2-x,1/2+y,-z
1/2-x,1/2-y,-z
1/2+x,1/2-y,z
loop_
_atom_site_type_symbol
_atom_site_label
_atom_site_fract_x
_atom_site_fract_y
_atom_site_fract_z
Si Si1 0.876589 0.874466 0.529637
Si Si2 0.168462 0.946457 0.378177
Si Si3 0.298273 0.284266 0.576937
Si Si4 0.618306 0.283615 0.811641
Si Si5 0.357129 0.631671 0.891853
Si Si6 0.634720 0.194531 0.909031
Si Si7 0.226972 0.122901 0.282383
O O1 0.940778 0.920740 0.594423
O O2 0.947260 0.829850 0.599734
O O3 0.548296 0.871826 0.407176
O O4 0.000000 0.872903 0.500000
O O5 0.500000 0.947243 0.500000
O O6 0.111517 0.914090 0.295012
O O7 0.074441 0.000000 0.338788
O O8 0.250000 0.250000 0.500000
O O9 0.471705 0.261595 0.695931
O O10 0.000000 0.297822 0.500000
O O11 0.650485 0.245000 0.879307
O O12 0.904437 0.303328 0.883957
O O13 0.424177 0.327280 0.761888
O O14 0.581038 0.674466 0.962379
O O15 0.308639 0.608523 0.805905
O O16 0.099132 0.656823 0.836911
O O17 0.500000 0.602021 0.000000
#
# Coordination Sequence:
#
# PCOD9219982 Si02
#       7
#     8   8   8   8   8   8   8
#     4  11  23  38  58  86 120 151 191 233 283 345
#     4   9  19  40  63  88 116 145 184 230 288 354
#     4  12  23  35  49  80 117 159 195 231 277 339
#     4  12  21  35  57  76 114 156 200 237 281 335
#     4   8  22  39  54  81 114 148 196 246 279 329
#     4   9  23  36  52  79 110 156 200 244 276 323
#     4  11  21  37  61  83 113 150 189 236 291 338
#
# _framework density 19.781257
#
# number of rings (size 3 to 8) (size 9 to 14) (size 15 to 20)
#    0.857    0.714    2.857    2.571    4.000    6.000 
#    0.000    0.000    0.000    0.429    0.000    2.000 
#    0.000    0.000    0.000    0.000    0.000    0.000 
#
# Total GULP energy -156217.077266 kJ/mol
# GULP energy per Si atom -5579.181331 kJ/mol
# Density = 1.973623 g / cm^3
# Si number density = 19.781257 Si / 1000 Ang^3
#
#
#
# Elastic Constant Matrix: (Units=GPa)
#
#
# Indices 1 2 3 4 5 6 
#
# 1 106.0645 20.5068 12.7821 0.0000 -9.7768 0.0000
# 2 20.5068 72.4996 14.4910 0.0000 -16.1561 0.0000
# 3 12.7821 14.4910 80.1491 0.0000 -20.7117 0.0001
# 4 0.0000 0.0000 0.0000 16.2867 0.0000 -3.8512
# 5 -9.7768 -16.1561 -20.7117 0.0000 38.9509 0.0000
# 6 0.0000 0.0000 0.0001 -3.8512 0.0000 14.8049
#
#
#
# Elastic Compliance Matrix: (Units=1/GPa)
#
#
# Indices 1 2 3 4 5 6 
#
# 1 0.010106 -0.002446 -0.000900 0.000000 0.001044 0.000000
# 2 -0.002446 0.015907 -0.001089 0.000000 0.005405 0.000000
# 3 -0.000900 -0.001089 0.014656 0.000000 0.007115 0.000000
# 4 0.000000 0.000000 0.000000 0.065424 0.000000 0.017019
# 5 0.001044 0.005405 0.007115 0.000000 0.031961 0.000000
# 6 0.000000 0.000000 0.000000 0.017019 0.000000 0.071972
#
#
# Mechanical properties :
#
#
# Convention : Reuss Voigt Hill
#
# Bulk Modulus (GPa) = 31.44774 39.36368 35.40571
# Shear Modulus (GPa) = 21.78692 28.07073 24.92882
#
# Velocity S-wave (km/s) = 3.32232 3.77112 3.55382
# Velocity P-wave (km/s) = 5.53619 6.23735 5.89720
#
# Compressibility (1/GPa) = 0.03179879
#
# Stress axis : x y z
#
# Youngs Moduli (GPa) = 98.95331 62.86459 68.23183
#
# Poissons Ratio (x) = 0.15377 0.06139
# Poissons Ratio (y) = 0.24205 0.07432
# Poissons Ratio (z) = 0.08903 0.06848
#
# Static dielectric constant tensor:
#      x y z
#    x 1.747180 0.000000 -0.006210 
#    y 0.000000 1.683210 0.000000 
#    z -0.006210 0.000000 1.759690 
# 
# From -- ./inp_files/199307.got.cif
#   From: 2010.05.17/outbox.cif.g08.bks.cpg/sg12_100_cif.got.tgz:199307.got - 2010.06.03 13:09:07.
