data_PCOD9219291
_publ_section_title
;
Structure prediction by ZEFSAII (Michael W. Deem and Ramdas Pophale) SiO2 
 PCOD9219291
Probable space group: C 2/M
;
_chemical_formula_sum "Si O2"
_cell_formula_units_Z 48
_cell_length_a 11.548146
_cell_length_b 20.500909
_cell_length_c 16.347174
_cell_angle_alpha 90.000000
_cell_angle_beta 144.228541
_cell_angle_gamma 90.000000
_cell_volume 2262.311465
_symmetry_space_group_name_H-M "C 2/M"
_symmetry_group_IT_number 12
_symmetry_cell_setting 'monoclinic'
loop_
_space_group_symop_operation_xyz
x,y,z
-x,y,-z
-x,-y,-z
x,-y,z
1/2+x,1/2+y,z
1/2-x,1/2+y,-z
1/2-x,1/2-y,-z
1/2+x,1/2-y,z
loop_
_atom_site_type_symbol
_atom_site_label
_atom_site_fract_x
_atom_site_fract_y
_atom_site_fract_z
Si Si1 0.953129 0.628782 0.730805
Si Si2 0.425592 0.728533 0.659830
Si Si3 0.868855 0.824537 0.792409
Si Si4 0.635619 0.570500 0.996145
Si Si5 0.339531 0.820306 0.838769
Si Si6 0.975733 0.576153 0.387229
O O1 0.870039 0.599726 0.596096
O O2 0.109857 0.813581 0.733897
O O3 0.845563 0.638775 0.757031
O O4 0.136597 0.581537 0.853893
O O5 0.250000 0.750000 0.500000
O O6 0.316419 0.692165 0.670205
O O7 0.512313 0.796324 0.745106
O O8 0.894032 0.755743 0.851129
O O9 0.701327 0.872666 0.729033
O O10 0.067103 0.866930 0.906565
O O11 0.601927 0.500000 0.936923
O O12 0.500000 0.571425 0.000000
O O13 0.500000 0.842470 0.000000
O O14 0.929654 0.500000 0.345078
O O15 0.000000 0.579338 0.500000
#
# Coordination Sequence:
#
# PCOD9219291 Si02
#       6
#     8   8   8   8   8   8
#     4  11  22  38  61  89 129 167 212 267 330 395
#     4  11  23  39  62  92 131 176 218 268 328 403
#     4  11  21  34  61  89 128 161 215 271 327 387
#     4  11  20  34  58  89 123 161 212 272 327 381
#     4  11  23  40  62  93 137 172 211 271 336 393
#     4  11  22  38  60  88 123 163 214 274 324 379
#
# _framework density 21.217237000000001
#
# number of rings (size 3 to 8) (size 9 to 14) (size 15 to 20)
#    0.000    1.000    3.333    4.500    0.000    4.667 
#    0.000    0.000    0.000   11.000    0.000    7.000 
#    0.000    0.000    0.000    0.000    0.000    0.000 
#
# Total GULP energy -133609.167536 kJ/mol
# GULP energy per Si atom -5567.048647 kJ/mol
# Density = 2.116895 g / cm^3
# Si number density = 21.217237 Si / 1000 Ang^3
#
#
#
# Elastic Constant Matrix: (Units=GPa)
#
#
# Indices 1 2 3 4 5 6 
#
# 1 102.7094 20.6633 27.0815 0.0013 -18.2480 0.0005
# 2 20.6633 82.5025 -2.8337 0.0009 -10.7082 0.0006
# 3 27.0815 -2.8337 68.2580 0.0033 -18.1431 0.0015
# 4 0.0013 0.0009 0.0033 16.9400 0.0017 -10.8190
# 5 -18.2480 -10.7082 -18.1431 0.0017 35.1065 0.0007
# 6 0.0005 0.0006 0.0015 -10.8190 0.0007 24.3899
#
#
#
# Elastic Compliance Matrix: (Units=1/GPa)
#
#
# Indices 1 2 3 4 5 6 
#
# 1 0.011910 -0.002687 -0.003952 -0.000001 0.003329 0.000000
# 2 -0.002687 0.013419 0.002712 -0.000003 0.004098 -0.000002
# 3 -0.003952 0.002712 0.018553 -0.000007 0.008362 -0.000005
# 4 -0.000001 -0.000003 -0.000007 0.082367 -0.000009 0.036537
# 5 0.003329 0.004098 0.008362 -0.000009 0.035786 -0.000006
# 6 0.000000 -0.000002 -0.000005 0.036537 -0.000006 0.057208
#
#
# Mechanical properties :
#
#
# Convention : Reuss Voigt Hill
#
# Bulk Modulus (GPa) = 27.75499 38.14356 32.94928
# Shear Modulus (GPa) = 20.91124 29.19119 25.05122
#
# Velocity S-wave (km/s) = 3.14280 3.71323 3.43986
# Velocity P-wave (km/s) = 5.12633 6.03331 5.59822
#
# Compressibility (1/GPa) = 0.03602956
#
# Stress axis : x y z
#
# Youngs Moduli (GPa) = 83.96171 74.52214 53.89847
#
# Poissons Ratio (x) = 0.20022 0.21301
# Poissons Ratio (y) = 0.22558 -0.14619
# Poissons Ratio (z) = 0.33183 -0.20213
#
# Static dielectric constant tensor:
#      x y z
#    x 1.837280 0.000000 -0.029820 
#    y 0.000000 1.764920 0.000000 
#    z -0.029820 0.000000 1.921580 
# 
# From -- ./inp_files/207998.got.cif
#   From: 2010.05.17/outbox.cif.g08.bks.cpg/sg12_104_cif.got.tgz:207998.got - 2010.06.03 13:09:07.
