data_PCOD9219672
_publ_section_title
;
Structure prediction by ZEFSAII (Michael W. Deem and Ramdas Pophale) SiO2 
 PCOD9219672
Probable space group: C 2/M
;
_chemical_formula_sum "Si O2"
_cell_formula_units_Z 64
_cell_length_a 13.932111
_cell_length_b 9.294955
_cell_length_c 24.929242
_cell_angle_alpha 90.000000
_cell_angle_beta 120.675783
_cell_angle_gamma 90.000000
_cell_volume 2776.553668
_symmetry_space_group_name_H-M "C 2/M"
_symmetry_group_IT_number 12
_symmetry_cell_setting 'monoclinic'
loop_
_space_group_symop_operation_xyz
x,y,z
-x,y,-z
-x,-y,-z
x,-y,z
1/2+x,1/2+y,z
1/2-x,1/2+y,-z
1/2-x,1/2-y,-z
1/2+x,1/2-y,z
loop_
_atom_site_type_symbol
_atom_site_label
_atom_site_fract_x
_atom_site_fract_y
_atom_site_fract_z
Si Si1 0.497470 0.164875 0.307540
Si Si2 0.917118 0.164543 0.570324
Si Si3 0.170991 0.331546 0.936143
Si Si4 0.019565 0.833568 0.069372
Si Si5 0.667912 0.835622 0.552204
Si Si6 0.159909 0.839411 0.205219
Si Si7 0.408983 0.334529 0.185284
Si Si8 0.746085 0.163505 0.325133
O O1 0.507531 0.258726 0.363757
O O2 0.420069 0.240720 0.241683
O O3 0.621667 0.162782 0.316326
O O4 0.467677 0.000000 0.310099
O O5 0.792533 0.162242 0.561233
O O6 0.906243 0.254401 0.512862
O O7 0.948819 0.000000 0.569050
O O8 0.195859 0.500000 0.937434
O O9 0.050716 0.298837 0.927424
O O10 0.167185 0.246105 0.879508
O O11 0.250000 0.250000 0.000000
O O12 0.135983 0.818535 0.134969
O O13 0.982194 0.000000 0.073260
O O14 0.000000 0.828187 0.000000
O O15 0.681077 0.753316 0.611954
O O16 0.633618 0.000000 0.550464
O O17 0.229296 0.731870 0.261823
O O18 0.034152 0.837295 0.195015
O O19 0.204366 0.000000 0.225789
O O20 0.376301 0.500000 0.185464
O O21 0.784533 0.000000 0.332438
#
# Coordination Sequence:
#
# PCOD9219672 Si02
#       8
#     8   8   8   8   8   8   8   8
#     4   9  15  22  32  47  66  90 122 160 202 246
#     4   9  15  21  28  39  57  83 116 155 198 242
#     4  11  21  33  49  69  93 120 152 189 229 273
#     4   9  18  33  51  70  93 120 150 186 229 275
#     4   9  15  21  28  38  55  81 115 156 199 242
#     4   8  14  24  38  55  75 100 130 165 206 252
#     4   9  16  27  41  57  77 102 134 172 214 257
#     4   9  15  21  30  44  63  88 120 159 200 242
#
# _framework density 23.050159000000001
#
# number of rings (size 3 to 8) (size 9 to 14) (size 15 to 20)
#    0.000    2.875    0.000    3.750    0.000    9.250 
#    0.000    0.000    0.000    0.000    0.000    0.000 
#    0.000    0.000    0.000    0.000    0.000    1.250 
#
# Total GULP energy -178821.328455 kJ/mol
# GULP energy per Si atom -5588.166514 kJ/mol
# Density = 2.299770 g / cm^3
# Si number density = 23.050159 Si / 1000 Ang^3
#
#
#
# Elastic Constant Matrix: (Units=GPa)
#
#
# Indices 1 2 3 4 5 6 
#
# 1 57.7654 3.4147 7.4546 0.0000 -7.5360 0.0000
# 2 3.4147 235.1530 148.8764 0.0000 -5.9792 0.0000
# 3 7.4546 148.8764 253.1790 0.0000 -1.9298 0.0000
# 4 0.0000 0.0000 0.0000 46.3531 0.0000 -3.8850
# 5 -7.5360 -5.9792 -1.9298 0.0000 18.6010 0.0000
# 6 0.0000 0.0000 0.0000 -3.8850 0.0000 0.3876
#
#
#
# Elastic Compliance Matrix: (Units=1/GPa)
#
#
# Indices 1 2 3 4 5 6 
#
# 1 0.018356 0.000366 -0.000699 0.000000 0.007482 0.000000
# 2 0.000366 0.006840 -0.004018 0.000000 0.001930 0.000000
# 3 -0.000699 -0.004018 0.006326 0.000000 -0.000918 0.000000
# 4 0.000000 0.000000 0.000000 0.134893 0.000000 1.352064
# 5 0.007482 0.001930 -0.000918 0.000000 0.057317 0.000000
# 6 0.000000 0.000000 0.000000 1.352064 0.000000 16.132021
#
#
# Mechanical properties :
#
#
# Convention : Reuss Voigt Hill
#
# Bulk Modulus (GPa) = 43.82016 96.17655 69.99836
# Shear Modulus (GPa) = 0.30540 38.82511 19.56525
#
# Velocity S-wave (km/s) = 0.36439 4.10857 2.91660
# Velocity P-wave (km/s) = 4.38510 8.02014 6.46342
#
# Compressibility (1/GPa) = 0.02282055
#
# Stress axis : x y z
#
# Youngs Moduli (GPa) = 54.47812 146.19064 158.07076
#
# Poissons Ratio (x) = -0.05351 0.11044
# Poissons Ratio (y) = -0.01994 0.63519
# Poissons Ratio (z) = 0.03806 0.58745
#
# Static dielectric constant tensor:
#      x y z
#    x 2.101950 0.000000 0.083340 
#    y 0.000000 1.783600 0.000000 
#    z 0.083340 0.000000 1.848050 
# 
# From -- ./inp_files/323366.got.cif
#   From: 2010.05.17/outbox.cif.g08.bks.cpg/sg12_162_cif.got.tgz:323366.got - 2010.06.03 13:09:07.
