data_PCOD9219514
_publ_section_title
;
Structure prediction by ZEFSAII (Michael W. Deem and Ramdas Pophale) SiO2 
 PCOD9219514
Probable space group: C 2/M
;
_chemical_formula_sum "Si O2"
_cell_formula_units_Z 28
_cell_length_a 15.027893
_cell_length_b 16.122652
_cell_length_c 10.824735
_cell_angle_alpha 90.000000
_cell_angle_beta 151.350514
_cell_angle_gamma 90.000000
_cell_volume 1257.462838
_symmetry_space_group_name_H-M "C 2/M"
_symmetry_group_IT_number 12
_symmetry_cell_setting 'monoclinic'
loop_
_space_group_symop_operation_xyz
x,y,z
-x,y,-z
-x,-y,-z
x,-y,z
1/2+x,1/2+y,z
1/2-x,1/2+y,-z
1/2-x,1/2-y,-z
1/2+x,1/2-y,z
loop_
_atom_site_type_symbol
_atom_site_label
_atom_site_fract_x
_atom_site_fract_y
_atom_site_fract_z
Si Si1 0.281812 0.500000 0.258962
Si Si2 0.000000 0.638955 0.500000
Si Si3 0.873055 0.000000 0.721556
Si Si4 0.000000 0.626749 0.000000
Si Si5 0.640942 0.827826 0.418008
Si Si6 0.245093 0.500000 0.929836
O O1 0.500000 0.500000 0.500000
O O2 0.191178 0.574906 0.225536
O O3 0.194566 0.500000 0.013243
O O4 0.928195 0.690370 0.528411
O O5 0.844760 0.578639 0.249730
O O6 0.749589 0.083790 0.566046
O O7 0.000000 0.000000 0.000000
O O8 0.033286 0.000000 0.813417
O O9 0.994374 0.666255 0.128171
O O10 0.750000 0.750000 0.500000
#
# Coordination Sequence:
#
# PCOD9219514 Si02
#       6
#     4   4   4   4   8   4
#     4  11  21  39  70 107 143 192 239 299 379 445
#     4  11  22  44  70 101 140 194 238 303 372 435
#     4  12  23  44  76 107 145 192 247 301 366 454
#     4  11  24  44  68 103 156 182 242 319 368 431
#     4  12  27  48  74 106 148 197 246 307 379 440
#     4  11  20  39  75 101 138 187 250 294 363 451
#
# _framework density 22.267060000000001
#
# number of rings (size 3 to 8) (size 9 to 14) (size 15 to 20)
#    0.000    0.571    5.714    4.286    2.000    0.000 
#    7.714    2.857    0.000    0.000    0.000    0.000 
#    0.000    0.000    0.000    0.000    0.000    0.000 
#
# Total GULP energy -78060.692548 kJ/mol
# GULP energy per Si atom -5575.763753 kJ/mol
# Density = 2.221638 g / cm^3
# Si number density = 22.267060 Si / 1000 Ang^3
#
#
#
# Elastic Constant Matrix: (Units=GPa)
#
#
# Indices 1 2 3 4 5 6 
#
# 1 223.6391 30.1124 25.8997 0.0000 -28.9306 0.0000
# 2 30.1124 76.7642 9.9757 0.0000 -0.9696 0.0000
# 3 25.8997 9.9757 80.8082 0.0000 -10.1880 0.0000
# 4 0.0000 0.0000 0.0000 -3.2489 0.0000 13.1522
# 5 -28.9306 -0.9696 -10.1880 0.0000 61.3279 0.0000
# 6 0.0000 0.0000 0.0000 13.1522 0.0000 20.9388
#
#
#
# Elastic Compliance Matrix: (Units=1/GPa)
#
#
# Indices 1 2 3 4 5 6 
#
# 1 0.005136 -0.001839 -0.001141 0.000000 0.002204 0.000000
# 2 -0.001839 0.013898 -0.001234 0.000000 -0.000853 0.000000
# 3 -0.001141 -0.001234 0.013097 0.000000 0.001618 0.000000
# 4 0.000000 0.000000 0.000000 -0.086880 0.000000 0.054571
# 5 0.002204 -0.000853 0.001618 0.000000 0.017601 0.000000
# 6 0.000000 0.000000 0.000000 0.054571 0.000000 0.013481
#
#
# Mechanical properties :
#
#
# Convention : Reuss Voigt Hill
#
# Bulk Modulus (GPa) = 42.18797 57.02078 49.60438
# Shear Modulus (GPa) = -681.37603 36.81845 -322.27879
#
# Velocity S-wave (km/s) = -17.51188 4.07073 -12.04357
# Velocity P-wave (km/s) = 19.74590 6.91070 13.07943
#
# Compressibility (1/GPa) = 0.02370344
#
# Stress axis : x y z
#
# Youngs Moduli (GPa) = 194.68856 71.95408 76.35292
#
# Poissons Ratio (x) = 0.13230 0.08715
# Poissons Ratio (y) = 0.35797 0.09421
# Poissons Ratio (z) = 0.22221 0.08878
#
# Static dielectric constant tensor:
#      x y z
#    x 1.849500 0.000000 0.015150 
#    y 0.000000 1.821820 0.000000 
#    z 0.015150 0.000000 1.783420 
# 
# From -- ./inp_files/145172.got.cif
#   From: 2010.05.17/outbox.cif.g08.bks.cpg/sg12_73_cif.got.tgz:145172.got - 2010.06.03 13:09:07.
