data_PCOD9219758
_publ_section_title
;
Structure prediction by ZEFSAII (Michael W. Deem and Ramdas Pophale) SiO2 
 PCOD9219758
Probable space group: C 2/M
;
_chemical_formula_sum "Si O2"
_cell_formula_units_Z 56
_cell_length_a 26.925668
_cell_length_b 8.939500
_cell_length_c 13.419657
_cell_angle_alpha 90.000000
_cell_angle_beta 113.521244
_cell_angle_gamma 90.000000
_cell_volume 2961.753192
_symmetry_space_group_name_H-M "C 2/M"
_symmetry_group_IT_number 12
_symmetry_cell_setting 'monoclinic'
loop_
_space_group_symop_operation_xyz
x,y,z
-x,y,-z
-x,-y,-z
x,-y,z
1/2+x,1/2+y,z
1/2-x,1/2+y,-z
1/2-x,1/2-y,-z
1/2+x,1/2-y,z
loop_
_atom_site_type_symbol
_atom_site_label
_atom_site_fract_x
_atom_site_fract_y
_atom_site_fract_z
Si Si1 0.448026 0.672610 0.827999
Si Si2 0.223905 0.181761 0.248566
Si Si3 0.873319 0.822560 0.962817
Si Si4 0.050483 0.179213 0.610356
Si Si5 0.343002 0.322812 0.610828
Si Si6 0.449928 0.175919 0.174466
Si Si7 0.657988 0.820843 0.604668
O O1 0.467522 0.500000 0.841590
O O2 0.415634 0.694354 0.904807
O O3 0.403261 0.691094 0.705307
O O4 0.498154 0.780010 0.850640
O O5 0.184225 0.230203 0.127874
O O6 0.197511 0.226708 0.333403
O O7 0.286365 0.225382 0.295666
O O8 0.221117 0.000000 0.246333
O O9 0.870394 0.000000 0.982697
O O10 0.896938 0.734886 0.074857
O O11 0.042959 0.241546 0.714976
O O12 0.105578 0.244627 0.609375
O O13 0.000000 0.222894 0.500000
O O14 0.053131 0.000000 0.614765
O O15 0.334061 0.500000 0.584011
O O16 0.336907 0.230171 0.505832
O O17 0.447063 0.000000 0.187644
O O18 0.653088 0.000000 0.606239
#
# Coordination Sequence:
#
# PCOD9219758 Si02
#       7
#     8   8   8   8   8   8   8
#     4   9  18  33  55  81 110 148 188 220 256 315
#     4   8  17  34  56  82 112 146 182 221 262 313
#     4   9  18  36  59  80 108 148 188 219 255 314
#     4  11  25  44  62  78 101 140 187 224 259 319
#     4   9  17  32  54  81 113 149 186 216 255 320
#     4  12  24  36  54  82 113 141 175 226 282 323
#     4  11  21  34  55  84 114 141 176 226 280 319
#
# _framework density 18.907720000000001
#
# number of rings (size 3 to 8) (size 9 to 14) (size 15 to 20)
#    0.000    2.143    0.000    5.571    0.000    7.429 
#    0.000    5.000    0.000    0.000    0.000    0.000 
#    0.000    0.000    0.000    0.000    0.000    0.000 
#
# Total GULP energy -156395.468886 kJ/mol
# GULP energy per Si atom -5585.552460 kJ/mol
# Density = 1.886469 g / cm^3
# Si number density = 18.907720 Si / 1000 Ang^3
#
#
#
# Elastic Constant Matrix: (Units=GPa)
#
#
# Indices 1 2 3 4 5 6 
#
# 1 83.2237 36.5753 30.7950 0.0000 27.5733 0.0000
# 2 36.5753 54.7317 42.9983 0.0000 14.0564 0.0000
# 3 30.7950 42.9983 103.3945 0.0000 22.2574 0.0000
# 4 0.0000 0.0000 0.0000 5.0437 0.0000 15.7211
# 5 27.5733 14.0564 22.2574 0.0000 15.4509 0.0000
# 6 0.0000 0.0000 0.0000 15.7211 0.0000 -6.4646
#
#
#
# Elastic Compliance Matrix: (Units=1/GPa)
#
#
# Indices 1 2 3 4 5 6 
#
# 1 0.037072 -0.015322 0.009525 0.000000 -0.065940 0.000000
# 2 -0.015322 0.035161 -0.013131 0.000000 0.014271 0.000000
# 3 0.009525 -0.013131 0.019398 0.000000 -0.032997 0.000000
# 4 0.000000 0.000000 0.000000 0.023108 0.000000 0.056195
# 5 -0.065940 0.014271 -0.032997 0.000000 0.216945 0.000000
# 6 0.000000 0.000000 0.000000 0.056195 0.000000 -0.018029
#
#
# Mechanical properties :
#
#
# Convention : Reuss Voigt Hill
#
# Bulk Modulus (GPa) = 18.59584 51.34301 34.96942
# Shear Modulus (GPa) = 13.53415 11.53809 12.53612
#
# Velocity S-wave (km/s) = 2.67835 2.47297 2.57770
# Velocity P-wave (km/s) = 4.40694 5.94706 5.23396
#
# Compressibility (1/GPa) = 0.05377548
#
# Stress axis : x y z
#
# Youngs Moduli (GPa) = 26.97461 28.44086 51.55047
#
# Poissons Ratio (x) = 0.43577 -0.49102
# Poissons Ratio (y) = 0.41331 0.67690
# Poissons Ratio (z) = -0.25694 0.37345
#
# Static dielectric constant tensor:
#      x y z
#    x 1.660090 0.000000 0.016450 
#    y 0.000000 1.627600 0.000000 
#    z 0.016450 0.000000 1.656230 
# 
# From -- ./inp_files/181009.got.cif
#   From: 2010.05.17/outbox.cif.g08.bks.cpg/sg12_91_cif.got.tgz:181009.got - 2010.06.03 13:09:07.
