data_PCOD9219491
_publ_section_title
;
Structure prediction by ZEFSAII (Michael W. Deem and Ramdas Pophale) SiO2 
 PCOD9219491
Probable space group: C 2/M
;
_chemical_formula_sum "Si O2"
_cell_formula_units_Z 44
_cell_length_a 12.766049
_cell_length_b 20.256552
_cell_length_c 12.318483
_cell_angle_alpha 90.000000
_cell_angle_beta 133.184393
_cell_angle_gamma 90.000000
_cell_volume 2322.732286
_symmetry_space_group_name_H-M "C 2/M"
_symmetry_group_IT_number 12
_symmetry_cell_setting 'monoclinic'
loop_
_space_group_symop_operation_xyz
x,y,z
-x,y,-z
-x,-y,-z
x,-y,z
1/2+x,1/2+y,z
1/2-x,1/2+y,-z
1/2-x,1/2-y,-z
1/2+x,1/2-y,z
loop_
_atom_site_type_symbol
_atom_site_label
_atom_site_fract_x
_atom_site_fract_y
_atom_site_fract_z
Si Si1 0.917975 0.765650 0.616859
Si Si2 0.907083 0.638036 0.334885
Si Si3 0.500000 0.627186 0.500000
Si Si4 0.873607 0.220007 0.824758
Si Si5 0.790354 0.371683 0.799438
Si Si6 0.081292 0.578114 0.894564
O O1 0.750000 0.750000 0.500000
O O2 0.947602 0.826894 0.561390
O O3 0.953252 0.779009 0.766054
O O4 0.003040 0.703381 0.632453
O O5 0.750244 0.664522 0.259073
O O6 0.896831 0.597725 0.215321
O O7 0.000000 0.606894 0.500000
O O8 0.354969 0.596046 0.350055
O O9 0.798171 0.291910 0.790061
O O10 0.000000 0.210838 0.000000
O O11 0.924323 0.399092 0.825263
O O12 0.814057 0.387573 0.943064
O O13 0.094290 0.500000 0.916536
#
# Coordination Sequence:
#
# PCOD9219491 Si02
#       6
#     8   8   4   8   8   8
#     4  12  18  35  54  91 134 152 180 235 309 376
#     4  12  22  38  62  89 124 160 197 244 306 369
#     4  12  22  32  63  96 125 158 184 248 322 364
#     4  12  23  34  59  97 126 156 188 246 317 370
#     4  11  20  39  62  91 121 154 198 253 301 353
#     4  11  25  44  62  82 119 168 213 248 282 348
#
# _framework density 18.943207000000001
#
# number of rings (size 3 to 8) (size 9 to 14) (size 15 to 20)
#    0.000    0.364   10.000    1.091    2.545    1.818 
#    0.000    1.818    0.000    0.545    0.000    0.000 
#    0.000    0.000    0.000    0.000    0.000    0.000 
#
# Total GULP energy -122833.953375 kJ/mol
# GULP energy per Si atom -5583.361517 kJ/mol
# Density = 1.890009 g / cm^3
# Si number density = 18.943207 Si / 1000 Ang^3
#
#
#
# Elastic Constant Matrix: (Units=GPa)
#
#
# Indices 1 2 3 4 5 6 
#
# 1 58.6219 2.1424 35.8430 0.0000 -15.8057 0.0000
# 2 2.1424 43.0019 8.3991 0.0000 -10.1286 0.0000
# 3 35.8430 8.3991 159.0594 0.0000 -16.2873 0.0000
# 4 0.0000 0.0000 0.0000 -2.0956 0.0000 -5.4871
# 5 -15.8057 -10.1286 -16.2873 0.0000 50.5065 0.0000
# 6 0.0000 0.0000 0.0000 -5.4871 0.0000 14.7245
#
#
#
# Elastic Compliance Matrix: (Units=1/GPa)
#
#
# Indices 1 2 3 4 5 6 
#
# 1 0.021085 0.001061 -0.004250 0.000000 0.005441 0.000000
# 2 0.001061 0.024564 -0.001032 0.000000 0.004925 0.000000
# 3 -0.004250 -0.001032 0.007386 0.000000 0.000845 0.000000
# 4 0.000000 0.000000 0.000000 -0.241522 0.000000 -0.090004
# 5 0.005441 0.004925 0.000845 0.000000 0.022762 0.000000
# 6 0.000000 0.000000 0.000000 -0.090004 0.000000 0.034374
#
#
# Mechanical properties :
#
#
# Convention : Reuss Voigt Hill
#
# Bulk Modulus (GPa) = 22.42525 39.27246 30.84885
# Shear Modulus (GPa) = -46.27694 26.91366 -9.68164
#
# Velocity S-wave (km/s) = -4.94796 3.77338 -2.26318
# Velocity P-wave (km/s) = 4.55843 6.30565 3.08074
#
# Compressibility (1/GPa) = 0.04459259
#
# Stress axis : x y z
#
# Youngs Moduli (GPa) = 47.42617 40.71068 135.39616
#
# Poissons Ratio (x) = -0.04320 0.57548
# Poissons Ratio (y) = -0.05033 0.13971
# Poissons Ratio (z) = 0.20158 0.04201
#
# Static dielectric constant tensor:
#      x y z
#    x 1.660550 0.000000 -0.018980 
#    y 0.000000 1.642320 0.000000 
#    z -0.018980 0.000000 1.760800 
# 
# From -- ./inp_files/133492.got.cif
#   From: 2010.05.17/outbox.cif.g08.bks.cpg/sg12_67_cif.got.tgz:133492.got - 2010.06.03 13:09:07.
