data_PCOD9219823
_publ_section_title
;
Structure prediction by ZEFSAII (Michael W. Deem and Ramdas Pophale) SiO2 
 PCOD9219823
Probable space group: C 2/M
;
_chemical_formula_sum "Si O2"
_cell_formula_units_Z 58
_cell_length_a 14.898042
_cell_length_b 17.692073
_cell_length_c 23.238177
_cell_angle_alpha 90.000000
_cell_angle_beta 36.614617
_cell_angle_gamma 90.000000
_cell_volume 3653.164336
_symmetry_space_group_name_H-M "C 2/M"
_symmetry_group_IT_number 12
_symmetry_cell_setting 'monoclinic'
loop_
_space_group_symop_operation_xyz
x,y,z
-x,y,-z
-x,-y,-z
x,-y,z
1/2+x,1/2+y,z
1/2-x,1/2+y,-z
1/2-x,1/2-y,-z
1/2+x,1/2-y,z
loop_
_atom_site_type_symbol
_atom_site_label
_atom_site_fract_x
_atom_site_fract_y
_atom_site_fract_z
Si Si1 0.475762 0.410491 0.607513
Si Si2 0.500000 0.500000 0.000000
Si Si3 0.979285 0.691929 0.786765
Si Si4 0.839570 0.132375 0.009496
Si Si5 0.252612 0.410643 0.614573
Si Si6 0.846985 0.825158 0.782124
Si Si7 0.698813 0.911515 0.960725
Si Si8 0.966431 0.282422 0.108010
O O1 0.477638 0.500000 0.619646
O O2 0.348558 0.399264 0.623839
O O3 0.634431 0.391212 0.495680
O O4 0.434996 0.363262 0.684400
O O5 0.574472 0.566192 0.002799
O O6 0.946123 0.765397 0.766055
O O7 0.103168 0.638354 0.694524
O O8 0.034676 0.714002 0.822211
O O9 0.820494 0.649526 0.878069
O O10 0.799970 0.109234 0.964320
O O11 0.935800 0.209650 0.959835
O O12 0.218268 0.500000 0.628684
O O13 0.786362 0.887365 0.858307
O O14 0.699430 0.783328 0.832734
O O15 0.660827 0.000000 0.980794
O O16 0.553610 0.857479 0.041677
#
# Coordination Sequence:
#
# PCOD9219823 Si02
#       8
#     8   2   8   8   8   8   8   8
#     4   9  19  36  57  83 107 141 178 235 297 334
#     4  12  24  36  64  76 112 156 204 226 256 332
#     4  11  21  35  58  80 110 152 187 229 278 339
#     4  11  22  40  53  82 115 152 192 229 274 318
#     4   9  19  37  58  79 112 137 182 243 284 332
#     4  12  21  34  58  81 110 150 186 226 282 347
#     4  11  22  36  53  80 113 148 189 230 274 333
#     4  11  22  39  54  77 121 155 183 235 282 326
#
# _framework density 15.876647
#
# number of rings (size 3 to 8) (size 9 to 14) (size 15 to 20)
#    0.000    1.379    4.828    3.310    0.966    2.759 
#    0.000    0.000    0.000    0.000    0.000    0.000 
#    0.000    3.310    0.000    0.000    0.000    0.000 
#
# Total GULP energy -161685.381240 kJ/mol
# GULP energy per Si atom -5575.357974 kJ/mol
# Density = 1.584051 g / cm^3
# Si number density = 15.876647 Si / 1000 Ang^3
#
#
#
# Elastic Constant Matrix: (Units=GPa)
#
#
# Indices 1 2 3 4 5 6 
#
# 1 78.2224 38.7748 47.5753 -0.0001 11.2564 0.0000
# 2 38.7748 115.8385 65.6509 -0.0002 0.4128 0.0000
# 3 47.5753 65.6509 115.3340 -0.0005 10.7965 0.0004
# 4 -0.0001 -0.0002 -0.0005 28.6530 0.0001 -4.0059
# 5 11.2564 0.4128 10.7965 0.0001 23.0355 0.0000
# 6 0.0000 0.0000 0.0004 -4.0059 0.0000 21.9479
#
#
#
# Elastic Compliance Matrix: (Units=1/GPa)
#
#
# Indices 1 2 3 4 5 6 
#
# 1 0.018470 -0.003231 -0.005167 0.000000 -0.006546 0.000000
# 2 -0.003231 0.013556 -0.006808 0.000000 0.004526 0.000000
# 3 -0.005167 -0.006808 0.015091 0.000000 -0.004426 0.000000
# 4 0.000000 0.000000 0.000000 0.035814 0.000000 0.006537
# 5 -0.006546 0.004526 -0.004426 0.000000 0.048603 0.000000
# 6 0.000000 0.000000 0.000000 0.006537 0.000000 0.046755
#
#
# Mechanical properties :
#
#
# Convention : Reuss Voigt Hill
#
# Bulk Modulus (GPa) = 59.85614 68.15521 64.00568
# Shear Modulus (GPa) = 23.33500 25.22022 24.27761
#
# Velocity S-wave (km/s) = 3.83792 3.98994 3.91466
# Velocity P-wave (km/s) = 7.57773 8.01544 7.79966
#
# Compressibility (1/GPa) = 0.01670672
#
# Stress axis : x y z
#
# Youngs Moduli (GPa) = 54.14121 73.76732 66.26351
#
# Poissons Ratio (x) = 0.23833 0.34239
# Poissons Ratio (y) = 0.17492 0.45109
# Poissons Ratio (z) = 0.27976 0.50217
#
# Static dielectric constant tensor:
#      x y z
#    x 1.531500 0.000000 0.006860 
#    y 0.000000 1.511350 0.000000 
#    z 0.006860 0.000000 1.516290 
# 
# From -- ./inp_files/189931.got.cif
#   From: 2010.05.17/outbox.cif.g08.bks.cpg/sg12_95_cif.got.tgz:189931.got - 2010.06.03 13:09:07.
