data_PCOD9219294
_publ_section_title
;
Structure prediction by ZEFSAII (Michael W. Deem and Ramdas Pophale) SiO2 
 PCOD9219294
Probable space group: C 2/M
;
_chemical_formula_sum "Si O2"
_cell_formula_units_Z 48
_cell_length_a 30.585284
_cell_length_b 11.044632
_cell_length_c 7.291525
_cell_angle_alpha 90.000000
_cell_angle_beta 64.619540
_cell_angle_gamma 90.000000
_cell_volume 2225.365814
_symmetry_space_group_name_H-M "C 2/M"
_symmetry_group_IT_number 12
_symmetry_cell_setting 'monoclinic'
loop_
_space_group_symop_operation_xyz
x,y,z
-x,y,-z
-x,-y,-z
x,-y,z
1/2+x,1/2+y,z
1/2-x,1/2+y,-z
1/2-x,1/2-y,-z
1/2+x,1/2-y,z
loop_
_atom_site_type_symbol
_atom_site_label
_atom_site_fract_x
_atom_site_fract_y
_atom_site_fract_z
Si Si1 0.865579 0.133131 0.001261
Si Si2 0.434789 0.859651 0.793214
Si Si3 0.542996 0.862061 0.682891
Si Si4 0.773594 0.634036 0.358466
Si Si5 0.697041 0.636721 0.218870
Si Si6 0.860860 0.252303 0.360844
O O1 0.899104 0.248732 0.898099
O O2 0.817204 0.148648 0.966787
O O3 0.886285 0.000000 0.917685
O O4 0.855612 0.139476 0.234516
O O5 0.486199 0.834376 0.800144
O O6 0.445119 0.857970 0.556105
O O7 0.420034 0.000000 0.861773
O O8 0.583446 0.783019 0.708496
O O9 0.549891 0.000000 0.732316
O O10 0.758672 0.500000 0.452290
O O11 0.750000 0.750000 0.500000
O O12 0.752270 0.642716 0.190021
O O13 0.829970 0.647609 0.304648
O O14 0.681057 0.500000 0.296220
O O15 0.665209 0.727293 0.399118
#
# Coordination Sequence:
#
# PCOD9219294 Si02
#       6
#     8   8   8   8   8   8
#     4  11  23  38  58  86 117 153 193 233 281 341
#     4   9  19  38  60  84 113 150 190 233 287 343
#     4   9  18  35  60  84 113 149 188 235 289 341
#     4   9  19  35  58  85 115 150 190 234 283 337
#     4   9  19  38  56  77 116 154 184 230 286 333
#     4  11  20  34  59  86 114 147 193 233 283 335
#
# _framework density 21.569485
#
# number of rings (size 3 to 8) (size 9 to 14) (size 15 to 20)
#    0.000    2.333    1.667    2.000    0.000    3.333 
#    0.000    5.833    0.000    0.000    0.000    0.000 
#    0.000    0.000    0.000    0.000    0.000    0.000 
#
# Total GULP energy -133729.550078 kJ/mol
# GULP energy per Si atom -5572.064587 kJ/mol
# Density = 2.152039 g / cm^3
# Si number density = 21.569485 Si / 1000 Ang^3
#
#
#
# Elastic Constant Matrix: (Units=GPa)
#
#
# Indices 1 2 3 4 5 6 
#
# 1 124.6448 56.4158 20.7573 0.0000 37.4120 0.0000
# 2 56.4158 140.0985 17.3976 0.0000 -6.2453 0.0000
# 3 20.7573 17.3976 41.2930 0.0000 15.3089 0.0000
# 4 0.0000 0.0000 0.0000 25.9366 0.0000 -0.2473
# 5 37.4120 -6.2453 15.3089 0.0000 37.3702 0.0000
# 6 0.0000 0.0000 0.0000 -0.2473 0.0000 23.7504
#
#
#
# Elastic Compliance Matrix: (Units=1/GPa)
#
#
# Indices 1 2 3 4 5 6 
#
# 1 0.017078 -0.007968 0.001892 0.000000 -0.019204 0.000000
# 2 -0.007968 0.011550 -0.005345 0.000000 0.012097 0.000000
# 3 0.001892 -0.005345 0.031306 0.000000 -0.015612 0.000000
# 4 0.000000 0.000000 0.000000 0.038559 0.000000 0.000401
# 5 -0.019204 0.012097 -0.015612 0.000000 0.054402 0.000000
# 6 0.000000 0.000000 0.000000 0.000401 0.000000 0.042109
#
#
# Mechanical properties :
#
#
# Convention : Reuss Voigt Hill
#
# Bulk Modulus (GPa) = 26.96093 55.01976 40.99034
# Shear Modulus (GPa) = 21.71910 31.50913 26.61412
#
# Velocity S-wave (km/s) = 3.17667 3.82621 3.51647
# Velocity P-wave (km/s) = 5.09722 6.71442 5.96092
#
# Compressibility (1/GPa) = 0.03709072
#
# Stress axis : x y z
#
# Youngs Moduli (GPa) = 58.55362 86.58291 31.94236
#
# Poissons Ratio (x) = 0.68991 -0.06043
# Poissons Ratio (y) = 0.46657 0.17075
# Poissons Ratio (z) = -0.11078 0.46283
#
# Static dielectric constant tensor:
#      x y z
#    x 1.807220 0.000000 -0.003680 
#    y 0.000000 1.776760 0.000000 
#    z -0.003680 0.000000 1.847560 
# 
# From -- ./inp_files/101936.got.cif
#   From: 2010.05.17/outbox.cif.g08.bks.cpg/sg12_51_cif.got.tgz:101936.got - 2010.06.03 13:09:07.
