data_PCOD9219252
_publ_section_title
;
Structure prediction by ZEFSAII (Michael W. Deem and Ramdas Pophale) SiO2 
 PCOD9219252
Probable space group: C 2/M
;
_chemical_formula_sum "Si O2"
_cell_formula_units_Z 48
_cell_length_a 11.069372
_cell_length_b 22.914816
_cell_length_c 17.191427
_cell_angle_alpha 90.000000
_cell_angle_beta 32.988567
_cell_angle_gamma 90.000000
_cell_volume 2374.250697
_symmetry_space_group_name_H-M "C 2/M"
_symmetry_group_IT_number 12
_symmetry_cell_setting 'monoclinic'
loop_
_space_group_symop_operation_xyz
x,y,z
-x,y,-z
-x,-y,-z
x,-y,z
1/2+x,1/2+y,z
1/2-x,1/2+y,-z
1/2-x,1/2-y,-z
1/2+x,1/2-y,z
loop_
_atom_site_type_symbol
_atom_site_label
_atom_site_fract_x
_atom_site_fract_y
_atom_site_fract_z
Si Si1 0.882301 0.934875 0.809912
Si Si2 0.441107 0.749893 0.612382
Si Si3 0.758502 0.933683 0.590465
Si Si4 0.473041 0.902506 0.129139
Si Si5 0.683507 0.343583 0.579806
Si Si6 0.020910 0.735724 0.080369
O O1 0.725689 0.927129 0.817798
O O2 0.062972 0.883478 0.709032
O O3 0.978104 0.000000 0.757471
O O4 0.706062 0.928325 0.974618
O O5 0.500000 0.717419 0.500000
O O6 0.513714 0.706638 0.642174
O O7 0.595317 0.806653 0.525502
O O8 0.184618 0.763550 0.761832
O O9 0.585936 0.915916 0.750625
O O10 0.763559 0.888510 0.517794
O O11 0.000000 0.932610 0.500000
O O12 0.716034 0.000000 0.587323
O O13 0.486035 0.833748 0.106226
O O14 0.250000 0.750000 0.000000
O O15 0.000000 0.751598 0.000000
#
# Coordination Sequence:
#
# PCOD9219252 Si02
#       6
#     8   8   8   8   8   8
#     4  11  20  35  58  90 126 165 213 271 327 381
#     4  11  25  41  62  89 127 173 215 263 328 390
#     4  11  20  33  56  90 124 162 207 263 322 382
#     4  11  20  35  57  91 130 164 210 267 330 383
#     4  11  22  38  62  89 126 159 211 263 326 389
#     4  12  26  43  68  97 134 174 222 269 325 394
#
# _framework density 20.216902999999999
#
# number of rings (size 3 to 8) (size 9 to 14) (size 15 to 20)
#    0.000    0.833    5.000    4.000    9.333    0.000 
#    0.000    0.000    0.000    2.000    0.000    1.167 
#    0.000    0.000    0.000    0.000    0.000    0.000 
#
# Total GULP energy -134160.654531 kJ/mol
# GULP energy per Si atom -5590.027272 kJ/mol
# Density = 2.017089 g / cm^3
# Si number density = 20.216903 Si / 1000 Ang^3
#
#
#
# Elastic Constant Matrix: (Units=GPa)
#
#
# Indices 1 2 3 4 5 6 
#
# 1 58.9753 20.2229 37.0153 -0.0131 -13.3215 0.0018
# 2 20.2229 112.0132 37.2127 0.0226 -15.8949 -0.0028
# 3 37.0153 37.2127 150.6123 -0.1326 -10.0583 0.0200
# 4 -0.0131 0.0226 -0.1326 -66.8680 0.0039 7.0025
# 5 -13.3215 -15.8949 -10.0583 0.0039 29.8557 -0.0019
# 6 0.0018 -0.0028 0.0200 7.0025 -0.0019 20.1309
#
#
#
# Elastic Compliance Matrix: (Units=1/GPa)
#
#
# Indices 1 2 3 4 5 6 
#
# 1 0.021997 -0.001386 -0.004560 0.000005 0.007541 0.000001
# 2 -0.001386 0.010433 -0.001951 0.000008 0.004279 0.000001
# 3 -0.004560 -0.001951 0.008222 -0.000016 -0.000303 -0.000002
# 4 0.000005 0.000008 -0.000016 -0.014429 0.000003 0.005019
# 5 0.007541 0.004279 -0.000303 0.000003 0.039035 0.000003
# 6 0.000001 0.000001 -0.000002 0.005019 0.000003 0.047929
#
#
# Mechanical properties :
#
#
# Convention : Reuss Voigt Hill
#
# Bulk Modulus (GPa) = 40.23036 56.72252 48.47644
# Shear Modulus (GPa) = 36.42516 11.76704 24.09610
#
# Velocity S-wave (km/s) = 4.24927 2.41517 3.45611
# Velocity P-wave (km/s) = 6.63458 5.99127 6.32111
#
# Compressibility (1/GPa) = 0.02485685
#
# Stress axis : x y z
#
# Youngs Moduli (GPa) = 45.46088 95.84772 121.62360
#
# Poissons Ratio (x) = 0.13288 0.55460
# Poissons Ratio (y) = 0.06303 0.23733
# Poissons Ratio (z) = 0.20730 0.18703
#
# Static dielectric constant tensor:
#      x y z
#    x 1.751980 -0.000010 0.009180 
#    y -0.000010 1.720160 0.000000 
#    z 0.009180 0.000000 1.768470 
# 
# From -- ./inp_files/160425.got.cif
#   From: 2010.05.17/outbox.cif.g08.bks.cpg/sg12_81_cif.got.tgz:160425.got - 2010.06.03 13:09:07.
