data_PCOD9219808
_publ_section_title
;
Structure prediction by ZEFSAII (Michael W. Deem and Ramdas Pophale) SiO2 
 PCOD9219808
Probable space group: C 2/M
;
_chemical_formula_sum "Si O2"
_cell_formula_units_Z 56
_cell_length_a 12.638708
_cell_length_b 25.609410
_cell_length_c 12.033502
_cell_angle_alpha 90.000000
_cell_angle_beta 130.698616
_cell_angle_gamma 90.000000
_cell_volume 2952.905014
_symmetry_space_group_name_H-M "C 2/M"
_symmetry_group_IT_number 12
_symmetry_cell_setting 'monoclinic'
loop_
_space_group_symop_operation_xyz
x,y,z
-x,y,-z
-x,-y,-z
x,-y,z
1/2+x,1/2+y,z
1/2-x,1/2+y,-z
1/2-x,1/2-y,-z
1/2+x,1/2-y,z
loop_
_atom_site_type_symbol
_atom_site_label
_atom_site_fract_x
_atom_site_fract_y
_atom_site_fract_z
Si Si1 0.613523 0.658070 0.768698
Si Si2 0.631231 0.783927 0.141552
Si Si3 0.762156 0.560419 0.838875
Si Si4 0.051164 0.642391 0.657382
Si Si5 0.004274 0.438454 0.186458
Si Si6 0.088384 0.250811 0.361123
Si Si7 0.650910 0.671015 0.056259
O O1 0.731391 0.682607 0.770161
O O2 0.627206 0.597186 0.752265
O O3 0.479629 0.694568 0.661779
O O4 0.656420 0.663787 0.927810
O O5 0.584775 0.763455 0.228410
O O6 0.659416 0.732749 0.087059
O O7 0.500000 0.814089 0.000000
O O8 0.723206 0.500000 0.814686
O O9 0.860186 0.569193 0.798497
O O10 0.867135 0.570060 0.015152
O O11 0.218218 0.645595 0.790691
O O12 0.000000 0.626557 0.500000
O O13 0.996467 0.602245 0.713202
O O14 0.991797 0.701128 0.636357
O O15 0.001799 0.500000 0.218312
O O16 0.250000 0.250000 0.500000
O O17 0.500000 0.653395 0.000000
#
# Coordination Sequence:
#
# PCOD9219808 Si02
#       7
#     8   8   8   8   8   8   8
#     4  12  21  35  64  85 122 168 204 253 326 373
#     4  11  21  35  56  85 117 157 210 250 297 380
#     4   9  19  36  64  98 123 152 215 278 311 353
#     4  12  24  39  60  89 133 171 207 253 317 388
#     4   9  19  38  63  95 127 161 210 269 312 361
#     4  12  26  39  55  89 130 162 208 261 315 377
#     4  11  21  37  57  89 120 162 210 255 304 374
#
# _framework density 18.964376999999999
#
# number of rings (size 3 to 8) (size 9 to 14) (size 15 to 20)
#    0.000    1.143    5.714    3.857    2.000    0.286 
#    0.000    0.000    0.000    2.571    0.000    3.000 
#    0.000    0.000    0.000    0.000    0.000    0.000 
#
# Total GULP energy -156328.052599 kJ/mol
# GULP energy per Si atom -5583.144736 kJ/mol
# Density = 1.892121 g / cm^3
# Si number density = 18.964377 Si / 1000 Ang^3
#
#
#
# Elastic Constant Matrix: (Units=GPa)
#
#
# Indices 1 2 3 4 5 6 
#
# 1 69.0234 59.5382 33.2023 0.0000 5.5062 0.0000
# 2 59.5382 121.4250 47.9873 0.0000 -4.1873 0.0000
# 3 33.2023 47.9873 85.0617 0.0000 11.7169 0.0000
# 4 0.0000 0.0000 0.0000 8.8377 0.0000 1.6802
# 5 5.5062 -4.1873 11.7169 0.0000 32.0664 0.0000
# 6 0.0000 0.0000 0.0000 1.6802 0.0000 33.0161
#
#
#
# Elastic Compliance Matrix: (Units=1/GPa)
#
#
# Indices 1 2 3 4 5 6 
#
# 1 0.026781 -0.012170 -0.002880 0.000000 -0.005135 0.000000
# 2 -0.012170 0.016577 -0.005463 0.000000 0.006251 0.000000
# 3 -0.002880 -0.005463 0.016840 0.000000 -0.006372 0.000000
# 4 0.000000 0.000000 0.000000 0.114257 0.000000 -0.005815
# 5 -0.005135 0.006251 -0.006372 0.000000 0.035212 0.000000
# 6 0.000000 0.000000 0.000000 -0.005815 0.000000 0.030584
#
#
# Mechanical properties :
#
#
# Convention : Reuss Voigt Hill
#
# Bulk Modulus (GPa) = 52.15984 61.88511 57.02247
# Shear Modulus (GPa) = 17.38120 23.76953 20.57537
#
# Velocity S-wave (km/s) = 3.03069 3.54415 3.29743
# Velocity P-wave (km/s) = 6.30956 7.03215 6.68063
#
# Compressibility (1/GPa) = 0.01917184
#
# Stress axis : x y z
#
# Youngs Moduli (GPa) = 37.34020 60.32332 59.38306
#
# Poissons Ratio (x) = 0.73415 0.17104
# Poissons Ratio (y) = 0.45444 0.32439
# Poissons Ratio (z) = 0.10755 0.32952
#
# Static dielectric constant tensor:
#      x y z
#    x 1.668100 0.000000 -0.010540 
#    y 0.000000 1.680880 0.000000 
#    z -0.010540 0.000000 1.660270 
# 
# From -- ./inp_files/53210.got.cif
#   From: 2010.05.17/outbox.cif.g08.bks.cpg/sg12_27_cif.got.tgz:53210.got - 2010.06.03 13:09:07.
