data_PCOD9219327
_publ_section_title
;
Structure prediction by ZEFSAII (Michael W. Deem and Ramdas Pophale) SiO2 
 PCOD9219327
Probable space group: C 2/M
;
_chemical_formula_sum "Si O2"
_cell_formula_units_Z 64
_cell_length_a 29.891236
_cell_length_b 8.585700
_cell_length_c 16.752568
_cell_angle_alpha 90.000000
_cell_angle_beta 138.875887
_cell_angle_gamma 90.000000
_cell_volume 2827.637591
_symmetry_space_group_name_H-M "C 2/M"
_symmetry_group_IT_number 12
_symmetry_cell_setting 'monoclinic'
loop_
_space_group_symop_operation_xyz
x,y,z
-x,y,-z
-x,-y,-z
x,-y,z
1/2+x,1/2+y,z
1/2-x,1/2+y,-z
1/2-x,1/2-y,-z
1/2+x,1/2-y,z
loop_
_atom_site_type_symbol
_atom_site_label
_atom_site_fract_x
_atom_site_fract_y
_atom_site_fract_z
Si Si1 0.540903 0.684553 0.472119
Si Si2 0.174246 0.817948 0.902700
Si Si3 0.289060 0.689964 0.788970
Si Si4 0.665020 0.185457 0.723260
Si Si5 0.542539 0.184788 0.791410
Si Si6 0.075187 0.184832 0.095687
Si Si7 0.423352 0.318455 0.718929
Si Si8 0.289184 0.186008 0.475701
O O1 0.500000 0.707280 0.500000
O O2 0.552084 0.500000 0.476090
O O3 0.611920 0.772852 0.582493
O O4 0.498103 0.750072 0.340640
O O5 0.145848 0.780579 0.776092
O O6 0.119733 0.744772 0.889740
O O7 0.178027 0.000000 0.923394
O O8 0.250000 0.750000 0.000000
O O9 0.291787 0.500000 0.791970
O O10 0.241177 0.730814 0.798517
O O11 0.366078 0.748248 0.882775
O O12 0.247929 0.739702 0.654589
O O13 0.662718 0.000000 0.736277
O O14 0.497503 0.246298 0.804373
O O15 0.542321 0.000000 0.789140
O O16 0.100233 0.194522 0.220966
O O17 0.067139 0.000000 0.064863
O O18 0.000000 0.254947 0.000000
O O19 0.427601 0.500000 0.705440
O O20 0.366928 0.239459 0.588130
O O21 0.250000 0.250000 0.500000
O O22 0.286510 0.000000 0.473230
#
# Coordination Sequence:
#
# PCOD9219327 Si02
#       8
#     8   8   8   8   8   8   8   8
#     4  11  22  38  63  93 126 162 204 256 310 372
#     4  12  26  46  67  91 124 164 213 263 313 371
#     4   9  19  35  56  87 122 156 201 250 300 369
#     4  11  22  38  64  94 127 166 206 256 317 376
#     4  12  25  42  65  94 128 165 207 256 316 380
#     4   9  18  35  59  86 117 157 205 253 297 355
#     4  11  22  38  62  92 124 160 207 256 311 375
#     4  11  20  35  59  89 125 164 205 253 311 372
#
# _framework density 22.633735999999999
#
# number of rings (size 3 to 8) (size 9 to 14) (size 15 to 20)
#    0.000    1.250    2.500    4.500    0.000    2.500 
#    0.000    4.375    0.000    1.500    0.000    0.000 
#    0.000    0.000    0.000    0.000    0.000    0.000 
#
# Total GULP energy -179015.856308 kJ/mol
# GULP energy per Si atom -5594.245510 kJ/mol
# Density = 2.258222 g / cm^3
# Si number density = 22.633736 Si / 1000 Ang^3
#
#
#
# Elastic Constant Matrix: (Units=GPa)
#
#
# Indices 1 2 3 4 5 6 
#
# 1 121.1283 19.6026 7.4765 0.0000 36.0059 0.0000
# 2 19.6026 77.5761 -1.0766 0.0000 7.3488 0.0000
# 3 7.4765 -1.0766 64.3957 0.0000 30.0714 0.0000
# 4 0.0000 0.0000 0.0000 25.0711 0.0000 6.6397
# 5 36.0059 7.3488 30.0714 0.0000 43.6262 0.0000
# 6 0.0000 0.0000 0.0000 6.6397 0.0000 29.1697
#
#
#
# Elastic Compliance Matrix: (Units=1/GPa)
#
#
# Indices 1 2 3 4 5 6 
#
# 1 0.012064 -0.001774 0.004542 0.000000 -0.012788 0.000000
# 2 -0.001774 0.013510 0.001196 0.000000 -0.001636 0.000000
# 3 0.004542 0.001196 0.024872 0.000000 -0.021094 0.000000
# 4 0.000000 0.000000 0.000000 0.042445 0.000000 -0.009662
# 5 -0.012788 -0.001636 -0.021094 0.000000 0.048292 0.000000
# 6 0.000000 0.000000 0.000000 -0.009662 0.000000 0.036481
#
#
# Mechanical properties :
#
#
# Convention : Reuss Voigt Hill
#
# Bulk Modulus (GPa) = 17.13119 35.01170 26.07144
# Shear Modulus (GPa) = 26.42766 35.37991 30.90379
#
# Velocity S-wave (km/s) = 3.42076 3.95796 3.69912
# Velocity P-wave (km/s) = 4.81533 6.03238 5.45789
#
# Compressibility (1/GPa) = 0.05837306
#
# Stress axis : x y z
#
# Youngs Moduli (GPa) = 82.89257 74.01710 40.20573
#
# Poissons Ratio (x) = 0.13130 -0.18259
# Poissons Ratio (y) = 0.14705 -0.04808
# Poissons Ratio (z) = -0.37646 -0.08851
#
# Static dielectric constant tensor:
#      x y z
#    x 1.869840 0.000000 0.009300 
#    y 0.000000 1.753680 0.000000 
#    z 0.009300 0.000000 1.884570 
# 
# From -- ./inp_files/295843.got.cif
#   From: 2010.05.17/outbox.cif.g08.bks.cpg/sg12_148_cif.got.tgz:295843.got - 2010.06.03 13:09:07.
