data_PCOD9219383
_publ_section_title
;
Structure prediction by ZEFSAII (Michael W. Deem and Ramdas Pophale) SiO2 
 PCOD9219383
Probable space group: C 2/M
;
_chemical_formula_sum "Si O2"
_cell_formula_units_Z 56
_cell_length_a 21.004205
_cell_length_b 8.461161
_cell_length_c 18.023159
_cell_angle_alpha 90.000000
_cell_angle_beta 62.597642
_cell_angle_gamma 90.000000
_cell_volume 2843.678686
_symmetry_space_group_name_H-M "C 2/M"
_symmetry_group_IT_number 12
_symmetry_cell_setting 'monoclinic'
loop_
_space_group_symop_operation_xyz
x,y,z
-x,y,-z
-x,-y,-z
x,-y,z
1/2+x,1/2+y,z
1/2-x,1/2+y,-z
1/2-x,1/2-y,-z
1/2+x,1/2-y,z
loop_
_atom_site_type_symbol
_atom_site_label
_atom_site_fract_x
_atom_site_fract_y
_atom_site_fract_z
Si Si1 0.406997 0.690822 0.736572
Si Si2 0.187236 0.819465 0.083646
Si Si3 0.917952 0.689798 0.564144
Si Si4 0.830175 0.188723 0.472236
Si Si5 0.581041 0.817746 0.862989
Si Si6 0.089485 0.315309 0.019154
Si Si7 0.438918 0.809292 0.288993
O O1 0.406634 0.500000 0.736654
O O2 0.340911 0.749539 0.823426
O O3 0.402479 0.753239 0.655553
O O4 0.482353 0.746695 0.731760
O O5 0.120068 0.796500 0.065338
O O6 0.205335 0.000000 0.088035
O O7 0.250000 0.750000 0.000000
O O8 0.914760 0.500000 0.562251
O O9 0.862620 0.759335 0.534129
O O10 0.000000 0.737647 0.500000
O O11 0.750000 0.250000 0.500000
O O12 0.883649 0.259963 0.382020
O O13 0.830958 0.000000 0.467113
O O14 0.495738 0.819371 0.923816
O O15 0.588486 0.748549 0.776864
O O16 0.606043 0.000000 0.846010
O O17 0.610988 0.755734 0.925255
O O18 0.112932 0.500000 0.015244
O O19 0.443840 0.000000 0.282114
#
# Coordination Sequence:
#
# PCOD9219383 Si02
#       7
#     8   8   8   8   8   8   8
#     4  11  23  39  62  93 124 161 212 265 318 379
#     4  11  24  40  58  84 119 162 208 258 315 372
#     4  11  23  41  69 101 130 165 214 265 320 387
#     4  12  26  45  67  93 130 170 209 259 321 382
#     4   8  16  30  56  87 114 148 191 238 291 350
#     4   9  16  33  57  82 112 151 194 240 293 352
#     4  11  20  36  63  93 122 160 206 255 314 377
#
# _framework density 19.692800999999999
#
# number of rings (size 3 to 8) (size 9 to 14) (size 15 to 20)
#    0.000    1.571    2.857    3.857    0.000    2.286 
#    2.571    2.857    0.000    0.000    0.000    0.000 
#    0.000    0.000    0.000    0.000    0.000    0.000 
#
# Total GULP energy -156180.374187 kJ/mol
# GULP energy per Si atom -5577.870507 kJ/mol
# Density = 1.964798 g / cm^3
# Si number density = 19.692801 Si / 1000 Ang^3
#
#
#
# Elastic Constant Matrix: (Units=GPa)
#
#
# Indices 1 2 3 4 5 6 
#
# 1 56.9968 10.3715 43.4636 0.0000 3.6374 0.0000
# 2 10.3715 42.2309 15.4173 -0.0001 -2.6537 -0.0001
# 3 43.4636 15.4173 172.1058 0.0000 17.3833 0.0000
# 4 0.0000 -0.0001 0.0000 16.3851 0.0000 -2.3223
# 5 3.6374 -2.6537 17.3833 0.0000 39.5000 0.0000
# 6 0.0000 -0.0001 0.0000 -2.3223 0.0000 28.0166
#
#
#
# Elastic Compliance Matrix: (Units=1/GPa)
#
#
# Indices 1 2 3 4 5 6 
#
# 1 0.022226 -0.003519 -0.005303 0.000000 0.000051 0.000000
# 2 -0.003519 0.025322 -0.001658 0.000000 0.002755 0.000000
# 3 -0.005303 -0.001658 0.007598 0.000000 -0.002967 0.000000
# 4 0.000000 0.000000 0.000000 0.061756 0.000000 0.005119
# 5 0.000051 0.002755 -0.002967 0.000000 0.026802 0.000000
# 6 0.000000 0.000000 0.000000 0.005119 0.000000 0.036117
#
#
# Mechanical properties :
#
#
# Convention : Reuss Voigt Hill
#
# Bulk Modulus (GPa) = 29.25210 45.53758 37.39484
# Shear Modulus (GPa) = 23.56526 30.25241 26.90884
#
# Velocity S-wave (km/s) = 3.46301 3.92371 3.70054
# Velocity P-wave (km/s) = 5.55665 6.61071 6.10647
#
# Compressibility (1/GPa) = 0.03418558
#
# Stress axis : x y z
#
# Youngs Moduli (GPa) = 44.99305 39.49135 131.61911
#
# Poissons Ratio (x) = 0.13898 0.69794
# Poissons Ratio (y) = 0.15835 0.21820
# Poissons Ratio (z) = 0.23858 0.06547
#
# Static dielectric constant tensor:
#      x y z
#    x 1.757230 0.000000 -0.006830 
#    y 0.000000 1.687200 0.000000 
#    z -0.006830 0.000000 1.729030 
# 
# From -- ./inp_files/280904.got.cif
#   From: 2010.05.17/outbox.cif.g08.bks.cpg/sg12_141_cif.got.tgz:280904.got - 2010.06.03 13:09:07.
