data_PCOD9219637
_publ_section_title
;
Structure prediction by ZEFSAII (Michael W. Deem and Ramdas Pophale) SiO2 
 PCOD9219637
Probable space group: C 2/M
;
_chemical_formula_sum "Si O2"
_cell_formula_units_Z 48
_cell_length_a 9.712003
_cell_length_b 19.265337
_cell_length_c 15.280731
_cell_angle_alpha 90.000000
_cell_angle_beta 109.265379
_cell_angle_gamma 90.000000
_cell_volume 2698.993072
_symmetry_space_group_name_H-M "C 2/M"
_symmetry_group_IT_number 12
_symmetry_cell_setting 'monoclinic'
loop_
_space_group_symop_operation_xyz
x,y,z
-x,y,-z
-x,-y,-z
x,-y,z
1/2+x,1/2+y,z
1/2-x,1/2+y,-z
1/2-x,1/2-y,-z
1/2+x,1/2-y,z
loop_
_atom_site_type_symbol
_atom_site_label
_atom_site_fract_x
_atom_site_fract_y
_atom_site_fract_z
Si Si1 0.326048 0.180903 0.976489
Si Si2 0.850303 0.822900 0.425575
Si Si3 0.338829 0.417708 0.931578
Si Si4 0.144333 0.799277 0.769936
Si Si5 0.183712 0.162915 0.249775
Si Si6 0.338384 0.155529 0.456041
O O1 0.281504 0.120617 0.034436
O O2 0.500000 0.189163 0.000000
O O3 0.250000 0.250000 0.000000
O O4 0.245793 0.169437 0.866816
O O5 0.841906 0.836515 0.321225
O O6 0.729494 0.853701 0.462991
O O7 0.844214 0.739069 0.438116
O O8 0.000000 0.846492 0.500000
O O9 0.324129 0.500000 0.935329
O O10 0.330937 0.392278 0.830293
O O11 0.500000 0.397191 0.000000
O O12 0.205943 0.721963 0.763833
O O13 0.974637 0.802550 0.763000
O O14 0.245900 0.131273 0.353164
O O15 0.500000 0.127952 0.500000
#
# Coordination Sequence:
#
# PCOD9219637 Si02
#       6
#     8   8   8   8   8   8
#     4  12  23  38  60  89 120 151 189 241 293 345
#     4   9  16  28  42  71 112 147 171 219 276 340
#     4  11  24  42  61  81 113 155 200 242 290 350
#     4  11  21  31  54  84 115 150 185 230 289 345
#     4  11  21  34  55  84 114 152 188 232 289 347
#     4   9  18  28  46  75 116 147 181 222 286 345
#
# _framework density 17.784409
#
# number of rings (size 3 to 8) (size 9 to 14) (size 15 to 20)
#    0.000    1.500    5.000    1.500    7.000    0.333 
#    0.000    0.000    0.000    0.500    0.000    3.500 
#    0.000    0.000    0.000    0.000    0.000    0.000 
#
# Total GULP energy -133809.068336 kJ/mol
# GULP energy per Si atom -5575.377847 kJ/mol
# Density = 1.774393 g / cm^3
# Si number density = 17.784409 Si / 1000 Ang^3
#
#
#
# Elastic Constant Matrix: (Units=GPa)
#
#
# Indices 1 2 3 4 5 6 
#
# 1 143.6831 32.9642 56.1832 0.0000 -0.6085 0.0000
# 2 32.9642 33.0497 18.8018 0.0000 -4.6361 0.0000
# 3 56.1832 18.8018 156.7170 0.0000 -3.7560 0.0000
# 4 0.0000 0.0000 0.0000 9.1521 0.0000 1.0829
# 5 -0.6085 -4.6361 -3.7560 0.0000 32.4899 0.0000
# 6 0.0000 0.0000 0.0000 1.0829 0.0000 10.6241
#
#
#
# Elastic Compliance Matrix: (Units=1/GPa)
#
#
# Indices 1 2 3 4 5 6 
#
# 1 0.009938 -0.008645 -0.002558 0.000000 -0.001343 0.000000
# 2 -0.008645 0.040575 -0.001638 0.000000 0.005438 0.000000
# 3 -0.002558 -0.001638 0.007508 0.000000 0.000586 0.000000
# 4 0.000000 0.000000 0.000000 0.110599 0.000000 -0.011273
# 5 -0.001343 0.005438 0.000586 0.000000 0.031597 0.000000
# 6 0.000000 0.000000 0.000000 -0.011273 0.000000 0.095274
#
#
# Mechanical properties :
#
#
# Convention : Reuss Voigt Hill
#
# Bulk Modulus (GPa) = 30.92248 61.03869 45.98058
# Shear Modulus (GPa) = 15.06233 25.48660 20.27447
#
# Velocity S-wave (km/s) = 2.91338 3.78972 3.38007
# Velocity P-wave (km/s) = 5.36118 7.31746 6.41434
#
# Compressibility (1/GPa) = 0.03233893
#
# Stress axis : x y z
#
# Youngs Moduli (GPa) = 100.62824 24.64563 133.18347
#
# Poissons Ratio (x) = 0.21307 0.34063
# Poissons Ratio (y) = 0.86995 0.21819
# Poissons Ratio (z) = 0.25737 0.04038
#
# Static dielectric constant tensor:
#      x y z
#    x 1.579080 0.000000 0.008350 
#    y 0.000000 1.580360 0.000000 
#    z 0.008350 0.000000 1.634230 
# 
# From -- ./inp_files/197173.got.cif
#   From: 2010.05.17/outbox.cif.g08.bks.cpg/sg12_99_cif.got.tgz:197173.got - 2010.06.03 13:09:07.
