data_PCOD9219952
_publ_section_title
;
Structure prediction by ZEFSAII (Michael W. Deem and Ramdas Pophale) SiO2 
 PCOD9219952
Probable space group: C 2/M
;
_chemical_formula_sum "Si O2"
_cell_formula_units_Z 56
_cell_length_a 9.098725
_cell_length_b 29.861843
_cell_length_c 11.940250
_cell_angle_alpha 90.000000
_cell_angle_beta 122.358679
_cell_angle_gamma 90.000000
_cell_volume 2740.440200
_symmetry_space_group_name_H-M "C 2/M"
_symmetry_group_IT_number 12
_symmetry_cell_setting 'monoclinic'
loop_
_space_group_symop_operation_xyz
x,y,z
-x,y,-z
-x,-y,-z
x,-y,z
1/2+x,1/2+y,z
1/2-x,1/2+y,-z
1/2-x,1/2-y,-z
1/2+x,1/2-y,z
loop_
_atom_site_type_symbol
_atom_site_label
_atom_site_fract_x
_atom_site_fract_y
_atom_site_fract_z
Si Si1 0.827298 0.199230 0.272066
Si Si2 0.708784 0.386025 0.086989
Si Si3 0.834503 0.899553 0.362836
Si Si4 0.503188 0.119417 0.374756
Si Si5 0.790629 0.448186 0.913687
Si Si6 0.338589 0.297138 0.019363
Si Si7 0.402837 0.777497 0.627377
O O1 0.871790 0.153163 0.353299
O O2 0.859454 0.186609 0.155584
O O3 0.650996 0.215042 0.263810
O O4 0.940275 0.243834 0.327667
O O5 0.817517 0.392978 0.243665
O O6 0.500000 0.381861 0.000000
O O7 0.743087 0.422746 0.007783
O O8 0.776151 0.336638 0.079547
O O9 0.658764 0.901398 0.364700
O O10 0.792092 0.923779 0.228140
O O11 0.000000 0.917208 0.500000
O O12 0.500000 0.103347 0.500000
O O13 0.548731 0.172899 0.395335
O O14 0.736745 0.500000 0.892682
O O15 0.000000 0.446204 0.000000
O O16 0.500000 0.290838 0.000000
O O17 0.250000 0.250000 0.000000
O O18 0.250000 0.750000 0.500000
#
# Coordination Sequence:
#
# PCOD9219952 Si02
#       7
#     8   8   8   8   8   8   8
#     4  11  21  37  56  87 131 177 224 276 324 386
#     4  11  25  44  69 101 137 182 229 280 342 415
#     4  11  24  41  70 102 134 175 223 280 346 408
#     4  11  24  41  64  98 140 183 228 279 333 398
#     4  11  24  48  78 101 131 173 225 287 349 420
#     4  11  23  36  57  90 131 180 224 274 328 385
#     4  11  22  36  57  88 131 184 231 272 324 393
#
# _framework density 20.434674000000001
#
# number of rings (size 3 to 8) (size 9 to 14) (size 15 to 20)
#    0.000    1.000    2.857    4.714    2.000    5.714 
#    0.000    0.000    0.000    0.857    0.000    0.000 
#    0.000    0.000    0.000    0.000    0.000    0.000 
#
# Total GULP energy -156114.368032 kJ/mol
# GULP energy per Si atom -5575.513144 kJ/mol
# Density = 2.038816 g / cm^3
# Si number density = 20.434674 Si / 1000 Ang^3
#
#
#
# Elastic Constant Matrix: (Units=GPa)
#
#
# Indices 1 2 3 4 5 6 
#
# 1 99.1579 31.9989 55.2320 0.0000 -16.1227 0.0000
# 2 31.9989 102.7715 34.6246 0.0000 -1.0254 0.0000
# 3 55.2320 34.6246 156.1343 0.0000 -6.3119 0.0000
# 4 0.0000 0.0000 0.0000 9.7546 0.0000 -2.2984
# 5 -16.1227 -1.0254 -6.3119 0.0000 36.8975 0.0000
# 6 0.0000 0.0000 0.0000 -2.2984 0.0000 -6.2247
#
#
#
# Elastic Compliance Matrix: (Units=1/GPa)
#
#
# Indices 1 2 3 4 5 6 
#
# 1 0.014246 -0.002980 -0.004159 0.000000 0.005431 0.000000
# 2 -0.002980 0.011140 -0.001466 0.000000 -0.001244 0.000000
# 3 -0.004159 -0.001466 0.008183 0.000000 -0.000458 0.000000
# 4 0.000000 0.000000 0.000000 0.094311 0.000000 -0.034823
# 5 0.005431 -0.001244 -0.000458 0.000000 0.029362 0.000000
# 6 0.000000 0.000000 0.000000 -0.034823 0.000000 -0.147793
#
#
# Mechanical properties :
#
#
# Convention : Reuss Voigt Hill
#
# Bulk Modulus (GPa) = 61.13490 66.86385 63.99938
# Shear Modulus (GPa) = 155.70250 23.83272 89.76761
#
# Velocity S-wave (km/s) = 8.73846 3.41880 6.63509
# Velocity P-wave (km/s) = 11.48026 6.95529 9.49138
#
# Compressibility (1/GPa) = 0.01635727
#
# Stress axis : x y z
#
# Youngs Moduli (GPa) = 70.19308 89.76736 122.20917
#
# Poissons Ratio (x) = 0.26754 0.50829
# Poissons Ratio (y) = 0.20920 0.17921
# Poissons Ratio (z) = 0.29194 0.13163
#
# Static dielectric constant tensor:
#      x y z
#    x 1.765020 0.000000 0.061090 
#    y 0.000000 1.709830 0.000000 
#    z 0.061090 0.000000 1.879750 
# 
# From -- ./inp_files/125838.got.cif
#   From: 2010.05.17/outbox.cif.g08.bks.cpg/sg12_63_cif.got.tgz:125838.got - 2010.06.03 13:09:07.
