data_PCOD9219267
_publ_section_title
;
Structure prediction by ZEFSAII (Michael W. Deem and Ramdas Pophale) SiO2 
 PCOD9219267
Probable space group: C 2/M
;
_chemical_formula_sum "Si O2"
_cell_formula_units_Z 40
_cell_length_a 9.275066
_cell_length_b 25.822383
_cell_length_c 12.274315
_cell_angle_alpha 90.000000
_cell_angle_beta 45.482976
_cell_angle_gamma 90.000000
_cell_volume 2096.166619
_symmetry_space_group_name_H-M "C 2/M"
_symmetry_group_IT_number 12
_symmetry_cell_setting 'monoclinic'
loop_
_space_group_symop_operation_xyz
x,y,z
-x,y,-z
-x,-y,-z
x,-y,z
1/2+x,1/2+y,z
1/2-x,1/2+y,-z
1/2-x,1/2-y,-z
1/2+x,1/2-y,z
loop_
_atom_site_type_symbol
_atom_site_label
_atom_site_fract_x
_atom_site_fract_y
_atom_site_fract_z
Si Si1 0.311668 0.386959 0.748986
Si Si2 0.704702 0.500000 0.244421
Si Si3 0.722839 0.888302 0.533949
Si Si4 0.142601 0.722605 0.833909
Si Si5 0.781754 0.500000 0.453887
Si Si6 0.952313 0.281294 0.361624
O O1 0.250139 0.443342 0.829207
O O2 0.265115 0.388804 0.643026
O O3 0.553196 0.380909 0.634062
O O4 0.207626 0.334394 0.842512
O O5 0.804469 0.500000 0.311093
O O6 0.461248 0.500000 0.394497
O O7 0.581781 0.840126 0.583498
O O8 0.641154 0.944865 0.546072
O O9 0.031200 0.718015 0.778113
O O10 0.348237 0.753650 0.701589
O O11 0.000000 0.747626 0.000000
O O12 0.750000 0.250000 0.500000
#
# Coordination Sequence:
#
# PCOD9219267 Si02
#       6
#     8   4   8   8   4   8
#     4   8  13  24  41  65  95 124 154 192 238 285
#     4   7  10  18  37  62  91 122 149 185 236 286
#     4   8  13  23  43  68  91 119 157 199 237 279
#     4  11  22  34  48  72 104 133 161 201 247 289
#     4   7  10  18  36  66  93 111 146 200 244 270
#     4  11  20  34  53  73  96 130 170 203 238 288
#
# _framework density 19.082453999999998
#
# number of rings (size 3 to 8) (size 9 to 14) (size 15 to 20)
#    0.000    3.000    2.000    3.600    0.000    0.000 
#    0.000    0.500    0.000    0.000    0.000    4.900 
#    0.000    0.000    0.000    0.000    0.000    0.000 
#
# Total GULP energy -111374.920840 kJ/mol
# GULP energy per Si atom -5568.746042 kJ/mol
# Density = 1.903902 g / cm^3
# Si number density = 19.082454 Si / 1000 Ang^3
#
#
#
# Elastic Constant Matrix: (Units=GPa)
#
#
# Indices 1 2 3 4 5 6 
#
# 1 37.3640 16.4545 5.0605 0.0000 -1.1531 0.0000
# 2 16.4545 137.5797 4.0635 0.0000 -14.2405 0.0000
# 3 5.0605 4.0635 48.5254 0.0000 -7.3724 0.0000
# 4 0.0000 0.0000 0.0000 8.8209 0.0000 0.0587
# 5 -1.1531 -14.2405 -7.3724 0.0000 18.6841 0.0000
# 6 0.0000 0.0000 0.0000 0.0587 0.0000 12.1055
#
#
#
# Elastic Compliance Matrix: (Units=1/GPa)
#
#
# Indices 1 2 3 4 5 6 
#
# 1 0.028675 -0.003561 -0.003016 0.000000 -0.002135 0.000000
# 2 -0.003561 0.008337 0.000644 0.000000 0.006388 0.000000
# 3 -0.003016 0.000644 0.022248 0.000000 0.009083 0.000000
# 4 0.000000 0.000000 0.000000 0.113371 0.000000 -0.000550
# 5 -0.002135 0.006388 0.009083 0.000000 0.061843 0.000000
# 6 0.000000 0.000000 0.000000 -0.000550 0.000000 0.082610
#
#
# Mechanical properties :
#
#
# Convention : Reuss Voigt Hill
#
# Bulk Modulus (GPa) = 21.10068 30.51402 25.80735
# Shear Modulus (GPa) = 14.50332 21.11480 17.80906
#
# Velocity S-wave (km/s) = 2.75986 3.33002 3.05826
# Velocity P-wave (km/s) = 4.60841 5.55074 5.10138
#
# Compressibility (1/GPa) = 0.04739183
#
# Stress axis : x y z
#
# Youngs Moduli (GPa) = 34.87390 119.95204 44.94689
#
# Poissons Ratio (x) = 0.42720 0.13558
# Poissons Ratio (y) = 0.12420 -0.02894
# Poissons Ratio (z) = 0.10520 -0.07723
#
# Static dielectric constant tensor:
#      x y z
#    x 1.634430 0.000000 0.012170 
#    y 0.000000 1.741930 0.000000 
#    z 0.012170 0.000000 1.691110 
# 
# From -- ./inp_files/40368.got.cif
#   From: 2010.05.17/outbox.cif.g08.bks.cpg/sg12_21_cif.got.tgz:40368.got - 2010.06.03 13:09:07.
