data_PCOD9219502
_publ_section_title
;
Structure prediction by ZEFSAII (Michael W. Deem and Ramdas Pophale) SiO2 
 PCOD9219502
Probable space group: C 2/M
;
_chemical_formula_sum "Si O2"
_cell_formula_units_Z 48
_cell_length_a 16.218591
_cell_length_b 21.244708
_cell_length_c 12.960614
_cell_angle_alpha 90.000000
_cell_angle_beta 31.203282
_cell_angle_gamma 90.000000
_cell_volume 2313.571592
_symmetry_space_group_name_H-M "C 2/M"
_symmetry_group_IT_number 12
_symmetry_cell_setting 'monoclinic'
loop_
_space_group_symop_operation_xyz
x,y,z
-x,y,-z
-x,-y,-z
x,-y,z
1/2+x,1/2+y,z
1/2-x,1/2+y,-z
1/2-x,1/2-y,-z
1/2+x,1/2-y,z
loop_
_atom_site_type_symbol
_atom_site_label
_atom_site_fract_x
_atom_site_fract_y
_atom_site_fract_z
Si Si1 0.177524 0.381905 0.850331
Si Si2 0.124220 0.373888 0.277710
Si Si3 0.839740 0.929802 0.883905
Si Si4 0.624977 0.736295 0.953428
Si Si5 0.869482 0.839739 0.460911
Si Si6 0.422062 0.786837 0.359748
O O1 0.237730 0.416545 0.888515
O O2 0.179806 0.307257 0.871585
O O3 0.294927 0.384900 0.627277
O O4 0.000000 0.398346 0.000000
O O5 0.240226 0.316395 0.186626
O O6 0.000000 0.393389 0.500000
O O7 0.019313 0.343759 0.300001
O O8 0.233565 0.423711 0.100928
O O9 0.976451 0.876763 0.742661
O O10 0.906903 0.000000 0.805311
O O11 0.500000 0.717014 0.000000
O O12 0.524509 0.749364 0.164790
O O13 0.735048 0.818434 0.521383
O O14 0.904237 0.768439 0.463678
#
# Coordination Sequence:
#
# PCOD9219502 Si02
#       6
#     8   8   8   8   8   8
#     4  11  21  40  65  98 134 166 208 267 331 393
#     4  12  25  40  65  95 132 171 218 264 327 383
#     4  12  27  45  63  89 128 180 232 270 311 371
#     4  11  20  39  66 104 136 163 200 266 335 401
#     4  11  22  38  66  96 133 165 208 265 329 393
#     4  11  21  40  65 101 133 167 198 270 337 399
#
# _framework density 20.747143999999999
#
# number of rings (size 3 to 8) (size 9 to 14) (size 15 to 20)
#    0.000    0.667    6.667    3.000    2.333    2.000 
#    0.000    2.500    0.000    3.500    0.000    0.000 
#    0.000    0.000    0.000    0.000    0.000    0.000 
#
# Total GULP energy -133863.724976 kJ/mol
# GULP energy per Si atom -5577.655207 kJ/mol
# Density = 2.069992 g / cm^3
# Si number density = 20.747144 Si / 1000 Ang^3
#
#
#
# Elastic Constant Matrix: (Units=GPa)
#
#
# Indices 1 2 3 4 5 6 
#
# 1 65.3764 34.2074 31.1595 -0.0034 -1.9550 0.0028
# 2 34.2074 75.8733 22.7382 -0.0187 -12.5270 0.0272
# 3 31.1595 22.7382 129.0280 -0.0103 16.2684 0.0135
# 4 -0.0034 -0.0187 -0.0103 7.7367 0.0037 11.9664
# 5 -1.9550 -12.5270 16.2684 0.0037 26.7772 -0.0043
# 6 0.0028 0.0272 0.0135 11.9664 -0.0043 -16.8969
#
#
#
# Elastic Compliance Matrix: (Units=1/GPa)
#
#
# Indices 1 2 3 4 5 6 
#
# 1 0.021564 -0.008674 -0.003645 0.000002 -0.000269 -0.000012
# 2 -0.008674 0.019545 -0.002624 -0.000002 0.010104 0.000024
# 3 -0.003645 -0.002624 0.010051 0.000001 -0.007600 0.000005
# 4 0.000002 -0.000002 0.000001 0.061685 -0.000003 0.043686
# 5 -0.000269 0.010104 -0.007600 -0.000003 0.046670 -0.000004
# 6 -0.000012 0.000024 0.000005 0.043686 -0.000004 -0.028244
#
#
# Mechanical properties :
#
#
# Convention : Reuss Voigt Hill
#
# Bulk Modulus (GPa) = 47.00442 49.60975 48.30708
# Shear Modulus (GPa) = 29.71804 15.66825 22.69315
#
# Velocity S-wave (km/s) = 3.78880 2.75107 3.31085
# Velocity P-wave (km/s) = 6.46878 5.83564 6.16035
#
# Compressibility (1/GPa) = 0.02127460
#
# Stress axis : x y z
#
# Youngs Moduli (GPa) = 46.37382 51.16374 99.49163
#
# Poissons Ratio (x) = 0.44380 0.36265
# Poissons Ratio (y) = 0.40225 0.26103
# Poissons Ratio (z) = 0.16903 0.13423
#
# Static dielectric constant tensor:
#      x y z
#    x 1.687340 0.000000 0.188260 
#    y 0.000000 1.687550 0.000010 
#    z 0.188260 0.000010 1.736110 
# 
# From -- ./inp_files/147928.got.cif
#   From: 2010.05.17/outbox.cif.g08.bks.cpg/sg12_74_cif.got.tgz:147928.got - 2010.06.03 13:09:07.
