data_PCOD9219515
_publ_section_title
;
Structure prediction by ZEFSAII (Michael W. Deem and Ramdas Pophale) SiO2 
 PCOD9219515
Probable space group: C 2/M
;
_chemical_formula_sum "Si O2"
_cell_formula_units_Z 56
_cell_length_a 18.688603
_cell_length_b 10.934461
_cell_length_c 18.272247
_cell_angle_alpha 90.000000
_cell_angle_beta 57.150005
_cell_angle_gamma 90.000000
_cell_volume 3136.850727
_symmetry_space_group_name_H-M "C 2/M"
_symmetry_group_IT_number 12
_symmetry_cell_setting 'monoclinic'
loop_
_space_group_symop_operation_xyz
x,y,z
-x,y,-z
-x,-y,-z
x,-y,z
1/2+x,1/2+y,z
1/2-x,1/2+y,-z
1/2-x,1/2-y,-z
1/2+x,1/2-y,z
loop_
_atom_site_type_symbol
_atom_site_label
_atom_site_fract_x
_atom_site_fract_y
_atom_site_fract_z
Si Si1 0.130166 0.000000 0.881321
Si Si2 0.544973 0.147581 0.586204
Si Si3 0.634403 0.148641 0.387051
Si Si4 0.225918 0.641973 0.913187
Si Si5 0.060571 0.000000 0.075048
Si Si6 0.197005 0.751563 0.776410
Si Si7 0.613891 0.242386 0.104471
Si Si8 0.559688 0.855902 0.741913
O O1 0.173992 0.879530 0.827198
O O2 0.033770 0.000000 0.905423
O O3 0.126400 0.000000 0.970902
O O4 0.607551 0.180917 0.485073
O O5 0.448536 0.178894 0.616122
O O6 0.568564 0.191962 0.653745
O O7 0.546080 0.000000 0.588344
O O8 0.715374 0.223361 0.314793
O O9 0.648086 0.000000 0.375571
O O10 0.246346 0.500000 0.917896
O O11 0.204774 0.658268 0.839758
O O12 0.304836 0.730910 0.889331
O O13 0.149689 0.683837 0.009449
O O14 0.074877 0.875740 0.110441
O O15 0.122679 0.711550 0.762571
O O16 0.538611 0.163144 0.180468
O O17 0.579541 0.000000 0.732596
#
# Coordination Sequence:
#
# PCOD9219515 Si02
#       8
#     4   8   8   8   4   8   8   8
#     4  11  22  36  56  81 114 141 196 238 272 328
#     4   8  17  35  56  83 110 142 181 231 278 330
#     4   9  17  33  60  85 110 138 185 235 277 322
#     4  11  24  38  55  84 115 146 188 228 278 332
#     4  11  20  40  58  78 110 148 191 238 275 316
#     4  12  22  35  56  84 114 151 183 230 281 330
#     4  11  22  39  60  79 109 151 188 233 273 326
#     4  11  23  38  55  81 116 149 186 225 281 338
#
# _framework density 17.8523
#
# number of rings (size 3 to 8) (size 9 to 14) (size 15 to 20)
#    0.000    1.571    4.286    2.571    0.000    1.143 
#    1.286    1.429    0.000    0.000    1.857    5.000 
#    0.000    0.000    0.000    0.000    0.000    0.000 
#
# Total GULP energy -156254.270519 kJ/mol
# GULP energy per Si atom -5580.509661 kJ/mol
# Density = 1.781167 g / cm^3
# Si number density = 17.852300 Si / 1000 Ang^3
#
#
#
# Elastic Constant Matrix: (Units=GPa)
#
#
# Indices 1 2 3 4 5 6 
#
# 1 45.5308 -3.0084 35.8135 0.0000 4.6250 0.0000
# 2 -3.0084 45.0693 3.3610 0.0000 -2.3045 0.0000
# 3 35.8135 3.3610 89.4836 0.0000 0.4634 0.0000
# 4 0.0000 0.0000 0.0000 11.5355 0.0000 -11.5381
# 5 4.6250 -2.3045 0.4634 0.0000 31.0025 0.0000
# 6 0.0000 0.0000 0.0000 -11.5381 0.0000 -10.6529
#
#
#
# Elastic Compliance Matrix: (Units=1/GPa)
#
#
# Indices 1 2 3 4 5 6 
#
# 1 0.033112 0.002974 -0.013341 0.000000 -0.004519 0.000000
# 2 0.002974 0.022604 -0.002046 0.000000 0.001267 0.000000
# 3 -0.013341 -0.002046 0.016583 0.000000 0.001590 0.000000
# 4 0.000000 0.000000 0.000000 0.041611 0.000000 -0.045068
# 5 -0.004519 0.001267 0.001590 0.000000 0.033000 0.000000
# 6 0.000000 0.000000 0.000000 -0.045068 0.000000 -0.045058
#
#
# Mechanical properties :
#
#
# Convention : Reuss Voigt Hill
#
# Bulk Modulus (GPa) = 21.06402 28.04621 24.55512
# Shear Modulus (GPa) = 35.08745 15.97153 25.52949
#
# Velocity S-wave (km/s) = 4.43813 2.99431 3.78569
# Velocity P-wave (km/s) = 6.17149 5.26296 5.73525
#
# Compressibility (1/GPa) = 0.04747432
#
# Stress axis : x y z
#
# Youngs Moduli (GPa) = 30.20047 44.24013 60.30259
#
# Poissons Ratio (x) = -0.13157 0.80447
# Poissons Ratio (y) = -0.08982 0.12337
# Poissons Ratio (z) = 0.40289 0.09051
#
# Static dielectric constant tensor:
#      x y z
#    x 1.604090 0.000000 0.011180 
#    y 0.000000 1.578640 0.000000 
#    z 0.011180 0.000000 1.615280 
# 
# From -- ./inp_files/223755.got.cif
#   From: 2010.05.17/outbox.cif.g08.bks.cpg/sg12_112_cif.got.tgz:223755.got - 2010.06.03 13:09:07.
