data_PCOD9219173
_publ_section_title
;
Structure prediction by ZEFSAII (Michael W. Deem and Ramdas Pophale) SiO2 
 PCOD9219173
Probable space group: C 2/M
;
_chemical_formula_sum "Si O2"
_cell_formula_units_Z 40
_cell_length_a 12.068084
_cell_length_b 27.581818
_cell_length_c 7.697254
_cell_angle_alpha 90.000000
_cell_angle_beta 38.298061
_cell_angle_gamma 90.000000
_cell_volume 1587.871301
_symmetry_space_group_name_H-M "C 2/M"
_symmetry_group_IT_number 12
_symmetry_cell_setting 'monoclinic'
loop_
_space_group_symop_operation_xyz
x,y,z
-x,y,-z
-x,-y,-z
x,-y,z
1/2+x,1/2+y,z
1/2-x,1/2+y,-z
1/2-x,1/2-y,-z
1/2+x,1/2-y,z
loop_
_atom_site_type_symbol
_atom_site_label
_atom_site_fract_x
_atom_site_fract_y
_atom_site_fract_z
Si Si1 0.787058 0.232780 0.223897
Si Si2 0.484271 0.600011 0.228287
Si Si3 0.683505 0.500000 0.995472
Si Si4 0.129314 0.353888 0.628961
Si Si5 0.233185 0.174434 0.111884
Si Si6 0.000000 0.573397 0.500000
O O1 0.700175 0.198046 0.473839
O O2 0.754098 0.204481 0.084121
O O3 0.693915 0.284762 0.305725
O O4 0.000000 0.237194 0.000000
O O5 0.287821 0.617467 0.529642
O O6 0.500000 0.612721 0.000000
O O7 0.530468 0.543441 0.187498
O O8 0.611133 0.630841 0.197655
O O9 0.844028 0.458549 0.778259
O O10 0.926236 0.344776 0.932010
O O11 0.099514 0.391342 0.507953
#
# Coordination Sequence:
#
# PCOD9219173 Si02
#       6
#     8   8   4   8   8   4
#     4  11  21  37  55  79 106 155 191 224 275 324
#     4  12  20  35  51  80 113 148 183 227 270 336
#     4  11  21  30  54  80 113 151 181 219 282 342
#     4  12  19  37  54  76 121 149 182 227 273 327
#     4  11  22  37  54  76 116 148 189 231 269 324
#     4  11  20  30  52  80 112 156 176 215 286 342
#
# _framework density 25.190957999999998
#
# number of rings (size 3 to 8) (size 9 to 14) (size 15 to 20)
#    0.000    0.600   10.000    0.300    0.000    0.800 
#    3.600    0.000    0.000    0.000    0.000    0.700 
#    0.000    1.600    0.000    0.000    0.000    0.000 
#
# Total GULP energy -111425.863115 kJ/mol
# GULP energy per Si atom -5571.293156 kJ/mol
# Density = 2.513362 g / cm^3
# Si number density = 25.190958 Si / 1000 Ang^3
#
#
#
# Elastic Constant Matrix: (Units=GPa)
#
#
# Indices 1 2 3 4 5 6 
#
# 1 194.5766 83.6963 61.8591 0.0000 -37.0979 0.0000
# 2 83.6963 247.9152 75.2703 0.0000 -30.9548 0.0000
# 3 61.8591 75.2703 128.4204 0.0000 -46.6715 0.0000
# 4 0.0000 0.0000 0.0000 37.1779 0.0000 -26.3862
# 5 -37.0979 -30.9548 -46.6715 0.0000 61.9833 0.0000
# 6 0.0000 0.0000 0.0000 -26.3862 0.0000 1.8447
#
#
#
# Elastic Compliance Matrix: (Units=1/GPa)
#
#
# Indices 1 2 3 4 5 6 
#
# 1 0.006688 -0.001521 -0.001585 0.000000 0.002050 0.000000
# 2 -0.001521 0.005260 -0.002377 0.000000 -0.000073 0.000000
# 3 -0.001585 -0.002377 0.012621 0.000000 0.007368 0.000000
# 4 0.000000 0.000000 0.000000 -0.002939 0.000000 -0.042040
# 5 0.002050 -0.000073 0.007368 0.000000 0.022871 0.000000
# 6 0.000000 0.000000 0.000000 -0.042040 0.000000 -0.059233
#
#
# Mechanical properties :
#
#
# Convention : Reuss Voigt Hill
#
# Bulk Modulus (GPa) = 73.51179 112.50705 93.00942
# Shear Modulus (GPa) = 6507.61655 43.54027 3275.57841
#
# Velocity S-wave (km/s) = 50.88146 4.16192 36.09878
# Velocity P-wave (km/s) = 59.00120 8.23736 42.12479
#
# Compressibility (1/GPa) = 0.01360326
#
# Stress axis : x y z
#
# Youngs Moduli (GPa) = 149.51388 190.13146 79.23103
#
# Poissons Ratio (x) = 0.28913 0.12562
# Poissons Ratio (y) = 0.22736 0.18832
# Poissons Ratio (z) = 0.23705 0.45191
#
# Static dielectric constant tensor:
#      x y z
#    x 1.741820 0.000000 -0.031930 
#    y 0.000000 1.919710 0.000000 
#    z -0.031930 0.000000 2.174210 
# 
# From -- ./inp_files/54029.got.cif
#   From: 2010.05.17/outbox.cif.g08.bks.cpg/sg12_28_cif.got.tgz:54029.got - 2010.06.03 13:09:07.
