data_PCOD9219479
_publ_section_title
;
Structure prediction by ZEFSAII (Michael W. Deem and Ramdas Pophale) SiO2 
 PCOD9219479
Probable space group: C 2/M
;
_chemical_formula_sum "Si O2"
_cell_formula_units_Z 34
_cell_length_a 20.627869
_cell_length_b 14.106429
_cell_length_c 16.627776
_cell_angle_alpha 90.000000
_cell_angle_beta 160.212516
_cell_angle_gamma 90.000000
_cell_volume 1637.969585
_symmetry_space_group_name_H-M "C 2/M"
_symmetry_group_IT_number 12
_symmetry_cell_setting 'monoclinic'
loop_
_space_group_symop_operation_xyz
x,y,z
-x,y,-z
-x,-y,-z
x,-y,z
1/2+x,1/2+y,z
1/2-x,1/2+y,-z
1/2-x,1/2-y,-z
1/2+x,1/2-y,z
loop_
_atom_site_type_symbol
_atom_site_label
_atom_site_fract_x
_atom_site_fract_y
_atom_site_fract_z
Si Si1 0.774267 0.000000 0.879190
Si Si2 0.000000 0.000000 0.500000
Si Si3 0.182631 0.195736 0.270973
Si Si4 0.074289 0.199074 0.893951
Si Si5 0.134329 0.500000 0.531533
Si Si6 0.962762 0.816645 0.340409
O O1 0.702332 0.000000 0.703780
O O2 0.594275 0.000000 0.730032
O O3 0.888862 0.904912 0.027526
O O4 0.029016 0.084411 0.603346
O O5 0.283849 0.096064 0.409661
O O6 0.345428 0.256790 0.416546
O O7 0.096074 0.241351 0.250887
O O8 0.000000 0.182874 0.000000
O O9 0.034486 0.182903 0.753727
O O10 0.266606 0.260512 0.129870
#
# Coordination Sequence:
#
# PCOD9219479 Si02
#       6
#     4   2   8   8   4   8
#     4  11  20  38  66  99 131 162 203 268 336 392
#     4  12  26  46  68  88 136 188 224 278 330 386
#     4  12  22  40  67 103 132 169 214 274 334 399
#     4  11  23  43  70  95 137 170 216 278 337 389
#     4  11  22  34  64 105 130 158 208 263 332 397
#     4  11  26  45  65  95 129 181 228 269 324 401
#
# _framework density 20.757404999999999
#
# number of rings (size 3 to 8) (size 9 to 14) (size 15 to 20)
#    0.000    0.706    4.706    3.882    0.000    0.000 
#    0.000    5.294    0.000    0.000    0.000    0.000 
#    0.000    0.000    0.000    0.000    0.000    0.000 
#
# Total GULP energy -94728.802912 kJ/mol
# GULP energy per Si atom -5572.282524 kJ/mol
# Density = 2.071016 g / cm^3
# Si number density = 20.757405 Si / 1000 Ang^3
#
#
#
# Elastic Constant Matrix: (Units=GPa)
#
#
# Indices 1 2 3 4 5 6 
#
# 1 115.5754 20.9986 31.0262 -0.0001 9.2361 0.0002
# 2 20.9986 130.5442 31.1755 0.0006 14.1713 0.0012
# 3 31.0262 31.1755 85.0821 -0.0004 20.1757 0.0015
# 4 -0.0001 0.0006 -0.0004 43.3796 0.0002 -9.3905
# 5 9.2361 14.1713 20.1757 0.0002 37.8697 0.0005
# 6 0.0002 0.0012 0.0015 -9.3905 0.0005 31.0943
#
#
#
# Elastic Compliance Matrix: (Units=1/GPa)
#
#
# Indices 1 2 3 4 5 6 
#
# 1 0.009669 -0.000759 -0.003154 0.000000 -0.000393 0.000000
# 2 -0.000759 0.008553 -0.002452 0.000000 -0.001709 0.000000
# 3 -0.003154 -0.002452 0.015340 0.000000 -0.006486 -0.000001
# 4 0.000000 0.000000 0.000000 0.024665 0.000000 0.007449
# 5 -0.000393 -0.001709 -0.006486 0.000000 0.030597 0.000000
# 6 0.000000 0.000000 -0.000001 0.007449 0.000000 0.034410
#
#
# Mechanical properties :
#
#
# Convention : Reuss Voigt Hill
#
# Bulk Modulus (GPa) = 48.00494 55.28915 51.64704
# Shear Modulus (GPa) = 34.98741 39.00212 36.99477
#
# Velocity S-wave (km/s) = 4.10999 4.33939 4.22624
# Velocity P-wave (km/s) = 6.76014 7.19727 6.98213
#
# Compressibility (1/GPa) = 0.02083119
#
# Stress axis : x y z
#
# Youngs Moduli (GPa) = 103.42862 116.91155 65.18898
#
# Poissons Ratio (x) = 0.08876 0.20562
# Poissons Ratio (y) = 0.07853 0.15984
# Poissons Ratio (z) = 0.32624 0.28666
#
# Static dielectric constant tensor:
#      x y z
#    x 1.808440 0.000000 -0.002440 
#    y 0.000000 1.704650 0.000000 
#    z -0.002440 0.000000 1.762910 
# 
# From -- ./inp_files/284211.got.cif
#   From: 2010.05.17/outbox.cif.g08.bks.cpg/sg12_143_cif.got.tgz:284211.got - 2010.06.03 13:09:07.
