data_PCOD9219362
_publ_section_title
;
Structure prediction by ZEFSAII (Michael W. Deem and Ramdas Pophale) SiO2 
 PCOD9219362
Probable space group: C 2/M
;
_chemical_formula_sum "Si O2"
_cell_formula_units_Z 52
_cell_length_a 16.790900
_cell_length_b 22.170799
_cell_length_c 13.661873
_cell_angle_alpha 90.000000
_cell_angle_beta 147.785465
_cell_angle_gamma 90.000000
_cell_volume 2711.233066
_symmetry_space_group_name_H-M "C 2/M"
_symmetry_group_IT_number 12
_symmetry_cell_setting 'monoclinic'
loop_
_space_group_symop_operation_xyz
x,y,z
-x,y,-z
-x,-y,-z
x,-y,z
1/2+x,1/2+y,z
1/2-x,1/2+y,-z
1/2-x,1/2-y,-z
1/2+x,1/2-y,z
loop_
_atom_site_type_symbol
_atom_site_label
_atom_site_fract_x
_atom_site_fract_y
_atom_site_fract_z
Si Si1 0.314041 0.367576 0.914567
Si Si2 0.793441 0.226192 0.738572
Si Si3 0.522501 0.790529 0.671767
Si Si4 0.900565 0.500000 0.569463
Si Si5 0.868205 0.379084 0.665463
Si Si6 0.000000 0.667312 0.000000
Si Si7 0.208341 0.500000 0.761747
Si Si8 0.438168 0.319197 0.695897
O O1 0.346020 0.334147 0.846300
O O2 0.170380 0.327245 0.798157
O O3 0.280989 0.436892 0.864276
O O4 0.447735 0.361480 0.129183
O O5 0.615105 0.220962 0.546223
O O6 0.860439 0.222671 0.698893
O O7 0.861331 0.284614 0.863607
O O8 0.448692 0.832645 0.677036
O O9 0.539123 0.724092 0.733822
O O10 0.877393 0.442189 0.615894
O O11 0.800886 0.500000 0.366980
O O12 0.058899 0.500000 0.675223
O O13 0.696532 0.355347 0.495877
O O14 0.954794 0.372825 0.859049
#
# Coordination Sequence:
#
# PCOD9219362 Si02
#       8
#     8   8   8   4   8   4   4   8
#     4  12  23  36  61  91 129 163 202 243 311 373
#     4  11  20  36  58  94 122 157 203 255 305 369
#     4  11  20  37  60  91 125 160 199 255 308 361
#     4  11  24  42  63  88 122 158 214 254 297 369
#     4  11  22  40  63  89 119 164 206 257 304 361
#     4  12  20  39  66  85 122 158 206 256 316 350
#     4  11  24  41  61  90 124 169 194 249 313 373
#     4  11  21  37  60  91 128 157 201 259 310 352
#
# _framework density 19.179465
#
# number of rings (size 3 to 8) (size 9 to 14) (size 15 to 20)
#    0.000    0.769    6.154    3.692    2.154    0.923 
#    0.000    2.308    0.000    0.000    0.000    1.077 
#    0.000    0.000    0.000    0.000    0.000    0.000 
#
# Total GULP energy -144880.497476 kJ/mol
# GULP energy per Si atom -5572.326826 kJ/mol
# Density = 1.913581 g / cm^3
# Si number density = 19.179465 Si / 1000 Ang^3
#
#
#
# Elastic Constant Matrix: (Units=GPa)
#
#
# Indices 1 2 3 4 5 6 
#
# 1 59.8741 53.0292 51.0373 0.0000 0.3146 0.0000
# 2 53.0292 135.6995 56.2789 0.0000 -18.8214 0.0000
# 3 51.0373 56.2789 146.8331 0.0000 -19.9049 0.0000
# 4 0.0000 0.0000 0.0000 13.8383 0.0000 -59.0916
# 5 0.3146 -18.8214 -19.9049 0.0000 27.3373 0.0000
# 6 0.0000 0.0000 0.0000 -59.0916 0.0000 -66.2771
#
#
#
# Elastic Compliance Matrix: (Units=1/GPa)
#
#
# Indices 1 2 3 4 5 6 
#
# 1 0.036201 -0.012202 -0.010099 0.000000 -0.016170 0.000000
# 2 -0.012202 0.013283 0.000453 0.000000 0.009616 0.000000
# 3 -0.010099 0.000453 0.011322 0.000000 0.008672 0.000000
# 4 0.000000 0.000000 0.000000 0.015032 0.000000 -0.013403
# 5 -0.016170 0.009616 0.008672 0.000000 0.049701 0.000000
# 6 0.000000 0.000000 0.000000 -0.013403 0.000000 -0.003139
#
#
# Mechanical properties :
#
#
# Convention : Reuss Voigt Hill
#
# Bulk Modulus (GPa) = 58.43303 73.67751 66.05527
# Shear Modulus (GPa) = 29.10373 7.11714 18.11043
#
# Velocity S-wave (km/s) = 3.89966 1.92844 3.07622
# Velocity P-wave (km/s) = 7.12805 6.59217 6.86534
#
# Compressibility (1/GPa) = 0.01711361
#
# Stress axis : x y z
#
# Youngs Moduli (GPa) = 27.62325 75.28393 88.32033
#
# Poissons Ratio (x) = 0.91858 0.89190
# Poissons Ratio (y) = 0.33705 -0.04005
# Poissons Ratio (z) = 0.27895 -0.03414
#
# Static dielectric constant tensor:
#      x y z
#    x 1.816400 0.000000 -0.077820 
#    y 0.000000 1.647350 0.000000 
#    z -0.077820 0.000000 1.783240 
# 
# From -- ./inp_files/227457.got.cif
#   From: 2010.05.17/outbox.cif.g08.bks.cpg/sg12_114_cif.got.tgz:227457.got - 2010.06.03 13:09:07.
