data_PCOD9219312
_publ_section_title
;
Structure prediction by ZEFSAII (Michael W. Deem and Ramdas Pophale) SiO2 
 PCOD9219312
Probable space group: C 2/M
;
_chemical_formula_sum "Si O2"
_cell_formula_units_Z 48
_cell_length_a 15.138690
_cell_length_b 25.276819
_cell_length_c 11.557181
_cell_angle_alpha 90.000000
_cell_angle_beta 30.450503
_cell_angle_gamma 90.000000
_cell_volume 2241.268791
_symmetry_space_group_name_H-M "C 2/M"
_symmetry_group_IT_number 12
_symmetry_cell_setting 'monoclinic'
loop_
_space_group_symop_operation_xyz
x,y,z
-x,y,-z
-x,-y,-z
x,-y,z
1/2+x,1/2+y,z
1/2-x,1/2+y,-z
1/2-x,1/2-y,-z
1/2+x,1/2-y,z
loop_
_atom_site_type_symbol
_atom_site_label
_atom_site_fract_x
_atom_site_fract_y
_atom_site_fract_z
Si Si1 0.974384 0.210909 0.249400
Si Si2 0.774531 0.373940 0.871678
Si Si3 0.814695 0.873418 0.274581
Si Si4 0.709320 0.649916 0.355937
Si Si5 0.045390 0.938215 0.680128
Si Si6 0.548659 0.833033 0.120864
O O1 0.663797 0.316845 0.683833
O O2 0.898752 0.197285 0.461352
O O3 0.151742 0.178134 0.028755
O O4 0.011487 0.271369 0.183542
O O5 0.648532 0.420910 0.059758
O O6 0.808934 0.378156 0.696395
O O7 0.932036 0.364417 0.781587
O O8 0.827170 0.917637 0.360087
O O9 0.000000 0.879338 0.000000
O O10 0.601120 0.597362 0.507670
O O11 0.888643 0.646280 0.226016
O O12 0.774005 0.659675 0.153562
O O13 0.058923 0.000000 0.645752
#
# Coordination Sequence:
#
# PCOD9219312 Si02
#       6
#     8   8   8   8   8   8
#     4   9  18  35  54  76 108 153 183 217 270 334
#     4   9  19  32  54  86 111 131 188 234 271 330
#     4   7  15  30  54  80 106 130 183 224 266 333
#     4   9  22  35  55  80 107 152 193 218 270 344
#     4   9  18  38  60  77 105 145 188 235 277 324
#     4  11  20  35  54  77 119 148 180 233 276 317
#
# _framework density 21.416440999999999
#
# number of rings (size 3 to 8) (size 9 to 14) (size 15 to 20)
#    0.000    3.667    0.000    1.000    7.000    5.667 
#    0.000    7.500    0.000    1.000    0.000    0.000 
#    0.000    0.000    0.000    0.000    0.000    0.000 
#
# Total GULP energy -133843.019257 kJ/mol
# GULP energy per Si atom -5576.792469 kJ/mol
# Density = 2.136770 g / cm^3
# Si number density = 21.416441 Si / 1000 Ang^3
#
#
#
# Elastic Constant Matrix: (Units=GPa)
#
#
# Indices 1 2 3 4 5 6 
#
# 1 112.2161 26.3706 8.2489 0.0018 1.4268 -0.0009
# 2 26.3706 143.2255 49.8857 0.0014 19.5376 -0.0003
# 3 8.2489 49.8857 109.3546 0.0040 31.3115 -0.0010
# 4 0.0018 0.0014 0.0040 -7.0255 -0.0014 0.1029
# 5 1.4268 19.5376 31.3115 -0.0014 32.2354 0.0003
# 6 -0.0009 -0.0003 -0.0010 0.1029 0.0003 5.1174
#
#
#
# Elastic Compliance Matrix: (Units=1/GPa)
#
#
# Indices 1 2 3 4 5 6 
#
# 1 0.009329 -0.001785 -0.000112 0.000002 0.000778 0.000001
# 2 -0.001785 0.008725 -0.003261 0.000000 -0.002042 0.000000
# 3 -0.000112 -0.003261 0.013954 0.000010 -0.011573 0.000003
# 4 0.000002 0.000000 0.000010 -0.142297 -0.000015 0.002862
# 5 0.000778 -0.002042 -0.011573 -0.000015 0.043466 -0.000004
# 6 0.000001 0.000000 0.000003 0.002862 -0.000004 0.195354
#
#
# Mechanical properties :
#
#
# Convention : Reuss Voigt Hill
#
# Bulk Modulus (GPa) = 46.09891 59.31185 52.70538
# Shear Modulus (GPa) = 34.22839 24.75154 29.48996
#
# Velocity S-wave (km/s) = 4.00212 3.40329 3.71479
# Velocity P-wave (km/s) = 6.55193 6.57250 6.56222
#
# Compressibility (1/GPa) = 0.02169249
#
# Stress axis : x y z
#
# Youngs Moduli (GPa) = 107.19106 114.61466 71.66249
#
# Poissons Ratio (x) = 0.20455 0.00805
# Poissons Ratio (y) = 0.19130 0.23369
# Poissons Ratio (z) = 0.01204 0.37375
#
# Static dielectric constant tensor:
#      x y z
#    x 1.904730 0.000000 -0.031040 
#    y 0.000000 1.703380 0.000000 
#    z -0.031040 0.000000 1.863450 
# 
# From -- ./inp_files/160438.got.cif
#   From: 2010.05.17/outbox.cif.g08.bks.cpg/sg12_81_cif.got.tgz:160438.got - 2010.06.03 13:09:07.
