data_PCOD9219467
_publ_section_title
;
Structure prediction by ZEFSAII (Michael W. Deem and Ramdas Pophale) SiO2 
 PCOD9219467
Probable space group: C 2/M
;
_chemical_formula_sum "Si O2"
_cell_formula_units_Z 56
_cell_length_a 30.148397
_cell_length_b 15.087830
_cell_length_c 11.540707
_cell_angle_alpha 90.000000
_cell_angle_beta 33.335048
_cell_angle_gamma 90.000000
_cell_volume 2884.815052
_symmetry_space_group_name_H-M "C 2/M"
_symmetry_group_IT_number 12
_symmetry_cell_setting 'monoclinic'
loop_
_space_group_symop_operation_xyz
x,y,z
-x,y,-z
-x,-y,-z
x,-y,z
1/2+x,1/2+y,z
1/2-x,1/2+y,-z
1/2-x,1/2-y,-z
1/2+x,1/2-y,z
loop_
_atom_site_type_symbol
_atom_site_label
_atom_site_fract_x
_atom_site_fract_y
_atom_site_fract_z
Si Si1 0.650429 0.095882 0.489314
Si Si2 0.335396 0.403853 0.007426
Si Si3 0.670796 0.306429 0.208268
Si Si4 0.615016 0.392996 0.561760
Si Si5 0.659358 0.742102 0.646571
Si Si6 0.549312 0.279259 0.104660
Si Si7 0.960006 0.657238 0.471020
O O1 0.743161 0.098338 0.248113
O O2 0.640178 0.180460 0.594844
O O3 0.598494 0.102093 0.485005
O O4 0.634063 0.000000 0.581571
O O5 0.370454 0.500000 0.956504
O O6 0.339331 0.382695 0.863783
O O7 0.383411 0.331118 0.971405
O O8 0.667753 0.351213 0.341245
O O9 0.595189 0.239726 0.366450
O O10 0.750000 0.250000 0.000000
O O11 0.611210 0.500000 0.566391
O O12 0.651754 0.352671 0.599229
O O13 0.527181 0.345229 0.743981
O O14 0.750000 0.750000 0.500000
O O15 0.591006 0.747503 0.893973
O O16 0.523561 0.197325 0.241138
O O17 0.000000 0.618124 0.500000
#
# Coordination Sequence:
#
# PCOD9219467 Si02
#       7
#     8   8   8   8   8   8   8
#     4  11  24  44  66  93 128 173 225 275 323 382
#     4  11  21  36  63  97 128 166 212 263 328 396
#     4  11  20  38  64  92 130 174 210 257 322 395
#     4  11  25  41  64 102 136 165 210 275 337 390
#     4  12  24  43  67  92 129 179 224 264 323 395
#     4  11  23  38  66  96 129 171 212 264 334 398
#     4  11  22  39  66  96 125 166 215 268 332 387
#
# _framework density 19.411988999999998
#
# number of rings (size 3 to 8) (size 9 to 14) (size 15 to 20)
#    0.000    0.857    7.143    1.286    0.000    2.571 
#    0.000    3.571    0.000    0.000    0.000    0.000 
#    0.000    0.000    0.000    0.000    0.000    0.000 
#
# Total GULP energy -156295.460929 kJ/mol
# GULP energy per Si atom -5581.980747 kJ/mol
# Density = 1.936781 g / cm^3
# Si number density = 19.411989 Si / 1000 Ang^3
#
#
#
# Elastic Constant Matrix: (Units=GPa)
#
#
# Indices 1 2 3 4 5 6 
#
# 1 85.5889 0.7876 28.0061 0.0000 -12.0301 0.0000
# 2 0.7876 53.9410 20.1755 0.0000 -7.8882 0.0000
# 3 28.0061 20.1755 101.9000 0.0000 13.8789 0.0000
# 4 0.0000 0.0000 0.0000 37.3041 0.0000 -13.7948
# 5 -12.0301 -7.8882 13.8789 0.0000 34.6523 0.0000
# 6 0.0000 0.0000 0.0000 -13.7948 0.0000 14.9952
#
#
#
# Elastic Compliance Matrix: (Units=1/GPa)
#
#
# Indices 1 2 3 4 5 6 
#
# 1 0.014680 0.003126 -0.005759 0.000000 0.008115 0.000000
# 2 0.003126 0.022174 -0.006436 0.000000 0.008711 0.000000
# 3 -0.005759 -0.006436 0.013901 0.000000 -0.009032 0.000000
# 4 0.000000 0.000000 0.000000 0.040628 0.000000 0.037375
# 5 0.008115 0.008711 -0.009032 0.000000 0.037276 0.000000
# 6 0.000000 0.000000 0.000000 0.037375 0.000000 0.101071
#
#
# Mechanical properties :
#
#
# Convention : Reuss Voigt Hill
#
# Bulk Modulus (GPa) = 30.65807 37.70759 34.18283
# Shear Modulus (GPa) = 19.32448 30.22102 24.77275
#
# Velocity S-wave (km/s) = 3.15856 3.94994 3.57621
# Velocity P-wave (km/s) = 5.39719 6.34585 5.89065
#
# Compressibility (1/GPa) = 0.03261784
#
# Stress axis : x y z
#
# Youngs Moduli (GPa) = 68.12022 45.09735 71.93863
#
# Poissons Ratio (x) = -0.14099 0.41428
# Poissons Ratio (y) = -0.21296 0.46300
# Poissons Ratio (z) = 0.39229 0.29025
#
# Static dielectric constant tensor:
#      x y z
#    x 1.785850 0.000000 0.091180 
#    y 0.000000 1.683410 0.000000 
#    z 0.091180 0.000000 1.762810 
# 
# From -- ./inp_files/189593.got.cif
#   From: 2010.05.17/outbox.cif.g08.bks.cpg/sg12_95_cif.got.tgz:189593.got - 2010.06.03 13:09:07.
