data_PCOD9219984
_publ_section_title
;
Structure prediction by ZEFSAII (Michael W. Deem and Ramdas Pophale) SiO2 
 PCOD9219984
Probable space group: C 2/M
;
_chemical_formula_sum "Si O2"
_cell_formula_units_Z 48
_cell_length_a 29.007219
_cell_length_b 8.646103
_cell_length_c 17.880917
_cell_angle_alpha 90.000000
_cell_angle_beta 35.683513
_cell_angle_gamma 90.000000
_cell_volume 2615.856119
_symmetry_space_group_name_H-M "C 2/M"
_symmetry_group_IT_number 12
_symmetry_cell_setting 'monoclinic'
loop_
_space_group_symop_operation_xyz
x,y,z
-x,y,-z
-x,-y,-z
x,-y,z
1/2+x,1/2+y,z
1/2-x,1/2+y,-z
1/2-x,1/2-y,-z
1/2+x,1/2-y,z
loop_
_atom_site_type_symbol
_atom_site_label
_atom_site_fract_x
_atom_site_fract_y
_atom_site_fract_z
Si Si1 0.625188 0.687743 0.852020
Si Si2 0.526811 0.184430 0.237702
Si Si3 0.280016 0.814164 0.731919
Si Si4 0.954838 0.185307 0.484066
Si Si5 0.523121 0.686912 0.849166
Si Si6 0.710710 0.814340 0.976818
O O1 0.625148 0.500000 0.851882
O O2 0.711322 0.738881 0.764953
O O3 0.593516 0.735645 0.812359
O O4 0.558161 0.732949 0.000885
O O5 0.499298 0.257360 0.351605
O O6 0.476398 0.242743 0.233537
O O7 0.521392 0.000000 0.250603
O O8 0.617940 0.226265 0.100953
O O9 0.365785 0.747876 0.601443
O O10 0.252143 0.758737 0.850180
O O11 0.283252 0.000000 0.726272
O O12 0.000000 0.237780 0.500000
O O13 0.953304 0.000000 0.486550
O O14 0.523415 0.500000 0.843442
O O15 0.718299 0.000000 0.963979
O O16 0.750000 0.750000 0.000000
#
# Coordination Sequence:
#
# PCOD9219984 Si02
#       6
#     8   8   8   8   8   8
#     4   8  16  31  57  89 117 150 188 230 282 341
#     4  11  23  38  57  86 118 150 191 240 290 337
#     4  11  21  37  61  88 117 149 189 237 290 343
#     4  11  25  43  61  81 111 155 200 239 288 348
#     4   9  16  33  59  86 117 152 191 229 279 343
#     4  11  23  37  56  84 116 148 190 241 289 340
#
# _framework density 18.349633999999998
#
# number of rings (size 3 to 8) (size 9 to 14) (size 15 to 20)
#    0.000    1.833    1.667    4.000    0.000    6.000 
#    0.000    4.167    0.000    0.000    0.000    0.000 
#    0.000    0.000    0.000    0.000    0.000    0.000 
#
# Total GULP energy -134040.931129 kJ/mol
# GULP energy per Si atom -5585.038797 kJ/mol
# Density = 1.830787 g / cm^3
# Si number density = 18.349634 Si / 1000 Ang^3
#
#
#
# Elastic Constant Matrix: (Units=GPa)
#
#
# Indices 1 2 3 4 5 6 
#
# 1 109.1192 14.5098 -0.9310 0.0068 7.8676 -0.0017
# 2 14.5098 28.6054 16.5375 0.0000 3.0794 -0.0001
# 3 -0.9310 16.5375 39.4559 0.0027 7.7527 -0.0008
# 4 0.0068 0.0000 0.0027 29.6135 0.0000 2.3117
# 5 7.8676 3.0794 7.7527 0.0000 32.9040 0.0000
# 6 -0.0017 -0.0001 -0.0008 2.3117 0.0000 18.6239
#
#
#
# Elastic Compliance Matrix: (Units=1/GPa)
#
#
# Indices 1 2 3 4 5 6 
#
# 1 0.010338 -0.007128 0.003760 -0.000003 -0.002691 0.000001
# 2 -0.007128 0.051056 -0.021981 0.000004 0.002106 -0.000002
# 3 0.003760 -0.021981 0.036090 -0.000004 -0.007345 0.000002
# 4 -0.000003 0.000004 -0.000004 0.034099 0.000001 -0.004233
# 5 -0.002691 0.002106 -0.007345 0.000001 0.032569 -0.000001
# 6 0.000001 -0.000002 0.000002 -0.004233 -0.000001 0.054220
#
#
# Mechanical properties :
#
#
# Convention : Reuss Voigt Hill
#
# Bulk Modulus (GPa) = 21.37418 26.37925 23.87671
# Shear Modulus (GPa) = 17.56453 26.03255 21.79854
#
# Velocity S-wave (km/s) = 3.09724 3.77064 3.45041
# Velocity P-wave (km/s) = 4.94612 5.77617 5.37719
#
# Compressibility (1/GPa) = 0.04678542
#
# Stress axis : x y z
#
# Youngs Moduli (GPa) = 96.72816 19.58651 27.70848
#
# Poissons Ratio (x) = 0.13962 -0.10420
# Poissons Ratio (y) = 0.68951 0.60907
# Poissons Ratio (z) = -0.36374 0.43054
#
# Static dielectric constant tensor:
#      x y z
#    x 1.644110 0.000000 -0.018290 
#    y 0.000000 1.617970 0.000000 
#    z -0.018290 0.000000 1.598020 
# 
# From -- ./inp_files/244836.got.cif
#   From: 2010.05.17/outbox.cif.g08.bks.cpg/sg12_123_cif.got.tgz:244836.got - 2010.06.03 13:09:07.
