data_PCOD9219631
_publ_section_title
;
Structure prediction by ZEFSAII (Michael W. Deem and Ramdas Pophale) SiO2 
 PCOD9219631
Probable space group: C 2/M
;
_chemical_formula_sum "Si O2"
_cell_formula_units_Z 40
_cell_length_a 17.704431
_cell_length_b 17.750856
_cell_length_c 7.011581
_cell_angle_alpha 90.000000
_cell_angle_beta 45.270025
_cell_angle_gamma 90.000000
_cell_volume 1565.450611
_symmetry_space_group_name_H-M "C 2/M"
_symmetry_group_IT_number 12
_symmetry_cell_setting 'monoclinic'
loop_
_space_group_symop_operation_xyz
x,y,z
-x,y,-z
-x,-y,-z
x,-y,z
1/2+x,1/2+y,z
1/2-x,1/2+y,-z
1/2-x,1/2-y,-z
1/2+x,1/2-y,z
loop_
_atom_site_type_symbol
_atom_site_label
_atom_site_fract_x
_atom_site_fract_y
_atom_site_fract_z
Si Si1 0.360598 0.297796 0.784301
Si Si2 0.969163 0.323260 0.854493
Si Si3 0.763025 0.586623 0.174620
Si Si4 0.324731 0.084692 0.612231
Si Si5 0.095907 0.089612 0.969403
O O1 0.432125 0.234277 0.761206
O O2 0.250000 0.250000 0.000000
O O3 0.328117 0.348462 0.655658
O O4 0.408565 0.365534 0.827415
O O5 0.873786 0.382626 0.063819
O O6 0.075172 0.363383 0.594392
O O7 0.000000 0.285614 0.000000
O O8 0.735384 0.500000 0.278494
O O9 0.792543 0.584220 0.893544
O O10 0.217845 0.108005 0.689286
O O11 0.353872 0.000000 0.506460
O O12 0.095487 0.000000 0.003884
O O13 0.000000 0.106741 0.000000
#
# Coordination Sequence:
#
# PCOD9219631 Si02
#       5
#     8   8   8   8   8
#     4   9  18  32  48  70 104 139 169 202 251 312
#     4  11  21  31  48  81 118 141 161 207 273 324
#     4   9  18  35  57  75  97 138 188 224 248 293
#     4   9  18  33  54  79 104 136 179 219 256 305
#     4   9  17  33  57  78  96 126 176 230 262 290
#
# _framework density 25.551749000000001
#
# number of rings (size 3 to 8) (size 9 to 14) (size 15 to 20)
#    0.000    2.600    0.000    3.600    0.000    3.200 
#    0.000    9.000    0.000    4.800    0.000    4.200 
#    0.000   96.000    0.000    0.000    0.000    0.600 
#
# Total GULP energy -111433.757926 kJ/mol
# GULP energy per Si atom -5571.687896 kJ/mol
# Density = 2.549359 g / cm^3
# Si number density = 25.551749 Si / 1000 Ang^3
#
#
#
# Elastic Constant Matrix: (Units=GPa)
#
#
# Indices 1 2 3 4 5 6 
#
# 1 211.6690 69.7036 45.3261 0.0000 -35.0444 0.0000
# 2 69.7036 110.6435 25.0864 0.0000 -22.1499 0.0000
# 3 45.3261 25.0864 60.3296 0.0000 -16.6946 0.0000
# 4 0.0000 0.0000 0.0000 2756.3865 0.0000 21.3203
# 5 -35.0444 -22.1499 -16.6946 0.0000 38.0907 0.0000
# 6 0.0000 0.0000 0.0000 21.3203 0.0000 51.4710
#
#
#
# Elastic Compliance Matrix: (Units=1/GPa)
#
#
# Indices 1 2 3 4 5 6 
#
# 1 0.006906 -0.003008 -0.003032 0.000000 0.003276 0.000000
# 2 -0.003008 0.012028 -0.001789 0.000000 0.003443 0.000000
# 3 -0.003032 -0.001789 0.021096 0.000000 0.005417 0.000000
# 4 0.000000 0.000000 0.000000 0.000364 0.000000 -0.000151
# 5 0.003276 0.003443 0.005417 0.000000 0.033644 0.000000
# 6 0.000000 0.000000 0.000000 -0.000151 0.000000 0.019491
#
#
# Mechanical properties :
#
#
# Convention : Reuss Voigt Hill
#
# Bulk Modulus (GPa) = 41.02760 73.65270 57.34015
# Shear Modulus (GPa) = 42.62229 585.35804 313.99017
#
# Velocity S-wave (km/s) = 4.08864 15.15205 11.09733
# Velocity P-wave (km/s) = 6.19523 18.30301 13.66348
#
# Compressibility (1/GPa) = 0.02437384
#
# Stress axis : x y z
#
# Youngs Moduli (GPa) = 144.79302 83.14159 47.40232
#
# Poissons Ratio (x) = 0.25006 0.14370
# Poissons Ratio (y) = 0.43549 0.08480
# Poissons Ratio (z) = 0.43894 0.14874
#
# Static dielectric constant tensor:
#      x y z
#    x 2.174880 0.000000 -0.174140 
#    y 0.000000 2.091460 0.000000 
#    z -0.174140 0.000000 2.471930 
# 
# From -- ./inp_files/74956.got.cif
#   From: 2010.05.17/outbox.cif.g08.bks.cpg/sg12_38_cif.got.tgz:74956.got - 2010.06.03 13:09:07.
