data_PCOD9219481
_publ_section_title
;
Structure prediction by ZEFSAII (Michael W. Deem and Ramdas Pophale) SiO2 
 PCOD9219481
Probable space group: C 2/M
;
_chemical_formula_sum "Si O2"
_cell_formula_units_Z 40
_cell_length_a 14.962467
_cell_length_b 18.226751
_cell_length_c 14.019031
_cell_angle_alpha 90.000000
_cell_angle_beta 150.572217
_cell_angle_gamma 90.000000
_cell_volume 1878.453043
_symmetry_space_group_name_H-M "C 2/M"
_symmetry_group_IT_number 12
_symmetry_cell_setting 'monoclinic'
loop_
_space_group_symop_operation_xyz
x,y,z
-x,y,-z
-x,-y,-z
x,-y,z
1/2+x,1/2+y,z
1/2-x,1/2+y,-z
1/2-x,1/2-y,-z
1/2+x,1/2-y,z
loop_
_atom_site_type_symbol
_atom_site_label
_atom_site_fract_x
_atom_site_fract_y
_atom_site_fract_z
Si Si1 0.277824 0.170786 0.481694
Si Si2 0.571500 0.584909 0.799287
Si Si3 0.788466 0.747295 0.770466
Si Si4 0.817664 0.313246 0.134896
Si Si5 0.780019 0.416382 0.790689
O O1 0.250000 0.250000 0.500000
O O2 0.241820 0.191213 0.337885
O O3 0.484972 0.152259 0.698508
O O4 0.130027 0.117401 0.388445
O O5 0.561658 0.500000 0.807605
O O6 0.686618 0.594673 0.808129
O O7 0.672224 0.624245 0.980510
O O8 0.677610 0.774297 0.758998
O O9 0.739316 0.661927 0.700604
O O10 0.000000 0.746499 0.000000
O O11 0.750000 0.250000 0.000000
O O12 0.724345 0.500000 0.705281
O O13 0.000000 0.418888 0.000000
#
# Coordination Sequence:
#
# PCOD9219481 Si02
#       5
#     8   8   8   8   8
#     4  12  24  40  68 100 133 179 231 275 331 406
#     4  11  24  44  67 100 140 175 221 284 342 399
#     4  11  20  38  67  98 133 174 226 282 331 399
#     4  12  22  42  68  99 132 179 227 274 333 400
#     4   9  19  36  64  99 134 171 214 272 345 405
#
# _framework density 21.294118999999998
#
# number of rings (size 3 to 8) (size 9 to 14) (size 15 to 20)
#    0.000    1.000    6.000    0.600    2.800    0.800 
#    0.000    3.000    0.000    6.000    0.000    0.000 
#    0.000    0.000    0.000    0.000    0.000    0.000 
#
# Total GULP energy -111644.697307 kJ/mol
# GULP energy per Si atom -5582.234865 kJ/mol
# Density = 2.124565 g / cm^3
# Si number density = 21.294119 Si / 1000 Ang^3
#
#
#
# Elastic Constant Matrix: (Units=GPa)
#
#
# Indices 1 2 3 4 5 6 
#
# 1 87.7294 30.9490 32.0853 0.0000 9.0452 0.0000
# 2 30.9490 127.8037 31.6874 0.0000 15.0724 0.0000
# 3 32.0853 31.6874 111.5663 0.0000 26.4858 0.0000
# 4 0.0000 0.0000 0.0000 16.4504 0.0000 14.2923
# 5 9.0452 15.0724 26.4858 0.0000 40.0015 0.0000
# 6 0.0000 0.0000 0.0000 14.2923 0.0000 18.4564
#
#
#
# Elastic Compliance Matrix: (Units=1/GPa)
#
#
# Indices 1 2 3 4 5 6 
#
# 1 0.013425 -0.002466 -0.003156 0.000000 -0.000016 0.000000
# 2 -0.002466 0.008992 -0.001391 0.000000 -0.001909 0.000000
# 3 -0.003156 -0.001391 0.011832 0.000000 -0.006596 0.000000
# 4 0.000000 0.000000 0.000000 0.185784 0.000000 -0.143868
# 5 -0.000016 -0.001909 -0.006596 0.000000 0.030090 0.000000
# 6 0.000000 0.000000 0.000000 -0.143868 0.000000 0.165591
#
#
# Mechanical properties :
#
#
# Convention : Reuss Voigt Hill
#
# Bulk Modulus (GPa) = 49.45480 57.39366 53.42423
# Shear Modulus (GPa) = 11.45521 30.47349 20.96435
#
# Velocity S-wave (km/s) = 2.32190 3.78706 3.14110
# Velocity P-wave (km/s) = 5.51936 6.79218 6.18858
#
# Compressibility (1/GPa) = 0.02022048
#
# Stress axis : x y z
#
# Youngs Moduli (GPa) = 74.48854 111.21124 84.51518
#
# Poissons Ratio (x) = 0.27430 0.26677
# Poissons Ratio (y) = 0.18372 0.11759
# Poissons Ratio (z) = 0.23512 0.15473
#
# Static dielectric constant tensor:
#      x y z
#    x 1.894500 0.000000 0.002990 
#    y 0.000000 1.786830 0.000000 
#    z 0.002990 0.000000 1.716830 
# 
# From -- ./inp_files/216930.got.cif
#   From: 2010.05.17/outbox.cif.g08.bks.cpg/sg12_109_cif.got.tgz:216930.got - 2010.06.03 13:09:07.
