data_PCOD9219447
_publ_section_title
;
Structure prediction by ZEFSAII (Michael W. Deem and Ramdas Pophale) SiO2 
 PCOD9219447
Probable space group: C 2/M
;
_chemical_formula_sum "Si O2"
_cell_formula_units_Z 58
_cell_length_a 12.710143
_cell_length_b 21.546284
_cell_length_c 19.718281
_cell_angle_alpha 90.000000
_cell_angle_beta 35.761227
_cell_angle_gamma 90.000000
_cell_volume 3155.793130
_symmetry_space_group_name_H-M "C 2/M"
_symmetry_group_IT_number 12
_symmetry_cell_setting 'monoclinic'
loop_
_space_group_symop_operation_xyz
x,y,z
-x,y,-z
-x,-y,-z
x,-y,z
1/2+x,1/2+y,z
1/2-x,1/2+y,-z
1/2-x,1/2-y,-z
1/2+x,1/2-y,z
loop_
_atom_site_type_symbol
_atom_site_label
_atom_site_fract_x
_atom_site_fract_y
_atom_site_fract_z
Si Si1 0.656077 0.315594 0.036782
Si Si2 0.000000 0.000000 0.000000
Si Si3 0.971539 0.929870 0.632188
Si Si4 0.179028 0.398071 0.161842
Si Si5 0.546393 0.675238 0.244188
Si Si6 0.287051 0.746181 0.621018
Si Si7 0.774494 0.600630 0.366891
Si Si8 0.774767 0.781468 0.191233
O O1 0.591104 0.342806 0.143042
O O2 0.483995 0.298768 0.081341
O O3 0.750000 0.250000 0.000000
O O4 0.780969 0.361811 0.929500
O O5 0.840283 0.053905 0.087671
O O6 0.154900 0.920174 0.493352
O O7 0.952091 0.879922 0.702220
O O8 0.820221 0.920550 0.653317
O O9 0.963767 0.000000 0.662595
O O10 0.179456 0.345143 0.219612
O O11 0.977182 0.423196 0.264807
O O12 0.350209 0.708414 0.346404
O O13 0.694994 0.726734 0.186992
O O14 0.500000 0.754911 0.500000
O O15 0.234088 0.675763 0.630651
O O16 0.256875 0.758966 0.715914
#
# Coordination Sequence:
#
# PCOD9219447 Si02
#       8
#     8   2   8   8   8   8   8   8
#     4  11  22  39  61  94 125 161 211 272 320 377
#     4  12  28  44  64  90 136 184 214 258 304 408
#     4  11  25  44  62  95 131 177 214 257 324 398
#     4  12  24  42  63  95 128 170 220 262 320 379
#     4  11  23  38  65  92 131 170 205 276 330 385
#     4  11  21  35  61 103 132 157 209 275 335 372
#     4  11  21  40  69  95 128 162 218 275 316 380
#     4  11  20  38  60  92 127 160 210 267 320 378
#
# _framework density 18.378898
#
# number of rings (size 3 to 8) (size 9 to 14) (size 15 to 20)
#    0.000    0.828    6.897    1.655    3.862    1.103 
#    1.241    0.000    0.000    1.241    0.000    0.000 
#    0.000    0.000    0.000    0.000    0.000    0.000 
#
# Total GULP energy -161651.679876 kJ/mol
# GULP energy per Si atom -5574.195858 kJ/mol
# Density = 1.833707 g / cm^3
# Si number density = 18.378898 Si / 1000 Ang^3
#
#
#
# Elastic Constant Matrix: (Units=GPa)
#
#
# Indices 1 2 3 4 5 6 
#
# 1 89.0573 22.1172 38.6515 -0.0019 -14.1806 -0.0015
# 2 22.1172 100.4315 10.3062 -0.0024 2.7542 -0.0056
# 3 38.6515 10.3062 65.0764 -0.0075 -19.4683 -0.0124
# 4 -0.0019 -0.0024 -0.0075 30.9468 0.0048 2.2439
# 5 -14.1806 2.7542 -19.4683 0.0048 39.8163 0.0011
# 6 -0.0015 -0.0056 -0.0124 2.2439 0.0011 9.3388
#
#
#
# Elastic Compliance Matrix: (Units=1/GPa)
#
#
# Indices 1 2 3 4 5 6 
#
# 1 0.015839 -0.002664 -0.008484 -0.000001 0.001677 -0.000010
# 2 -0.002664 0.010673 -0.000718 0.000000 -0.002038 0.000005
# 3 -0.008484 -0.000718 0.022994 0.000002 0.008271 0.000027
# 4 -0.000001 0.000000 0.000002 0.032886 -0.000003 -0.007902
# 5 0.001677 -0.002038 0.008271 -0.000003 0.029898 0.000007
# 6 -0.000010 0.000005 0.000027 -0.007902 0.000007 0.108979
#
#
# Mechanical properties :
#
#
# Convention : Reuss Voigt Hill
#
# Bulk Modulus (GPa) = 38.79746 44.07943 41.43845
# Shear Modulus (GPa) = 19.71666 28.25305 23.98486
#
# Velocity S-wave (km/s) = 3.27890 3.92504 3.61643
# Velocity P-wave (km/s) = 5.95739 6.67660 6.32722
#
# Compressibility (1/GPa) = 0.02577488
#
# Stress axis : x y z
#
# Youngs Moduli (GPa) = 63.13357 93.69279 43.49031
#
# Poissons Ratio (x) = 0.24956 0.36898
# Poissons Ratio (y) = 0.16816 0.03123
# Poissons Ratio (z) = 0.53563 0.06727
#
# Static dielectric constant tensor:
#      x y z
#    x 1.648040 -0.000010 -0.037400 
#    y -0.000010 1.634870 -0.000050 
#    z -0.037400 -0.000050 1.641940 
# 
# From -- ./inp_files/265261.got.cif
#   From: 2010.05.17/outbox.cif.g08.bks.cpg/sg12_133_cif.got.tgz:265261.got - 2010.06.03 13:09:07.
