data_PCOD9219460
_publ_section_title
;
Structure prediction by ZEFSAII (Michael W. Deem and Ramdas Pophale) SiO2 
 PCOD9219460
Probable space group: C 2/M
;
_chemical_formula_sum "Si O2"
_cell_formula_units_Z 64
_cell_length_a 9.128441
_cell_length_b 23.405630
_cell_length_c 15.057675
_cell_angle_alpha 90.000000
_cell_angle_beta 87.100628
_cell_angle_gamma 90.000000
_cell_volume 3213.058080
_symmetry_space_group_name_H-M "C 2/M"
_symmetry_group_IT_number 12
_symmetry_cell_setting 'monoclinic'
loop_
_space_group_symop_operation_xyz
x,y,z
-x,y,-z
-x,-y,-z
x,-y,z
1/2+x,1/2+y,z
1/2-x,1/2+y,-z
1/2-x,1/2-y,-z
1/2+x,1/2-y,z
loop_
_atom_site_type_symbol
_atom_site_label
_atom_site_fract_x
_atom_site_fract_y
_atom_site_fract_z
Si Si1 0.974904 0.173408 0.272248
Si Si2 0.833302 0.565934 0.526587
Si Si3 0.669932 0.878424 0.293078
Si Si4 0.590146 0.832159 0.915347
Si Si5 0.775878 0.122738 0.628840
Si Si6 0.407014 0.278108 0.913118
Si Si7 0.537224 0.785165 0.604546
Si Si8 0.908896 0.566916 0.214271
O O1 0.075515 0.129688 0.323238
O O2 0.050599 0.188869 0.177548
O O3 0.960657 0.226922 0.339924
O O4 0.817255 0.148773 0.254138
O O5 0.832617 0.500000 0.504453
O O6 0.800052 0.577486 0.628830
O O7 0.717681 0.597899 0.469172
O O8 0.000000 0.587452 0.500000
O O9 0.578180 0.827601 0.343854
O O10 0.575640 0.912955 0.225023
O O11 0.466581 0.786110 0.886843
O O12 0.734899 0.793810 0.932065
O O13 0.642729 0.884074 0.852311
O O14 0.500000 0.858484 0.000000
O O15 0.692627 0.183253 0.617655
O O16 0.671662 0.081121 0.690118
O O17 0.500000 0.292719 0.000000
O O18 0.500000 0.778380 0.500000
O O19 0.894045 0.500000 0.192470
#
# Coordination Sequence:
#
# PCOD9219460 Si02
#       8
#     8   8   8   8   8   8   8   8
#     4  12  27  36  62  93 133 164 203 265 325 385
#     4  11  20  38  63  82 112 166 225 268 301 364
#     4  11  23  39  60  91 126 166 219 258 314 369
#     4  11  24  42  72 102 129 164 208 261 323 387
#     4  11  21  41  58  91 124 168 214 258 314 366
#     4  11  24  44  69 101 133 169 207 264 325 384
#     4  11  22  39  60  89 130 175 213 254 311 381
#     4  11  23  43  69  93 124 168 220 264 308 380
#
# _framework density 19.918717999999998
#
# number of rings (size 3 to 8) (size 9 to 14) (size 15 to 20)
#    0.000    0.875    5.000    4.500    7.000    1.250 
#    0.000    3.125    0.000    0.375    0.000    0.000 
#    0.000    0.000    0.000    0.000    0.000    0.000 
#
# Total GULP energy -178529.547014 kJ/mol
# GULP energy per Si atom -5579.048344 kJ/mol
# Density = 1.987338 g / cm^3
# Si number density = 19.918718 Si / 1000 Ang^3
#
#
#
# Elastic Constant Matrix: (Units=GPa)
#
#
# Indices 1 2 3 4 5 6 
#
# 1 64.5261 32.7897 3.3646 0.0000 3.2043 0.0000
# 2 32.7897 91.8645 19.9935 0.0000 13.4987 0.0000
# 3 3.3646 19.9935 51.5170 0.0000 6.6343 0.0000
# 4 0.0000 0.0000 0.0000 17.7367 0.0000 3.0511
# 5 3.2043 13.4987 6.6343 0.0000 24.4496 0.0000
# 6 0.0000 0.0000 0.0000 3.0511 0.0000 -25.1962
#
#
#
# Elastic Compliance Matrix: (Units=1/GPa)
#
#
# Indices 1 2 3 4 5 6 
#
# 1 0.019069 -0.007285 0.001436 0.000000 0.001133 0.000000
# 2 -0.007285 0.015434 -0.004704 0.000000 -0.006290 0.000000
# 3 0.001436 -0.004704 0.021587 0.000000 -0.003449 0.000000
# 4 0.000000 0.000000 0.000000 0.055230 0.000000 0.006688
# 5 0.001133 -0.006290 -0.003449 0.000000 0.045160 0.000000
# 6 0.000000 0.000000 0.000000 0.006688 0.000000 -0.038879
#
#
# Mechanical properties :
#
#
# Convention : Reuss Voigt Hill
#
# Bulk Modulus (GPa) = 28.58536 35.57813 32.08175
# Shear Modulus (GPa) = 33.25159 13.51535 23.38347
#
# Velocity S-wave (km/s) = 4.09022 2.60768 3.43000
# Velocity P-wave (km/s) = 6.05712 5.19298 5.64162
#
# Compressibility (1/GPa) = 0.03498294
#
# Stress axis : x y z
#
# Youngs Moduli (GPa) = 52.44229 64.79178 46.32415
#
# Poissons Ratio (x) = 0.47203 -0.06653
# Poissons Ratio (y) = 0.38206 0.21791
# Poissons Ratio (z) = -0.07531 0.30479
#
# Static dielectric constant tensor:
#      x y z
#    x 1.755180 0.000000 0.018470 
#    y 0.000000 1.717860 0.000000 
#    z 0.018470 0.000000 1.730580 
# 
# From -- ./inp_files/198892.got.cif
#   From: 2010.05.17/outbox.cif.g08.bks.cpg/sg12_100_cif.got.tgz:198892.got - 2010.06.03 13:09:07.
