data_PCOD9219053
_publ_section_title
;
Structure prediction by ZEFSAII (Michael W. Deem and Ramdas Pophale) SiO2 
 PCOD9219053
Probable space group: C 2/M
;
_chemical_formula_sum "Si O2"
_cell_formula_units_Z 42
_cell_length_a 13.939764
_cell_length_b 14.853650
_cell_length_c 25.746876
_cell_angle_alpha 90.000000
_cell_angle_beta 19.060594
_cell_angle_gamma 90.000000
_cell_volume 1740.951483
_symmetry_space_group_name_H-M "C 2/M"
_symmetry_group_IT_number 12
_symmetry_cell_setting 'monoclinic'
loop_
_space_group_symop_operation_xyz
x,y,z
-x,y,-z
-x,-y,-z
x,-y,z
1/2+x,1/2+y,z
1/2-x,1/2+y,-z
1/2-x,1/2-y,-z
1/2+x,1/2-y,z
loop_
_atom_site_type_symbol
_atom_site_label
_atom_site_fract_x
_atom_site_fract_y
_atom_site_fract_z
Si Si1 0.000000 0.000000 0.500000
Si Si2 0.190750 0.217458 0.136426
Si Si3 0.789606 0.903403 0.408603
Si Si4 0.156238 0.607526 0.213392
Si Si5 0.492885 0.365192 0.591527
Si Si6 0.807736 0.828850 0.244331
O O1 0.867838 0.077079 0.608091
O O2 0.198593 0.324028 0.144404
O O3 0.920917 0.176766 0.307701
O O4 0.110392 0.183540 0.120426
O O5 0.500000 0.181907 0.000000
O O6 0.977989 0.903484 0.365390
O O7 0.447496 0.889452 0.598262
O O8 0.829409 0.000000 0.362205
O O9 0.168460 0.500000 0.196408
O O10 0.348574 0.635228 0.165200
O O11 0.833632 0.631078 0.399998
O O12 0.344840 0.269164 0.674334
#
# Coordination Sequence:
#
# PCOD9219053 Si02
#       6
#     2   8   8   8   8   8
#     4  12  20  28  64 112 136 152 218 284 352 380
#     4  12  27  44  66  96 139 183 234 277 333 408
#     4  11  22  43  67  99 134 174 221 279 340 404
#     4  11  22  43  69  99 140 172 229 288 341 400
#     4  11  19  36  66 103 131 161 213 286 337 399
#     4  11  22  41  72  96 127 180 219 281 348 402
#
# _framework density 24.124738000000001
#
# number of rings (size 3 to 8) (size 9 to 14) (size 15 to 20)
#    0.000    0.762    5.714    4.571    0.000    3.810 
#    0.000    0.000    0.000    0.000    0.000    0.000 
#    0.000    0.000    0.000    0.000    0.000    0.000 
#
# Total GULP energy -117016.503079 kJ/mol
# GULP energy per Si atom -5572.214432 kJ/mol
# Density = 2.406983 g / cm^3
# Si number density = 24.124738 Si / 1000 Ang^3
#
#
#
# Elastic Constant Matrix: (Units=GPa)
#
#
# Indices 1 2 3 4 5 6 
#
# 1 88.0540 25.7443 28.8533 -5.8491 -27.3579 3.7334
# 2 25.7443 153.1017 7.0451 -9.2365 -7.1934 6.1051
# 3 28.8533 7.0451 66.1486 -15.7804 -9.5578 12.2985
# 4 -5.8491 -9.2365 -15.7804 841.1448 -3.4916 -583.6418
# 5 -27.3579 -7.1934 -9.5578 -3.4916 46.5220 2.1387
# 6 3.7334 6.1051 12.2985 -583.6418 2.1387 419.4640
#
#
#
# Elastic Compliance Matrix: (Units=1/GPa)
#
#
# Indices 1 2 3 4 5 6 
#
# 1 0.016396 -0.002106 -0.005768 0.000724 0.008139 0.001020
# 2 -0.002106 0.006875 0.000181 0.000117 -0.000133 0.000077
# 3 -0.005768 0.000181 0.017764 -0.000934 0.000297 -0.001773
# 4 0.000724 0.000117 -0.000934 0.034477 0.000634 0.047988
# 5 0.008139 -0.000133 0.000297 0.000634 0.026338 0.000668
# 6 0.001020 0.000077 -0.001773 0.047988 0.000668 0.069193
#
#
# Mechanical properties :
#
#
# Convention : Reuss Voigt Hill
#
# Bulk Modulus (GPa) = 38.98961 47.84330 43.41646
# Shear Modulus (GPa) = 25.64358 277.80361 151.72360
#
# Velocity S-wave (km/s) = 3.26384 10.74258 7.93901
# Velocity P-wave (km/s) = 5.51365 13.18125 10.10311
#
# Compressibility (1/GPa) = 0.02564786
#
# Stress axis : x y z
#
# Youngs Moduli (GPa) = 60.99000 145.45063 56.29345
#
# Poissons Ratio (x) = 0.30635 0.32472
# Poissons Ratio (y) = 0.12846 -0.01018
# Poissons Ratio (z) = 0.35181 -0.02630
#
# Static dielectric constant tensor:
#      x y z
#    x 2.405390 -0.003430 -0.535600 
#    y -0.003430 1.904630 0.004730 
#    z -0.535600 0.004730 2.519540 
# 
# From -- ./inp_files/376441.got.cif
#   From: 2010.05.17/outbox.cif.g08.bks.cpg/sg12_189_cif.got.tgz:376441.got - 2010.06.03 13:09:07.
