data_PCOD9219829
_publ_section_title
;
Structure prediction by ZEFSAII (Michael W. Deem and Ramdas Pophale) SiO2 
 PCOD9219829
Probable space group: C 2/M
;
_chemical_formula_sum "Si O2"
_cell_formula_units_Z 48
_cell_length_a 28.862914
_cell_length_b 8.166880
_cell_length_c 17.648177
_cell_angle_alpha 90.000000
_cell_angle_beta 36.209259
_cell_angle_gamma 90.000000
_cell_volume 2457.478268
_symmetry_space_group_name_H-M "C 2/M"
_symmetry_group_IT_number 12
_symmetry_cell_setting 'monoclinic'
loop_
_space_group_symop_operation_xyz
x,y,z
-x,y,-z
-x,-y,-z
x,-y,z
1/2+x,1/2+y,z
1/2-x,1/2+y,-z
1/2-x,1/2-y,-z
1/2+x,1/2-y,z
loop_
_atom_site_type_symbol
_atom_site_label
_atom_site_fract_x
_atom_site_fract_y
_atom_site_fract_z
Si Si1 0.868919 0.306608 0.025570
Si Si2 0.225247 0.696700 0.116410
Si Si3 0.011842 0.700583 0.726180
Si Si4 0.588413 0.692083 0.870408
Si Si5 0.161054 0.309473 0.620556
Si Si6 0.544431 0.199879 0.365640
O O1 0.879559 0.500000 0.024591
O O2 0.940891 0.250584 0.876357
O O3 0.787677 0.274331 0.090621
O O4 0.869791 0.217563 0.104759
O O5 0.229317 0.500000 0.117075
O O6 0.135555 0.747958 0.248115
O O7 0.250000 0.750000 0.000000
O O8 0.011777 0.500000 0.726287
O O9 0.094791 0.760479 0.650692
O O10 0.993370 0.753065 0.664568
O O11 0.585152 0.500000 0.855574
O O12 0.628596 0.781540 0.747729
O O13 0.500000 0.753646 0.000000
O O14 0.164007 0.500000 0.599220
O O15 0.250000 0.250000 0.500000
O O16 0.500000 0.254974 0.500000
O O17 0.542328 0.000000 0.367751
#
# Coordination Sequence:
#
# PCOD9219829 Si02
#       6
#     8   8   8   8   8   8
#     4  11  21  37  61  89 122 158 202 247 303 370
#     4  11  21  35  58  89 119 153 199 252 302 354
#     4   9  18  34  57  84 115 159 203 242 297 367
#     4  11  23  39  61  91 121 152 203 260 308 362
#     4  11  23  40  62  88 124 165 206 252 307 368
#     4   9  18  34  57  85 116 153 199 244 289 350
#
# _framework density 19.532218
#
# number of rings (size 3 to 8) (size 9 to 14) (size 15 to 20)
#    0.000    1.667    3.333    2.000    0.000    2.000 
#    0.000    3.333    0.000    2.000    0.000    0.000 
#    0.000    0.000    0.000    0.000    0.000    0.000 
#
# Total GULP energy -134041.698978 kJ/mol
# GULP energy per Si atom -5585.070791 kJ/mol
# Density = 1.948776 g / cm^3
# Si number density = 19.532218 Si / 1000 Ang^3
#
#
#
# Elastic Constant Matrix: (Units=GPa)
#
#
# Indices 1 2 3 4 5 6 
#
# 1 155.1548 -8.6813 63.4585 -0.0036 -17.4181 0.0022
# 2 -8.6813 14.6789 -0.0380 -0.0005 -10.5669 0.0036
# 3 63.4585 -0.0380 125.7402 0.0001 -25.4391 0.0024
# 4 -0.0036 -0.0005 0.0001 15.7960 -0.0009 -5.4674
# 5 -17.4181 -10.5669 -25.4391 -0.0009 30.9397 -0.0010
# 6 0.0022 0.0036 0.0024 -5.4674 -0.0010 24.1846
#
#
#
# Elastic Compliance Matrix: (Units=1/GPa)
#
#
# Indices 1 2 3 4 5 6 
#
# 1 0.008962 0.009132 -0.003441 0.000002 0.005335 -0.000001
# 2 0.009132 0.105984 0.004542 0.000003 0.045072 -0.000014
# 3 -0.003441 0.004542 0.011531 -0.000001 0.009095 -0.000001
# 4 0.000002 0.000003 -0.000001 0.068681 0.000004 0.015527
# 5 0.005335 0.045072 0.009095 0.000004 0.058196 -0.000005
# 6 -0.000001 -0.000014 -0.000001 0.015527 -0.000005 0.044859
#
#
# Mechanical properties :
#
#
# Convention : Reuss Voigt Hill
#
# Bulk Modulus (GPa) = 6.80531 45.00582 25.90556
# Shear Modulus (GPa) = 15.30323 30.23971 22.77147
#
# Velocity S-wave (km/s) = 2.80212 3.93898 3.41815
# Velocity P-wave (km/s) = 3.73643 6.61659 5.37309
#
# Compressibility (1/GPa) = 0.14694407
#
# Stress axis : x y z
#
# Youngs Moduli (GPa) = 111.57606 9.43538 86.72329
#
# Poissons Ratio (x) = -0.08617 0.29842
# Poissons Ratio (y) = -1.01896 -0.39389
# Poissons Ratio (z) = 0.38393 -0.04285
#
# Static dielectric constant tensor:
#      x y z
#    x 2.115460 -0.000020 -0.001540 
#    y -0.000020 1.704840 0.000000 
#    z -0.001540 0.000000 1.648060 
# 
# From -- ./inp_files/244769.got.cif
#   From: 2010.05.17/outbox.cif.g08.bks.cpg/sg12_123_cif.got.tgz:244769.got - 2010.06.03 13:09:07.
