data_PCOD9219072
_publ_section_title
;
Structure prediction by ZEFSAII (Michael W. Deem and Ramdas Pophale) SiO2 
 PCOD9219072
Probable space group: C 2/M
;
_chemical_formula_sum "Si O2"
_cell_formula_units_Z 32
_cell_length_a 15.347181
_cell_length_b 13.362674
_cell_length_c 11.839264
_cell_angle_alpha 90.000000
_cell_angle_beta 142.222644
_cell_angle_gamma 90.000000
_cell_volume 1487.373184
_symmetry_space_group_name_H-M "C 2/M"
_symmetry_group_IT_number 12
_symmetry_cell_setting 'monoclinic'
loop_
_space_group_symop_operation_xyz
x,y,z
-x,y,-z
-x,-y,-z
x,-y,z
1/2+x,1/2+y,z
1/2-x,1/2+y,-z
1/2-x,1/2-y,-z
1/2+x,1/2-y,z
loop_
_atom_site_type_symbol
_atom_site_label
_atom_site_fract_x
_atom_site_fract_y
_atom_site_fract_z
Si Si1 0.487063 0.500000 0.161082
Si Si2 0.722799 0.323041 0.083328
Si Si3 0.636874 0.500000 0.720219
Si Si4 0.787591 0.500000 0.567354
Si Si5 0.556289 0.000000 0.684005
Si Si6 0.670056 0.844401 0.190992
O O1 0.431462 0.500000 0.230583
O O2 0.656490 0.500000 0.345997
O O3 0.418358 0.394617 0.051025
O O4 0.848683 0.402125 0.203933
O O5 0.719760 0.264246 0.200268
O O6 0.750000 0.250000 0.000000
O O7 0.500000 0.500000 0.500000
O O8 0.741449 0.408964 0.807755
O O9 0.787697 0.401020 0.649067
O O10 0.931844 0.500000 0.646732
O O11 0.500000 0.000000 0.500000
O O12 0.500000 0.852786 0.000000
#
# Coordination Sequence:
#
# PCOD9219072 Si02
#       6
#     4   8   4   4   4   8
#     4  11  23  40  66  99 141 178 220 278 340 392
#     4  11  24  42  68  99 139 179 220 270 345 398
#     4  11  19  37  66 103 134 174 224 285 327 387
#     4  11  24  45  73 100 129 177 239 279 322 401
#     4  11  28  49  69  97 141 179 217 284 354 401
#     4  11  23  39  70 103 132 172 234 280 320 395
#
# _framework density 21.514438999999999
#
# number of rings (size 3 to 8) (size 9 to 14) (size 15 to 20)
#    0.000    1.000    5.000    3.000    3.500    5.000 
#    0.000    6.250    0.000    0.000    0.000    0.000 
#    0.000    0.000    0.000    0.000    0.000    0.000 
#
# Total GULP energy -89152.938386 kJ/mol
# GULP energy per Si atom -5572.058649 kJ/mol
# Density = 2.146547 g / cm^3
# Si number density = 21.514439 Si / 1000 Ang^3
#
#
#
# Elastic Constant Matrix: (Units=GPa)
#
#
# Indices 1 2 3 4 5 6 
#
# 1 91.5120 53.1573 37.0328 0.0000 11.1564 0.0000
# 2 53.1573 154.5561 65.9701 0.0000 -0.3994 0.0000
# 3 37.0328 65.9701 86.8432 0.0000 23.0900 0.0000
# 4 0.0000 0.0000 0.0000 -23.7300 0.0000 -5.8965
# 5 11.1564 -0.3994 23.0900 0.0000 47.2495 0.0000
# 6 0.0000 0.0000 0.0000 -5.8965 0.0000 20.8093
#
#
#
# Elastic Compliance Matrix: (Units=1/GPa)
#
#
# Indices 1 2 3 4 5 6 
#
# 1 0.014515 -0.003846 -0.002699 0.000000 -0.002141 0.000000
# 2 -0.003846 0.011369 -0.008349 0.000000 0.005084 0.000000
# 3 -0.002699 -0.008349 0.021673 0.000000 -0.010025 0.000000
# 4 0.000000 0.000000 0.000000 -0.039369 0.000000 -0.011155
# 5 -0.002141 0.005084 -0.010025 0.000000 0.026612 0.000000
# 6 0.000000 0.000000 0.000000 -0.011155 0.000000 0.044895
#
#
# Mechanical properties :
#
#
# Convention : Reuss Voigt Hill
#
# Bulk Modulus (GPa) = 56.27185 71.69241 63.98213
# Shear Modulus (GPa) = 43.32593 20.64915 31.98754
#
# Velocity S-wave (km/s) = 4.49241 3.10139 3.86008
# Velocity P-wave (km/s) = 7.28843 6.79854 7.04774
#
# Compressibility (1/GPa) = 0.01777088
#
# Stress axis : x y z
#
# Youngs Moduli (GPa) = 68.89648 87.95582 46.13980
#
# Poissons Ratio (x) = 0.33824 0.12453
# Poissons Ratio (y) = 0.26494 0.38520
# Poissons Ratio (z) = 0.18596 0.73430
#
# Static dielectric constant tensor:
#      x y z
#    x 1.766270 0.000000 -0.005940 
#    y 0.000000 1.858800 0.000000 
#    z -0.005940 0.000000 1.579780 
# 
# From -- ./inp_files/222858.got.cif
#   From: 2010.05.17/outbox.cif.g08.bks.cpg/sg12_112_cif.got.tgz:222858.got - 2010.06.03 13:09:07.
