data_PCOD9219324
_publ_section_title
;
Structure prediction by ZEFSAII (Michael W. Deem and Ramdas Pophale) SiO2 
 PCOD9219324
Probable space group: C 2/M
;
_chemical_formula_sum "Si O2"
_cell_formula_units_Z 64
_cell_length_a 17.780510
_cell_length_b 20.152466
_cell_length_c 8.686866
_cell_angle_alpha 90.000000
_cell_angle_beta 87.773704
_cell_angle_gamma 90.000000
_cell_volume 3110.338104
_symmetry_space_group_name_H-M "C 2/M"
_symmetry_group_IT_number 12
_symmetry_cell_setting 'monoclinic'
loop_
_space_group_symop_operation_xyz
x,y,z
-x,y,-z
-x,-y,-z
x,-y,z
1/2+x,1/2+y,z
1/2-x,1/2+y,-z
1/2-x,1/2-y,-z
1/2+x,1/2-y,z
loop_
_atom_site_type_symbol
_atom_site_label
_atom_site_fract_x
_atom_site_fract_y
_atom_site_fract_z
Si Si1 0.955907 0.705024 0.352403
Si Si2 0.292112 0.577635 0.289738
Si Si3 0.670320 0.377504 0.060442
Si Si4 0.324360 0.816849 0.156987
Si Si5 0.903601 0.260465 0.863269
Si Si6 0.973191 0.931081 0.828980
Si Si7 0.563729 0.644463 0.611147
Si Si8 0.229016 0.715272 0.341280
O O1 0.884698 0.666340 0.285874
O O2 0.924783 0.777506 0.406214
O O3 0.000000 0.678134 0.500000
O O4 0.014620 0.719957 0.207546
O O5 0.273458 0.500000 0.309311
O O6 0.362689 0.600439 0.388701
O O7 0.233113 0.635588 0.337920
O O8 0.315367 0.591770 0.109345
O O9 0.750647 0.361346 0.131965
O O10 0.618470 0.310842 0.062090
O O11 0.616181 0.423480 0.166374
O O12 0.287592 0.746025 0.211368
O O13 0.369904 0.809974 0.994234
O O14 0.851495 0.263496 0.715671
O O15 0.018712 0.868121 0.769935
O O16 0.996597 0.000000 0.747016
O O17 0.000000 0.936901 0.000000
O O18 0.500000 0.621451 0.500000
O O19 0.250000 0.750000 0.500000
#
# Coordination Sequence:
#
# PCOD9219324 Si02
#       8
#     8   8   8   8   8   8   8   8
#     4  11  22  36  57  88 121 161 201 255 317 376
#     4  12  23  39  60  84 123 170 210 251 308 371
#     4  11  20  36  56  87 114 156 204 256 300 355
#     4  11  21  37  59  85 120 152 205 254 322 366
#     4  11  20  35  59  84 118 157 201 255 318 362
#     4  11  22  35  54  80 114 162 206 237 281 351
#     4  11  23  36  52  80 121 161 204 242 288 352
#     4  11  22  37  59  89 121 163 206 262 313 367
#
# _framework density 20.576540999999999
#
# number of rings (size 3 to 8) (size 9 to 14) (size 15 to 20)
#    0.000    0.875    6.250    2.625    1.750    1.000 
#    0.000    0.000    0.000    3.000    0.000    2.625 
#    0.000    3.500    0.000    0.000    0.000    0.000 
#
# Total GULP energy -178412.186049 kJ/mol
# GULP energy per Si atom -5575.380814 kJ/mol
# Density = 2.052971 g / cm^3
# Si number density = 20.576541 Si / 1000 Ang^3
#
#
#
# Elastic Constant Matrix: (Units=GPa)
#
#
# Indices 1 2 3 4 5 6 
#
# 1 90.8628 6.5052 17.3945 0.0000 11.4304 0.0000
# 2 6.5052 54.7228 12.4419 0.0000 1.3798 0.0000
# 3 17.3945 12.4419 62.1241 0.0000 7.5148 0.0000
# 4 0.0000 0.0000 0.0000 16.2054 0.0000 4.4106
# 5 11.4304 1.3798 7.5148 0.0000 43.6078 0.0000
# 6 0.0000 0.0000 0.0000 4.4106 0.0000 22.5302
#
#
#
# Elastic Compliance Matrix: (Units=1/GPa)
#
#
# Indices 1 2 3 4 5 6 
#
# 1 0.011936 -0.000697 -0.002887 0.000000 -0.002609 0.000000
# 2 -0.000697 0.019187 -0.003673 0.000000 0.000208 0.000000
# 3 -0.002887 -0.003673 0.017908 0.000000 -0.002213 0.000000
# 4 0.000000 0.000000 0.000000 0.065181 0.000000 -0.012760
# 5 -0.002609 0.000208 -0.002213 0.000000 0.023990 0.000000
# 6 0.000000 0.000000 0.000000 -0.012760 0.000000 0.046883
#
#
# Mechanical properties :
#
#
# Convention : Reuss Voigt Hill
#
# Bulk Modulus (GPa) = 28.97000 31.15475 30.06238
# Shear Modulus (GPa) = 23.68495 27.89320 25.78908
#
# Velocity S-wave (km/s) = 3.39642 3.68582 3.54407
# Velocity P-wave (km/s) = 5.43052 5.76953 5.60259
#
# Compressibility (1/GPa) = 0.03451846
#
# Stress axis : x y z
#
# Youngs Moduli (GPa) = 83.77734 52.11986 55.83961
#
# Poissons Ratio (x) = 0.03632 0.16121
# Poissons Ratio (y) = 0.05837 0.20508
# Poissons Ratio (z) = 0.24186 0.19142
#
# Static dielectric constant tensor:
#      x y z
#    x 1.812650 0.000000 -0.017190 
#    y 0.000000 1.740660 0.000000 
#    z -0.017190 0.000000 1.778820 
# 
# From -- ./inp_files/77536.got.cif
#   From: 2010.05.17/outbox.cif.g08.bks.cpg/sg12_39_cif.got.tgz:77536.got - 2010.06.03 13:09:07.
