data_PCOD9219684
_publ_section_title
;
Structure prediction by ZEFSAII (Michael W. Deem and Ramdas Pophale) SiO2 
 PCOD9219684
Probable space group: C 2/M
;
_chemical_formula_sum "Si O2"
_cell_formula_units_Z 56
_cell_length_a 19.517630
_cell_length_b 8.660575
_cell_length_c 20.092438
_cell_angle_alpha 90.000000
_cell_angle_beta 58.425607
_cell_angle_gamma 90.000000
_cell_volume 2893.517916
_symmetry_space_group_name_H-M "C 2/M"
_symmetry_group_IT_number 12
_symmetry_cell_setting 'monoclinic'
loop_
_space_group_symop_operation_xyz
x,y,z
-x,y,-z
-x,-y,-z
x,-y,z
1/2+x,1/2+y,z
1/2-x,1/2+y,-z
1/2-x,1/2-y,-z
1/2+x,1/2-y,z
loop_
_atom_site_type_symbol
_atom_site_label
_atom_site_fract_x
_atom_site_fract_y
_atom_site_fract_z
Si Si1 0.761309 0.818034 0.834667
Si Si2 0.247806 0.818245 0.320311
Si Si3 0.505330 0.184250 0.073842
Si Si4 0.431404 0.311176 0.585845
Si Si5 0.557391 0.687852 0.266784
Si Si6 0.416104 0.316055 0.241128
Si Si7 0.324009 0.318763 0.003570
O O1 0.752483 0.803500 0.760002
O O2 0.853321 0.770701 0.803976
O O3 0.699117 0.719402 0.908447
O O4 0.750279 0.000000 0.857097
O O5 0.159292 0.762658 0.387133
O O6 0.326519 0.733617 0.306383
O O7 0.254594 0.000000 0.332179
O O8 0.438849 0.250303 0.157203
O O9 0.498892 0.000000 0.077064
O O10 0.500000 0.238706 0.000000
O O11 0.592285 0.237448 0.055526
O O12 0.500000 0.260907 0.500000
O O13 0.430154 0.500000 0.586853
O O14 0.449106 0.262813 0.652848
O O15 0.556520 0.500000 0.267471
O O16 0.484383 0.741165 0.257925
O O17 0.420851 0.500000 0.236046
O O18 0.331469 0.500000 0.987927
O O19 0.250000 0.250000 0.000000
#
# Coordination Sequence:
#
# PCOD9219684 Si02
#       7
#     8   8   8   8   8   8   8
#     4   9  17  33  53  70  94 130 173 219 263 305
#     4   9  18  32  52  77 103 132 168 212 258 305
#     4  11  24  40  56  75 103 139 179 226 275 317
#     4   8  14  29  55  81 102 130 172 214 249 296
#     4   8  16  30  49  74 101 132 170 212 256 300
#     4  11  21  33  51  75 106 140 172 210 258 317
#     4  12  24  36  52  75 103 135 176 223 269 317
#
# _framework density 19.353603
#
# number of rings (size 3 to 8) (size 9 to 14) (size 15 to 20)
#    0.000    2.286    0.000    5.571    0.000    6.286 
#    0.000    1.429    0.000    2.143    0.000    0.000 
#    0.000    0.000    0.000    0.000    0.000    0.000 
#
# Total GULP energy -156342.559756 kJ/mol
# GULP energy per Si atom -5583.662848 kJ/mol
# Density = 1.930955 g / cm^3
# Si number density = 19.353603 Si / 1000 Ang^3
#
#
#
# Elastic Constant Matrix: (Units=GPa)
#
#
# Indices 1 2 3 4 5 6 
#
# 1 108.9163 14.9573 24.6997 0.0000 -22.5369 0.0001
# 2 14.9573 20.4439 8.9798 0.0000 -3.9679 -0.0002
# 3 24.6997 8.9798 84.6324 0.0000 -24.4375 0.0000
# 4 0.0000 0.0000 0.0000 12.4543 0.0000 -8.6815
# 5 -22.5369 -3.9679 -24.4375 0.0000 28.1767 0.0000
# 6 0.0001 -0.0002 0.0000 -8.6815 0.0000 24.9661
#
#
#
# Elastic Compliance Matrix: (Units=1/GPa)
#
#
# Indices 1 2 3 4 5 6 
#
# 1 0.011926 -0.006967 -0.000361 0.000000 0.008245 0.000000
# 2 -0.006967 0.055612 -0.004289 0.000001 -0.001461 0.000001
# 3 -0.000361 -0.004289 0.016167 0.000000 0.013129 0.000000
# 4 0.000000 0.000001 0.000000 0.105983 0.000000 0.036854
# 5 0.008245 -0.001461 0.013129 0.000000 0.053266 0.000000
# 6 0.000000 0.000001 0.000000 0.036854 0.000000 0.052870
#
#
# Mechanical properties :
#
#
# Convention : Reuss Voigt Hill
#
# Bulk Modulus (GPa) = 16.53661 34.58513 25.56087
# Shear Modulus (GPa) = 14.73993 24.14314 19.44153
#
# Velocity S-wave (km/s) = 2.76273 3.53579 3.17289
# Velocity P-wave (km/s) = 4.32896 5.88031 5.16323
#
# Compressibility (1/GPa) = 0.06047188
#
# Stress axis : x y z
#
# Youngs Moduli (GPa) = 83.85103 17.98175 61.85361
#
# Poissons Ratio (x) = 0.12527 0.02231
# Poissons Ratio (y) = 0.58416 0.26531
# Poissons Ratio (z) = 0.03024 0.07713
#
# Static dielectric constant tensor:
#      x y z
#    x 1.728180 0.000000 0.008210 
#    y 0.000000 1.654340 0.000000 
#    z 0.008210 0.000000 1.674730 
# 
# From -- ./inp_files/313768.got.cif
#   From: 2010.05.17/outbox.cif.g08.bks.cpg/sg12_157_cif.got.tgz:313768.got - 2010.06.03 13:09:07.
