data_PCOD9219789
_publ_section_title
;
Structure prediction by ZEFSAII (Michael W. Deem and Ramdas Pophale) SiO2 
 PCOD9219789
Probable space group: C 2/M
;
_chemical_formula_sum "Si O2"
_cell_formula_units_Z 56
_cell_length_a 9.877694
_cell_length_b 28.093307
_cell_length_c 12.376065
_cell_angle_alpha 90.000000
_cell_angle_beta 112.564057
_cell_angle_gamma 90.000000
_cell_volume 3171.428495
_symmetry_space_group_name_H-M "C 2/M"
_symmetry_group_IT_number 12
_symmetry_cell_setting 'monoclinic'
loop_
_space_group_symop_operation_xyz
x,y,z
-x,y,-z
-x,-y,-z
x,-y,z
1/2+x,1/2+y,z
1/2-x,1/2+y,-z
1/2-x,1/2-y,-z
1/2+x,1/2-y,z
loop_
_atom_site_type_symbol
_atom_site_label
_atom_site_fract_x
_atom_site_fract_y
_atom_site_fract_z
Si Si1 0.352404 0.895909 0.642893
Si Si2 0.086301 0.205629 0.357704
Si Si3 0.155010 0.443750 0.752305
Si Si4 0.772545 0.793316 0.357879
Si Si5 0.349703 0.442328 0.009723
Si Si6 0.654688 0.599516 0.369943
Si Si7 0.352294 0.556288 0.258132
O O1 0.520138 0.910327 0.679041
O O2 0.317505 0.842506 0.672079
O O3 0.264104 0.902861 0.504429
O O4 0.286725 0.930701 0.713176
O O5 0.152616 0.207910 0.499951
O O6 0.162632 0.248774 0.317904
O O7 0.135848 0.154316 0.329043
O O8 0.910278 0.208247 0.318067
O O9 0.117713 0.500000 0.736902
O O10 0.215175 0.431130 0.889548
O O11 0.284996 0.433189 0.707576
O O12 0.357417 0.500000 0.014187
O O13 0.500000 0.425200 0.000000
O O14 0.336533 0.426736 0.129398
O O15 0.493602 0.581695 0.352419
O O16 0.376339 0.500000 0.265188
#
# Coordination Sequence:
#
# PCOD9219789 Si02
#       7
#     8   8   8   8   8   8   8
#     4  11  23  35  50  83 120 142 174 221 275 332
#     4   9  18  32  52  76 104 141 181 220 264 316
#     4  11  23  37  54  78 111 149 187 226 265 313
#     4   9  18  33  51  75 107 140 178 222 264 317
#     4   9  18  36  57  75  97 137 196 238 258 299
#     4  11  21  35  54  80 114 148 180 214 268 339
#     4  11  21  35  57  78 106 148 185 223 264 314
#
# _framework density 17.657657
#
# number of rings (size 3 to 8) (size 9 to 14) (size 15 to 20)
#    0.000    1.857    2.857    1.714    2.000    4.000 
#    0.000    2.143    0.000    0.000    0.000    6.000 
#    0.000    0.000    0.000    0.000    0.000    0.000 
#
# Total GULP energy -156190.626747 kJ/mol
# GULP energy per Si atom -5578.236670 kJ/mol
# Density = 1.761747 g / cm^3
# Si number density = 17.657657 Si / 1000 Ang^3
#
#
#
# Elastic Constant Matrix: (Units=GPa)
#
#
# Indices 1 2 3 4 5 6 
#
# 1 39.5315 0.5924 -3.7832 0.0000 -13.3970 0.0000
# 2 0.5924 68.5559 10.6089 0.0000 -19.1732 0.0000
# 3 -3.7832 10.6089 47.4288 0.0000 -16.1347 0.0000
# 4 0.0000 0.0000 0.0000 -6.8914 0.0000 -2.3192
# 5 -13.3970 -19.1732 -16.1347 0.0000 -45.7416 0.0000
# 6 0.0000 0.0000 0.0000 -2.3192 0.0000 27.8595
#
#
#
# Elastic Compliance Matrix: (Units=1/GPa)
#
#
# Indices 1 2 3 4 5 6 
#
# 1 0.023284 -0.001937 0.000220 0.000000 -0.006085 0.000000
# 2 -0.001937 0.014263 -0.004630 0.000000 -0.003778 0.000000
# 3 0.000220 -0.004630 0.020336 0.000000 -0.005297 0.000000
# 4 0.000000 0.000000 0.000000 -0.141154 0.000000 -0.011751
# 5 -0.006085 -0.003778 -0.005297 0.000000 -0.016628 0.000000
# 6 0.000000 0.000000 0.000000 -0.011751 0.000000 0.034916
#
#
# Mechanical properties :
#
#
# Convention : Reuss Voigt Hill
#
# Bulk Modulus (GPa) = 22.12924 18.92805 20.52864
# Shear Modulus (GPa) = -134.31586 4.91850 -64.69868
#
# Velocity S-wave (km/s) = -8.73108 1.67079 -6.05971
# Velocity P-wave (km/s) = 9.43837 3.80326 6.10811
#
# Compressibility (1/GPa) = 0.04518909
#
# Stress axis : x y z
#
# Youngs Moduli (GPa) = 42.94776 70.11009 49.17487
#
# Poissons Ratio (x) = 0.13582 -0.01084
# Poissons Ratio (y) = 0.08320 0.22769
# Poissons Ratio (z) = -0.00947 0.32462
#
# Static dielectric constant tensor:
#      x y z
#    x 1.584320 0.000000 0.002480 
#    y 0.000000 1.596140 0.000000 
#    z 0.002480 0.000000 1.594280 
# 
# From -- ./inp_files/124241.got.cif
#   From: 2010.05.17/outbox.cif.g08.bks.cpg/sg12_63_cif.got.tgz:124241.got - 2010.06.03 13:09:07.
