data_PCOD9219699
_publ_section_title
;
Structure prediction by ZEFSAII (Michael W. Deem and Ramdas Pophale) SiO2 
 PCOD9219699
Probable space group: C 2/M
;
_chemical_formula_sum "Si O2"
_cell_formula_units_Z 48
_cell_length_a 8.662817
_cell_length_b 22.696131
_cell_length_c 12.810684
_cell_angle_alpha 90.000000
_cell_angle_beta 93.724627
_cell_angle_gamma 90.000000
_cell_volume 2513.419594
_symmetry_space_group_name_H-M "C 2/M"
_symmetry_group_IT_number 12
_symmetry_cell_setting 'monoclinic'
loop_
_space_group_symop_operation_xyz
x,y,z
-x,y,-z
-x,-y,-z
x,-y,z
1/2+x,1/2+y,z
1/2-x,1/2+y,-z
1/2-x,1/2-y,-z
1/2+x,1/2-y,z
loop_
_atom_site_type_symbol
_atom_site_label
_atom_site_fract_x
_atom_site_fract_y
_atom_site_fract_z
Si Si1 0.292771 0.823044 0.598140
Si Si2 0.835299 0.693078 0.369915
Si Si3 0.815750 0.064899 0.000934
Si Si4 0.774084 0.618254 0.799733
Si Si5 0.879290 0.650442 0.157179
Si Si6 0.879877 0.777127 0.078103
O O1 0.211749 0.761702 0.627564
O O2 0.477974 0.812628 0.618472
O O3 0.267188 0.833410 0.474174
O O4 0.243755 0.874434 0.675414
O O5 0.786107 0.660783 0.260964
O O6 0.720810 0.115699 0.933924
O O7 0.768606 0.000000 0.959401
O O8 0.783338 0.069312 0.123155
O O9 0.000000 0.070101 0.000000
O O10 0.692101 0.676264 0.846706
O O11 0.959579 0.617375 0.819906
O O12 0.938068 0.717154 0.134164
O O13 0.750000 0.750000 0.000000
O O14 0.000000 0.802419 0.000000
#
# Coordination Sequence:
#
# PCOD9219699 Si02
#       6
#     8   8   8   8   8   8
#     4   9  18  31  48  76 112 143 175 207 248 301
#     4   9  18  31  49  76 110 144 174 209 247 301
#     4  11  25  41  56  76 100 132 176 226 275 317
#     4  11  21  33  53  78 108 144 173 211 260 313
#     4  11  21  34  53  78 107 141 176 210 261 315
#     4  12  20  29  45  78 113 139 172 211 254 313
#
# _framework density 19.097487999999998
#
# number of rings (size 3 to 8) (size 9 to 14) (size 15 to 20)
#    0.000    1.500    5.000    1.000    0.000    2.667 
#    0.000    0.000    0.000    1.000    0.000    7.000 
#    0.000    0.000    0.000    0.000    0.000    0.000 
#
# Total GULP energy -133678.453901 kJ/mol
# GULP energy per Si atom -5569.935579 kJ/mol
# Density = 1.905402 g / cm^3
# Si number density = 19.097488 Si / 1000 Ang^3
#
#
#
# Elastic Constant Matrix: (Units=GPa)
#
#
# Indices 1 2 3 4 5 6 
#
# 1 38.5981 8.5748 19.2729 0.0000 -20.2799 0.0000
# 2 8.5748 73.9793 26.5089 0.0000 -5.4182 0.0000
# 3 19.2729 26.5089 135.1302 0.0000 -25.8868 0.0000
# 4 0.0000 0.0000 0.0000 9.7619 0.0000 2.7544
# 5 -20.2799 -5.4182 -25.8868 0.0000 21.4927 0.0000
# 6 0.0000 0.0000 0.0000 2.7544 0.0000 7.8618
#
#
#
# Elastic Compliance Matrix: (Units=1/GPa)
#
#
# Indices 1 2 3 4 5 6 
#
# 1 0.052858 -0.003422 0.003278 0.000000 0.052960 0.000000
# 2 -0.003422 0.014762 -0.003007 0.000000 -0.003130 0.000000
# 3 0.003278 -0.003007 0.010361 0.000000 0.014814 0.000000
# 4 0.000000 0.000000 0.000000 0.113677 0.000000 -0.039827
# 5 0.052960 -0.003130 0.014814 0.000000 0.113552 0.000000
# 6 0.000000 0.000000 0.000000 -0.039827 0.000000 0.141151
#
#
# Mechanical properties :
#
#
# Convention : Reuss Voigt Hill
#
# Bulk Modulus (GPa) = 13.95148 39.60230 26.77689
# Shear Modulus (GPa) = 10.49193 20.71335 15.60264
#
# Velocity S-wave (km/s) = 2.34645 3.29692 2.86142
# Velocity P-wave (km/s) = 3.82914 5.93926 4.99686
#
# Compressibility (1/GPa) = 0.07167700
#
# Stress axis : x y z
#
# Youngs Moduli (GPa) = 18.91879 67.73963 96.51973
#
# Poissons Ratio (x) = 0.23184 -0.31641
# Poissons Ratio (y) = 0.06475 0.29028
# Poissons Ratio (z) = -0.06202 0.20373
#
# Static dielectric constant tensor:
#      x y z
#    x 1.670730 0.000000 0.029050 
#    y 0.000000 1.766770 0.000000 
#    z 0.029050 0.000000 1.734560 
# 
# From -- ./inp_files/121969.got.cif
#   From: 2010.05.17/outbox.cif.g08.bks.cpg/sg12_61_cif.got.tgz:121969.got - 2010.06.03 13:09:07.
