data_PCOD9219211
_publ_section_title
;
Structure prediction by ZEFSAII (Michael W. Deem and Ramdas Pophale) SiO2 
 PCOD9219211
Probable space group: C 2/M
;
_chemical_formula_sum "Si O2"
_cell_formula_units_Z 64
_cell_length_a 25.151130
_cell_length_b 8.145333
_cell_length_c 27.713790
_cell_angle_alpha 90.000000
_cell_angle_beta 139.511122
_cell_angle_gamma 90.000000
_cell_volume 3686.446690
_symmetry_space_group_name_H-M "C 2/M"
_symmetry_group_IT_number 12
_symmetry_cell_setting 'monoclinic'
loop_
_space_group_symop_operation_xyz
x,y,z
-x,y,-z
-x,-y,-z
x,-y,z
1/2+x,1/2+y,z
1/2-x,1/2+y,-z
1/2-x,1/2-y,-z
1/2+x,1/2-y,z
loop_
_atom_site_type_symbol
_atom_site_label
_atom_site_fract_x
_atom_site_fract_y
_atom_site_fract_z
Si Si1 0.346458 0.806422 0.185184
Si Si2 0.304066 0.200467 0.337713
Si Si3 0.137339 0.806880 0.178532
Si Si4 0.341974 0.309152 0.074810
Si Si5 0.429164 0.798968 0.339218
Si Si6 0.065638 0.691537 0.501132
Si Si7 0.331728 0.806495 0.907237
Si Si8 0.460526 0.807981 0.075558
O O1 0.357841 0.718305 0.142218
O O2 0.404439 0.746509 0.268718
O O3 0.253153 0.781110 0.138453
O O4 0.360338 0.000000 0.187465
O O5 0.210966 0.250346 0.264179
O O6 0.357587 0.247796 0.327609
O O7 0.351994 0.262403 0.418305
O O8 0.307027 0.000000 0.342093
O O9 0.145418 0.719825 0.132473
O O10 0.047549 0.779640 0.137566
O O11 0.150649 0.000000 0.178789
O O12 0.347643 0.500000 0.066400
O O13 0.406238 0.215093 0.085688
O O14 0.250000 0.250000 0.000000
O O15 0.515186 0.739066 0.421050
O O16 0.430703 0.000000 0.340412
O O17 0.081788 0.500000 0.500998
O O18 0.000000 0.693491 0.500000
O O19 0.319949 0.000000 0.908977
O O20 0.404621 0.747098 0.992381
O O21 0.476945 0.000000 0.078694
#
# Coordination Sequence:
#
# PCOD9219211 Si02
#       8
#     8   8   8   8   8   8   8   8
#     4  11  20  32  53  78 104 132 167 209 254 299
#     4   8  13  23  40  68 102 134 164 199 241 293
#     4  11  21  33  51  76 105 135 171 210 253 300
#     4  12  24  39  57  76  98 129 169 211 257 300
#     4   8  13  23  41  70 102 132 163 200 242 293
#     4   7  10  18  36  63  99 133 161 194 238 288
#     4  11  22  35  51  71 100 136 173 210 250 299
#     4  11  24  40  54  71  97 132 175 215 254 299
#
# _framework density 17.360890999999999
#
# number of rings (size 3 to 8) (size 9 to 14) (size 15 to 20)
#    0.000    2.125    2.500    4.500    0.000    3.000 
#    0.000    0.000    0.000    0.000    0.000    5.250 
#    0.000    0.000    0.000    0.000    0.000    0.000 
#
# Total GULP energy -178462.420575 kJ/mol
# GULP energy per Si atom -5576.950643 kJ/mol
# Density = 1.732138 g / cm^3
# Si number density = 17.360891 Si / 1000 Ang^3
#
#
#
# Elastic Constant Matrix: (Units=GPa)
#
#
# Indices 1 2 3 4 5 6 
#
# 1 50.7952 -11.3652 44.2951 -0.0001 10.2092 0.0001
# 2 -11.3652 18.7504 3.8697 -0.0007 -0.3439 0.0011
# 3 44.2951 3.8697 178.1035 -0.0001 4.3659 0.0000
# 4 -0.0001 -0.0007 -0.0001 0.8779 0.0000 -9.4834
# 5 10.2092 -0.3439 4.3659 0.0000 13.5081 0.0000
# 6 0.0001 0.0011 0.0000 -9.4834 0.0000 17.0056
#
#
#
# Elastic Compliance Matrix: (Units=1/GPa)
#
#
# Indices 1 2 3 4 5 6 
#
# 1 0.038744 0.024987 -0.009552 -0.000001 -0.025559 -0.000002
# 2 0.024987 0.069728 -0.007368 -0.000002 -0.014728 -0.000006
# 3 -0.009552 -0.007368 0.008042 0.000000 0.004433 0.000001
# 4 -0.000001 -0.000002 0.000000 -0.226726 0.000001 -0.126437
# 5 -0.025559 -0.014728 0.004433 0.000001 0.091539 0.000001
# 6 -0.000002 -0.000006 0.000001 -0.126437 0.000001 -0.011705
#
#
# Mechanical properties :
#
#
# Convention : Reuss Voigt Hill
#
# Bulk Modulus (GPa) = 7.53885 35.69427 21.61656
# Shear Modulus (GPa) = -2178.79356 20.33495 -1079.22931
#
# Velocity S-wave (km/s) = -35.46443 3.42615 -24.95984
# Velocity P-wave (km/s) = 40.89762 6.02131 28.60384
#
# Compressibility (1/GPa) = 0.13264623
#
# Stress axis : x y z
#
# Youngs Moduli (GPa) = 25.81020 14.34149 124.34982
#
# Poissons Ratio (x) = -0.35835 1.18782
# Poissons Ratio (y) = -0.64491 0.91624
# Poissons Ratio (z) = 0.24655 0.10567
#
# Static dielectric constant tensor:
#      x y z
#    x 1.575540 0.000000 0.007080 
#    y 0.000000 1.620710 0.000000 
#    z 0.007080 0.000000 1.638180 
# 
# From -- ./inp_files/346236.got.cif
#   From: 2010.05.17/outbox.cif.g08.bks.cpg/sg12_174_cif.got.tgz:346236.got - 2010.06.03 13:09:07.
