data_PCOD9219418
_publ_section_title
;
Structure prediction by ZEFSAII (Michael W. Deem and Ramdas Pophale) SiO2 
 PCOD9219418
Probable space group: C 2/M
;
_chemical_formula_sum "Si O2"
_cell_formula_units_Z 56
_cell_length_a 30.169699
_cell_length_b 15.471966
_cell_length_c 11.107389
_cell_angle_alpha 90.000000
_cell_angle_beta 29.053681
_cell_angle_gamma 90.000000
_cell_volume 2517.867885
_symmetry_space_group_name_H-M "C 2/M"
_symmetry_group_IT_number 12
_symmetry_cell_setting 'monoclinic'
loop_
_space_group_symop_operation_xyz
x,y,z
-x,y,-z
-x,-y,-z
x,-y,z
1/2+x,1/2+y,z
1/2-x,1/2+y,-z
1/2-x,1/2-y,-z
1/2+x,1/2-y,z
loop_
_atom_site_type_symbol
_atom_site_label
_atom_site_fract_x
_atom_site_fract_y
_atom_site_fract_z
Si Si1 0.512077 0.098633 0.112596
Si Si2 0.049571 0.903880 0.012300
Si Si3 0.174026 0.711149 0.431890
Si Si4 0.597953 0.354286 0.447073
Si Si5 0.907121 0.703047 0.728244
Si Si6 0.843980 0.261725 0.151605
Si Si7 0.265029 0.905450 0.912851
O O1 0.423822 0.160962 0.345807
O O2 0.511762 0.000000 0.166074
O O3 0.500000 0.087483 0.000000
O O4 0.605678 0.152440 0.914541
O O5 0.979102 0.899934 0.291974
O O6 0.092583 0.000000 0.908585
O O7 0.000000 0.892852 0.000000
O O8 0.112366 0.821772 0.888494
O O9 0.154898 0.800020 0.409485
O O10 0.235155 0.740868 0.400466
O O11 0.238027 0.646742 0.203735
O O12 0.569524 0.282360 0.416971
O O13 0.667178 0.410991 0.206924
O O14 0.827165 0.650823 0.853776
O O15 0.000000 0.648067 0.500000
O O16 0.877709 0.729030 0.931641
O O17 0.303709 0.000000 0.800982
#
# Coordination Sequence:
#
# PCOD9219418 Si02
#       7
#     8   8   8   8   8   8   8
#     4  11  26  48  70 100 141 186 237 289 344 412
#     4  11  25  44  65  93 130 175 227 281 339 407
#     4  11  22  41  70  95 133 182 227 274 344 415
#     4  11  20  41  64  90 131 177 211 270 343 403
#     4  11  20  37  62  94 127 171 216 269 333 413
#     4  12  22  42  72  97 134 178 230 280 346 404
#     4  11  22  37  60  95 135 171 214 276 343 403
#
# _framework density 22.241040999999999
#
# number of rings (size 3 to 8) (size 9 to 14) (size 15 to 20)
#    0.000    0.857    5.714    3.000    0.000    2.571 
#    0.000    0.714    0.000    0.000    0.000    0.000 
#    0.000    0.000    0.000    0.000    0.000    0.000 
#
# Total GULP energy -156075.895719 kJ/mol
# GULP energy per Si atom -5574.139133 kJ/mol
# Density = 2.219042 g / cm^3
# Si number density = 22.241041 Si / 1000 Ang^3
#
#
#
# Elastic Constant Matrix: (Units=GPa)
#
#
# Indices 1 2 3 4 5 6 
#
# 1 96.4213 40.9490 -7.5841 0.0000 -11.7064 0.0000
# 2 40.9490 135.4336 16.8249 0.0000 -16.1679 0.0000
# 3 -7.5841 16.8249 69.2444 0.0000 -8.8052 0.0000
# 4 0.0000 0.0000 0.0000 1.6876 0.0000 22.2972
# 5 -11.7064 -16.1679 -8.8052 0.0000 35.8647 0.0000
# 6 0.0000 0.0000 0.0000 22.2972 0.0000 -71.6960
#
#
#
# Elastic Compliance Matrix: (Units=1/GPa)
#
#
# Indices 1 2 3 4 5 6 
#
# 1 0.012551 -0.003762 0.002678 0.000000 0.003058 0.000000
# 2 -0.003762 0.009084 -0.002327 0.000000 0.002296 0.000000
# 3 0.002678 -0.002327 0.015770 0.000000 0.003697 0.000000
# 4 0.000000 0.000000 0.000000 0.115984 0.000000 0.036071
# 5 0.003058 0.002296 0.003697 0.000000 0.030823 0.000000
# 6 0.000000 0.000000 0.000000 0.036071 0.000000 -0.002730
#
#
# Mechanical properties :
#
#
# Convention : Reuss Voigt Hill
#
# Bulk Modulus (GPa) = 32.69958 44.60877 38.65417
# Shear Modulus (GPa) = 25.18877 9.89856 17.54366
#
# Velocity S-wave (km/s) = 3.36897 2.11193 2.81160
# Velocity P-wave (km/s) = 5.46512 5.10367 5.28749
#
# Compressibility (1/GPa) = 0.03058144
#
# Stress axis : x y z
#
# Youngs Moduli (GPa) = 79.67561 110.07766 63.40969
#
# Poissons Ratio (x) = 0.41416 -0.16979
# Poissons Ratio (y) = 0.29977 0.14758
# Poissons Ratio (z) = -0.21335 0.25620
#
# Static dielectric constant tensor:
#      x y z
#    x 1.833900 0.000000 -0.022190 
#    y 0.000000 1.833750 0.000000 
#    z -0.022190 0.000000 1.963260 
# 
# From -- ./inp_files/189637.got.cif
#   From: 2010.05.17/outbox.cif.g08.bks.cpg/sg12_95_cif.got.tgz:189637.got - 2010.06.03 13:09:07.
