data_PCOD9219449
_publ_section_title
;
Structure prediction by ZEFSAII (Michael W. Deem and Ramdas Pophale) SiO2 
 PCOD9219449
Probable space group: C 2/M
;
_chemical_formula_sum "Si O2"
_cell_formula_units_Z 52
_cell_length_a 9.460162
_cell_length_b 22.283268
_cell_length_c 18.315121
_cell_angle_alpha 90.000000
_cell_angle_beta 137.917934
_cell_angle_gamma 90.000000
_cell_volume 2587.545567
_symmetry_space_group_name_H-M "C 2/M"
_symmetry_group_IT_number 12
_symmetry_cell_setting 'monoclinic'
loop_
_space_group_symop_operation_xyz
x,y,z
-x,y,-z
-x,-y,-z
x,-y,z
1/2+x,1/2+y,z
1/2-x,1/2+y,-z
1/2-x,1/2-y,-z
1/2+x,1/2-y,z
loop_
_atom_site_type_symbol
_atom_site_label
_atom_site_fract_x
_atom_site_fract_y
_atom_site_fract_z
Si Si1 0.223312 0.683088 0.604114
Si Si2 0.963797 0.131004 0.158089
Si Si3 0.349556 0.000000 0.155696
Si Si4 0.500000 0.139396 0.000000
Si Si5 0.614145 0.714058 0.674215
Si Si6 0.451106 0.500000 0.102115
Si Si7 0.534404 0.878882 0.179532
Si Si8 0.189898 0.204511 0.121421
O O1 0.375266 0.645519 0.715545
O O2 0.369886 0.699858 0.592352
O O3 0.164099 0.743256 0.625808
O O4 0.000000 0.653424 0.500000
O O5 0.073380 0.154010 0.126059
O O6 0.917931 0.060732 0.133892
O O7 0.740289 0.164325 0.083039
O O8 0.484542 0.060584 0.203454
O O9 0.188617 0.000000 0.161343
O O10 0.202838 0.000000 0.026824
O O11 0.478476 0.108522 0.912015
O O12 0.744901 0.652837 0.719545
O O13 0.701277 0.751101 0.778564
O O14 0.361797 0.828508 0.136977
O O15 0.000000 0.231085 0.000000
#
# Coordination Sequence:
#
# PCOD9219449 Si02
#       8
#     8   8   4   4   8   4   8   8
#     4  11  24  44  63  89 122 162 213 264 317 367
#     4  11  23  37  62  91 122 163 206 254 307 374
#     4  11  22  36  62  87 132 177 202 246 299 385
#     4  12  22  35  58  90 134 158 202 247 312 368
#     4  11  24  39  62  91 121 163 206 256 319 371
#     4  11  20  38  61  87 121 171 214 244 305 382
#     4  12  23  38  58  92 131 167 209 246 304 376
#     4  11  21  37  59  87 127 168 199 240 308 389
#
# _framework density 20.096264999999999
#
# number of rings (size 3 to 8) (size 9 to 14) (size 15 to 20)
#    0.000    0.769    7.692    0.462    1.077    1.846 
#    0.000    0.385    0.000    0.000    0.000    1.615 
#    0.000    0.000    0.000    0.000    0.000    0.000 
#
# Total GULP energy -145224.920135 kJ/mol
# GULP energy per Si atom -5585.573851 kJ/mol
# Density = 2.005052 g / cm^3
# Si number density = 20.096265 Si / 1000 Ang^3
#
#
#
# Elastic Constant Matrix: (Units=GPa)
#
#
# Indices 1 2 3 4 5 6 
#
# 1 106.4819 20.6476 20.9197 0.0000 31.0389 0.0000
# 2 20.6476 79.1482 25.0297 0.0000 9.4383 0.0000
# 3 20.9197 25.0297 97.2013 0.0003 26.4475 0.0001
# 4 0.0000 0.0000 0.0003 18.4619 0.0001 7.1905
# 5 31.0389 9.4383 26.4475 0.0001 34.3778 0.0000
# 6 0.0000 0.0000 0.0001 7.1905 0.0000 29.8233
#
#
#
# Elastic Compliance Matrix: (Units=1/GPa)
#
#
# Indices 1 2 3 4 5 6 
#
# 1 0.013144 -0.002324 0.001043 0.000000 -0.012032 0.000000
# 2 -0.002324 0.014214 -0.003376 0.000000 0.000793 0.000000
# 3 0.001043 -0.003376 0.013832 0.000000 -0.010657 0.000000
# 4 0.000000 0.000000 0.000000 0.059779 0.000000 -0.014413
# 5 -0.012032 0.000793 -0.010657 0.000000 0.047933 0.000000
# 6 0.000000 0.000000 0.000000 -0.014413 0.000000 0.037006
#
#
# Mechanical properties :
#
#
# Convention : Reuss Voigt Hill
#
# Bulk Modulus (GPa) = 31.37009 46.22503 38.79756
# Shear Modulus (GPa) = 24.28995 30.94824 27.61909
#
# Velocity S-wave (km/s) = 3.48038 3.92854 3.71123
# Velocity P-wave (km/s) = 5.63866 6.60527 6.14102
#
# Compressibility (1/GPa) = 0.03187750
#
# Stress axis : x y z
#
# Youngs Moduli (GPa) = 76.07864 70.35435 72.29529
#
# Poissons Ratio (x) = 0.16351 -0.07543
# Poissons Ratio (y) = 0.17682 0.24404
# Poissons Ratio (z) = -0.07938 0.23749
#
# Static dielectric constant tensor:
#      x y z
#    x 1.716780 0.000000 0.010460 
#    y 0.000000 1.733470 0.000000 
#    z 0.010460 0.000000 1.724020 
# 
# From -- ./inp_files/302392.got.cif
#   From: 2010.05.17/outbox.cif.g08.bks.cpg/sg12_152_cif.got.tgz:302392.got - 2010.06.03 13:09:07.
