data_PCOD9219016
_publ_section_title
;
Structure prediction by ZEFSAII (Michael W. Deem and Ramdas Pophale) SiO2 
 PCOD9219016
Probable space group: C 2/M
;
_chemical_formula_sum "Si O2"
_cell_formula_units_Z 48
_cell_length_a 23.984865
_cell_length_b 23.323390
_cell_length_c 14.278131
_cell_angle_alpha 90.000000
_cell_angle_beta 161.753711
_cell_angle_gamma 90.000000
_cell_volume 2500.843790
_symmetry_space_group_name_H-M "C 2/M"
_symmetry_group_IT_number 12
_symmetry_cell_setting 'monoclinic'
loop_
_space_group_symop_operation_xyz
x,y,z
-x,y,-z
-x,-y,-z
x,-y,z
1/2+x,1/2+y,z
1/2-x,1/2+y,-z
1/2-x,1/2-y,-z
1/2+x,1/2-y,z
loop_
_atom_site_type_symbol
_atom_site_label
_atom_site_fract_x
_atom_site_fract_y
_atom_site_fract_z
Si Si1 0.794894 0.334950 0.136341
Si Si2 0.761039 0.326961 0.376751
Si Si3 0.824167 0.938258 0.654362
Si Si4 0.014076 0.873633 0.816401
Si Si5 0.322520 0.203567 0.762242
Si Si6 0.651424 0.790033 0.971055
O O1 0.768273 0.331288 0.981499
O O2 0.000000 0.342582 0.500000
O O3 0.657606 0.379675 0.963341
O O4 0.724565 0.272869 0.061496
O O5 0.777797 0.380898 0.473683
O O6 0.686694 0.267365 0.297056
O O7 0.944132 0.304589 0.625045
O O8 0.629294 0.349098 0.086556
O O9 0.905271 0.927825 0.681042
O O10 0.731133 0.000000 0.513998
O O11 0.000000 0.940779 0.000000
O O12 0.860628 0.828221 0.550329
O O13 0.500000 0.176658 0.000000
O O14 0.330220 0.204304 0.887836
#
# Coordination Sequence:
#
# PCOD9219016 Si02
#       6
#     8   8   8   8   8   8
#     4  11  21  35  53  80 120 159 190 224 268 339
#     4  11  19  35  55  79 114 149 186 232 285 336
#     4   9  20  36  58  82 107 146 197 247 288 323
#     4  11  21  35  55  81 114 151 185 234 279 339
#     4  12  22  33  51  86 121 151 181 224 289 355
#     4  11  22  33  52  80 121 153 185 221 274 349
#
# _framework density 19.193522000000002
#
# number of rings (size 3 to 8) (size 9 to 14) (size 15 to 20)
#    0.000    1.167    5.000    2.500    2.333    2.000 
#    0.000    0.000    0.000    6.000    0.000    1.167 
#    0.000    0.000    0.000    0.000    0.000    0.000 
#
# Total GULP energy -133629.758775 kJ/mol
# GULP energy per Si atom -5567.906616 kJ/mol
# Density = 1.914984 g / cm^3
# Si number density = 19.193522 Si / 1000 Ang^3
#
#
#
# Elastic Constant Matrix: (Units=GPa)
#
#
# Indices 1 2 3 4 5 6 
#
# 1 123.2768 16.9446 23.6848 0.0000 1.6600 0.0000
# 2 16.9446 50.9129 24.6020 0.0000 -3.3916 0.0000
# 3 23.6848 24.6020 68.0916 0.0000 14.7284 0.0000
# 4 0.0000 0.0000 0.0000 7.8082 0.0000 5.3115
# 5 1.6600 -3.3916 14.7284 0.0000 32.8246 0.0000
# 6 0.0000 0.0000 0.0000 5.3115 0.0000 11.8575
#
#
#
# Elastic Compliance Matrix: (Units=1/GPa)
#
#
# Indices 1 2 3 4 5 6 
#
# 1 0.008829 -0.001649 -0.002594 0.000000 0.000547 0.000000
# 2 -0.001649 0.025648 -0.010283 0.000000 0.007347 0.000000
# 3 -0.002594 -0.010283 0.021602 0.000000 -0.010624 0.000000
# 4 0.000000 0.000000 0.000000 0.184196 0.000000 -0.082509
# 5 0.000547 0.007347 -0.010624 0.000000 0.035964 0.000000
# 6 0.000000 0.000000 0.000000 -0.082509 0.000000 0.121294
#
#
# Mechanical properties :
#
#
# Convention : Reuss Voigt Hill
#
# Bulk Modulus (GPa) = 36.99758 41.41599 39.20678
# Shear Modulus (GPa) = 11.47860 22.30139 16.89000
#
# Velocity S-wave (km/s) = 2.44815 3.41240 2.96967
# Velocity P-wave (km/s) = 5.22582 6.09515 5.67715
#
# Compressibility (1/GPa) = 0.02702879
#
# Stress axis : x y z
#
# Youngs Moduli (GPa) = 113.25765 38.98882 46.29299
#
# Poissons Ratio (x) = 0.06428 0.12008
# Poissons Ratio (y) = 0.18673 0.47602
# Poissons Ratio (z) = 0.29377 0.40091
#
# Static dielectric constant tensor:
#      x y z
#    x 1.774410 0.000000 0.009080 
#    y 0.000000 1.695300 0.000000 
#    z 0.009080 0.000000 1.720360 
# 
# From -- ./inp_files/242073.got.cif
#   From: 2010.05.17/outbox.cif.g08.bks.cpg/sg12_122_cif.got.tgz:242073.got - 2010.06.03 13:09:07.
