data_PCOD9219435
_publ_section_title
;
Structure prediction by ZEFSAII (Michael W. Deem and Ramdas Pophale) SiO2 
 PCOD9219435
Probable space group: C 2/M
;
_chemical_formula_sum "Si O2"
_cell_formula_units_Z 48
_cell_length_a 12.986940
_cell_length_b 23.647907
_cell_length_c 10.713922
_cell_angle_alpha 90.000000
_cell_angle_beta 50.910449
_cell_angle_gamma 90.000000
_cell_volume 2553.877544
_symmetry_space_group_name_H-M "C 2/M"
_symmetry_group_IT_number 12
_symmetry_cell_setting 'monoclinic'
loop_
_space_group_symop_operation_xyz
x,y,z
-x,y,-z
-x,-y,-z
x,-y,z
1/2+x,1/2+y,z
1/2-x,1/2+y,-z
1/2-x,1/2-y,-z
1/2+x,1/2-y,z
loop_
_atom_site_type_symbol
_atom_site_label
_atom_site_fract_x
_atom_site_fract_y
_atom_site_fract_z
Si Si1 0.693714 0.262150 0.183610
Si Si2 0.618497 0.157343 0.818195
Si Si3 0.899653 0.763280 0.343678
Si Si4 0.307188 0.934009 0.730342
Si Si5 0.363386 0.665139 0.165599
Si Si6 0.087046 0.432735 0.632555
O O1 0.760121 0.318553 0.191315
O O2 0.535027 0.263625 0.317387
O O3 0.747857 0.208781 0.219347
O O4 0.750000 0.250000 0.000000
O O5 0.572340 0.213273 0.777805
O O6 0.641649 0.108282 0.698297
O O7 0.500000 0.139162 0.000000
O O8 0.750000 0.750000 0.500000
O O9 0.888673 0.825432 0.291568
O O10 0.181574 0.895063 0.848077
O O11 0.431549 0.919428 0.724120
O O12 0.348470 0.924101 0.553806
O O13 0.281244 0.000000 0.765129
O O14 0.500000 0.683449 0.000000
O O15 0.098458 0.500000 0.652888
#
# Coordination Sequence:
#
# PCOD9219435 Si02
#       6
#     8   8   8   8   8   8
#     4  11  20  38  56  79 122 159 184 231 293 349
#     4  11  21  33  58  86 116 156 193 239 291 344
#     4  11  22  36  55  84 115 152 198 235 284 348
#     4   9  19  36  59  82 112 151 194 246 293 341
#     4  11  21  33  56  82 110 149 193 242 287 344
#     4   9  19  37  58  85 115 149 196 244 292 344
#
# _framework density 18.79495
#
# number of rings (size 3 to 8) (size 9 to 14) (size 15 to 20)
#    0.000    1.667    3.333    4.000    0.000    4.667 
#    0.000    0.000    0.000    1.000    0.000    3.500 
#    0.000    0.000    0.000    0.000    0.000    0.000 
#
# Total GULP energy -133689.963683 kJ/mol
# GULP energy per Si atom -5570.415153 kJ/mol
# Density = 1.875217 g / cm^3
# Si number density = 18.794950 Si / 1000 Ang^3
#
#
#
# Elastic Constant Matrix: (Units=GPa)
#
#
# Indices 1 2 3 4 5 6 
#
# 1 123.4258 44.6658 40.6575 0.0000 -20.9379 0.0000
# 2 44.6658 60.9452 12.6460 0.0000 -1.1092 0.0000
# 3 40.6575 12.6460 54.3900 0.0000 -12.8415 0.0000
# 4 0.0000 0.0000 0.0000 20.0822 0.0000 5.2837
# 5 -20.9379 -1.1092 -12.8415 0.0000 36.9936 0.0000
# 6 0.0000 0.0000 0.0000 5.2837 0.0000 35.5957
#
#
#
# Elastic Compliance Matrix: (Units=1/GPa)
#
#
# Indices 1 2 3 4 5 6 
#
# 1 0.014911 -0.009229 -0.007705 0.000000 0.005488 0.000000
# 2 -0.009229 0.022984 0.000528 0.000000 -0.004351 0.000000
# 3 -0.007705 0.000528 0.025049 0.000000 0.004351 0.000000
# 4 0.000000 0.000000 0.000000 0.051819 0.000000 -0.007692
# 5 0.005488 -0.004351 0.004351 0.000000 0.031518 0.000000
# 6 0.000000 0.000000 0.000000 -0.007692 0.000000 0.029235
#
#
# Mechanical properties :
#
#
# Convention : Reuss Voigt Hill
#
# Bulk Modulus (GPa) = 33.18738 48.29996 40.74367
# Shear Modulus (GPa) = 22.89674 27.92043 25.40858
#
# Velocity S-wave (km/s) = 3.49411 3.85844 3.68079
# Velocity P-wave (km/s) = 5.82876 6.75309 6.30788
#
# Compressibility (1/GPa) = 0.03013194
#
# Stress axis : x y z
#
# Youngs Moduli (GPa) = 67.06476 43.50941 39.92113
#
# Poissons Ratio (x) = 0.40157 0.30757
# Poissons Ratio (y) = 0.61897 -0.02108
# Poissons Ratio (z) = 0.51670 -0.02297
#
# Static dielectric constant tensor:
#      x y z
#    x 1.706610 0.000000 0.013680 
#    y 0.000000 1.656560 0.000000 
#    z 0.013680 0.000000 1.872430 
# 
# From -- ./inp_files/135191.got.cif
#   From: 2010.05.17/outbox.cif.g08.bks.cpg/sg12_68_cif.got.tgz:135191.got - 2010.06.03 13:09:07.
