data_PCOD9219401
_publ_section_title
;
Structure prediction by ZEFSAII (Michael W. Deem and Ramdas Pophale) SiO2 
 PCOD9219401
Probable space group: C 2/M
;
_chemical_formula_sum "Si O2"
_cell_formula_units_Z 24
_cell_length_a 15.945121
_cell_length_b 16.771818
_cell_length_c 7.292847
_cell_angle_alpha 90.000000
_cell_angle_beta 27.570423
_cell_angle_gamma 90.000000
_cell_volume 902.681498
_symmetry_space_group_name_H-M "C 2/M"
_symmetry_group_IT_number 12
_symmetry_cell_setting 'monoclinic'
loop_
_space_group_symop_operation_xyz
x,y,z
-x,y,-z
-x,-y,-z
x,-y,z
1/2+x,1/2+y,z
1/2-x,1/2+y,-z
1/2-x,1/2-y,-z
1/2+x,1/2-y,z
loop_
_atom_site_type_symbol
_atom_site_label
_atom_site_fract_x
_atom_site_fract_y
_atom_site_fract_z
Si Si1 0.364464 0.333205 0.593910
Si Si2 0.795239 0.000000 0.575052
Si Si3 0.962491 0.336470 0.289006
Si Si4 0.365660 0.000000 0.505785
O O1 0.500000 0.327338 0.500000
O O2 0.392552 0.419283 0.446633
O O3 0.388417 0.252777 0.429987
O O4 0.148737 0.332044 0.040437
O O5 0.756701 0.000000 0.436802
O O6 0.587854 0.000000 0.058231
O O7 0.842503 0.407695 0.610343
O O8 0.000000 0.358464 0.000000
#
# Coordination Sequence:
#
# PCOD9219401 Si02
#       4
#     8   4   8   4
#     4  11  22  36  56  84 112 140 177 227 274 316
#     4   9  17  34  56  77 106 145 184 211 260 333
#     4  11  20  37  59  81 106 145 187 218 263 323
#     4   9  16  34  58  78 100 148 188 210 254 334
#
# _framework density 26.587448999999999
#
# number of rings (size 3 to 8) (size 9 to 14) (size 15 to 20)
#    0.000    1.667    6.667    2.500    0.000    0.000 
#    0.000    3.333    0.000    0.000    0.000    0.000 
#    0.000    0.000    0.000    0.000    0.000    0.000 
#
# Total GULP energy -67019.496752 kJ/mol
# GULP energy per Si atom -5584.958063 kJ/mol
# Density = 2.652694 g / cm^3
# Si number density = 26.587449 Si / 1000 Ang^3
#
#
#
# Elastic Constant Matrix: (Units=GPa)
#
#
# Indices 1 2 3 4 5 6 
#
# 1 127.3779 56.0688 24.1045 -0.0056 -23.9690 0.0031
# 2 56.0688 319.1161 31.8889 -0.0038 3.1869 0.0031
# 3 24.1045 31.8889 54.8352 -0.0183 -13.1984 0.0083
# 4 -0.0056 -0.0038 -0.0183 16.4743 0.0066 -11.6777
# 5 -23.9690 3.1869 -13.1984 0.0066 29.3718 -0.0052
# 6 0.0031 0.0031 0.0083 -11.6777 -0.0052 44.6002
#
#
#
# Elastic Compliance Matrix: (Units=1/GPa)
#
#
# Indices 1 2 3 4 5 6 
#
# 1 0.010430 -0.001747 -0.001654 -0.000002 0.007958 0.000000
# 2 -0.001747 0.003670 -0.002024 -0.000001 -0.002733 0.000000
# 3 -0.001654 -0.002024 0.022278 0.000022 0.008881 0.000003
# 4 -0.000002 -0.000001 0.000022 0.074534 -0.000005 0.019515
# 5 0.007958 -0.002733 0.008881 -0.000005 0.044828 0.000002
# 6 0.000000 0.000000 0.000003 0.019515 0.000002 0.027531
#
#
# Mechanical properties :
#
#
# Convention : Reuss Voigt Hill
#
# Bulk Modulus (GPa) = 39.17139 80.60594 59.88867
# Shear Modulus (GPa) = 24.67550 44.04039 34.35795
#
# Velocity S-wave (km/s) = 3.04976 4.07435 3.59870
# Velocity P-wave (km/s) = 5.21214 7.24685 6.31202
#
# Compressibility (1/GPa) = 0.02552883
#
# Stress axis : x y z
#
# Youngs Moduli (GPa) = 95.87812 272.46794 44.88686
#
# Poissons Ratio (x) = 0.47594 0.07422
# Poissons Ratio (y) = 0.16748 0.09087
# Poissons Ratio (z) = 0.15854 0.55158
#
# Static dielectric constant tensor:
#      x y z
#    x 2.014250 0.000000 0.103990 
#    y 0.000000 2.210590 0.000000 
#    z 0.103990 0.000000 2.198760 
# 
# From -- ./inp_files/36339.got.cif
#   From: 2010.05.17/outbox.cif.g08.bks.cpg/sg12_19_cif.got.tgz:36339.got - 2010.06.03 13:09:07.
