data_PCOD9219896
_publ_section_title
;
Structure prediction by ZEFSAII (Michael W. Deem and Ramdas Pophale) SiO2 
 PCOD9219896
Probable space group: C 2/M
;
_chemical_formula_sum "Si O2"
_cell_formula_units_Z 40
_cell_length_a 24.839199
_cell_length_b 7.695583
_cell_length_c 9.864846
_cell_angle_alpha 90.000000
_cell_angle_beta 75.970226
_cell_angle_gamma 90.000000
_cell_volume 1829.435956
_symmetry_space_group_name_H-M "C 2/M"
_symmetry_group_IT_number 12
_symmetry_cell_setting 'monoclinic'
loop_
_space_group_symop_operation_xyz
x,y,z
-x,y,-z
-x,-y,-z
x,-y,z
1/2+x,1/2+y,z
1/2-x,1/2+y,-z
1/2-x,1/2-y,-z
1/2+x,1/2-y,z
loop_
_atom_site_type_symbol
_atom_site_label
_atom_site_fract_x
_atom_site_fract_y
_atom_site_fract_z
Si Si1 0.919374 0.713065 0.907637
Si Si2 0.984834 0.287484 0.357744
Si Si3 0.764362 0.706299 0.337924
Si Si4 0.302099 0.201078 0.875831
Si Si5 0.389847 0.787813 0.223785
O O1 0.921578 0.500000 0.905520
O O2 0.860885 0.779532 0.882312
O O3 0.969145 0.768153 0.779977
O O4 0.919656 0.763771 0.065382
O O5 0.984856 0.500000 0.361237
O O6 0.925457 0.233632 0.332567
O O7 0.000000 0.228901 0.500000
O O8 0.765982 0.500000 0.319058
O O9 0.750000 0.750000 0.500000
O O10 0.717343 0.772622 0.265363
O O11 0.826110 0.773119 0.264389
O O12 0.310557 0.000000 0.895727
O O13 0.250000 0.250000 0.000000
O O14 0.388408 0.000000 0.225501
#
# Coordination Sequence:
#
# PCOD9219896 Si02
#       5
#     8   8   8   8   8
#     4   9  17  30  49  75 107 142 179 225 277 326
#     4   9  17  27  45  74 106 139 178 228 282 323
#     4  11  23  38  56  83 116 151 188 230 282 335
#     4  11  21  36  58  85 116 149 187 231 277 333
#     4   9  17  31  49  73 107 142 180 227 276 328
#
# _framework density 21.864661999999999
#
# number of rings (size 3 to 8) (size 9 to 14) (size 15 to 20)
#    0.000    2.200    2.000    1.800    2.800    2.400 
#    0.000    0.000    0.000    0.000    0.000    8.400 
#    0.000    0.000    0.000    0.000    0.000    0.000 
#
# Total GULP energy -111692.450820 kJ/mol
# GULP energy per Si atom -5584.622541 kJ/mol
# Density = 2.181490 g / cm^3
# Si number density = 21.864662 Si / 1000 Ang^3
#
#
#
# Elastic Constant Matrix: (Units=GPa)
#
#
# Indices 1 2 3 4 5 6 
#
# 1 85.4224 -5.0033 14.0484 0.0000 20.3012 0.0000
# 2 -5.0033 30.2599 -17.0097 0.0000 -5.5861 0.0000
# 3 14.0484 -17.0097 96.9035 0.0000 12.0106 0.0000
# 4 0.0000 0.0000 0.0000 16.2665 0.0000 2.1185
# 5 20.3012 -5.5861 12.0106 0.0000 38.9337 0.0000
# 6 0.0000 0.0000 0.0000 2.1185 0.0000 12.3543
#
#
#
# Elastic Compliance Matrix: (Units=1/GPa)
#
#
# Indices 1 2 3 4 5 6 
#
# 1 0.013484 0.000407 -0.001060 0.000000 -0.006646 0.000000
# 2 0.000407 0.037117 0.006054 0.000000 0.003246 0.000000
# 3 -0.001060 0.006054 0.011811 0.000000 -0.002223 0.000000
# 4 0.000000 0.000000 0.000000 0.062880 0.000000 -0.010783
# 5 -0.006646 0.003246 -0.002223 0.000000 0.030301 0.000000
# 6 0.000000 0.000000 0.000000 -0.010783 0.000000 0.082792
#
#
# Mechanical properties :
#
#
# Convention : Reuss Voigt Hill
#
# Bulk Modulus (GPa) = 13.65853 21.85071 17.75462
# Shear Modulus (GPa) = 19.84220 28.21427 24.02824
#
# Velocity S-wave (km/s) = 3.01574 3.59612 3.31864
# Velocity P-wave (km/s) = 4.28797 5.22093 4.77728
#
# Compressibility (1/GPa) = 0.07321432
#
# Stress axis : x y z
#
# Youngs Moduli (GPa) = 74.16176 26.94218 84.66471
#
# Poissons Ratio (x) = -0.01097 0.08972
# Poissons Ratio (y) = -0.03019 -0.51255
# Poissons Ratio (z) = 0.07859 -0.16310
#
# Static dielectric constant tensor:
#      x y z
#    x 1.984270 0.000000 0.045740 
#    y 0.000000 1.854870 0.000000 
#    z 0.045740 0.000000 1.765700 
# 
# From -- ./inp_files/92778.got.cif
#   From: 2010.05.17/outbox.cif.g08.bks.cpg/sg12_47_cif.got.tgz:92778.got - 2010.06.03 13:09:07.
