data_PCOD9219830
_publ_section_title
;
Structure prediction by ZEFSAII (Michael W. Deem and Ramdas Pophale) SiO2 
 PCOD9219830
Probable space group: C 2/M
;
_chemical_formula_sum "Si O2"
_cell_formula_units_Z 48
_cell_length_a 8.986570
_cell_length_b 30.156103
_cell_length_c 8.105243
_cell_angle_alpha 90.000000
_cell_angle_beta 89.400111
_cell_angle_gamma 90.000000
_cell_volume 2196.399898
_symmetry_space_group_name_H-M "C 2/M"
_symmetry_group_IT_number 12
_symmetry_cell_setting 'monoclinic'
loop_
_space_group_symop_operation_xyz
x,y,z
-x,y,-z
-x,-y,-z
x,-y,z
1/2+x,1/2+y,z
1/2-x,1/2+y,-z
1/2-x,1/2-y,-z
1/2+x,1/2-y,z
loop_
_atom_site_type_symbol
_atom_site_label
_atom_site_fract_x
_atom_site_fract_y
_atom_site_fract_z
Si Si1 0.766641 0.950651 0.597717
Si Si2 0.270732 0.350868 0.668539
Si Si3 0.076427 0.140234 0.843205
Si Si4 0.078083 0.719156 0.820390
Si Si5 0.275173 0.798747 0.668707
Si Si6 0.590543 0.546898 0.762933
O O1 0.707416 0.900929 0.640295
O O2 0.810875 0.948603 0.403800
O O3 0.921613 0.953207 0.697249
O O4 0.693175 0.000000 0.624647
O O5 0.446333 0.355970 0.707442
O O6 0.181570 0.324643 0.811820
O O7 0.257201 0.317890 0.512040
O O8 0.228192 0.161019 0.785496
O O9 0.110861 0.089086 0.875291
O O10 0.000000 0.162349 0.000000
O O11 0.175261 0.759410 0.746157
O O12 0.944346 0.713252 0.693372
O O13 0.000000 0.726281 0.000000
O O14 0.623663 0.500000 0.843903
#
# Coordination Sequence:
#
# PCOD9219830 Si02
#       6
#     8   8   8   8   8   8
#     4   8  14  29  55  86 118 154 197 244 287 336
#     4  11  22  39  63  91 118 159 205 244 289 353
#     4  11  21  35  58  89 126 160 196 247 303 350
#     4  12  26  44  64  89 122 153 191 247 307 357
#     4  12  24  42  62  88 117 157 201 243 292 359
#     4   8  14  27  50  83 121 156 194 243 293 343
#
# _framework density 21.853945
#
# number of rings (size 3 to 8) (size 9 to 14) (size 15 to 20)
#    0.000    1.667    1.667    5.500    0.000    1.667 
#    0.000    0.000    0.000    3.500    0.000    0.000 
#    0.000    0.000    0.000    0.000    0.000    0.000 
#
# Total GULP energy -133835.809685 kJ/mol
# GULP energy per Si atom -5576.492070 kJ/mol
# Density = 2.180420 g / cm^3
# Si number density = 21.853945 Si / 1000 Ang^3
#
#
#
# Elastic Constant Matrix: (Units=GPa)
#
#
# Indices 1 2 3 4 5 6 
#
# 1 52.4339 28.8659 -3.4544 0.0000 -0.9722 0.0000
# 2 28.8659 170.8597 22.9424 0.0000 -18.8465 0.0000
# 3 -3.4544 22.9424 62.2974 0.0000 -9.5049 0.0000
# 4 0.0000 0.0000 0.0000 62.4722 0.0000 -20.3974
# 5 -0.9722 -18.8465 -9.5049 0.0000 24.2295 0.0000
# 6 0.0000 0.0000 0.0000 -20.3974 0.0000 21.3707
#
#
#
# Elastic Compliance Matrix: (Units=1/GPa)
#
#
# Indices 1 2 3 4 5 6 
#
# 1 0.021476 -0.004113 0.002499 0.000000 -0.001358 0.000000
# 2 -0.004113 0.007364 -0.002224 0.000000 0.004690 0.000000
# 3 0.002499 -0.002224 0.017828 0.000000 0.005364 0.000000
# 4 0.000000 0.000000 0.000000 0.023254 0.000000 0.022195
# 5 -0.001358 0.004690 0.005364 0.000000 0.046970 0.000000
# 6 0.000000 0.000000 0.000000 0.022195 0.000000 0.067977
#
#
# Mechanical properties :
#
#
# Convention : Reuss Voigt Hill
#
# Bulk Modulus (GPa) = 25.64830 42.47763 34.06297
# Shear Modulus (GPa) = 24.32580 37.43029 30.87805
#
# Velocity S-wave (km/s) = 3.33995 4.14302 3.76297
# Velocity P-wave (km/s) = 5.16095 6.50888 5.87371
#
# Compressibility (1/GPa) = 0.03898893
#
# Stress axis : x y z
#
# Youngs Moduli (GPa) = 46.56441 135.80101 56.09117
#
# Poissons Ratio (x) = 0.55861 -0.14015
# Poissons Ratio (y) = 0.19154 0.12477
# Poissons Ratio (z) = -0.11634 0.30207
#
# Static dielectric constant tensor:
#      x y z
#    x 1.754540 0.000000 0.000740 
#    y 0.000000 1.884170 0.000000 
#    z 0.000740 0.000000 1.833370 
# 
# From -- ./inp_files/42216.got.cif
#   From: 2010.05.17/outbox.cif.g08.bks.cpg/sg12_22_cif.got.tgz:42216.got - 2010.06.03 13:09:07.
