data_PCOD9219375
_publ_section_title
;
Structure prediction by ZEFSAII (Michael W. Deem and Ramdas Pophale) SiO2 
 PCOD9219375
Probable space group: C 2/M
;
_chemical_formula_sum "Si O2"
_cell_formula_units_Z 56
_cell_length_a 22.649777
_cell_length_b 15.459812
_cell_length_c 17.405600
_cell_angle_alpha 90.000000
_cell_angle_beta 26.141276
_cell_angle_gamma 90.000000
_cell_volume 2685.269179
_symmetry_space_group_name_H-M "C 2/M"
_symmetry_group_IT_number 12
_symmetry_cell_setting 'monoclinic'
loop_
_space_group_symop_operation_xyz
x,y,z
-x,y,-z
-x,-y,-z
x,-y,z
1/2+x,1/2+y,z
1/2-x,1/2+y,-z
1/2-x,1/2-y,-z
1/2+x,1/2-y,z
loop_
_atom_site_type_symbol
_atom_site_label
_atom_site_fract_x
_atom_site_fract_y
_atom_site_fract_z
Si Si1 0.495324 0.286175 0.697969
Si Si2 0.108772 0.905661 0.303986
Si Si3 0.461999 0.757710 0.190062
Si Si4 0.307379 0.836116 0.175424
Si Si5 0.887581 0.674360 0.566569
Si Si6 0.866154 0.095741 0.208889
Si Si7 0.263781 0.101154 0.394838
O O1 0.397508 0.335187 0.754692
O O2 0.453974 0.265642 0.832533
O O3 0.542065 0.202479 0.595337
O O4 0.619350 0.353119 0.563376
O O5 0.251540 0.901171 0.177460
O O6 0.000000 0.892458 0.500000
O O7 0.078514 0.000000 0.306713
O O8 0.381178 0.675560 0.250484
O O9 0.361108 0.835599 0.328645
O O10 0.560516 0.790846 0.009141
O O11 0.195060 0.760524 0.312460
O O12 0.313805 0.884764 0.248546
O O13 0.767803 0.608568 0.685763
O O14 0.000000 0.653319 0.500000
O O15 0.862576 0.000000 0.249392
O O16 0.000000 0.099311 0.000000
O O17 0.263176 0.000000 0.414943
#
# Coordination Sequence:
#
# PCOD9219375 Si02
#       7
#     8   8   8   8   8   8   8
#     4  11  22  37  59  90 123 162 204 251 315 381
#     4  11  20  36  62  92 121 161 213 259 307 376
#     4  12  24  39  59  92 131 164 202 256 324 380
#     4  11  20  37  62  90 122 162 204 258 311 380
#     4  11  20  40  65  87 113 159 215 261 307 368
#     4  11  23  41  65  89 117 163 219 263 303 365
#     4  11  22  38  64  93 123 161 207 259 318 385
#
# _framework density 20.854520000000001
#
# number of rings (size 3 to 8) (size 9 to 14) (size 15 to 20)
#    0.000    0.857    8.571    1.714    0.000    3.714 
#    0.000    0.000    0.000    0.000    0.000    0.000 
#    0.000    0.000    0.000    0.000    0.000    0.000 
#
# Total GULP energy -156293.002335 kJ/mol
# GULP energy per Si atom -5581.892941 kJ/mol
# Density = 2.080705 g / cm^3
# Si number density = 20.854520 Si / 1000 Ang^3
#
#
#
# Elastic Constant Matrix: (Units=GPa)
#
#
# Indices 1 2 3 4 5 6 
#
# 1 104.0718 13.0074 14.3818 0.0001 -1.2266 -0.0001
# 2 13.0074 88.6157 12.6931 0.0002 -4.5673 -0.0001
# 3 14.3818 12.6931 38.5856 0.0002 -1.6689 -0.0002
# 4 0.0001 0.0002 0.0002 8.3237 -0.0002 -7.7664
# 5 -1.2266 -4.5673 -1.6689 -0.0002 27.4468 0.0001
# 6 -0.0001 -0.0001 -0.0002 -7.7664 0.0001 8.2338
#
#
#
# Elastic Compliance Matrix: (Units=1/GPa)
#
#
# Indices 1 2 3 4 5 6 
#
# 1 0.010215 -0.000997 -0.003476 0.000000 0.000079 0.000000
# 2 -0.000997 0.012023 -0.003508 0.000000 0.001743 0.000000
# 3 -0.003476 -0.003508 0.028409 -0.000003 0.000988 -0.000002
# 4 0.000000 0.000000 -0.000003 1.001886 0.000002 0.945015
# 5 0.000079 0.001743 0.000988 0.000002 0.036788 0.000002
# 6 0.000000 0.000000 -0.000002 0.945015 0.000002 1.012824
#
#
# Mechanical properties :
#
#
# Convention : Reuss Voigt Hill
#
# Bulk Modulus (GPa) = 28.83149 34.60420 31.71784
# Shear Modulus (GPa) = 2.34778 21.54691 11.94735
#
# Velocity S-wave (km/s) = 1.06218 3.21783 2.39611
# Velocity P-wave (km/s) = 3.91910 5.51680 4.78511
#
# Compressibility (1/GPa) = 0.03468430
#
# Stress axis : x y z
#
# Youngs Moduli (GPa) = 97.89853 83.17117 35.20051
#
# Poissons Ratio (x) = 0.08296 0.12235
# Poissons Ratio (y) = 0.09764 0.12349
# Poissons Ratio (z) = 0.34027 0.29177
#
# Static dielectric constant tensor:
#      x y z
#    x 1.782830 0.000000 -0.014270 
#    y 0.000000 1.757090 0.000000 
#    z -0.014270 0.000000 1.776140 
# 
# From -- ./inp_files/156513.got.cif
#   From: 2010.05.17/outbox.cif.g08.bks.cpg/sg12_79_cif.got.tgz:156513.got - 2010.06.03 13:09:07.
