data_PCOD9219060
_publ_section_title
;
Structure prediction by ZEFSAII (Michael W. Deem and Ramdas Pophale) SiO2 
 PCOD9219060
Probable space group: C 2/M
;
_chemical_formula_sum "Si O2"
_cell_formula_units_Z 64
_cell_length_a 24.680768
_cell_length_b 27.041361
_cell_length_c 9.373620
_cell_angle_alpha 90.000000
_cell_angle_beta 147.913109
_cell_angle_gamma 90.000000
_cell_volume 3323.200217
_symmetry_space_group_name_H-M "C 2/M"
_symmetry_group_IT_number 12
_symmetry_cell_setting 'monoclinic'
loop_
_space_group_symop_operation_xyz
x,y,z
-x,y,-z
-x,-y,-z
x,-y,z
1/2+x,1/2+y,z
1/2-x,1/2+y,-z
1/2-x,1/2-y,-z
1/2+x,1/2-y,z
loop_
_atom_site_type_symbol
_atom_site_label
_atom_site_fract_x
_atom_site_fract_y
_atom_site_fract_z
Si Si1 0.457093 0.244068 0.558476
Si Si2 0.245927 0.443741 0.877086
Si Si3 0.069191 0.060008 0.524769
Si Si4 0.164105 0.785749 0.118006
Si Si5 0.676545 0.841606 0.718135
Si Si6 0.230871 0.192512 0.787535
Si Si7 0.603775 0.443523 0.062400
Si Si8 0.378213 0.649953 0.716365
O O1 0.500000 0.231991 0.500000
O O2 0.416671 0.193368 0.539060
O O3 0.356278 0.277204 0.322865
O O4 0.544162 0.276420 0.826218
O O5 0.208561 0.500000 0.810041
O O6 0.165849 0.400092 0.676128
O O7 0.322914 0.443837 0.913029
O O8 0.315878 0.429475 0.170826
O O9 0.000000 0.080475 0.500000
O O10 0.062492 0.000000 0.514303
O O11 0.008419 0.072813 0.245829
O O12 0.222635 0.824092 0.144058
O O13 0.212368 0.733019 0.183825
O O14 0.172900 0.808841 0.294116
O O15 0.696958 0.829845 0.930507
O O16 0.171427 0.156041 0.549192
O O17 0.598934 0.500000 0.104849
O O18 0.641117 0.403713 0.258107
O O19 0.500000 0.658262 0.000000
#
# Coordination Sequence:
#
# PCOD9219060 Si02
#       8
#     8   8   8   8   8   8   8   8
#     4  11  19  37  59  82 107 138 183 223 277 325
#     4   9  17  31  52  78 106 137 181 232 266 310
#     4   7  12  24  44  68  94 127 168 213 255 295
#     4  11  21  40  56  78 111 143 180 231 266 332
#     4  11  21  34  61  85 103 143 188 222 274 328
#     4  11  23  36  54  81 112 142 181 222 272 329
#     4   9  18  34  49  70 106 147 184 216 259 324
#     4  12  24  34  50  79 111 152 180 214 275 318
#
# _framework density 19.258543
#
# number of rings (size 3 to 8) (size 9 to 14) (size 15 to 20)
#    0.000    1.875    5.000    2.625    1.750    0.250 
#    2.250    0.625    0.000    0.375    0.000    0.000 
#    0.000    2.000    0.000    0.000    0.000    0.000 
#
# Total GULP energy -178382.260025 kJ/mol
# GULP energy per Si atom -5574.445626 kJ/mol
# Density = 1.921471 g / cm^3
# Si number density = 19.258543 Si / 1000 Ang^3
#
#
#
# Elastic Constant Matrix: (Units=GPa)
#
#
# Indices 1 2 3 4 5 6 
#
# 1 53.5787 24.0235 12.2027 0.0000 -1.0976 0.0000
# 2 24.0235 86.8191 4.4361 0.0000 -3.2390 0.0000
# 3 12.2027 4.4361 24.1886 0.0000 -5.1146 0.0000
# 4 0.0000 0.0000 0.0000 22.1227 0.0000 -1.4842
# 5 -1.0976 -3.2390 -5.1146 0.0000 17.9763 0.0000
# 6 0.0000 0.0000 0.0000 -1.4842 0.0000 24.8941
#
#
#
# Elastic Compliance Matrix: (Units=1/GPa)
#
#
# Indices 1 2 3 4 5 6 
#
# 1 0.024009 -0.006160 -0.011605 0.000000 -0.002946 0.000000
# 2 -0.006160 0.013250 0.001174 0.000000 0.002345 0.000000
# 3 -0.011605 0.001174 0.049876 0.000000 0.013694 0.000000
# 4 0.000000 0.000000 0.000000 0.045384 0.000000 0.002706
# 5 -0.002946 0.002345 0.013694 0.000000 0.059768 0.000000
# 6 0.000000 0.000000 0.000000 0.002706 0.000000 0.040331
#
#
# Mechanical properties :
#
#
# Convention : Reuss Voigt Hill
#
# Bulk Modulus (GPa) = 18.53500 27.32346 22.92923
# Shear Modulus (GPa) = 17.61885 21.26023 19.43954
#
# Velocity S-wave (km/s) = 3.02795 3.32616 3.18055
# Velocity P-wave (km/s) = 4.67652 5.38234 5.04180
#
# Compressibility (1/GPa) = 0.05395200
#
# Stress axis : x y z
#
# Youngs Moduli (GPa) = 41.65096 75.46965 20.04953
#
# Poissons Ratio (x) = 0.46492 0.23268
# Poissons Ratio (y) = 0.25659 -0.02353
# Poissons Ratio (z) = 0.48337 -0.08857
#
# Static dielectric constant tensor:
#      x y z
#    x 1.699950 0.000000 0.004690 
#    y 0.000000 1.706400 0.000000 
#    z 0.004690 0.000000 1.695680 
# 
# From -- ./inp_files/100225.got.cif
#   From: 2010.05.17/outbox.cif.g08.bks.cpg/sg12_51_cif.got.tgz:100225.got - 2010.06.03 13:09:07.
