data_PCOD9219115
_publ_section_title
;
Structure prediction by ZEFSAII (Michael W. Deem and Ramdas Pophale) SiO2 
 PCOD9219115
Probable space group: C 2/M
;
_chemical_formula_sum "Si O2"
_cell_formula_units_Z 38
_cell_length_a 10.884556
_cell_length_b 26.938202
_cell_length_c 5.341799
_cell_angle_alpha 90.000000
_cell_angle_beta 87.326760
_cell_angle_gamma 90.000000
_cell_volume 1564.566384
_symmetry_space_group_name_H-M "C 2/M"
_symmetry_group_IT_number 12
_symmetry_cell_setting 'monoclinic'
loop_
_space_group_symop_operation_xyz
x,y,z
-x,y,-z
-x,-y,-z
x,-y,z
1/2+x,1/2+y,z
1/2-x,1/2+y,-z
1/2-x,1/2-y,-z
1/2+x,1/2-y,z
loop_
_atom_site_type_symbol
_atom_site_label
_atom_site_fract_x
_atom_site_fract_y
_atom_site_fract_z
Si Si1 0.000000 0.271084 0.500000
Si Si2 0.573769 0.315230 0.773848
Si Si3 0.938507 0.920097 0.750952
Si Si4 0.350086 0.912964 0.287209
Si Si5 0.848868 0.647459 0.797814
Si Si6 0.000000 0.500000 0.000000
O O1 0.097552 0.229754 0.583076
O O2 0.069574 0.306825 0.301549
O O3 0.477846 0.361288 0.739477
O O4 0.704163 0.339637 0.809829
O O5 0.500000 0.288058 0.000000
O O6 0.793267 0.926800 0.744916
O O7 0.000000 0.942421 0.500000
O O8 0.000000 0.938871 0.000000
O O9 0.363146 0.893755 0.572050
O O10 0.372781 0.870103 0.078338
O O11 0.436385 0.957072 0.186784
#
# Coordination Sequence:
#
# PCOD9219115 Si02
#       6
#     4   8   8   8   8   2
#     4  12  26  38  60 105 142 195 238 280 332 396
#     4  11  22  40  66  99 138 187 234 283 320 395
#     4  11  19  41  71  96 131 181 223 277 339 397
#     4  12  25  50  70 102 134 184 226 287 359 416
#     4  12  26  44  72  96 147 186 231 284 345 411
#     4  12  32  50  80 106 140 170 228 292 352 442
#
# _framework density 24.287880000000001
#
# number of rings (size 3 to 8) (size 9 to 14) (size 15 to 20)
#    0.000    0.421    7.368    1.895    2.947    2.526 
#    0.000    1.053    0.000    0.000    0.000    0.000 
#    0.000    0.000    0.000    0.000    0.000    0.000 
#
# Total GULP energy -105836.508313 kJ/mol
# GULP energy per Si atom -5570.342543 kJ/mol
# Density = 2.423260 g / cm^3
# Si number density = 24.287880 Si / 1000 Ang^3
#
#
#
# Elastic Constant Matrix: (Units=GPa)
#
#
# Indices 1 2 3 4 5 6 
#
# 1 111.9779 31.0104 21.3818 0.0000 -30.4579 0.0000
# 2 31.0104 125.3743 32.4846 0.0000 -5.2449 0.0000
# 3 21.3818 32.4846 144.4000 0.0000 -10.0817 0.0000
# 4 0.0000 0.0000 0.0000 91.2688 0.0000 15.4731
# 5 -30.4579 -5.2449 -10.0817 0.0000 40.0905 0.0000
# 6 0.0000 0.0000 0.0000 15.4731 0.0000 -17.1628
#
#
#
# Elastic Compliance Matrix: (Units=1/GPa)
#
#
# Indices 1 2 3 4 5 6 
#
# 1 0.012104 -0.002466 -0.000629 0.000000 0.008715 0.000000
# 2 -0.002466 0.008988 -0.001736 0.000000 -0.001134 0.000000
# 3 -0.000629 -0.001736 0.007491 0.000000 0.001179 0.000000
# 4 0.000000 0.000000 0.000000 0.009504 0.000000 0.008568
# 5 0.008715 -0.001134 0.001179 0.000000 0.031713 0.000000
# 6 0.000000 0.000000 0.000000 0.008568 0.000000 -0.050541
#
#
# Mechanical properties :
#
#
# Convention : Reuss Voigt Hill
#
# Bulk Modulus (GPa) = 52.85164 61.27843 57.06504
# Shear Modulus (GPa) = 141.92928 42.63100 92.28014
#
# Velocity S-wave (km/s) = 7.65265 4.19410 6.17064
# Velocity P-wave (km/s) = 9.99459 6.98132 8.62063
#
# Compressibility (1/GPa) = 0.01892089
#
# Stress axis : x y z
#
# Youngs Moduli (GPa) = 82.61836 111.25341 133.48982
#
# Poissons Ratio (x) = 0.27438 0.08396
# Poissons Ratio (y) = 0.20376 0.23175
# Poissons Ratio (z) = 0.05197 0.19315
#
# Static dielectric constant tensor:
#      x y z
#    x 2.016630 0.000000 0.158050 
#    y 0.000000 1.984540 0.000000 
#    z 0.158050 0.000000 2.337340 
# 
# From -- ./inp_files/7612.got.cif
#   From: 2010.05.17/outbox.cif.g08.bks.cpg/sg12_4_cif.got.tgz:7612.got - 2010.06.03 13:09:07.
