data_PCOD9219900
_publ_section_title
;
Structure prediction by ZEFSAII (Michael W. Deem and Ramdas Pophale) SiO2 
 PCOD9219900
Probable space group: C 2/M
;
_chemical_formula_sum "Si O2"
_cell_formula_units_Z 64
_cell_length_a 12.964792
_cell_length_b 28.994827
_cell_length_c 9.422564
_cell_angle_alpha 90.000000
_cell_angle_beta 75.875142
_cell_angle_gamma 90.000000
_cell_volume 3434.964305
_symmetry_space_group_name_H-M "C 2/M"
_symmetry_group_IT_number 12
_symmetry_cell_setting 'monoclinic'
loop_
_space_group_symop_operation_xyz
x,y,z
-x,y,-z
-x,-y,-z
x,-y,z
1/2+x,1/2+y,z
1/2-x,1/2+y,-z
1/2-x,1/2-y,-z
1/2+x,1/2-y,z
loop_
_atom_site_type_symbol
_atom_site_label
_atom_site_fract_x
_atom_site_fract_y
_atom_site_fract_z
Si Si1 0.684620 0.208687 0.181504
Si Si2 0.757411 0.635220 0.367818
Si Si3 0.846859 0.554714 0.175172
Si Si4 0.574925 0.296208 0.355598
Si Si5 0.102818 0.307890 0.899711
Si Si6 0.385890 0.872826 0.610808
Si Si7 0.095512 0.554761 0.161566
Si Si8 0.570015 0.295990 0.844066
O O1 0.650333 0.258426 0.254387
O O2 0.612891 0.171387 0.286621
O O3 0.805559 0.195845 0.180204
O O4 0.670953 0.205350 0.016492
O O5 0.765514 0.584699 0.294626
O O6 0.647684 0.663122 0.392693
O O7 0.837067 0.663618 0.237999
O O8 0.802080 0.633943 0.511991
O O9 0.826728 0.500000 0.190734
O O10 0.967952 0.562364 0.189954
O O11 0.850798 0.567930 0.006956
O O12 0.500000 0.273526 0.500000
O O13 0.489972 0.314824 0.271453
O O14 0.062661 0.260080 0.844158
O O15 0.000000 0.332874 0.000000
O O16 0.500000 0.879348 0.500000
O O17 0.362735 0.915791 0.721369
O O18 0.110665 0.500000 0.175510
O O19 0.500000 0.311575 0.000000
#
# Coordination Sequence:
#
# PCOD9219900 Si02
#       8
#     8   8   8   8   8   8   8   8
#     4  12  23  39  58  81 116 158 207 244 290 340
#     4  12  24  37  57  86 119 155 199 236 291 351
#     4   9  19  37  62  87 115 150 189 238 296 352
#     4  12  26  40  56  79 118 160 195 248 290 342
#     4  11  21  36  59  84 113 151 200 250 281 342
#     4  12  24  34  53  87 120 162 195 230 284 353
#     4   9  19  37  59  88 123 153 183 232 294 358
#     4  11  22  39  58  80 106 150 203 249 292 330
#
# _framework density 18.631924999999999
#
# number of rings (size 3 to 8) (size 9 to 14) (size 15 to 20)
#    0.000    1.000    5.000    4.500    3.500    1.750 
#    0.000    0.000    0.000    0.375    0.000    0.875 
#    0.000   10.000    0.000    0.000    0.000    0.000 
#
# Total GULP energy -178777.859418 kJ/mol
# GULP energy per Si atom -5586.808107 kJ/mol
# Density = 1.858952 g / cm^3
# Si number density = 18.631925 Si / 1000 Ang^3
#
#
#
# Elastic Constant Matrix: (Units=GPa)
#
#
# Indices 1 2 3 4 5 6 
#
# 1 84.1297 11.0933 39.4197 0.0000 19.4115 0.0000
# 2 11.0933 65.9314 38.0692 0.0000 10.0302 0.0000
# 3 39.4197 38.0692 121.8368 0.0000 18.4969 0.0000
# 4 0.0000 0.0000 0.0000 26.9138 0.0000 1.6652
# 5 19.4115 10.0302 18.4969 0.0000 36.5455 0.0000
# 6 0.0000 0.0000 0.0000 1.6652 0.0000 18.4651
#
#
#
# Elastic Compliance Matrix: (Units=1/GPa)
#
#
# Indices 1 2 3 4 5 6 
#
# 1 0.015181 0.000827 -0.004237 0.000000 -0.006146 0.000000
# 2 0.000827 0.018736 -0.005714 0.000000 -0.002690 0.000000
# 3 -0.004237 -0.005714 0.011682 0.000000 -0.002094 0.000000
# 4 0.000000 0.000000 0.000000 0.037364 0.000000 -0.003369
# 5 -0.006146 -0.002690 -0.002094 0.000000 0.032426 0.000000
# 6 0.000000 0.000000 0.000000 -0.003369 0.000000 0.054460
#
#
# Mechanical properties :
#
#
# Convention : Reuss Voigt Hill
#
# Bulk Modulus (GPa) = 36.56050 49.89581 43.22815
# Shear Modulus (GPa) = 25.35332 28.60594 26.97963
#
# Velocity S-wave (km/s) = 3.69283 3.92256 3.80943
# Velocity P-wave (km/s) = 6.15205 6.88137 6.52691
#
# Compressibility (1/GPa) = 0.02735193
#
# Stress axis : x y z
#
# Youngs Moduli (GPa) = 65.87307 53.37200 85.60349
#
# Poissons Ratio (x) = -0.04415 0.36271
# Poissons Ratio (y) = -0.05450 0.48911
# Poissons Ratio (z) = 0.27911 0.30495
#
# Static dielectric constant tensor:
#      x y z
#    x 1.665670 0.000000 -0.003320 
#    y 0.000000 1.659050 0.000000 
#    z -0.003320 0.000000 1.682170 
# 
# From -- ./inp_files/54726.got.cif
#   From: 2010.05.17/outbox.cif.g08.bks.cpg/sg12_28_cif.got.tgz:54726.got - 2010.06.03 13:09:07.
