data_PCOD9219298
_publ_section_title
;
Structure prediction by ZEFSAII (Michael W. Deem and Ramdas Pophale) SiO2 
 PCOD9219298
Probable space group: C 2/M
;
_chemical_formula_sum "Si O2"
_cell_formula_units_Z 44
_cell_length_a 15.170814
_cell_length_b 12.503514
_cell_length_c 9.331198
_cell_angle_alpha 90.000000
_cell_angle_beta 97.131075
_cell_angle_gamma 90.000000
_cell_volume 1756.329270
_symmetry_space_group_name_H-M "C 2/M"
_symmetry_group_IT_number 12
_symmetry_cell_setting 'monoclinic'
loop_
_space_group_symop_operation_xyz
x,y,z
-x,y,-z
-x,-y,-z
x,-y,z
1/2+x,1/2+y,z
1/2-x,1/2+y,-z
1/2-x,1/2-y,-z
1/2+x,1/2-y,z
loop_
_atom_site_type_symbol
_atom_site_label
_atom_site_fract_x
_atom_site_fract_y
_atom_site_fract_z
Si Si1 0.718289 0.822602 0.725627
Si Si2 0.760141 0.117915 0.431951
Si Si3 0.488370 0.620853 0.234970
Si Si4 0.549427 0.163083 0.366323
Si Si5 0.354571 0.378832 0.966943
Si Si6 0.431305 0.000000 0.228652
O O1 0.774780 0.875082 0.605510
O O2 0.691571 0.711693 0.643652
O O3 0.781189 0.807187 0.874753
O O4 0.642261 0.905207 0.751644
O O5 0.653995 0.140256 0.394965
O O6 0.780805 0.000000 0.383608
O O7 0.478994 0.500000 0.292007
O O8 0.520661 0.714804 0.344033
O O9 0.565417 0.616112 0.130452
O O10 0.400482 0.651297 0.125200
O O11 0.500000 0.119137 0.500000
O O12 0.508468 0.093722 0.230281
O O13 0.318063 0.500000 0.975141
#
# Coordination Sequence:
#
# PCOD9219298 Si02
#       6
#     8   8   8   8   8   4
#     4  11  20  34  61  89 115 156 201 252 289 353
#     4  11  21  36  58  91 121 157 199 249 299 352
#     4   9  20  35  58  89 113 160 202 249 290 353
#     4  12  21  37  60  87 127 161 192 242 305 372
#     4   9  16  34  61  84 114 151 212 247 283 346
#     4  12  23  38  62  90 117 161 203 236 305 373
#
# _framework density 25.052249
#
# number of rings (size 3 to 8) (size 9 to 14) (size 15 to 20)
#    0.000    1.455    6.364    1.364    0.000    0.364 
#    0.000    1.818    2.000    2.182    0.000    0.000 
#    0.000    0.000    0.000    0.000    0.000    0.000 
#
# Total GULP energy -122536.216614 kJ/mol
# GULP energy per Si atom -5569.828028 kJ/mol
# Density = 2.499523 g / cm^3
# Si number density = 25.052249 Si / 1000 Ang^3
#
#
#
# Elastic Constant Matrix: (Units=GPa)
#
#
# Indices 1 2 3 4 5 6 
#
# 1 82.8433 8.0054 27.5515 0.0000 7.2538 0.0000
# 2 8.0054 172.0897 31.0727 0.0000 6.6823 0.0000
# 3 27.5515 31.0727 69.0191 0.0000 12.0375 0.0000
# 4 0.0000 0.0000 0.0000 29.9846 0.0000 11.2230
# 5 7.2538 6.6823 12.0375 0.0000 33.2326 0.0000
# 6 0.0000 0.0000 0.0000 11.2230 0.0000 26.8306
#
#
#
# Elastic Compliance Matrix: (Units=1/GPa)
#
#
# Indices 1 2 3 4 5 6 
#
# 1 0.013981 0.000398 -0.005566 0.000000 -0.001116 0.000000
# 2 0.000398 0.006338 -0.002962 0.000000 -0.000288 0.000000
# 3 -0.005566 -0.002962 0.018924 0.000000 -0.005044 0.000000
# 4 0.000000 0.000000 0.000000 0.039541 0.000000 -0.016540
# 5 -0.001116 -0.000288 -0.005044 0.000000 0.032220 0.000000
# 6 0.000000 0.000000 0.000000 -0.016540 0.000000 0.044189
#
#
# Mechanical properties :
#
#
# Convention : Reuss Voigt Hill
#
# Bulk Modulus (GPa) = 43.50917 50.80124 47.15520
# Shear Modulus (GPa) = 27.91513 35.16441 31.53977
#
# Velocity S-wave (km/s) = 3.34170 3.75059 3.55203
# Velocity P-wave (km/s) = 5.68281 6.25124 5.97379
#
# Compressibility (1/GPa) = 0.02298366
#
# Stress axis : x y z
#
# Youngs Moduli (GPa) = 71.52451 157.76705 52.84364
#
# Poissons Ratio (x) = -0.06277 0.29411
# Poissons Ratio (y) = -0.02846 0.15653
# Poissons Ratio (z) = 0.39808 0.46733
#
# Static dielectric constant tensor:
#      x y z
#    x 1.960420 0.000000 0.033690 
#    y 0.000000 2.006700 0.000000 
#    z 0.033690 0.000000 2.024110 
# 
# From -- ./inp_files/153774.got.cif
#   From: 2010.05.17/outbox.cif.g08.bks.cpg/sg12_77_cif.got.tgz:153774.got - 2010.06.03 13:09:07.
