data_PCOD9219261
_publ_section_title
;
Structure prediction by ZEFSAII (Michael W. Deem and Ramdas Pophale) SiO2 
 PCOD9219261
Probable space group: C 2/M
;
_chemical_formula_sum "Si O2"
_cell_formula_units_Z 58
_cell_length_a 16.255206
_cell_length_b 14.341025
_cell_length_c 20.497793
_cell_angle_alpha 90.000000
_cell_angle_beta 41.663733
_cell_angle_gamma 90.000000
_cell_volume 3176.457835
_symmetry_space_group_name_H-M "C 2/M"
_symmetry_group_IT_number 12
_symmetry_cell_setting 'monoclinic'
loop_
_space_group_symop_operation_xyz
x,y,z
-x,y,-z
-x,-y,-z
x,-y,z
1/2+x,1/2+y,z
1/2-x,1/2+y,-z
1/2-x,1/2-y,-z
1/2+x,1/2-y,z
loop_
_atom_site_type_symbol
_atom_site_label
_atom_site_fract_x
_atom_site_fract_y
_atom_site_fract_z
Si Si1 0.404272 0.612391 0.652558
Si Si2 0.841574 0.250128 0.802838
Si Si3 0.194542 0.100979 0.070219
Si Si4 0.553840 0.111442 0.711101
Si Si5 0.987368 0.353930 0.899755
Si Si6 0.090334 0.160512 0.998063
Si Si7 0.000000 0.500000 0.000000
Si Si8 0.172747 0.112135 0.449476
O O1 0.390658 0.500000 0.671170
O O2 0.343660 0.677754 0.742325
O O3 0.551013 0.636808 0.562512
O O4 0.351940 0.635401 0.611732
O O5 0.859122 0.186066 0.856860
O O6 0.710113 0.299494 0.889970
O O7 0.948341 0.327681 0.739104
O O8 0.169110 0.000000 0.115865
O O9 0.342675 0.114229 0.981099
O O10 0.142084 0.104338 0.028675
O O11 0.542920 0.129351 0.795621
O O12 0.691680 0.143019 0.608916
O O13 0.538156 0.000000 0.709759
O O14 0.044221 0.418929 0.921666
O O15 0.982939 0.248342 0.927172
O O16 0.000000 0.113130 0.000000
O O17 0.176456 0.000000 0.448415
#
# Coordination Sequence:
#
# PCOD9219261 Si02
#       8
#     8   8   8   8   8   8   2   8
#     4   9  18  36  54  82 112 134 167 213 266 328
#     4  11  22  33  55  79 104 141 179 218 269 312
#     4  11  21  37  52  71 108 147 174 223 265 308
#     4  11  20  34  54  75 104 143 172 215 269 313
#     4  11  20  34  49  76 108 129 172 224 270 308
#     4  11  23  36  50  72 106 141 186 222 254 314
#     4  12  20  28  56  80  96 138 168 226 276 306
#     4   8  18  34  56  79 109 136 165 217 274 322
#
# _framework density 18.259332000000001
#
# number of rings (size 3 to 8) (size 9 to 14) (size 15 to 20)
#    0.000    1.655    4.828    2.069    1.931    0.828 
#    4.966    0.000    0.000    0.000    0.000    1.931 
#    0.000    0.000    0.000    0.000    0.000    0.000 
#
# Total GULP energy -161569.733513 kJ/mol
# GULP energy per Si atom -5571.370121 kJ/mol
# Density = 1.821777 g / cm^3
# Si number density = 18.259332 Si / 1000 Ang^3
#
#
#
# Elastic Constant Matrix: (Units=GPa)
#
#
# Indices 1 2 3 4 5 6 
#
# 1 50.9107 10.9185 9.7003 0.0000 -10.6576 0.0000
# 2 10.9185 61.8243 14.3327 0.0000 -12.2792 0.0000
# 3 9.7003 14.3327 25.8581 0.0000 -2.0040 0.0000
# 4 0.0000 0.0000 0.0000 19.8047 0.0000 9.4455
# 5 -10.6576 -12.2792 -2.0040 0.0000 25.6682 0.0000
# 6 0.0000 0.0000 0.0000 9.4455 0.0000 33.5276
#
#
#
# Elastic Compliance Matrix: (Units=1/GPa)
#
#
# Indices 1 2 3 4 5 6 
#
# 1 0.023044 -0.000567 -0.007656 0.000000 0.008699 0.000000
# 2 -0.000567 0.020426 -0.010433 0.000000 0.008721 0.000000
# 3 -0.007656 -0.010433 0.046979 0.000000 -0.004502 0.000000
# 4 0.000000 0.000000 0.000000 0.058331 0.000000 -0.016433
# 5 0.008699 0.008721 -0.004502 0.000000 0.046391 0.000000
# 6 0.000000 0.000000 0.000000 -0.016433 0.000000 0.034456
#
#
# Mechanical properties :
#
#
# Convention : Reuss Voigt Hill
#
# Bulk Modulus (GPa) = 18.81969 23.16623 20.99296
# Shear Modulus (GPa) = 17.56546 22.70955 20.13750
#
# Velocity S-wave (km/s) = 3.10498 3.53047 3.32454
# Velocity P-wave (km/s) = 4.81495 5.41607 5.12433
#
# Compressibility (1/GPa) = 0.05313585
#
# Stress axis : x y z
#
# Youngs Moduli (GPa) = 43.39606 48.95742 21.28633
#
# Poissons Ratio (x) = 0.02776 0.16297
# Poissons Ratio (y) = 0.02461 0.22208
# Poissons Ratio (z) = 0.33224 0.51078
#
# Static dielectric constant tensor:
#      x y z
#    x 1.667850 0.000000 -0.021410 
#    y 0.000000 1.599090 0.000000 
#    z -0.021410 0.000000 1.645550 
# 
# From -- ./inp_files/316304.got.cif
#   From: 2010.05.17/outbox.cif.g08.bks.cpg/sg12_159_cif.got.tgz:316304.got - 2010.06.03 13:09:07.
