data_PCOD9219529
_publ_section_title
;
Structure prediction by ZEFSAII (Michael W. Deem and Ramdas Pophale) SiO2 
 PCOD9219529
Probable space group: C 2/M
;
_chemical_formula_sum "Si O2"
_cell_formula_units_Z 56
_cell_length_a 14.432860
_cell_length_b 18.611112
_cell_length_c 11.885345
_cell_angle_alpha 90.000000
_cell_angle_beta 111.756500
_cell_angle_gamma 90.000000
_cell_volume 2965.128561
_symmetry_space_group_name_H-M "C 2/M"
_symmetry_group_IT_number 12
_symmetry_cell_setting 'monoclinic'
loop_
_space_group_symop_operation_xyz
x,y,z
-x,y,-z
-x,-y,-z
x,-y,z
1/2+x,1/2+y,z
1/2-x,1/2+y,-z
1/2-x,1/2-y,-z
1/2+x,1/2-y,z
loop_
_atom_site_type_symbol
_atom_site_label
_atom_site_fract_x
_atom_site_fract_y
_atom_site_fract_z
Si Si1 0.404824 0.915274 0.634793
Si Si2 0.739329 0.819953 0.572801
Si Si3 0.546524 0.299988 0.245728
Si Si4 0.083003 0.318264 0.700550
Si Si5 0.092062 0.339457 0.123272
Si Si6 0.776776 0.666468 0.023727
Si Si7 0.421594 0.582307 0.066836
O O1 0.314046 0.881059 0.524236
O O2 0.508997 0.882859 0.636392
O O3 0.400611 0.886176 0.761152
O O4 0.403546 0.000000 0.630076
O O5 0.750000 0.750000 0.500000
O O6 0.850827 0.834468 0.665896
O O7 0.666622 0.804869 0.645329
O O8 0.489711 0.249506 0.310268
O O9 0.576172 0.243025 0.159531
O O10 0.470394 0.361293 0.174519
O O11 0.137721 0.336713 0.842943
O O12 0.185447 0.352083 0.084148
O O13 0.000000 0.356890 0.000000
O O14 0.750000 0.750000 0.000000
O O15 0.684028 0.616855 0.015231
O O16 0.409118 0.500000 0.100707
O O17 0.500000 0.581134 0.000000
#
# Coordination Sequence:
#
# PCOD9219529 Si02
#       7
#     8   8   8   8   8   8   8
#     4  11  26  44  65  96 138 176 214 272 331 390
#     4  12  24  41  67  95 126 170 226 271 317 379
#     4  11  22  40  66  94 128 168 218 268 321 382
#     4  11  23  40  66  98 126 169 215 271 327 387
#     4  11  20  40  66 100 129 166 211 266 328 391
#     4  12  21  37  68  98 129 169 215 266 328 391
#     4  11  24  39  57  90 134 172 209 257 318 388
#
# _framework density 18.886196000000002
#
# number of rings (size 3 to 8) (size 9 to 14) (size 15 to 20)
#    0.000    0.714    7.143    3.429    0.000    3.143 
#    0.000    0.000    0.000    0.000    0.000    4.000 
#    0.000    0.000    0.000    0.000    0.000    0.000 
#
# Total GULP energy -156404.421046 kJ/mol
# GULP energy per Si atom -5585.872180 kJ/mol
# Density = 1.884321 g / cm^3
# Si number density = 18.886196 Si / 1000 Ang^3
#
#
#
# Elastic Constant Matrix: (Units=GPa)
#
#
# Indices 1 2 3 4 5 6 
#
# 1 114.5638 38.7288 45.1201 0.0000 5.5050 0.0000
# 2 38.7288 137.0487 36.0889 0.0000 13.3843 0.0000
# 3 45.1201 36.0889 96.3989 0.0000 12.2012 0.0000
# 4 0.0000 0.0000 0.0000 20.5980 0.0000 5.6110
# 5 5.5050 13.3843 12.2012 0.0000 44.1795 0.0000
# 6 0.0000 0.0000 0.0000 5.6110 0.0000 -4.6512
#
#
#
# Elastic Compliance Matrix: (Units=1/GPa)
#
#
# Indices 1 2 3 4 5 6 
#
# 1 0.011172 -0.002008 -0.004537 0.000000 0.000469 0.000000
# 2 -0.002008 0.008577 -0.002045 0.000000 -0.001783 0.000000
# 3 -0.004537 -0.002045 0.013588 0.000000 -0.002568 0.000000
# 4 0.000000 0.000000 0.000000 0.036541 0.000000 0.044081
# 5 0.000469 -0.001783 -0.002568 0.000000 0.023826 0.000000
# 6 0.000000 0.000000 0.000000 0.044081 0.000000 -0.161822
#
#
# Mechanical properties :
#
#
# Convention : Reuss Voigt Hill
#
# Bulk Modulus (GPa) = 61.89599 65.32077 63.60838
# Shear Modulus (GPa) = -109.76112 27.23016 -41.26548
#
# Velocity S-wave (km/s) = -7.63173 3.80123 -4.67942
# Velocity P-wave (km/s) = 6.69428 7.34353 2.13471
#
# Compressibility (1/GPa) = 0.01615614
#
# Stress axis : x y z
#
# Youngs Moduli (GPa) = 89.51088 116.59182 73.59643
#
# Poissons Ratio (x) = 0.23415 0.33388
# Poissons Ratio (y) = 0.17976 0.15052
# Poissons Ratio (z) = 0.40607 0.23846
#
# Static dielectric constant tensor:
#      x y z
#    x 1.532790 0.000000 -0.076370 
#    y 0.000000 1.633060 0.000000 
#    z -0.076370 0.000000 1.665610 
# 
# From -- ./inp_files/146209.got.cif
#   From: 2010.05.17/outbox.cif.g08.bks.cpg/sg12_74_cif.got.tgz:146209.got - 2010.06.03 13:09:07.
