data_PCOD9219066
_publ_section_title
;
Structure prediction by ZEFSAII (Michael W. Deem and Ramdas Pophale) SiO2 
 PCOD9219066
Probable space group: C 2/M
;
_chemical_formula_sum "Si O2"
_cell_formula_units_Z 64
_cell_length_a 11.168156
_cell_length_b 31.277764
_cell_length_c 17.673668
_cell_angle_alpha 90.000000
_cell_angle_beta 146.037173
_cell_angle_gamma 90.000000
_cell_volume 3448.954662
_symmetry_space_group_name_H-M "C 2/M"
_symmetry_group_IT_number 12
_symmetry_cell_setting 'monoclinic'
loop_
_space_group_symop_operation_xyz
x,y,z
-x,y,-z
-x,-y,-z
x,-y,z
1/2+x,1/2+y,z
1/2-x,1/2+y,-z
1/2-x,1/2-y,-z
1/2+x,1/2-y,z
loop_
_atom_site_type_symbol
_atom_site_label
_atom_site_fract_x
_atom_site_fract_y
_atom_site_fract_z
Si Si1 0.837727 0.200851 0.211082
Si Si2 0.913234 0.429725 0.068128
Si Si3 0.251673 0.794814 0.145562
Si Si4 0.252957 0.047535 0.148974
Si Si5 0.644823 0.548305 0.782804
Si Si6 0.828744 0.127275 0.619015
Si Si7 0.852921 0.626861 0.307741
Si Si8 0.908684 0.327191 0.066256
O O1 0.867729 0.251473 0.232490
O O2 0.645147 0.187276 0.165604
O O3 0.036684 0.169853 0.328221
O O4 0.751105 0.191362 0.080838
O O5 0.145463 0.443914 0.159318
O O6 0.899016 0.378407 0.057720
O O7 0.869106 0.444862 0.129686
O O8 0.736909 0.447090 0.916577
O O9 0.278009 0.832478 0.219835
O O10 0.346457 0.810723 0.115824
O O11 0.000000 0.785036 0.000000
O O12 0.307424 0.084395 0.236220
O O13 0.304572 0.000000 0.204624
O O14 0.000000 0.049768 0.000000
O O15 0.564228 0.500000 0.729510
O O16 0.472638 0.585425 0.678033
O O17 0.605416 0.128223 0.457734
O O18 0.771367 0.126323 0.677966
#
# Coordination Sequence:
#
# PCOD9219066 Si02
#       8
#     8   8   8   8   8   8   8   8
#     4  11  22  39  63  92 123 155 198 244 297 354
#     4  11  19  37  62  94 124 152 196 252 304 351
#     4  12  24  38  65  94 124 152 197 252 306 353
#     4  11  23  40  62  90 123 155 195 253 312 358
#     4  11  21  36  62  92 120 157 201 249 300 353
#     4  11  24  44  62  82 122 162 208 242 296 357
#     4  11  26  42  61  88 118 163 201 251 295 362
#     4  11  20  37  62  97 121 156 192 249 302 353
#
# _framework density 18.556346999999999
#
# number of rings (size 3 to 8) (size 9 to 14) (size 15 to 20)
#    0.000    0.875    5.000    4.500    1.750    2.500 
#    0.000    3.750    0.000    1.500    0.000    0.000 
#    0.000    0.000    0.000    0.000    0.000    0.000 
#
# Total GULP energy -178951.484718 kJ/mol
# GULP energy per Si atom -5592.233897 kJ/mol
# Density = 1.851411 g / cm^3
# Si number density = 18.556347 Si / 1000 Ang^3
#
#
#
# Elastic Constant Matrix: (Units=GPa)
#
#
# Indices 1 2 3 4 5 6 
#
# 1 47.1606 24.8848 22.1457 0.0000 -0.6623 0.0000
# 2 24.8848 171.9440 32.8947 0.0000 -1.4761 0.0000
# 3 22.1457 32.8947 48.4016 0.0000 9.4802 0.0000
# 4 0.0000 0.0000 0.0000 9.4096 0.0000 0.9376
# 5 -0.6623 -1.4761 9.4802 0.0000 19.1931 0.0000
# 6 0.0000 0.0000 0.0000 0.9376 0.0000 18.5077
#
#
#
# Elastic Compliance Matrix: (Units=1/GPa)
#
#
# Indices 1 2 3 4 5 6 
#
# 1 0.028413 -0.001470 -0.013475 0.000000 0.007523 0.000000
# 2 -0.001470 0.006927 -0.004572 0.000000 0.002740 0.000000
# 3 -0.013475 -0.004572 0.033316 0.000000 -0.017273 0.000000
# 4 0.000000 0.000000 0.000000 0.106814 0.000000 -0.005411
# 5 0.007523 0.002740 -0.017273 0.000000 0.061104 0.000000
# 6 0.000000 0.000000 0.000000 -0.005411 0.000000 0.054306
#
#
# Mechanical properties :
#
#
# Convention : Reuss Voigt Hill
#
# Bulk Modulus (GPa) = 33.75753 47.48406 40.62080
# Shear Modulus (GPa) = 14.71518 21.92747 18.32133
#
# Velocity S-wave (km/s) = 2.81908 3.44127 3.14560
# Velocity P-wave (km/s) = 5.36914 6.43696 5.92715
#
# Compressibility (1/GPa) = 0.02962302
#
# Stress axis : x y z
#
# Youngs Moduli (GPa) = 35.19549 144.36887 30.01575
#
# Poissons Ratio (x) = 0.21217 0.40445
# Poissons Ratio (y) = 0.05172 0.13723
# Poissons Ratio (z) = 0.47425 0.66003
#
# Static dielectric constant tensor:
#      x y z
#    x 1.625830 0.000000 0.008790 
#    y 0.000000 1.643680 0.000000 
#    z 0.008790 0.000000 1.602190 
# 
# From -- ./inp_files/266318.got.cif
#   From: 2010.05.17/outbox.cif.g08.bks.cpg/sg12_134_cif.got.tgz:266318.got - 2010.06.03 13:09:07.
