data_PCOD9219660
_publ_section_title
;
Structure prediction by ZEFSAII (Michael W. Deem and Ramdas Pophale) SiO2 
 PCOD9219660
Probable space group: C 2/M
;
_chemical_formula_sum "Si O2"
_cell_formula_units_Z 40
_cell_length_a 29.688349
_cell_length_b 7.892471
_cell_length_c 28.785721
_cell_angle_alpha 90.000000
_cell_angle_beta 159.788247
_cell_angle_gamma 90.000000
_cell_volume 2330.303669
_symmetry_space_group_name_H-M "C 2/M"
_symmetry_group_IT_number 12
_symmetry_cell_setting 'monoclinic'
loop_
_space_group_symop_operation_xyz
x,y,z
-x,y,-z
-x,-y,-z
x,-y,z
1/2+x,1/2+y,z
1/2-x,1/2+y,-z
1/2-x,1/2-y,-z
1/2+x,1/2-y,z
loop_
_atom_site_type_symbol
_atom_site_label
_atom_site_fract_x
_atom_site_fract_y
_atom_site_fract_z
Si Si1 0.923035 0.803112 0.795552
Si Si2 0.688903 0.000000 0.143587
Si Si3 0.888147 0.798341 0.655079
Si Si4 0.230916 0.801794 0.118135
Si Si5 0.846295 0.697337 0.134529
Si Si6 0.879475 0.500000 0.818930
O O1 0.899470 0.745229 0.719826
O O2 0.859049 0.669225 0.768720
O O3 0.880299 0.000000 0.759677
O O4 0.078614 0.800835 0.955446
O O5 0.744352 0.829915 0.173330
O O6 0.698336 0.000000 0.208230
O O7 0.533757 0.000000 0.981394
O O8 0.750000 0.750000 0.500000
O O9 0.007380 0.727998 0.740443
O O10 0.902626 0.000000 0.669147
O O11 0.309757 0.731849 0.149714
O O12 0.263568 0.000000 0.160555
O O13 0.823004 0.500000 0.118192
O O14 0.750000 0.750000 0.000000
#
# Coordination Sequence:
#
# PCOD9219660 Si02
#       6
#     8   4   8   8   8   4
#     4   9  18  32  49  72 104 138 178 218 263 322
#     4   9  18  30  48  75 105 137 177 225 266 314
#     4  11  23  36  51  77 110 146 183 223 269 321
#     4   9  18  31  48  75 106 136 174 219 265 319
#     4  11  21  32  53  79 106 146 184 217 270 326
#     4   9  18  30  50  73 101 143 179 215 276 315
#
# _framework density 17.165144000000002
#
# number of rings (size 3 to 8) (size 9 to 14) (size 15 to 20)
#    0.000    2.200    2.000    1.200    5.600    0.800 
#    0.000    4.000    0.000    0.000    0.000    2.800 
#    0.000    6.400    0.000    0.000    0.000    0.000 
#
# Total GULP energy -111484.001306 kJ/mol
# GULP energy per Si atom -5574.200065 kJ/mol
# Density = 1.712608 g / cm^3
# Si number density = 17.165144 Si / 1000 Ang^3
#
#
#
# Elastic Constant Matrix: (Units=GPa)
#
#
# Indices 1 2 3 4 5 6 
#
# 1 170.2055 72.1251 17.9130 0.0000 2.3543 0.0000
# 2 72.1251 81.0621 4.6436 0.0001 -3.1538 0.0001
# 3 17.9130 4.6436 31.5069 0.0002 9.2332 0.0001
# 4 0.0000 0.0001 0.0002 16.5107 0.0001 -0.6308
# 5 2.3543 -3.1538 9.2332 0.0001 13.2485 0.0000
# 6 0.0000 0.0001 0.0001 -0.6308 0.0000 31.9004
#
#
#
# Elastic Compliance Matrix: (Units=1/GPa)
#
#
# Indices 1 2 3 4 5 6 
#
# 1 0.010015 -0.008713 -0.004122 0.000000 -0.000981 0.000000
# 2 -0.008713 0.020328 0.000108 0.000000 0.006312 0.000000
# 3 -0.004122 0.000108 0.042531 -0.000001 -0.028883 0.000000
# 4 0.000000 0.000000 -0.000001 0.060613 0.000000 0.001199
# 5 -0.000981 0.006312 -0.028883 0.000000 0.097286 0.000000
# 6 0.000000 0.000000 0.000000 0.001199 0.000000 0.031371
#
#
# Mechanical properties :
#
#
# Convention : Reuss Voigt Hill
#
# Bulk Modulus (GPa) = 21.08860 52.45977 36.77418
# Shear Modulus (GPa) = 16.47970 24.87145 20.67557
#
# Velocity S-wave (km/s) = 3.10186 3.81064 3.47437
# Velocity P-wave (km/s) = 5.01409 7.07032 6.12905
#
# Compressibility (1/GPa) = 0.04741898
#
# Stress axis : x y z
#
# Youngs Moduli (GPa) = 99.85407 49.19409 23.51232
#
# Poissons Ratio (x) = 0.42861 0.09692
# Poissons Ratio (y) = 0.86998 -0.00253
# Poissons Ratio (z) = 0.41162 -0.00530
#
# Static dielectric constant tensor:
#      x y z
#    x 1.626390 0.000000 0.008240 
#    y 0.000000 1.414880 0.000000 
#    z 0.008240 0.000000 1.541560 
# 
# From -- ./inp_files/92867.got.cif
#   From: 2010.05.17/outbox.cif.g08.bks.cpg/sg12_47_cif.got.tgz:92867.got - 2010.06.03 13:09:07.
