data_PCOD9219027
_publ_section_title
;
Structure prediction by ZEFSAII (Michael W. Deem and Ramdas Pophale) SiO2 
 PCOD9219027
Probable space group: C 2/M
;
_chemical_formula_sum "Si O2"
_cell_formula_units_Z 40
_cell_length_a 14.530348
_cell_length_b 17.641076
_cell_length_c 15.187397
_cell_angle_alpha 90.000000
_cell_angle_beta 151.355719
_cell_angle_gamma 90.000000
_cell_volume 1866.188558
_symmetry_space_group_name_H-M "C 2/M"
_symmetry_group_IT_number 12
_symmetry_cell_setting 'monoclinic'
loop_
_space_group_symop_operation_xyz
x,y,z
-x,y,-z
-x,-y,-z
x,-y,z
1/2+x,1/2+y,z
1/2-x,1/2+y,-z
1/2-x,1/2-y,-z
1/2+x,1/2-y,z
loop_
_atom_site_type_symbol
_atom_site_label
_atom_site_fract_x
_atom_site_fract_y
_atom_site_fract_z
Si Si1 0.317662 0.339000 0.654416
Si Si2 0.687941 0.416375 0.921480
Si Si3 0.729014 0.917275 0.210825
Si Si4 0.969991 0.303732 0.254509
Si Si5 0.224839 0.748909 0.214303
O O1 0.479987 0.402414 0.788989
O O2 0.430740 0.264351 0.714584
O O3 0.242795 0.313449 0.686386
O O4 0.140530 0.352492 0.440986
O O5 0.761326 0.500000 0.005399
O O6 0.674248 0.412707 0.804219
O O7 0.834303 0.353480 0.079119
O O8 0.770126 0.835913 0.289131
O O9 0.775712 0.000000 0.290849
O O10 0.500000 0.918355 0.000000
O O11 0.846828 0.267553 0.230290
O O12 0.000000 0.749909 0.000000
#
# Coordination Sequence:
#
# PCOD9219027 Si02
#       5
#     8   8   8   8   8
#     4  11  23  38  61  91 121 157 203 248 292 357
#     4  11  22  40  63  87 123 161 198 246 303 354
#     4   9  18  32  58  92 120 154 194 240 303 363
#     4  11  22  39  60  90 120 157 206 245 295 350
#     4  11  19  35  64  85 119 157 199 248 296 351
#
# _framework density 21.434062000000001
#
# number of rings (size 3 to 8) (size 9 to 14) (size 15 to 20)
#    0.000    1.400    4.000    3.600    0.000    0.800 
#    0.000    2.000    0.000    6.000    0.000    0.000 
#    0.000    0.000    0.000    0.000    0.000    0.000 
#
# Total GULP energy -111777.536312 kJ/mol
# GULP energy per Si atom -5588.876816 kJ/mol
# Density = 2.138528 g / cm^3
# Si number density = 21.434062 Si / 1000 Ang^3
#
#
#
# Elastic Constant Matrix: (Units=GPa)
#
#
# Indices 1 2 3 4 5 6 
#
# 1 73.8686 5.8415 -15.8690 -0.0015 6.0914 0.0005
# 2 5.8415 39.7331 -4.6805 -0.0041 7.8750 0.0013
# 3 -15.8690 -4.6805 74.8860 -0.0112 15.7769 0.0026
# 4 -0.0015 -0.0041 -0.0112 1.6168 -0.0025 -9.4508
# 5 6.0914 7.8750 15.7769 -0.0025 22.8080 0.0007
# 6 0.0005 0.0013 0.0026 -9.4508 0.0007 41.3394
#
#
#
# Elastic Compliance Matrix: (Units=1/GPa)
#
#
# Indices 1 2 3 4 5 6 
#
# 1 0.015168 -0.000239 0.004724 -0.000097 -0.007236 -0.000023
# 2 -0.000239 0.028244 0.004396 -0.000228 -0.012729 -0.000053
# 3 0.004724 0.004396 0.017810 -0.000325 -0.015099 -0.000075
# 4 -0.000097 -0.000228 -0.000325 -1.838901 0.000138 -0.420399
# 5 -0.007236 -0.012729 -0.015099 0.000138 0.060616 0.000032
# 6 -0.000023 -0.000053 -0.000075 -0.420399 0.000032 -0.071919
#
#
# Mechanical properties :
#
#
# Convention : Reuss Voigt Hill
#
# Bulk Modulus (GPa) = 12.66092 17.67464 15.16778
# Shear Modulus (GPa) = -2.80834 26.69921 11.94544
#
# Velocity S-wave (km/s) = -1.14589 3.53320 2.36330
# Velocity P-wave (km/s) = 2.04181 4.99085 3.81298
#
# Compressibility (1/GPa) = 0.07898318
#
# Stress axis : x y z
#
# Youngs Moduli (GPa) = 65.92851 35.40601 56.14669
#
# Poissons Ratio (x) = 0.00848 -0.26522
# Poissons Ratio (y) = 0.01578 -0.24683
# Poissons Ratio (z) = -0.31143 -0.15565
#
# Static dielectric constant tensor:
#      x y z
#    x 1.764120 0.000000 0.009080 
#    y 0.000000 1.782010 0.000000 
#    z 0.009080 0.000000 1.813590 
# 
# From -- ./inp_files/60224.got.cif
#   From: 2010.05.17/outbox.cif.g08.bks.cpg/sg12_31_cif.got.tgz:60224.got - 2010.06.03 13:09:07.
