data_PCOD9219058
_publ_section_title
;
Structure prediction by ZEFSAII (Michael W. Deem and Ramdas Pophale) SiO2 
 PCOD9219058
Probable space group: C 2/M
;
_chemical_formula_sum "Si O2"
_cell_formula_units_Z 48
_cell_length_a 9.881616
_cell_length_b 27.310729
_cell_length_c 20.677159
_cell_angle_alpha 90.000000
_cell_angle_beta 28.753797
_cell_angle_gamma 90.000000
_cell_volume 2684.352377
_symmetry_space_group_name_H-M "C 2/M"
_symmetry_group_IT_number 12
_symmetry_cell_setting 'monoclinic'
loop_
_space_group_symop_operation_xyz
x,y,z
-x,y,-z
-x,-y,-z
x,-y,z
1/2+x,1/2+y,z
1/2-x,1/2+y,-z
1/2-x,1/2-y,-z
1/2+x,1/2-y,z
loop_
_atom_site_type_symbol
_atom_site_label
_atom_site_fract_x
_atom_site_fract_y
_atom_site_fract_z
Si Si1 0.536517 0.220255 0.198532
Si Si2 0.363404 0.057713 0.130265
Si Si3 0.176108 0.873906 0.645874
Si Si4 0.244176 0.877754 0.941527
Si Si5 0.799925 0.177767 0.907526
Si Si6 0.460113 0.723979 0.364563
O O1 0.639390 0.164604 0.155080
O O2 0.710849 0.263533 0.090835
O O3 0.486449 0.242774 0.289953
O O4 0.256331 0.219336 0.274258
O O5 0.549659 0.084106 0.108360
O O6 0.056822 0.083447 0.260954
O O7 0.343501 0.000000 0.151389
O O8 0.500000 0.062056 0.000000
O O9 0.500000 0.890160 0.500000
O O10 0.138699 0.830726 0.609585
O O11 0.064113 0.844199 0.756534
O O12 0.164450 0.843832 0.036493
O O13 0.000000 0.901737 0.000000
O O14 0.500000 0.162945 0.000000
O O15 0.250000 0.750000 0.500000
#
# Coordination Sequence:
#
# PCOD9219058 Si02
#       6
#     8   8   8   8   8   8
#     4  11  21  33  54  87 123 164 209 248 295 365
#     4  11  23  45  70  89 115 160 214 265 314 361
#     4  11  21  38  64  88 120 158 206 260 296 362
#     4  12  21  35  59  92 124 153 197 254 318 367
#     4  11  19  37  57  87 126 163 208 251 297 360
#     4  11  21  36  53  86 129 171 206 238 298 374
#
# _framework density 17.881408
#
# number of rings (size 3 to 8) (size 9 to 14) (size 15 to 20)
#    0.000    0.833    5.000    5.500    0.000    0.667 
#    0.000    0.000    0.000    0.000    0.000    4.667 
#    0.000    0.000    0.000    0.000    0.000    0.000 
#
# Total GULP energy -133693.843718 kJ/mol
# GULP energy per Si atom -5570.576822 kJ/mol
# Density = 1.784071 g / cm^3
# Si number density = 17.881408 Si / 1000 Ang^3
#
#
#
# Elastic Constant Matrix: (Units=GPa)
#
#
# Indices 1 2 3 4 5 6 
#
# 1 107.4388 35.9655 44.1778 -0.0025 -12.9975 -0.0028
# 2 35.9655 153.9168 46.2806 -0.0091 -4.6454 -0.0019
# 3 44.1778 46.2806 106.2092 0.0213 -14.8832 -0.0196
# 4 -0.0025 -0.0091 0.0213 23.5571 0.0037 2.2068
# 5 -12.9975 -4.6454 -14.8832 0.0037 32.6097 0.0024
# 6 -0.0028 -0.0019 -0.0196 2.2068 0.0024 29.7693
#
#
#
# Elastic Compliance Matrix: (Units=1/GPa)
#
#
# Indices 1 2 3 4 5 6 
#
# 1 0.011716 -0.001501 -0.003840 0.000004 0.002703 -0.000002
# 2 -0.001501 0.007675 -0.002832 0.000006 -0.000797 -0.000002
# 3 -0.003840 -0.002832 0.012794 -0.000014 0.003905 0.000009
# 4 0.000004 0.000006 -0.000014 0.042747 -0.000009 -0.003169
# 5 0.002703 -0.000797 0.003905 -0.000009 0.033412 0.000001
# 6 -0.000002 -0.000002 0.000009 -0.003169 0.000001 0.033827
#
#
# Mechanical properties :
#
#
# Convention : Reuss Voigt Hill
#
# Bulk Modulus (GPa) = 63.13719 68.93473 66.03596
# Shear Modulus (GPa) = 30.52549 33.26328 31.89438
#
# Velocity S-wave (km/s) = 4.13620 4.31770 4.22792
# Velocity P-wave (km/s) = 7.62865 7.96815 7.80025
#
# Compressibility (1/GPa) = 0.01583853
#
# Stress axis : x y z
#
# Youngs Moduli (GPa) = 85.35061 130.28908 78.16194
#
# Poissons Ratio (x) = 0.19562 0.30017
# Poissons Ratio (y) = 0.12815 0.22133
# Poissons Ratio (z) = 0.32778 0.36894
#
# Static dielectric constant tensor:
#      x y z
#    x 1.632560 0.000020 -0.013860 
#    y 0.000020 1.657850 -0.000030 
#    z -0.013860 -0.000030 1.680280 
# 
# From -- ./inp_files/302727.got.cif
#   From: 2010.05.17/outbox.cif.g08.bks.cpg/sg12_152_cif.got.tgz:302727.got - 2010.06.03 13:09:07.
