data_PCOD9219317
_publ_section_title
;
Structure prediction by ZEFSAII (Michael W. Deem and Ramdas Pophale) SiO2 
 PCOD9219317
Probable space group: C 2/M
;
_chemical_formula_sum "Si O2"
_cell_formula_units_Z 44
_cell_length_a 27.305541
_cell_length_b 10.004834
_cell_length_c 11.603911
_cell_angle_alpha 90.000000
_cell_angle_beta 132.403921
_cell_angle_gamma 90.000000
_cell_volume 2340.788403
_symmetry_space_group_name_H-M "C 2/M"
_symmetry_group_IT_number 12
_symmetry_cell_setting 'monoclinic'
loop_
_space_group_symop_operation_xyz
x,y,z
-x,y,-z
-x,-y,-z
x,-y,z
1/2+x,1/2+y,z
1/2-x,1/2+y,-z
1/2-x,1/2-y,-z
1/2+x,1/2-y,z
loop_
_atom_site_type_symbol
_atom_site_label
_atom_site_fract_x
_atom_site_fract_y
_atom_site_fract_z
Si Si1 0.981615 0.500000 0.102298
Si Si2 0.695464 0.000000 0.311591
Si Si3 0.412515 0.737271 0.483179
Si Si4 0.878858 0.500000 0.557372
Si Si5 0.650638 0.500000 0.482684
Si Si6 0.433960 0.662006 0.255418
Si Si7 0.620459 0.234773 0.056635
Si Si8 0.079361 0.000000 0.129219
O O1 0.046751 0.500000 0.278147
O O2 0.940540 0.633370 0.053767
O O3 0.000000 0.500000 0.000000
O O4 0.665346 0.000000 0.394883
O O5 0.774277 0.000000 0.440758
O O6 0.671891 0.133653 0.202935
O O7 0.367698 0.624565 0.468481
O O8 0.414655 0.720774 0.349096
O O9 0.489751 0.712687 0.644747
O O10 0.378216 0.871132 0.475216
O O11 0.603263 0.500000 0.297439
O O12 0.437301 0.500000 0.265197
O O13 0.379621 0.706219 0.073661
O O14 0.605876 0.364590 0.111217
O O15 0.000000 0.000000 0.000000
#
# Coordination Sequence:
#
# PCOD9219317 Si02
#       8
#     4   4   8   4   4   8   8   4
#     4  11  20  35  56  87 141 164 197 266 322 381
#     4  11  28  45  61  89 134 185 211 258 311 385
#     4  11  23  38  67  94 132 169 204 271 332 383
#     4  12  23  37  59 100 129 171 214 258 326 381
#     4  12  25  46  65  86 134 178 217 255 320 382
#     4  11  20  40  66 102 128 159 213 275 329 378
#     4  11  22  38  62  93 130 166 210 263 322 373
#     4  12  24  34  67 102 118 162 215 265 321 381
#
# _framework density 18.797087000000001
#
# number of rings (size 3 to 8) (size 9 to 14) (size 15 to 20)
#    0.000    0.727    6.364    3.273    0.000    5.818 
#    0.000    0.909    0.000    0.000    0.000    0.000 
#    0.000    0.000    0.000    0.000    0.000    0.000 
#
# Total GULP energy -122602.229218 kJ/mol
# GULP energy per Si atom -5572.828601 kJ/mol
# Density = 1.875430 g / cm^3
# Si number density = 18.797087 Si / 1000 Ang^3
#
#
#
# Elastic Constant Matrix: (Units=GPa)
#
#
# Indices 1 2 3 4 5 6 
#
# 1 86.1044 42.8552 33.6254 0.0000 1.4972 0.0000
# 2 42.8552 152.3286 23.3778 0.0000 -9.8320 0.0000
# 3 33.6254 23.3778 46.4359 0.0000 -5.8187 0.0000
# 4 0.0000 0.0000 0.0000 -40.5373 0.0000 -27.1240
# 5 1.4972 -9.8320 -5.8187 0.0000 28.8236 0.0000
# 6 0.0000 0.0000 0.0000 -27.1240 0.0000 18.6183
#
#
#
# Elastic Compliance Matrix: (Units=1/GPa)
#
#
# Indices 1 2 3 4 5 6 
#
# 1 0.018111 -0.003564 -0.011891 0.000000 -0.004557 0.000000
# 2 -0.003564 0.007903 -0.001063 0.000000 0.002666 0.000000
# 3 -0.011891 -0.001063 0.031510 0.000000 0.006616 0.000000
# 4 0.000000 0.000000 0.000000 -0.012492 0.000000 -0.018199
# 5 -0.004557 0.002666 0.006616 0.000000 0.037175 0.000000
# 6 0.000000 0.000000 0.000000 -0.018199 0.000000 0.027198
#
#
# Mechanical properties :
#
#
# Convention : Reuss Voigt Hill
#
# Bulk Modulus (GPa) = 40.83986 53.84286 47.34136
# Shear Modulus (GPa) = 33.19944 13.71497 23.45720
#
# Velocity S-wave (km/s) = 4.20718 2.70410 3.53642
# Velocity P-wave (km/s) = 6.73605 6.20129 6.47419
#
# Compressibility (1/GPa) = 0.02448588
#
# Stress axis : x y z
#
# Youngs Moduli (GPa) = 55.21591 126.53678 31.73598
#
# Poissons Ratio (x) = 0.45103 0.37737
# Poissons Ratio (y) = 0.19681 0.03375
# Poissons Ratio (z) = 0.65657 0.13457
#
# Static dielectric constant tensor:
#      x y z
#    x 1.641690 0.000000 -0.028280 
#    y 0.000000 1.682160 0.000000 
#    z -0.028280 0.000000 1.700040 
# 
# From -- ./inp_files/181338.got.cif
#   From: 2010.05.17/outbox.cif.g08.bks.cpg/sg12_91_cif.got.tgz:181338.got - 2010.06.03 13:09:07.
