data_PCOD9219271
_publ_section_title
;
Structure prediction by ZEFSAII (Michael W. Deem and Ramdas Pophale) SiO2 
 PCOD9219271
Probable space group: C 2/M
;
_chemical_formula_sum "Si O2"
_cell_formula_units_Z 42
_cell_length_a 14.465732
_cell_length_b 13.015692
_cell_length_c 11.827115
_cell_angle_alpha 90.000000
_cell_angle_beta 42.999344
_cell_angle_gamma 90.000000
_cell_volume 1518.673782
_symmetry_space_group_name_H-M "C 2/M"
_symmetry_group_IT_number 12
_symmetry_cell_setting 'monoclinic'
loop_
_space_group_symop_operation_xyz
x,y,z
-x,y,-z
-x,-y,-z
x,-y,z
1/2+x,1/2+y,z
1/2-x,1/2+y,-z
1/2-x,1/2-y,-z
1/2+x,1/2-y,z
loop_
_atom_site_type_symbol
_atom_site_label
_atom_site_fract_x
_atom_site_fract_y
_atom_site_fract_z
Si Si1 0.285813 0.379637 0.102133
Si Si2 0.000000 0.000000 0.500000
Si Si3 0.733327 0.124526 0.597625
Si Si4 0.051869 0.622418 0.076373
Si Si5 0.926618 0.120036 0.222530
Si Si6 0.663147 0.680299 0.249806
O O1 0.252987 0.500000 0.108641
O O2 0.352615 0.376090 0.168062
O O3 0.159029 0.301216 0.222611
O O4 0.419642 0.337021 0.914141
O O5 0.950265 0.907628 0.635608
O O6 0.573521 0.145160 0.729036
O O7 0.821223 0.153281 0.411615
O O8 0.781920 0.175464 0.669733
O O9 0.754651 0.000000 0.600472
O O10 0.047947 0.500000 0.072284
O O11 0.210969 0.644109 0.940865
O O12 0.000000 0.661884 0.000000
O O13 0.951910 0.000000 0.216904
#
# Coordination Sequence:
#
# PCOD9219271 Si02
#       6
#     8   2   8   8   8   8
#     4   9  19  34  51  80 118 151 174 212 268 345
#     4  12  24  40  56  80 100 146 206 238 280 306
#     4   9  16  29  53  87 114 143 172 224 284 342
#     4   8  14  26  45  75 110 133 165 212 286 337
#     4   8  16  31  52  84 120 146 176 207 272 350
#     4  11  20  34  54  76 111 147 185 236 268 325
#
# _framework density 27.655709999999999
#
# number of rings (size 3 to 8) (size 9 to 14) (size 15 to 20)
#    0.000    2.857    1.905    2.286    8.000    0.762 
#    0.000    0.476    0.000    1.143    0.000    0.000 
#    0.000    0.000    0.000    0.000    0.000    0.000 
#
# Total GULP energy -117182.026983 kJ/mol
# GULP energy per Si atom -5580.096523 kJ/mol
# Density = 2.759276 g / cm^3
# Si number density = 27.655710 Si / 1000 Ang^3
#
#
#
# Elastic Constant Matrix: (Units=GPa)
#
#
# Indices 1 2 3 4 5 6 
#
# 1 98.5841 14.9649 24.1542 0.0000 -12.9110 0.0000
# 2 14.9649 203.7181 84.3722 0.0000 -15.7383 0.0000
# 3 24.1542 84.3722 200.6961 0.0000 -0.8866 0.0000
# 4 0.0000 0.0000 0.0000 65.6805 0.0000 -6.3002
# 5 -12.9110 -15.7383 -0.8866 0.0000 28.5087 0.0000
# 6 0.0000 0.0000 0.0000 -6.3002 0.0000 30.5070
#
#
#
# Elastic Compliance Matrix: (Units=1/GPa)
#
#
# Indices 1 2 3 4 5 6 
#
# 1 0.011124 0.000145 -0.001377 0.000000 0.005075 0.000000
# 2 0.000145 0.006253 -0.002631 0.000000 0.003436 0.000000
# 3 -0.001377 -0.002631 0.006246 0.000000 -0.001882 0.000000
# 4 0.000000 0.000000 0.000000 0.015533 0.000000 0.003208
# 5 0.005075 0.003436 -0.001882 0.000000 0.039214 0.000000
# 6 0.000000 0.000000 0.000000 0.003208 0.000000 0.033442
#
#
# Mechanical properties :
#
#
# Convention : Reuss Voigt Hill
#
# Bulk Modulus (GPa) = 62.90579 83.33121 73.11850
# Shear Modulus (GPa) = 40.05217 50.23970 45.14594
#
# Velocity S-wave (km/s) = 3.80971 4.26680 4.04471
# Velocity P-wave (km/s) = 6.49209 7.38046 6.95048
#
# Compressibility (1/GPa) = 0.01589679
#
# Stress axis : x y z
#
# Youngs Moduli (GPa) = 89.89812 159.91679 160.09565
#
# Poissons Ratio (x) = -0.02326 0.22053
# Poissons Ratio (y) = -0.01308 0.42124
# Poissons Ratio (z) = 0.12383 0.42077
#
# Static dielectric constant tensor:
#      x y z
#    x 2.517610 0.000000 -0.088700 
#    y 0.000000 2.195100 0.000000 
#    z -0.088700 0.000000 2.185670 
# 
# From -- ./inp_files/233619.got.cif
#   From: 2010.05.17/outbox.cif.g08.bks.cpg/sg12_117_cif.got.tgz:233619.got - 2010.06.03 13:09:07.
