data_PCOD9219954
_publ_section_title
;
Structure prediction by ZEFSAII (Michael W. Deem and Ramdas Pophale) SiO2 
 PCOD9219954
Probable space group: C 2/M
;
_chemical_formula_sum "Si O2"
_cell_formula_units_Z 42
_cell_length_a 9.394531
_cell_length_b 31.636073
_cell_length_c 7.903752
_cell_angle_alpha 90.000000
_cell_angle_beta 57.656193
_cell_angle_gamma 90.000000
_cell_volume 1984.596153
_symmetry_space_group_name_H-M "C 2/M"
_symmetry_group_IT_number 12
_symmetry_cell_setting 'monoclinic'
loop_
_space_group_symop_operation_xyz
x,y,z
-x,y,-z
-x,-y,-z
x,-y,z
1/2+x,1/2+y,z
1/2-x,1/2+y,-z
1/2-x,1/2-y,-z
1/2+x,1/2-y,z
loop_
_atom_site_type_symbol
_atom_site_label
_atom_site_fract_x
_atom_site_fract_y
_atom_site_fract_z
Si Si1 0.500000 0.500000 0.500000
Si Si2 0.000694 0.070110 0.801366
Si Si3 0.595183 0.263351 0.263538
Si Si4 0.827590 0.377554 0.511140
Si Si5 0.172967 0.859402 0.278485
Si Si6 0.343535 0.697638 0.188958
O O1 0.475511 0.536435 0.666468
O O2 0.863728 0.107487 0.848494
O O3 0.188139 0.088266 0.650551
O O4 0.000000 0.056672 0.000000
O O5 0.500000 0.255534 0.500000
O O6 0.679092 0.310078 0.225413
O O7 0.444564 0.266917 0.227043
O O8 0.714899 0.223621 0.158260
O O9 0.822401 0.373040 0.310574
O O10 0.754902 0.333319 0.627187
O O11 0.000000 0.385759 0.500000
O O12 0.000000 0.862171 0.500000
O O13 0.500000 0.674259 0.000000
#
# Coordination Sequence:
#
# PCOD9219954 Si02
#       6
#     2   8   8   8   8   8
#     4  12  22  44  82 112 136 168 216 268 336 424
#     4  11  22  44  75 104 135 177 220 268 335 409
#     4  11  21  37  57  80 118 175 229 279 338 385
#     4  11  22  40  65  92 132 184 226 278 338 396
#     4   9  18  39  61  85 128 171 221 276 325 392
#     4  12  24  37  55  89 128 173 232 293 331 389
#
# _framework density 21.162997000000001
#
# number of rings (size 3 to 8) (size 9 to 14) (size 15 to 20)
#    0.000    1.143    8.571    2.571    2.667    0.000 
#    0.000    1.429    0.000    1.143    0.000    0.000 
#    0.000    0.000    0.000    0.000    0.000    0.000 
#
# Total GULP energy -116905.365991 kJ/mol
# GULP energy per Si atom -5566.922190 kJ/mol
# Density = 2.111483 g / cm^3
# Si number density = 21.162997 Si / 1000 Ang^3
#
#
#
# Elastic Constant Matrix: (Units=GPa)
#
#
# Indices 1 2 3 4 5 6 
#
# 1 114.4923 28.1958 32.7130 0.0000 9.6276 0.0000
# 2 28.1958 97.9231 34.0099 0.0000 6.7265 0.0000
# 3 32.7130 34.0099 75.6474 0.0000 36.4685 0.0000
# 4 0.0000 0.0000 0.0000 20.0242 0.0000 9.1555
# 5 9.6276 6.7265 36.4685 0.0000 38.7222 0.0000
# 6 0.0000 0.0000 0.0000 9.1555 0.0000 -6.5796
#
#
#
# Elastic Compliance Matrix: (Units=1/GPa)
#
#
# Indices 1 2 3 4 5 6 
#
# 1 0.010298 -0.001406 -0.004954 0.000000 0.002349 0.000000
# 2 -0.001406 0.012978 -0.007891 0.000000 0.005527 0.000000
# 3 -0.004954 -0.007891 0.032336 0.000000 -0.027852 0.000000
# 4 0.000000 0.000000 0.000000 0.030521 0.000000 0.042470
# 5 0.002349 0.005527 -0.027852 0.000000 0.050511 0.000000
# 6 0.000000 0.000000 0.000000 0.042470 0.000000 -0.092888
#
#
# Mechanical properties :
#
#
# Convention : Reuss Voigt Hill
#
# Bulk Modulus (GPa) = 36.88642 53.10002 44.99322
# Shear Modulus (GPa) = 61.50360 23.30964 42.40662
#
# Velocity S-wave (km/s) = 5.39675 3.32239 4.48125
# Velocity P-wave (km/s) = 7.50338 6.31372 6.93411
#
# Compressibility (1/GPa) = 0.02711025
#
# Stress axis : x y z
#
# Youngs Moduli (GPa) = 97.10286 77.05338 30.92525
#
# Poissons Ratio (x) = 0.10835 0.15320
# Poissons Ratio (y) = 0.13654 0.24404
# Poissons Ratio (z) = 0.48102 0.60804
#
# Static dielectric constant tensor:
#      x y z
#    x 1.811150 0.000000 0.030160 
#    y 0.000000 1.746380 0.000000 
#    z 0.030160 0.000000 1.970540 
# 
# From -- ./inp_files/42072.got.cif
#   From: 2010.05.17/outbox.cif.g08.bks.cpg/sg12_22_cif.got.tgz:42072.got - 2010.06.03 13:09:07.
