data_PCOD9219038
_publ_section_title
;
Structure prediction by ZEFSAII (Michael W. Deem and Ramdas Pophale) SiO2 
 PCOD9219038
Probable space group: C 2/M
;
_chemical_formula_sum "Si O2"
_cell_formula_units_Z 64
_cell_length_a 17.287888
_cell_length_b 21.320225
_cell_length_c 11.578086
_cell_angle_alpha 90.000000
_cell_angle_beta 123.534659
_cell_angle_gamma 90.000000
_cell_volume 3557.157430
_symmetry_space_group_name_H-M "C 2/M"
_symmetry_group_IT_number 12
_symmetry_cell_setting 'monoclinic'
loop_
_space_group_symop_operation_xyz
x,y,z
-x,y,-z
-x,-y,-z
x,-y,z
1/2+x,1/2+y,z
1/2-x,1/2+y,-z
1/2-x,1/2-y,-z
1/2+x,1/2-y,z
loop_
_atom_site_type_symbol
_atom_site_label
_atom_site_fract_x
_atom_site_fract_y
_atom_site_fract_z
Si Si1 0.100021 0.730418 0.594473
Si Si2 0.110886 0.330206 0.088524
Si Si3 0.609571 0.650294 0.439614
Si Si4 0.422711 0.427204 0.241782
Si Si5 0.305737 0.701652 0.727011
Si Si6 0.641309 0.238640 0.898077
Si Si7 0.238402 0.074886 0.706955
Si Si8 0.909853 0.141243 0.005122
O O1 0.093323 0.795911 0.520784
O O2 0.195167 0.702880 0.621214
O O3 0.116144 0.737293 0.744192
O O4 0.000000 0.697580 0.500000
O O5 0.154022 0.268479 0.190633
O O6 0.166911 0.388763 0.185682
O O7 0.127848 0.322138 0.965581
O O8 0.000000 0.332207 0.000000
O O9 0.514444 0.612337 0.345678
O O10 0.642799 0.681906 0.347532
O O11 0.689517 0.604481 0.554048
O O12 0.443652 0.500000 0.277809
O O13 0.335869 0.410917 0.251679
O O14 0.398504 0.412937 0.088857
O O15 0.328053 0.652463 0.847066
O O16 0.585984 0.294980 0.915165
O O17 0.750000 0.250000 0.000000
O O18 0.249488 0.000000 0.707576
O O19 0.000000 0.134122 0.000000
#
# Coordination Sequence:
#
# PCOD9219038 Si02
#       8
#     8   8   8   8   8   8   8   8
#     4  12  24  33  58  90 123 161 196 238 304 370
#     4  11  24  39  62  86 120 158 199 252 302 355
#     4  12  22  39  59  86 128 160 190 246 303 366
#     4  11  24  40  62  90 120 162 207 245 296 356
#     4  11  23  38  56  92 125 158 195 243 312 364
#     4  11  19  36  58  84 119 156 196 243 305 349
#     4  11  24  42  62  87 118 160 208 252 292 350
#     4  11  20  36  57  83 118 159 197 248 294 352
#
# _framework density 17.991893999999998
#
# number of rings (size 3 to 8) (size 9 to 14) (size 15 to 20)
#    0.000    0.750    5.000    5.625    1.750    1.500 
#    0.000    0.000    0.000    0.000    0.000    0.000 
#    0.000    4.000    0.000    0.000    0.000    0.000 
#
# Total GULP energy -178661.994936 kJ/mol
# GULP energy per Si atom -5583.187342 kJ/mol
# Density = 1.795094 g / cm^3
# Si number density = 17.991894 Si / 1000 Ang^3
#
#
#
# Elastic Constant Matrix: (Units=GPa)
#
#
# Indices 1 2 3 4 5 6 
#
# 1 83.9407 29.4641 48.7635 0.0000 13.3828 0.0000
# 2 29.4641 44.6793 30.6273 0.0000 6.0541 0.0000
# 3 48.7635 30.6273 114.6137 0.0000 6.5909 0.0000
# 4 0.0000 0.0000 0.0000 21.7809 0.0000 4.6428
# 5 13.3828 6.0541 6.5909 0.0000 48.8499 0.0000
# 6 0.0000 0.0000 0.0000 4.6428 0.0000 21.5987
#
#
#
# Elastic Compliance Matrix: (Units=1/GPa)
#
#
# Indices 1 2 3 4 5 6 
#
# 1 0.018438 -0.007912 -0.005539 0.000000 -0.003323 0.000000
# 2 -0.007912 0.031084 -0.004881 0.000000 -0.001026 0.000000
# 3 -0.005539 -0.004881 0.012360 0.000000 0.000455 0.000000
# 4 0.000000 0.000000 0.000000 0.048116 0.000000 -0.010343
# 5 -0.003323 -0.001026 0.000455 0.000000 0.021447 0.000000
# 6 0.000000 0.000000 0.000000 -0.010343 0.000000 0.048522
#
#
# Mechanical properties :
#
#
# Convention : Reuss Voigt Hill
#
# Bulk Modulus (GPa) = 39.65467 51.21595 45.43531
# Shear Modulus (GPa) = 22.21838 27.40448 24.81143
#
# Velocity S-wave (km/s) = 3.51794 3.90700 3.71756
# Velocity P-wave (km/s) = 6.21203 6.99148 6.61325
#
# Compressibility (1/GPa) = 0.02521771
#
# Stress axis : x y z
#
# Youngs Moduli (GPa) = 54.23564 32.17058 80.90625
#
# Poissons Ratio (x) = 0.25452 0.44817
# Poissons Ratio (y) = 0.42909 0.39493
# Poissons Ratio (z) = 0.30043 0.15703
#
# Static dielectric constant tensor:
#      x y z
#    x 1.637580 0.000000 0.005440 
#    y 0.000000 1.621900 0.000000 
#    z 0.005440 0.000000 1.644060 
# 
# From -- ./inp_files/159569.got.cif
#   From: 2010.05.17/outbox.cif.g08.bks.cpg/sg12_80_cif.got.tgz:159569.got - 2010.06.03 13:09:07.
