data_PCOD9219043
_publ_section_title
;
Structure prediction by ZEFSAII (Michael W. Deem and Ramdas Pophale) SiO2 
 PCOD9219043
Probable space group: C 2/M
;
_chemical_formula_sum "Si O2"
_cell_formula_units_Z 48
_cell_length_a 7.282754
_cell_length_b 29.089076
_cell_length_c 16.122293
_cell_angle_alpha 90.000000
_cell_angle_beta 39.677940
_cell_angle_gamma 90.000000
_cell_volume 2180.689925
_symmetry_space_group_name_H-M "C 2/M"
_symmetry_group_IT_number 12
_symmetry_cell_setting 'monoclinic'
loop_
_space_group_symop_operation_xyz
x,y,z
-x,y,-z
-x,-y,-z
x,-y,z
1/2+x,1/2+y,z
1/2-x,1/2+y,-z
1/2-x,1/2-y,-z
1/2+x,1/2-y,z
loop_
_atom_site_type_symbol
_atom_site_label
_atom_site_fract_x
_atom_site_fract_y
_atom_site_fract_z
Si Si1 0.156911 0.650801 0.107773
Si Si2 0.344154 0.049854 0.866769
Si Si3 0.150875 0.193977 0.217851
Si Si4 0.185698 0.852645 0.520584
Si Si5 0.856195 0.298352 0.720058
Si Si6 0.828273 0.550288 0.420490
O O1 0.067861 0.597971 0.123500
O O2 0.063219 0.670271 0.229817
O O3 0.986893 0.681776 0.101558
O O4 0.500000 0.653508 0.000000
O O5 0.452263 0.053987 0.733834
O O6 0.458188 0.000000 0.856927
O O7 0.000000 0.048374 0.000000
O O8 0.116707 0.245593 0.264094
O O9 0.006784 0.158868 0.333518
O O10 0.964628 0.191503 0.199769
O O11 0.426104 0.813441 0.427229
O O12 0.331715 0.902994 0.471617
O O13 0.000000 0.851036 0.500000
O O14 0.500000 0.548833 0.500000
O O15 0.880254 0.500000 0.441857
#
# Coordination Sequence:
#
# PCOD9219043 Si02
#       6
#     8   8   8   8   8   8
#     4  11  23  41  63  89 122 161 203 249 301 359
#     4   9  17  33  60  89 117 157 203 244 297 366
#     4  12  24  40  60  86 120 159 204 249 303 361
#     4  11  19  36  61  85 119 155 198 248 302 359
#     4  12  23  41  60  89 119 160 203 250 304 362
#     4   9  16  28  53  86 118 152 195 248 304 358
#
# _framework density 22.011381
#
# number of rings (size 3 to 8) (size 9 to 14) (size 15 to 20)
#    0.000    1.333    5.000    2.000    0.000    1.333 
#    0.000    0.000    0.000    5.000    0.000    4.667 
#    0.000    0.000    0.000    0.000    0.000    0.000 
#
# Total GULP energy -133893.866913 kJ/mol
# GULP energy per Si atom -5578.911121 kJ/mol
# Density = 2.196128 g / cm^3
# Si number density = 22.011381 Si / 1000 Ang^3
#
#
#
# Elastic Constant Matrix: (Units=GPa)
#
#
# Indices 1 2 3 4 5 6 
#
# 1 95.3746 10.2066 13.2350 0.0000 -14.9026 0.0000
# 2 10.2066 151.3633 29.6802 0.0000 -13.6120 0.0000
# 3 13.2350 29.6802 111.4014 0.0000 -6.1891 0.0000
# 4 0.0000 0.0000 0.0000 22.2071 0.0000 -14.7570
# 5 -14.9026 -13.6120 -6.1891 0.0000 24.2489 0.0000
# 6 0.0000 0.0000 0.0000 -14.7570 0.0000 -11.1280
#
#
#
# Elastic Compliance Matrix: (Units=1/GPa)
#
#
# Indices 1 2 3 4 5 6 
#
# 1 0.011709 0.000035 -0.001014 0.000000 0.006957 0.000000
# 2 0.000035 0.007274 -0.001739 0.000000 0.003661 0.000000
# 3 -0.001014 -0.001739 0.009608 0.000000 0.000853 0.000000
# 4 0.000000 0.000000 0.000000 0.023937 0.000000 -0.031743
# 5 0.006957 0.003661 0.000853 0.000000 0.047787 0.000000
# 6 0.000000 0.000000 0.000000 -0.031743 0.000000 -0.047769
#
#
# Mechanical properties :
#
#
# Convention : Reuss Voigt Hill
#
# Bulk Modulus (GPa) = 43.18646 51.59810 47.39228
# Shear Modulus (GPa) = 76.10256 27.40011 51.75133
#
# Velocity S-wave (km/s) = 5.88636 3.53202 4.85409
# Velocity P-wave (km/s) = 8.11552 6.33451 7.27969
#
# Compressibility (1/GPa) = 0.02315541
#
# Stress axis : x y z
#
# Youngs Moduli (GPa) = 85.40467 137.46693 104.08358
#
# Poissons Ratio (x) = -0.00479 0.10553
# Poissons Ratio (y) = -0.00298 0.18099
# Poissons Ratio (z) = 0.08659 0.23903
#
# Static dielectric constant tensor:
#      x y z
#    x 1.847020 0.000000 -0.019690 
#    y 0.000000 1.821940 0.000000 
#    z -0.019690 0.000000 1.879010 
# 
# From -- ./inp_files/302852.got.cif
#   From: 2010.05.17/outbox.cif.g08.bks.cpg/sg12_152_cif.got.tgz:302852.got - 2010.06.03 13:09:07.
