data_PCOD9219763
_publ_section_title
;
Structure prediction by ZEFSAII (Michael W. Deem and Ramdas Pophale) SiO2 
 PCOD9219763
Probable space group: C 2/M
;
_chemical_formula_sum "Si O2"
_cell_formula_units_Z 56
_cell_length_a 19.819416
_cell_length_b 8.096642
_cell_length_c 25.954346
_cell_angle_alpha 90.000000
_cell_angle_beta 42.254921
_cell_angle_gamma 90.000000
_cell_volume 2800.613688
_symmetry_space_group_name_H-M "C 2/M"
_symmetry_group_IT_number 12
_symmetry_cell_setting 'monoclinic'
loop_
_space_group_symop_operation_xyz
x,y,z
-x,y,-z
-x,-y,-z
x,-y,z
1/2+x,1/2+y,z
1/2-x,1/2+y,-z
1/2-x,1/2-y,-z
1/2+x,1/2-y,z
loop_
_atom_site_type_symbol
_atom_site_label
_atom_site_fract_x
_atom_site_fract_y
_atom_site_fract_z
Si Si1 0.189889 0.192986 0.151965
Si Si2 0.293758 0.697733 0.421150
Si Si3 0.663810 0.311972 0.009752
Si Si4 0.772607 0.799275 0.322508
Si Si5 0.471606 0.699947 0.256161
Si Si6 0.964521 0.693688 0.077710
Si Si7 0.245229 0.306894 0.227653
O O1 0.280783 0.293796 0.076452
O O2 0.191094 0.211397 0.212484
O O3 0.084348 0.259356 0.190018
O O4 0.203953 0.000000 0.130239
O O5 0.292169 0.500000 0.421593
O O6 0.250000 0.750000 0.500000
O O7 0.262575 0.747804 0.600175
O O8 0.408971 0.748327 0.343083
O O9 0.640096 0.500000 0.036093
O O10 0.750000 0.250000 0.000000
O O11 0.558899 0.218542 0.062484
O O12 0.891442 0.753834 0.257639
O O13 0.724535 0.740718 0.296961
O O14 0.768025 0.000000 0.323318
O O15 0.479221 0.500000 0.251896
O O16 0.938183 0.500000 0.089770
O O17 0.864789 0.788763 0.150785
O O18 0.000000 0.744423 0.000000
O O19 0.218174 0.500000 0.239711
#
# Coordination Sequence:
#
# PCOD9219763 Si02
#       7
#     8   8   8   8   8   8   8
#     4  11  21  36  55  76 105 140 176 218 268 318
#     4   8  14  29  52  79 105 131 168 210 256 308
#     4  12  26  41  57  78 105 137 177 225 274 324
#     4   7  15  31  51  77 102 134 173 210 256 314
#     4   7  15  31  52  74 100 135 171 206 255 313
#     4  11  23  40  58  78 106 140 181 226 273 321
#     4  11  21  34  56  79 105 142 181 222 268 320
#
# _framework density 19.995618
#
# number of rings (size 3 to 8) (size 9 to 14) (size 15 to 20)
#    0.857    1.571    1.429    2.571    2.000    0.571 
#    0.000    2.857    0.000    0.857    0.000    6.000 
#    0.000    0.000    0.000    0.000    0.000    0.000 
#
# Total GULP energy -155884.455948 kJ/mol
# GULP energy per Si atom -5567.301998 kJ/mol
# Density = 1.995011 g / cm^3
# Si number density = 19.995618 Si / 1000 Ang^3
#
#
#
# Elastic Constant Matrix: (Units=GPa)
#
#
# Indices 1 2 3 4 5 6 
#
# 1 59.8891 -4.6221 -7.2335 0.0002 18.2366 -0.0003
# 2 -4.6221 25.3727 0.5703 0.0009 1.4497 -0.0021
# 3 -7.2335 0.5703 36.8702 -0.0001 19.1946 0.0001
# 4 0.0002 0.0009 -0.0001 19.8819 0.0001 2.3425
# 5 18.2366 1.4497 19.1946 0.0001 32.7279 0.0000
# 6 -0.0003 -0.0021 0.0001 2.3425 0.0000 18.4408
#
#
#
# Elastic Compliance Matrix: (Units=1/GPa)
#
#
# Indices 1 2 3 4 5 6 
#
# 1 0.027835 0.006188 0.019552 -0.000001 -0.027251 0.000001
# 2 0.006188 0.040893 0.004779 -0.000002 -0.008062 0.000005
# 3 0.019552 0.004779 0.052782 0.000000 -0.042062 0.000001
# 4 -0.000001 -0.000002 0.000000 0.051061 0.000000 -0.006486
# 5 -0.027251 -0.008062 -0.042062 0.000000 0.070766 -0.000001
# 6 0.000001 0.000005 0.000001 -0.006486 -0.000001 0.055051
#
#
# Mechanical properties :
#
#
# Convention : Reuss Voigt Hill
#
# Bulk Modulus (GPa) = 5.47801 11.06238 8.27019
# Shear Modulus (GPa) = 16.76729 23.10461 19.93595
#
# Velocity S-wave (km/s) = 2.89891 3.40293 3.16098
# Velocity P-wave (km/s) = 3.73503 4.58086 4.17940
#
# Compressibility (1/GPa) = 0.18254797
#
# Stress axis : x y z
#
# Youngs Moduli (GPa) = 35.92613 24.45406 18.94594
#
# Poissons Ratio (x) = -0.15133 -0.37043
# Poissons Ratio (y) = -0.22232 -0.09054
# Poissons Ratio (z) = -0.70243 -0.11686
#
# Static dielectric constant tensor:
#      x y z
#    x 1.748010 0.000000 0.041420 
#    y 0.000000 1.707640 0.000000 
#    z 0.041420 0.000000 1.744130 
# 
# From -- ./inp_files/342355.got.cif
#   From: 2010.05.17/outbox.cif.g08.bks.cpg/sg12_172_cif.got.tgz:342355.got - 2010.06.03 13:09:07.
