data_PCOD9219520
_publ_section_title
;
Structure prediction by ZEFSAII (Michael W. Deem and Ramdas Pophale) SiO2 
 PCOD9219520
Probable space group: C 2/M
;
_chemical_formula_sum "Si O2"
_cell_formula_units_Z 56
_cell_length_a 14.554263
_cell_length_b 19.537173
_cell_length_c 11.586547
_cell_angle_alpha 90.000000
_cell_angle_beta 61.552954
_cell_angle_gamma 90.000000
_cell_volume 2896.824382
_symmetry_space_group_name_H-M "C 2/M"
_symmetry_group_IT_number 12
_symmetry_cell_setting 'monoclinic'
loop_
_space_group_symop_operation_xyz
x,y,z
-x,y,-z
-x,-y,-z
x,-y,z
1/2+x,1/2+y,z
1/2-x,1/2+y,-z
1/2-x,1/2-y,-z
1/2+x,1/2-y,z
loop_
_atom_site_type_symbol
_atom_site_label
_atom_site_fract_x
_atom_site_fract_y
_atom_site_fract_z
Si Si1 0.149435 0.820762 0.596774
Si Si2 0.093079 0.828589 0.037513
Si Si3 0.954440 0.080517 0.728260
Si Si4 0.453038 0.077850 0.156259
Si Si5 0.264956 0.210839 0.762456
Si Si6 0.767812 0.861371 0.696306
Si Si7 0.020645 0.289652 0.257219
O O1 0.218144 0.816608 0.670884
O O2 0.216034 0.835334 0.443586
O O3 0.064889 0.881387 0.654289
O O4 0.079216 0.751580 0.633828
O O5 0.200957 0.821819 0.905492
O O6 0.092797 0.893030 0.122645
O O7 0.067045 0.762266 0.131968
O O8 0.000000 0.833807 0.000000
O O9 0.875870 0.107528 0.677254
O O10 0.965155 0.000000 0.715707
O O11 0.327783 0.087409 0.230145
O O12 0.492706 0.138496 0.215449
O O13 0.479367 0.000000 0.176373
O O14 0.500000 0.088300 0.000000
O O15 0.242994 0.292131 0.780971
O O16 0.388190 0.201549 0.703897
#
# Coordination Sequence:
#
# PCOD9219520 Si02
#       7
#     8   8   8   8   8   8   8
#     4  11  24  43  65 100 128 168 214 270 323 380
#     4  11  20  40  63  93 130 171 217 271 323 374
#     4  11  25  42  65  97 132 170 214 268 331 387
#     4  11  25  43  63  93 132 172 214 262 316 376
#     4  12  22  38  66  97 126 165 217 270 322 376
#     4  12  23  42  70  95 127 164 221 271 322 378
#     4  11  22  38  65  95 129 166 217 268 316 381
#
# _framework density 19.331513999999999
#
# number of rings (size 3 to 8) (size 9 to 14) (size 15 to 20)
#    0.000    0.714    7.143    3.000    2.000    2.000 
#    0.000    0.714    0.000    0.857    0.000    0.000 
#    0.000    0.000    0.000    0.000    0.000    0.000 
#
# Total GULP energy -156552.978988 kJ/mol
# GULP energy per Si atom -5591.177821 kJ/mol
# Density = 1.928751 g / cm^3
# Si number density = 19.331514 Si / 1000 Ang^3
#
#
#
# Elastic Constant Matrix: (Units=GPa)
#
#
# Indices 1 2 3 4 5 6 
#
# 1 130.3730 33.2044 27.0760 0.0000 7.7711 0.0000
# 2 33.2044 88.3172 30.3116 0.0000 -7.6424 0.0000
# 3 27.0760 30.3116 89.8553 0.0000 -8.5961 0.0000
# 4 0.0000 0.0000 0.0000 3.5026 0.0000 2.0126
# 5 7.7711 -7.6424 -8.5961 0.0000 9.8812 0.0000
# 6 0.0000 0.0000 0.0000 2.0126 0.0000 25.3289
#
#
#
# Elastic Compliance Matrix: (Units=1/GPa)
#
#
# Indices 1 2 3 4 5 6 
#
# 1 0.010116 -0.003946 -0.003021 0.000000 -0.013636 0.000000
# 2 -0.003946 0.014765 -0.002621 0.000000 0.012244 0.000000
# 3 -0.003021 -0.002621 0.014133 0.000000 0.012645 0.000000
# 4 0.000000 0.000000 0.000000 0.299164 0.000000 -0.023772
# 5 -0.013636 0.012244 0.012645 0.000000 0.132397 0.000000
# 6 0.000000 0.000000 0.000000 -0.023772 0.000000 0.041369
#
#
# Mechanical properties :
#
#
# Convention : Reuss Voigt Hill
#
# Bulk Modulus (GPa) = 50.40865 54.41440 52.41153
# Shear Modulus (GPa) = 9.29829 22.27276 15.78553
#
# Velocity S-wave (km/s) = 2.19553 3.39801 2.86067
# Velocity P-wave (km/s) = 5.70611 6.60337 6.17107
#
# Compressibility (1/GPa) = 0.01983786
#
# Stress axis : x y z
#
# Youngs Moduli (GPa) = 98.85681 67.72617 70.75580
#
# Poissons Ratio (x) = 0.26726 0.21379
# Poissons Ratio (y) = 0.39010 0.18542
# Poissons Ratio (z) = 0.29869 0.17748
#
# Static dielectric constant tensor:
#      x y z
#    x 1.706200 0.000000 -0.052610 
#    y 0.000000 1.645550 0.000000 
#    z -0.052610 0.000000 1.822360 
# 
# From -- ./inp_files/146023.got.cif
#   From: 2010.05.17/outbox.cif.g08.bks.cpg/sg12_74_cif.got.tgz:146023.got - 2010.06.03 13:09:07.
