data_PCOD9219731
_publ_section_title
;
Structure prediction by ZEFSAII (Michael W. Deem and Ramdas Pophale) SiO2 
 PCOD9219731
Probable space group: C 2/M
;
_chemical_formula_sum "Si O2"
_cell_formula_units_Z 56
_cell_length_a 15.779473
_cell_length_b 27.255478
_cell_length_c 10.541452
_cell_angle_alpha 90.000000
_cell_angle_beta 138.649353
_cell_angle_gamma 90.000000
_cell_volume 2995.217459
_symmetry_space_group_name_H-M "C 2/M"
_symmetry_group_IT_number 12
_symmetry_cell_setting 'monoclinic'
loop_
_space_group_symop_operation_xyz
x,y,z
-x,y,-z
-x,-y,-z
x,-y,z
1/2+x,1/2+y,z
1/2-x,1/2+y,-z
1/2-x,1/2-y,-z
1/2+x,1/2-y,z
loop_
_atom_site_type_symbol
_atom_site_label
_atom_site_fract_x
_atom_site_fract_y
_atom_site_fract_z
Si Si1 0.136601 0.608925 0.616840
Si Si2 0.696430 0.668507 0.994256
Si Si3 0.388146 0.799077 0.584655
Si Si4 0.804888 0.200281 0.423626
Si Si5 0.525300 0.606731 0.389176
Si Si6 0.885577 0.941213 0.773611
Si Si7 0.628528 0.771283 0.003781
O O1 0.211003 0.634681 0.817390
O O2 0.092875 0.653815 0.478571
O O3 0.247876 0.578616 0.668858
O O4 0.000000 0.583713 0.500000
O O5 0.626523 0.711771 0.996348
O O6 0.599235 0.633900 0.809001
O O7 0.776891 0.702194 0.989461
O O8 0.248686 0.803015 0.493399
O O9 0.393632 0.748293 0.513469
O O10 0.493940 0.792920 0.810501
O O11 0.687125 0.211565 0.200699
O O12 0.876149 0.150795 0.471008
O O13 0.500000 0.582755 0.500000
O O14 0.581270 0.575857 0.333058
O O15 0.883238 0.000000 0.774136
O O16 0.000000 0.924682 0.000000
#
# Coordination Sequence:
#
# PCOD9219731 Si02
#       7
#     8   8   8   8   8   8   8
#     4  12  23  40  66  94 128 169 213 264 322 383
#     4  11  22  33  56  89 129 170 213 256 292 360
#     4  11  22  34  53  85 125 174 217 254 303 367
#     4  11  22  34  53  85 125 174 217 254 303 367
#     4  12  23  40  66  94 128 169 213 264 322 383
#     4  11  26  48  73  97 121 157 215 284 341 391
#     4  11  21  34  51  84 133 178 213 252 288 372
#
# _framework density 18.696472
#
# number of rings (size 3 to 8) (size 9 to 14) (size 15 to 20)
#    0.000    0.714    8.571    0.429    0.000    1.143 
#    2.571    0.000    0.000    0.000    0.000    4.000 
#    0.000    0.000    0.000    0.000    0.000    0.000 
#
# Total GULP energy -156132.721549 kJ/mol
# GULP energy per Si atom -5576.168627 kJ/mol
# Density = 1.865392 g / cm^3
# Si number density = 18.696472 Si / 1000 Ang^3
#
#
#
# Elastic Constant Matrix: (Units=GPa)
#
#
# Indices 1 2 3 4 5 6 
#
# 1 104.5620 27.4577 27.7397 0.0000 -11.2016 0.0000
# 2 27.4577 50.2512 20.9844 0.0000 -8.7078 0.0000
# 3 27.7397 20.9844 119.5172 0.0000 -6.7460 0.0000
# 4 0.0000 0.0000 0.0000 19.3261 0.0000 0.2160
# 5 -11.2016 -8.7078 -6.7460 0.0000 24.4298 0.0000
# 6 0.0000 0.0000 0.0000 0.2160 0.0000 19.8999
#
#
#
# Elastic Compliance Matrix: (Units=1/GPa)
#
#
# Indices 1 2 3 4 5 6 
#
# 1 0.011683 -0.005172 -0.001631 0.000000 0.003063 0.000000
# 2 -0.005172 0.024907 -0.002850 0.000000 0.005720 0.000000
# 3 -0.001631 -0.002850 0.009291 0.000000 0.000802 0.000000
# 4 0.000000 0.000000 0.000000 0.051750 0.000000 -0.000562
# 5 0.003063 0.005720 0.000802 0.000000 0.044598 0.000000
# 6 0.000000 0.000000 0.000000 -0.000562 0.000000 0.050257
#
#
# Mechanical properties :
#
#
# Convention : Reuss Voigt Hill
#
# Bulk Modulus (GPa) = 37.62752 47.41045 42.51899
# Shear Modulus (GPa) = 22.66036 25.94107 24.30071
#
# Velocity S-wave (km/s) = 3.48517 3.72894 3.60911
# Velocity P-wave (km/s) = 6.03029 6.62970 6.33709
#
# Compressibility (1/GPa) = 0.02657629
#
# Stress axis : x y z
#
# Youngs Moduli (GPa) = 85.59804 40.14907 107.62986
#
# Poissons Ratio (x) = 0.20764 0.17550
# Poissons Ratio (y) = 0.44269 0.30674
# Poissons Ratio (z) = 0.13957 0.11442
#
# Static dielectric constant tensor:
#      x y z
#    x 1.757410 0.000000 -0.005710 
#    y 0.000000 1.621010 0.000000 
#    z -0.005710 0.000000 1.649360 
# 
# From -- ./inp_files/68306.got.cif
#   From: 2010.05.17/outbox.cif.g08.bks.cpg/sg12_35_cif.got.tgz:68306.got - 2010.06.03 13:09:07.
