data_PCOD9219674
_publ_section_title
;
Structure prediction by ZEFSAII (Michael W. Deem and Ramdas Pophale) SiO2 
 PCOD9219674
Probable space group: C 2/M
;
_chemical_formula_sum "Si O2"
_cell_formula_units_Z 40
_cell_length_a 27.544371
_cell_length_b 9.305841
_cell_length_c 16.854647
_cell_angle_alpha 90.000000
_cell_angle_beta 24.645271
_cell_angle_gamma 90.000000
_cell_volume 1801.537224
_symmetry_space_group_name_H-M "C 2/M"
_symmetry_group_IT_number 12
_symmetry_cell_setting 'monoclinic'
loop_
_space_group_symop_operation_xyz
x,y,z
-x,y,-z
-x,-y,-z
x,-y,z
1/2+x,1/2+y,z
1/2-x,1/2+y,-z
1/2-x,1/2-y,-z
1/2+x,1/2-y,z
loop_
_atom_site_type_symbol
_atom_site_label
_atom_site_fract_x
_atom_site_fract_y
_atom_site_fract_z
Si Si1 0.701500 0.168713 0.995144
Si Si2 0.121842 0.664866 0.364057
Si Si3 0.542353 0.335286 0.118068
Si Si4 0.247756 0.660016 0.325170
Si Si5 0.392725 0.837246 0.222966
O O1 0.802602 0.205032 0.782033
O O2 0.683929 0.000000 0.034641
O O3 0.750000 0.250000 0.000000
O O4 0.590073 0.244809 0.121304
O O5 0.167887 0.500000 0.278980
O O6 0.132325 0.679102 0.443419
O O7 0.000000 0.669977 0.500000
O O8 0.517997 0.500000 0.175303
O O9 0.436630 0.259614 0.229988
O O10 0.648090 0.336275 0.895777
O O11 0.247996 0.500000 0.359428
O O12 0.283797 0.773043 0.337444
O O13 0.373312 0.000000 0.277024
O O14 0.500000 0.837179 0.000000
#
# Coordination Sequence:
#
# PCOD9219674 Si02
#       5
#     8   8   8   8   8
#     4  11  21  33  49  70  97 127 161 198 237 281
#     4   9  18  33  51  71  97 128 161 197 238 282
#     4   9  16  27  42  61  87 118 152 190 234 280
#     4   8  14  24  39  60  87 119 151 185 228 276
#     4   9  15  22  35  58  87 117 148 185 230 276
#
# _framework density 22.203261000000001
#
# number of rings (size 3 to 8) (size 9 to 14) (size 15 to 20)
#    0.000    2.800    0.000    4.200    0.000    7.600 
#    0.000    0.000    0.000    0.000    0.000    1.400 
#    0.000    0.000    0.000    0.000    0.000    0.000 
#
# Total GULP energy -111620.178089 kJ/mol
# GULP energy per Si atom -5581.008904 kJ/mol
# Density = 2.215273 g / cm^3
# Si number density = 22.203261 Si / 1000 Ang^3
#
#
#
# Elastic Constant Matrix: (Units=GPa)
#
#
# Indices 1 2 3 4 5 6 
#
# 1 180.4754 113.8078 20.1605 0.0000 -40.9979 0.0000
# 2 113.8078 198.6652 19.1212 0.0001 -19.3584 0.0000
# 3 20.1605 19.1212 48.7171 0.0000 0.5206 0.0000
# 4 0.0000 0.0001 0.0000 7.3135 0.0000 -9.1196
# 5 -40.9979 -19.3584 0.5206 0.0000 24.4770 0.0000
# 6 0.0000 0.0000 0.0000 -9.1196 0.0000 41.5647
#
#
#
# Elastic Compliance Matrix: (Units=1/GPa)
#
#
# Indices 1 2 3 4 5 6 
#
# 1 0.013811 -0.005740 -0.003662 0.000000 0.018671 0.000000
# 2 -0.005740 0.008083 -0.000763 0.000000 -0.003205 0.000000
# 3 -0.003662 -0.000763 0.022419 0.000000 -0.007214 0.000000
# 4 0.000000 0.000000 0.000000 0.188230 0.000000 0.041299
# 5 0.018671 -0.003205 -0.007214 0.000000 0.069747 0.000000
# 6 0.000000 0.000000 0.000000 0.041299 0.000000 0.033120
#
#
# Mechanical properties :
#
#
# Convention : Reuss Voigt Hill
#
# Bulk Modulus (GPa) = 41.69648 81.55962 61.62805
# Shear Modulus (GPa) = 13.74634 32.98894 23.36764
#
# Velocity S-wave (km/s) = 2.49090 3.85875 3.24766
# Velocity P-wave (km/s) = 5.20509 7.52769 6.47144
#
# Compressibility (1/GPa) = 0.02398284
#
# Stress axis : x y z
#
# Youngs Moduli (GPa) = 72.40521 123.71746 44.60573
#
# Poissons Ratio (x) = 0.71015 0.16335
# Poissons Ratio (y) = 0.41561 0.03403
# Poissons Ratio (z) = 0.26515 0.09438
#
# Static dielectric constant tensor:
#      x y z
#    x 1.844930 0.000000 0.046040 
#    y 0.000000 1.764070 0.000000 
#    z 0.046040 0.000000 1.946770 
# 
# From -- ./inp_files/162736.got.cif
#   From: 2010.05.17/outbox.cif.g08.bks.cpg/sg12_82_cif.got.tgz:162736.got - 2010.06.03 13:09:07.
