data_PCOD9219407
_publ_section_title
;
Structure prediction by ZEFSAII (Michael W. Deem and Ramdas Pophale) SiO2 
 PCOD9219407
Probable space group: C 2/M
;
_chemical_formula_sum "Si O2"
_cell_formula_units_Z 56
_cell_length_a 17.971263
_cell_length_b 19.108999
_cell_length_c 14.512336
_cell_angle_alpha 90.000000
_cell_angle_beta 40.356599
_cell_angle_gamma 90.000000
_cell_volume 3227.173984
_symmetry_space_group_name_H-M "C 2/M"
_symmetry_group_IT_number 12
_symmetry_cell_setting 'monoclinic'
loop_
_space_group_symop_operation_xyz
x,y,z
-x,y,-z
-x,-y,-z
x,-y,z
1/2+x,1/2+y,z
1/2-x,1/2+y,-z
1/2-x,1/2-y,-z
1/2+x,1/2-y,z
loop_
_atom_site_type_symbol
_atom_site_label
_atom_site_fract_x
_atom_site_fract_y
_atom_site_fract_z
Si Si1 0.854268 0.084124 0.962975
Si Si2 0.332334 0.664782 0.177917
Si Si3 0.116502 0.918539 0.690850
Si Si4 0.232305 0.686279 0.947575
Si Si5 0.025067 0.303303 0.882664
Si Si6 0.136227 0.230649 0.359187
Si Si7 0.245032 0.680941 0.568984
O O1 0.763382 0.117009 0.976823
O O2 0.981761 0.096276 0.801767
O O3 0.839832 0.000000 0.991954
O O4 0.854750 0.128958 0.057918
O O5 0.353013 0.607576 0.235920
O O6 0.410324 0.731480 0.140817
O O7 0.203690 0.695356 0.296804
O O8 0.196922 0.878760 0.544566
O O9 0.134025 0.000000 0.667279
O O10 0.315635 0.694379 0.779722
O O11 0.250000 0.750000 0.000000
O O12 0.100822 0.698914 0.041468
O O13 0.115112 0.332098 0.724322
O O14 0.000000 0.345569 0.000000
O O15 0.183954 0.191706 0.404355
O O16 0.000000 0.236466 0.500000
O O17 0.250000 0.750000 0.500000
#
# Coordination Sequence:
#
# PCOD9219407 Si02
#       7
#     8   8   8   8   8   8   8
#     4  11  24  39  61  92 128 163 197 245 308 368
#     4  11  20  37  62  92 125 152 199 252 304 357
#     4  11  22  38  61  89 121 159 199 246 302 363
#     4  12  22  36  62  88 121 158 202 250 293 361
#     4  11  20  37  60  91 115 154 201 252 303 340
#     4  11  23  35  57  92 118 152 195 254 303 341
#     4  11  22  36  60  86 121 153 198 250 296 358
#
# _framework density 17.352643
#
# number of rings (size 3 to 8) (size 9 to 14) (size 15 to 20)
#    0.000    0.857    7.143    3.429    2.000    1.143 
#    0.000    1.429    0.000    4.286    0.000    0.000 
#    0.000    0.000    0.000    0.000    0.000    0.000 
#
# Total GULP energy -156023.792300 kJ/mol
# GULP energy per Si atom -5572.278296 kJ/mol
# Density = 1.731315 g / cm^3
# Si number density = 17.352643 Si / 1000 Ang^3
#
#
#
# Elastic Constant Matrix: (Units=GPa)
#
#
# Indices 1 2 3 4 5 6 
#
# 1 126.1389 40.5771 68.3075 0.0000 -6.2548 0.0000
# 2 40.5771 64.3464 46.4130 0.0000 -7.4446 0.0000
# 3 68.3075 46.4130 155.9540 0.0000 -15.2469 0.0000
# 4 0.0000 0.0000 0.0000 25.8242 0.0000 -0.2153
# 5 -6.2548 -7.4446 -15.2469 0.0000 36.9932 0.0000
# 6 0.0000 0.0000 0.0000 -0.2153 0.0000 22.6693
#
#
#
# Elastic Compliance Matrix: (Units=1/GPa)
#
#
# Indices 1 2 3 4 5 6 
#
# 1 0.011359 -0.004581 -0.003662 0.000000 -0.000511 0.000000
# 2 -0.004581 0.021730 -0.004281 0.000000 0.001834 0.000000
# 3 -0.003662 -0.004281 0.009529 0.000000 0.002447 0.000000
# 4 0.000000 0.000000 0.000000 0.038726 0.000000 0.000368
# 5 -0.000511 0.001834 0.002447 0.000000 0.028323 0.000000
# 6 0.000000 0.000000 0.000000 0.000368 0.000000 0.044116
#
#
# Mechanical properties :
#
#
# Convention : Reuss Voigt Hill
#
# Bulk Modulus (GPa) = 56.91410 73.00383 64.95897
# Shear Modulus (GPa) = 27.07263 29.84014 28.45639
#
# Velocity S-wave (km/s) = 3.95415 4.15134 4.05395
# Velocity P-wave (km/s) = 7.32918 8.07095 7.70899
#
# Compressibility (1/GPa) = 0.01757034
#
# Stress axis : x y z
#
# Youngs Moduli (GPa) = 88.03572 46.01978 104.93859
#
# Poissons Ratio (x) = 0.21081 0.38427
# Poissons Ratio (y) = 0.40328 0.44927
# Poissons Ratio (z) = 0.32237 0.19702
#
# Static dielectric constant tensor:
#      x y z
#    x 2.212250 0.000000 -0.181890 
#    y 0.000000 1.581750 0.000000 
#    z -0.181890 0.000000 1.682030 
# 
# From -- ./inp_files/226539.got.cif
#   From: 2010.05.17/outbox.cif.g08.bks.cpg/sg12_114_cif.got.tgz:226539.got - 2010.06.03 13:09:07.
