data_PCOD9219724
_publ_section_title
;
Structure prediction by ZEFSAII (Michael W. Deem and Ramdas Pophale) SiO2 
 PCOD9219724
Probable space group: C 2/M
;
_chemical_formula_sum "Si O2"
_cell_formula_units_Z 64
_cell_length_a 25.276895
_cell_length_b 8.382463
_cell_length_c 16.904812
_cell_angle_alpha 90.000000
_cell_angle_beta 88.323210
_cell_angle_gamma 90.000000
_cell_volume 3580.302388
_symmetry_space_group_name_H-M "C 2/M"
_symmetry_group_IT_number 12
_symmetry_cell_setting 'monoclinic'
loop_
_space_group_symop_operation_xyz
x,y,z
-x,y,-z
-x,-y,-z
x,-y,z
1/2+x,1/2+y,z
1/2-x,1/2+y,-z
1/2-x,1/2-y,-z
1/2+x,1/2-y,z
loop_
_atom_site_type_symbol
_atom_site_label
_atom_site_fract_x
_atom_site_fract_y
_atom_site_fract_z
Si Si1 0.421424 0.691954 0.052660
Si Si2 0.156683 0.694330 0.549321
Si Si3 0.551791 0.309411 0.290919
Si Si4 0.733096 0.192519 0.686863
Si Si5 0.562746 0.192622 0.665846
Si Si6 0.536449 0.694449 0.112924
Si Si7 0.842842 0.309722 0.630235
Si Si8 0.359197 0.191840 0.196899
O O1 0.420903 0.500000 0.053063
O O2 0.476865 0.743193 0.091292
O O3 0.373992 0.750947 0.109272
O O4 0.425622 0.744475 0.961116
O O5 0.157918 0.500000 0.548689
O O6 0.202598 0.745915 0.608021
O O7 0.100565 0.739543 0.591236
O O8 0.162730 0.752223 0.459799
O O9 0.555256 0.500000 0.289270
O O10 0.495871 0.260723 0.331456
O O11 0.550954 0.249977 0.199744
O O12 0.601868 0.243453 0.335284
O O13 0.792676 0.251646 0.682430
O O14 0.696135 0.244883 0.761698
O O15 0.733278 0.000000 0.686707
O O16 0.594647 0.243712 0.743605
O O17 0.559650 0.000000 0.666794
O O18 0.536462 0.500000 0.114003
O O19 0.841735 0.500000 0.627069
O O20 0.359297 0.000000 0.197458
#
# Coordination Sequence:
#
# PCOD9219724 Si02
#       8
#     8   8   8   8   8   8   8   8
#     4   9  15  28  50  74  99 128 163 198 237 291
#     4   8  17  34  55  74  97 128 162 204 252 294
#     4  11  21  34  50  70 101 137 167 199 241 293
#     4   9  18  35  55  74  98 129 163 203 249 295
#     4   9  17  32  51  72  99 132 164 196 241 295
#     4   8  16  29  47  71 100 132 162 196 239 289
#     4  11  22  35  51  73  97 129 171 209 245 288
#     4   9  17  29  49  77 105 127 154 199 252 293
#
# _framework density 17.875585000000001
#
# number of rings (size 3 to 8) (size 9 to 14) (size 15 to 20)
#    0.000    2.750    1.250    3.375    0.000    1.000 
#    0.000    8.750    0.000    0.750    0.000    0.000 
#    0.000    0.000    0.000    0.000    0.000    0.000 
#
# Total GULP energy -178388.876176 kJ/mol
# GULP energy per Si atom -5574.652381 kJ/mol
# Density = 1.783490 g / cm^3
# Si number density = 17.875585 Si / 1000 Ang^3
#
#
#
# Elastic Constant Matrix: (Units=GPa)
#
#
# Indices 1 2 3 4 5 6 
#
# 1 89.9385 8.9965 14.7340 0.0000 -25.5577 0.0000
# 2 8.9965 11.3311 3.2696 0.0000 -4.2465 0.0000
# 3 14.7340 3.2696 44.1981 0.0000 -24.4055 0.0000
# 4 0.0000 0.0000 0.0000 21.4918 0.0000 -4.6405
# 5 -25.5577 -4.2465 -24.4055 0.0000 23.7959 0.0000
# 6 0.0000 0.0000 0.0000 -4.6405 0.0000 26.0542
#
#
#
# Elastic Compliance Matrix: (Units=1/GPa)
#
#
# Indices 1 2 3 4 5 6 
#
# 1 0.018433 -0.006638 0.010662 0.000000 0.029548 0.000000
# 2 -0.006638 0.097522 0.001549 0.000000 0.011863 0.000000
# 3 0.010662 0.001549 0.058644 0.000000 0.071875 0.000000
# 4 0.000000 0.000000 0.000000 0.048390 0.000000 0.008619
# 5 0.029548 0.011863 0.071875 0.000000 0.149592 0.000000
# 6 0.000000 0.000000 0.000000 0.008619 0.000000 0.039917
#
#
# Mechanical properties :
#
#
# Convention : Reuss Voigt Hill
#
# Bulk Modulus (GPa) = 5.38372 22.16310 13.77341
# Shear Modulus (GPa) = 10.79292 22.16624 16.47958
#
# Velocity S-wave (km/s) = 2.45986 3.52522 3.03958
# Velocity P-wave (km/s) = 3.32959 5.38471 4.47668
#
# Compressibility (1/GPa) = 0.18574510
#
# Stress axis : x y z
#
# Youngs Moduli (GPa) = 54.25170 10.25414 17.05192
#
# Poissons Ratio (x) = 0.06806 -0.18181
# Poissons Ratio (y) = 0.36011 -0.02641
# Poissons Ratio (z) = -0.57845 -0.01588
#
# Static dielectric constant tensor:
#      x y z
#    x 1.587080 0.000000 -0.015400 
#    y 0.000000 1.622710 0.000000 
#    z -0.015400 0.000000 1.634450 
# 
# From -- ./inp_files/287502.got.cif
#   From: 2010.05.17/outbox.cif.g08.bks.cpg/sg12_144_cif.got.tgz:287502.got - 2010.06.03 13:09:07.
