data_PCOD9219814
_publ_section_title
;
Structure prediction by ZEFSAII (Michael W. Deem and Ramdas Pophale) SiO2 
 PCOD9219814
Probable space group: C 2/M
;
_chemical_formula_sum "Si O2"
_cell_formula_units_Z 64
_cell_length_a 11.894177
_cell_length_b 18.477259
_cell_length_c 18.129130
_cell_angle_alpha 90.000000
_cell_angle_beta 105.222846
_cell_angle_gamma 90.000000
_cell_volume 3844.470715
_symmetry_space_group_name_H-M "C 2/M"
_symmetry_group_IT_number 12
_symmetry_cell_setting 'monoclinic'
loop_
_space_group_symop_operation_xyz
x,y,z
-x,y,-z
-x,-y,-z
x,-y,z
1/2+x,1/2+y,z
1/2-x,1/2+y,-z
1/2-x,1/2-y,-z
1/2+x,1/2-y,z
loop_
_atom_site_type_symbol
_atom_site_label
_atom_site_fract_x
_atom_site_fract_y
_atom_site_fract_z
Si Si1 0.945285 0.849274 0.570507
Si Si2 0.793858 0.417081 0.438516
Si Si3 0.398979 0.085639 0.155499
Si Si4 0.371511 0.815216 0.582152
Si Si5 0.377401 0.157554 0.306979
Si Si6 0.322100 0.085732 0.822805
Si Si7 0.134171 0.587886 0.009833
Si Si8 0.186771 0.821932 0.678732
O O1 0.843266 0.904472 0.571551
O O2 0.888377 0.768747 0.563380
O O3 0.000000 0.861683 0.500000
O O4 0.055283 0.849461 0.644060
O O5 0.826804 0.500000 0.457086
O O6 0.858622 0.364105 0.507336
O O7 0.822630 0.392631 0.360714
O O8 0.363667 0.126766 0.222963
O O9 0.538923 0.093359 0.168003
O O10 0.376850 0.000000 0.160866
O O11 0.337388 0.110865 0.068658
O O12 0.486145 0.836378 0.648090
O O13 0.260103 0.826663 0.615375
O O14 0.322557 0.237188 0.303886
O O15 0.299098 0.108744 0.904053
O O16 0.251801 0.132777 0.752450
O O17 0.295777 0.000000 0.810645
O O18 0.135397 0.500000 0.009135
O O19 0.000000 0.609515 0.000000
#
# Coordination Sequence:
#
# PCOD9219814 Si02
#       8
#     8   8   8   8   8   8   8   8
#     4  11  22  39  57  71  98 141 181 212 252 310
#     4  12  25  38  54  77 106 135 171 217 261 305
#     4   9  16  29  52  79 106 134 165 209 263 308
#     4  11  21  39  57  73  99 138 180 214 258 307
#     4  11  22  35  54  78 105 136 174 214 257 311
#     4   9  17  31  52  79 106 129 168 217 256 301
#     4   7  12  25  47  75 105 134 160 200 260 311
#     4  11  21  35  57  76 102 141 177 210 256 310
#
# _framework density 16.647285
#
# number of rings (size 3 to 8) (size 9 to 14) (size 15 to 20)
#    0.000    1.875    3.750    4.125    0.000    2.750 
#    0.000    0.625    0.000    0.000    0.000    0.875 
#    0.000    4.000    0.000    0.000    0.000    0.000 
#
# Total GULP energy -178467.211732 kJ/mol
# GULP energy per Si atom -5577.100367 kJ/mol
# Density = 1.660939 g / cm^3
# Si number density = 16.647285 Si / 1000 Ang^3
#
#
#
# Elastic Constant Matrix: (Units=GPa)
#
#
# Indices 1 2 3 4 5 6 
#
# 1 43.3870 14.9564 21.7432 0.0000 -2.6980 0.0000
# 2 14.9564 50.6864 38.5502 0.0000 0.9271 0.0000
# 3 21.7432 38.5502 126.5861 0.0000 -20.2526 0.0000
# 4 0.0000 0.0000 0.0000 24.7705 0.0000 3.0957
# 5 -2.6980 0.9271 -20.2526 0.0000 21.1921 0.0000
# 6 0.0000 0.0000 0.0000 3.0957 0.0000 -5.3063
#
#
#
# Elastic Compliance Matrix: (Units=1/GPa)
#
#
# Indices 1 2 3 4 5 6 
#
# 1 0.026430 -0.005869 -0.002565 0.000000 0.001170 0.000000
# 2 -0.005869 0.028972 -0.009606 0.000000 -0.011195 0.000000
# 3 -0.002565 -0.009606 0.013317 0.000000 0.012820 0.000000
# 4 0.000000 0.000000 0.000000 0.037627 0.000000 0.021952
# 5 0.001170 -0.011195 0.012820 0.000000 0.060078 0.000000
# 6 0.000000 0.000000 0.000000 0.021952 0.000000 -0.175648
#
#
# Mechanical properties :
#
#
# Convention : Reuss Voigt Hill
#
# Bulk Modulus (GPa) = 30.63930 41.23989 35.93959
# Shear Modulus (GPa) = 132.50300 17.82524 75.16412
#
# Velocity S-wave (km/s) = 8.93125 3.27580 6.72674
# Velocity P-wave (km/s) = 11.17144 6.25574 9.05360
#
# Compressibility (1/GPa) = 0.03263783
#
# Stress axis : x y z
#
# Youngs Moduli (GPa) = 37.83590 34.51645 75.09322
#
# Poissons Ratio (x) = 0.20259 0.19262
# Poissons Ratio (y) = 0.22207 0.72133
# Poissons Ratio (z) = 0.09705 0.33156
#
# Static dielectric constant tensor:
#      x y z
#    x 1.559210 0.000000 0.000510 
#    y 0.000000 1.541410 0.000000 
#    z 0.000510 0.000000 1.578090 
# 
# From -- ./inp_files/263946.got.cif
#   From: 2010.05.17/outbox.cif.g08.bks.cpg/sg12_132_cif.got.tgz:263946.got - 2010.06.03 13:09:07.
