data_PCOD9219138
_publ_section_title
;
Structure prediction by ZEFSAII (Michael W. Deem and Ramdas Pophale) SiO2 
 PCOD9219138
Probable space group: C 2/M
;
_chemical_formula_sum "Si O2"
_cell_formula_units_Z 48
_cell_length_a 28.993277
_cell_length_b 8.840939
_cell_length_c 12.488638
_cell_angle_alpha 90.000000
_cell_angle_beta 109.197108
_cell_angle_gamma 90.000000
_cell_volume 3023.176625
_symmetry_space_group_name_H-M "C 2/M"
_symmetry_group_IT_number 12
_symmetry_cell_setting 'monoclinic'
loop_
_space_group_symop_operation_xyz
x,y,z
-x,y,-z
-x,-y,-z
x,-y,z
1/2+x,1/2+y,z
1/2-x,1/2+y,-z
1/2-x,1/2-y,-z
1/2+x,1/2-y,z
loop_
_atom_site_type_symbol
_atom_site_label
_atom_site_fract_x
_atom_site_fract_y
_atom_site_fract_z
Si Si1 0.279668 0.682122 0.424090
Si Si2 0.416395 0.683334 0.257518
Si Si3 0.326321 0.681560 0.053284
Si Si4 0.384225 0.179612 0.460684
Si Si5 0.256435 0.181569 0.837412
Si Si6 0.979404 0.825443 0.606419
O O1 0.280275 0.500000 0.429357
O O2 0.250000 0.750000 0.500000
O O3 0.334777 0.743745 0.463572
O O4 0.254707 0.728148 0.292131
O O5 0.414600 0.500000 0.270145
O O6 0.380403 0.724343 0.133304
O O7 0.395757 0.756609 0.350537
O O8 0.473417 0.724367 0.289462
O O9 0.324440 0.500000 0.042976
O O10 0.289046 0.726727 0.120733
O O11 0.304680 0.752199 0.929252
O O12 0.430901 0.226452 0.568118
O O13 0.379025 0.000000 0.452973
O O14 0.259004 0.000000 0.841898
O O15 0.000000 0.823174 0.500000
O O16 0.967227 0.000000 0.622067
#
# Coordination Sequence:
#
# PCOD9219138 Si02
#       6
#     8   8   8   8   8   8
#     4  11  22  37  52  68  93 125 164 200 236 278
#     4   9  16  29  46  67  95 129 159 189 233 281
#     4   9  16  28  47  69  95 125 156 189 230 281
#     4  11  20  29  44  67  95 125 158 196 237 279
#     4   9  18  31  46  66  94 124 154 193 235 277
#     4   8  15  27  44  63  90 126 158 188 232 282
#
# _framework density 15.877338999999999
#
# number of rings (size 3 to 8) (size 9 to 14) (size 15 to 20)
#    0.000    2.500    1.667    3.000    0.000    5.000 
#    0.000    0.000    0.000    0.000    0.000    1.167 
#    0.000    9.333    0.000    0.000    0.000    0.000 
#
# Total GULP energy -133733.174765 kJ/mol
# GULP energy per Si atom -5572.215615 kJ/mol
# Density = 1.584120 g / cm^3
# Si number density = 15.877339 Si / 1000 Ang^3
#
#
#
# Elastic Constant Matrix: (Units=GPa)
#
#
# Indices 1 2 3 4 5 6 
#
# 1 93.8491 40.7325 69.3626 0.0000 25.3311 0.0000
# 2 40.7325 44.3954 34.5255 0.0000 7.6211 0.0000
# 3 69.3626 34.5255 104.0033 0.0000 28.9480 0.0000
# 4 0.0000 0.0000 0.0000 22.8439 0.0000 3.4814
# 5 25.3311 7.6211 28.9480 0.0000 33.5881 0.0000
# 6 0.0000 0.0000 0.0000 3.4814 0.0000 22.9047
#
#
#
# Elastic Compliance Matrix: (Units=1/GPa)
#
#
# Indices 1 2 3 4 5 6 
#
# 1 0.027709 -0.015364 -0.011226 0.000000 -0.007736 0.000000
# 2 -0.015364 0.039027 -0.004564 0.000000 0.006666 0.000000
# 3 -0.011226 -0.004564 0.021013 0.000000 -0.008608 0.000000
# 4 0.000000 0.000000 0.000000 0.044813 0.000000 -0.006811
# 5 -0.007736 0.006666 -0.008608 0.000000 0.041513 0.000000
# 6 0.000000 0.000000 0.000000 -0.006811 0.000000 0.044694
#
#
# Mechanical properties :
#
#
# Convention : Reuss Voigt Hill
#
# Bulk Modulus (GPa) = 39.30858 59.05433 49.18145
# Shear Modulus (GPa) = 17.26765 22.37584 19.82174
#
# Velocity S-wave (km/s) = 3.30140 3.75813 3.53715
# Velocity P-wave (km/s) = 6.27246 7.49041 6.90833
#
# Compressibility (1/GPa) = 0.02543974
#
# Stress axis : x y z
#
# Youngs Moduli (GPa) = 36.08926 25.62359 47.58908
#
# Poissons Ratio (x) = 0.39369 0.53425
# Poissons Ratio (y) = 0.55449 0.21719
# Poissons Ratio (z) = 0.40515 0.11694
#
# Static dielectric constant tensor:
#      x y z
#    x 1.528560 0.000000 0.040230 
#    y 0.000000 1.532980 0.000000 
#    z 0.040230 0.000000 1.536740 
# 
# From -- ./inp_files/185953.got.cif
#   From: 2010.05.17/outbox.cif.g08.bks.cpg/sg12_93_cif.got.tgz:185953.got - 2010.06.03 13:09:07.
