data_PCOD9219495
_publ_section_title
;
Structure prediction by ZEFSAII (Michael W. Deem and Ramdas Pophale) SiO2 
 PCOD9219495
Probable space group: C 2/M
;
_chemical_formula_sum "Si O2"
_cell_formula_units_Z 56
_cell_length_a 23.385202
_cell_length_b 18.893841
_cell_length_c 23.976948
_cell_angle_alpha 90.000000
_cell_angle_beta 162.656958
_cell_angle_gamma 90.000000
_cell_volume 3157.952896
_symmetry_space_group_name_H-M "C 2/M"
_symmetry_group_IT_number 12
_symmetry_cell_setting 'monoclinic'
loop_
_space_group_symop_operation_xyz
x,y,z
-x,y,-z
-x,-y,-z
x,-y,z
1/2+x,1/2+y,z
1/2-x,1/2+y,-z
1/2-x,1/2-y,-z
1/2+x,1/2-y,z
loop_
_atom_site_type_symbol
_atom_site_label
_atom_site_fract_x
_atom_site_fract_y
_atom_site_fract_z
Si Si1 0.000000 0.313636 0.500000
Si Si2 0.328717 0.500000 0.514094
Si Si3 0.710265 0.580531 0.169202
Si Si4 0.488267 0.225803 0.283990
Si Si5 0.946341 0.633091 0.763857
Si Si6 0.883333 0.137205 0.036117
Si Si7 0.108337 0.113705 0.831989
Si Si8 0.257004 0.263316 0.641720
O O1 0.140624 0.363946 0.666723
O O2 0.127447 0.268243 0.576048
O O3 0.176303 0.562549 0.354027
O O4 0.479713 0.561568 0.676758
O O5 0.770423 0.500000 0.237446
O O6 0.500000 0.591663 0.000000
O O7 0.686917 0.591617 0.081374
O O8 0.561258 0.175653 0.302258
O O9 0.469052 0.305912 0.245109
O O10 0.622825 0.223204 0.463062
O O11 0.277472 0.197184 0.103071
O O12 0.861650 0.688413 0.729706
O O13 0.170425 0.615644 0.981006
O O14 0.900210 0.095818 0.110075
O O15 0.082242 0.175632 0.206994
#
# Coordination Sequence:
#
# PCOD9219495 Si02
#       8
#     4   4   8   8   8   8   8   8
#     4  12  25  40  62  89 112 154 218 258 298 345
#     4  12  24  36  56  89 138 154 185 240 304 377
#     4  11  24  42  57  80 122 167 204 249 300 347
#     4  11  20  39  64  88 119 154 206 246 295 351
#     4  11  22  39  60  91 119 157 197 243 301 362
#     4  11  21  38  62  85 117 158 205 251 288 346
#     4  11  22  38  61  92 121 164 195 238 302 367
#     4  12  21  37  63  88 114 153 204 260 291 342
#
# _framework density 17.733007000000001
#
# number of rings (size 3 to 8) (size 9 to 14) (size 15 to 20)
#    0.000    0.714    7.143    2.786    1.000    0.000 
#    1.286    0.000    0.000    0.429    0.000    1.000 
#    0.000    0.000    0.000    0.000    0.000    0.000 
#
# Total GULP energy -155964.624701 kJ/mol
# GULP energy per Si atom -5570.165168 kJ/mol
# Density = 1.769265 g / cm^3
# Si number density = 17.733007 Si / 1000 Ang^3
#
#
#
# Elastic Constant Matrix: (Units=GPa)
#
#
# Indices 1 2 3 4 5 6 
#
# 1 94.4618 23.0365 28.0803 -0.0019 15.7690 -0.0102
# 2 23.0365 88.3076 29.0766 -0.0141 7.2523 0.0143
# 3 28.0803 29.0766 93.0287 0.0020 5.2979 0.0123
# 4 -0.0019 -0.0141 0.0020 58.6487 0.0020 -16.2441
# 5 15.7690 7.2523 5.2979 0.0020 25.5424 -0.0026
# 6 -0.0102 0.0143 0.0123 -16.2441 -0.0026 4.6760
#
#
#
# Elastic Compliance Matrix: (Units=1/GPa)
#
#
# Indices 1 2 3 4 5 6 
#
# 1 0.013081 -0.001865 -0.002971 0.000288 -0.006930 0.001037
# 2 -0.001865 0.013090 -0.003423 -0.000179 -0.001855 -0.000657
# 3 -0.002971 -0.003423 0.012706 -0.000250 0.000170 -0.000898
# 4 0.000288 -0.000179 -0.000250 0.451022 0.000050 1.566831
# 5 -0.006930 -0.001855 0.000170 0.000050 0.043920 0.000189
# 6 0.001037 -0.000657 -0.000898 1.566831 0.000189 5.656969
#
#
# Mechanical properties :
#
#
# Convention : Reuss Voigt Hill
#
# Bulk Modulus (GPa) = 44.72277 48.46499 46.59388
# Shear Modulus (GPa) = 0.80454 30.81372 15.80913
#
# Velocity S-wave (km/s) = 0.67430 4.17303 2.98905
# Velocity P-wave (km/s) = 5.08734 7.11398 6.18424
#
# Compressibility (1/GPa) = 0.02235997
#
# Stress axis : x y z
#
# Youngs Moduli (GPa) = 76.44478 76.39419 78.70092
#
# Poissons Ratio (x) = 0.14249 0.23382
# Poissons Ratio (y) = 0.14259 0.26936
# Poissons Ratio (z) = 0.22712 0.26147
#
# Static dielectric constant tensor:
#      x y z
#    x 1.609210 -0.000010 0.006760 
#    y -0.000010 1.584520 -0.000010 
#    z 0.006760 -0.000010 1.616300 
# 
# From -- ./inp_files/322771.got.cif
#   From: 2010.05.17/outbox.cif.g08.bks.cpg/sg12_162_cif.got.tgz:322771.got - 2010.06.03 13:09:07.
