data_PCOD9219843
_publ_section_title
;
Structure prediction by ZEFSAII (Michael W. Deem and Ramdas Pophale) SiO2 
 PCOD9219843
Probable space group: C 2/M
;
_chemical_formula_sum "Si O2"
_cell_formula_units_Z 48
_cell_length_a 24.024062
_cell_length_b 15.238828
_cell_length_c 21.856744
_cell_angle_alpha 90.000000
_cell_angle_beta 17.493014
_cell_angle_gamma 90.000000
_cell_volume 2405.233787
_symmetry_space_group_name_H-M "C 2/M"
_symmetry_group_IT_number 12
_symmetry_cell_setting 'monoclinic'
loop_
_space_group_symop_operation_xyz
x,y,z
-x,y,-z
-x,-y,-z
x,-y,z
1/2+x,1/2+y,z
1/2-x,1/2+y,-z
1/2-x,1/2-y,-z
1/2+x,1/2-y,z
loop_
_atom_site_type_symbol
_atom_site_label
_atom_site_fract_x
_atom_site_fract_y
_atom_site_fract_z
Si Si1 0.672051 0.600634 0.688215
Si Si2 0.526272 0.784659 0.328421
Si Si3 0.097640 0.403403 0.781043
Si Si4 0.124524 0.831578 0.608899
Si Si5 0.670557 0.327740 0.358938
Si Si6 0.122540 0.767674 0.966380
O O1 0.665692 0.500000 0.713739
O O2 0.589027 0.613606 0.706907
O O3 0.883439 0.636551 0.464579
O O4 0.546733 0.664789 0.861015
O O5 0.535453 0.717785 0.261417
O O6 0.424392 0.729947 0.488808
O O7 0.723066 0.807681 0.150531
O O8 0.015368 0.500000 0.861303
O O9 0.256012 0.388164 0.564222
O O10 0.192418 0.391376 0.748314
O O11 0.957158 0.322659 0.921641
O O12 0.250000 0.750000 0.500000
O O13 0.500000 0.369472 0.500000
O O14 0.782566 0.264457 0.195635
#
# Coordination Sequence:
#
# PCOD9219843 Si02
#       6
#     8   8   8   8   8   8
#     4  11  22  38  61  86 115 154 199 243 291 341
#     4   9  20  38  61  82 115 156 192 237 293 342
#     4  11  21  35  60  90 119 153 193 238 287 345
#     4   9  17  39  60  80 115 157 188 236 292 334
#     4   9  19  37  59  84 116 159 188 234 287 347
#     4  11  21  37  61  85 122 154 192 235 294 347
#
# _framework density 19.956479000000002
#
# number of rings (size 3 to 8) (size 9 to 14) (size 15 to 20)
#    0.000    2.000    5.000    1.000    0.000    3.000 
#    0.000    9.167    0.000    3.000    0.000    0.000 
#    0.000    0.000    0.000    0.000    0.000    0.000 
#
# Total GULP energy -133803.542825 kJ/mol
# GULP energy per Si atom -5575.147618 kJ/mol
# Density = 1.991106 g / cm^3
# Si number density = 19.956479 Si / 1000 Ang^3
#
#
#
# Elastic Constant Matrix: (Units=GPa)
#
#
# Indices 1 2 3 4 5 6 
#
# 1 62.2609 2.6156 21.2797 -0.0096 1.3827 0.0049
# 2 2.6156 112.8653 21.6584 -0.0319 -9.3501 0.0144
# 3 21.2797 21.6584 58.8493 -0.0176 -11.4948 0.0086
# 4 -0.0096 -0.0319 -0.0176 3.5580 0.0134 -1.1636
# 5 1.3827 -9.3501 -11.4948 0.0134 30.1903 -0.0036
# 6 0.0049 0.0144 0.0086 -1.1636 -0.0036 15.6022
#
#
#
# Elastic Compliance Matrix: (Units=1/GPa)
#
#
# Indices 1 2 3 4 5 6 
#
# 1 0.018762 0.000758 -0.007763 0.000032 -0.003580 -0.000001
# 2 0.000758 0.009650 -0.003510 0.000064 0.001618 -0.000002
# 3 -0.007763 -0.003510 0.022631 0.000029 0.007885 -0.000003
# 4 0.000032 0.000064 0.000029 0.288087 -0.000096 0.021485
# 5 -0.003580 0.001618 0.007885 -0.000096 0.036791 -0.000003
# 6 -0.000001 -0.000002 -0.000003 0.021485 -0.000003 0.065696
#
#
# Mechanical properties :
#
#
# Convention : Reuss Voigt Hill
#
# Bulk Modulus (GPa) = 33.31623 36.12033 34.71828
# Shear Modulus (GPa) = 10.57864 22.43156 16.50510
#
# Velocity S-wave (km/s) = 2.30486 3.35628 2.87898
# Velocity P-wave (km/s) = 4.87994 5.75833 5.33724
#
# Compressibility (1/GPa) = 0.03001540
#
# Stress axis : x y z
#
# Youngs Moduli (GPa) = 53.29848 103.62615 44.18633
#
# Poissons Ratio (x) = -0.07857 0.34300
# Poissons Ratio (y) = -0.04041 0.15508
# Poissons Ratio (z) = 0.41374 0.36370
#
# Static dielectric constant tensor:
#      x y z
#    x 1.763980 -0.000020 -0.009950 
#    y -0.000020 1.682810 0.000020 
#    z -0.009950 0.000020 1.743920 
# 
# From -- ./inp_files/325603.got.cif
#   From: 2010.05.17/outbox.cif.g08.bks.cpg/sg12_163_cif.got.tgz:325603.got - 2010.06.03 13:09:07.
