data_PCOD9219126
_publ_section_title
;
Structure prediction by ZEFSAII (Michael W. Deem and Ramdas Pophale) SiO2 
 PCOD9219126
Probable space group: C 2/M
;
_chemical_formula_sum "Si O2"
_cell_formula_units_Z 64
_cell_length_a 19.562420
_cell_length_b 7.653835
_cell_length_c 21.430621
_cell_angle_alpha 90.000000
_cell_angle_beta 93.314452
_cell_angle_gamma 90.000000
_cell_volume 3203.386659
_symmetry_space_group_name_H-M "C 2/M"
_symmetry_group_IT_number 12
_symmetry_cell_setting 'monoclinic'
loop_
_space_group_symop_operation_xyz
x,y,z
-x,y,-z
-x,-y,-z
x,-y,z
1/2+x,1/2+y,z
1/2-x,1/2+y,-z
1/2-x,1/2-y,-z
1/2+x,1/2-y,z
loop_
_atom_site_type_symbol
_atom_site_label
_atom_site_fract_x
_atom_site_fract_y
_atom_site_fract_z
Si Si1 0.799406 0.707320 0.561141
Si Si2 0.378278 0.797224 0.892920
Si Si3 0.128987 0.787137 0.763070
Si Si4 0.484407 0.705986 0.153779
Si Si5 0.274728 0.712970 0.116289
Si Si6 0.423211 0.294162 0.488437
Si Si7 0.325916 0.714820 0.370652
Si Si8 0.393447 0.288283 0.034307
O O1 0.806866 0.500000 0.566734
O O2 0.750000 0.750000 0.500000
O O3 0.874059 0.776966 0.546429
O O4 0.751894 0.769337 0.615998
O O5 0.435182 0.728236 0.848840
O O6 0.302271 0.718940 0.886877
O O7 0.371445 0.000000 0.878231
O O8 0.403731 0.776080 0.965240
O O9 0.056061 0.727586 0.787747
O O10 0.184030 0.739019 0.819102
O O11 0.149197 0.725823 0.695653
O O12 0.128816 0.000000 0.759237
O O13 0.470222 0.500000 0.152004
O O14 0.447989 0.774506 0.088763
O O15 0.273548 0.500000 0.114166
O O16 0.319957 0.766057 0.058957
O O17 0.500000 0.221047 0.500000
O O18 0.431156 0.500000 0.476383
O O19 0.378628 0.224927 0.427538
O O20 0.325618 0.500000 0.372059
O O21 0.396524 0.500000 0.031442
#
# Coordination Sequence:
#
# PCOD9219126 Si02
#       8
#     8   8   8   8   8   8   8   8
#     4   9  16  27  45  70  96 120 151 187 222 263
#     4  11  20  28  42  66  92 112 133 172 229 275
#     4   8  14  29  50  65  80 111 157 192 210 247
#     4   9  18  31  47  64  83 112 147 181 214 253
#     4   8  16  29  44  63  85 110 141 181 223 257
#     4   9  17  29  45  69 101 128 149 182 228 268
#     4   8  14  26  47  69  85 113 156 190 215 254
#     4   9  17  31  48  63  81 109 147 180 208 255
#
# _framework density 19.978856
#
# number of rings (size 3 to 8) (size 9 to 14) (size 15 to 20)
#    0.000    3.125    0.000    3.750    0.000    2.250 
#    0.000    1.875    0.000    5.250    0.000    0.000 
#    0.000    0.000    0.000    0.000    0.000    0.000 
#
# Total GULP energy -178273.512291 kJ/mol
# GULP energy per Si atom -5571.047259 kJ/mol
# Density = 1.993338 g / cm^3
# Si number density = 19.978856 Si / 1000 Ang^3
#
#
#
# Elastic Constant Matrix: (Units=GPa)
#
#
# Indices 1 2 3 4 5 6 
#
# 1 142.5687 -2.1720 47.3796 0.0000 -39.9762 0.0000
# 2 -2.1720 25.3155 -3.4449 0.0000 2.4595 0.0000
# 3 47.3796 -3.4449 94.0851 0.0000 -39.1526 0.0000
# 4 0.0000 0.0000 0.0000 5.4338 0.0000 -5.2489
# 5 -39.9762 2.4595 -39.1526 0.0000 27.1152 0.0000
# 6 0.0000 0.0000 0.0000 -5.2489 0.0000 18.4333
#
#
#
# Elastic Compliance Matrix: (Units=1/GPa)
#
#
# Indices 1 2 3 4 5 6 
#
# 1 0.012392 -0.000733 0.003416 0.000000 0.023268 0.000000
# 2 -0.000733 0.039896 -0.000315 0.000000 -0.005153 0.000000
# 3 0.003416 -0.000315 0.027572 0.000000 0.044876 0.000000
# 4 0.000000 0.000000 0.000000 0.253860 0.000000 0.072287
# 5 0.023268 -0.005153 0.044876 0.000000 0.136450 0.000000
# 6 0.000000 0.000000 0.000000 0.072287 0.000000 0.074834
#
#
# Mechanical properties :
#
#
# Convention : Reuss Voigt Hill
#
# Bulk Modulus (GPa) = 11.82073 38.38831 25.10452
# Shear Modulus (GPa) = 8.79557 24.87690 16.83624
#
# Velocity S-wave (km/s) = 2.10048 3.53251 2.90608
# Velocity P-wave (km/s) = 3.43688 5.99119 4.88398
#
# Compressibility (1/GPa) = 0.08459712
#
# Stress axis : x y z
#
# Youngs Moduli (GPa) = 80.69461 25.06490 36.26870
#
# Poissons Ratio (x) = 0.01836 -0.12388
# Poissons Ratio (y) = 0.05911 0.01142
# Poissons Ratio (z) = -0.27562 0.00789
#
# Static dielectric constant tensor:
#      x y z
#    x 1.751590 0.000000 -0.020550 
#    y 0.000000 1.778230 0.000000 
#    z -0.020550 0.000000 1.686370 
# 
# From -- ./inp_files/341982.got.cif
#   From: 2010.05.17/outbox.cif.g08.bks.cpg/sg12_171_cif.got.tgz:341982.got - 2010.06.03 13:09:07.
