data_PCOD9219199
_publ_section_title
;
Structure prediction by ZEFSAII (Michael W. Deem and Ramdas Pophale) SiO2 
 PCOD9219199
Probable space group: C 2/M
;
_chemical_formula_sum "Si O2"
_cell_formula_units_Z 64
_cell_length_a 30.681068
_cell_length_b 8.716678
_cell_length_c 15.491590
_cell_angle_alpha 90.000000
_cell_angle_beta 79.040863
_cell_angle_gamma 90.000000
_cell_volume 4067.467947
_symmetry_space_group_name_H-M "C 2/M"
_symmetry_group_IT_number 12
_symmetry_cell_setting 'monoclinic'
loop_
_space_group_symop_operation_xyz
x,y,z
-x,y,-z
-x,-y,-z
x,-y,z
1/2+x,1/2+y,z
1/2-x,1/2+y,-z
1/2-x,1/2-y,-z
1/2+x,1/2-y,z
loop_
_atom_site_type_symbol
_atom_site_label
_atom_site_fract_x
_atom_site_fract_y
_atom_site_fract_z
Si Si1 0.287516 0.315050 0.801756
Si Si2 0.957027 0.183983 0.130459
Si Si3 0.942668 0.815646 0.933654
Si Si4 0.650058 0.182604 0.075755
Si Si5 0.690955 0.316362 0.884233
Si Si6 0.127934 0.316421 0.758428
Si Si7 0.313907 0.184346 0.422442
Si Si8 0.283869 0.315681 0.606104
O O1 0.286618 0.500000 0.806791
O O2 0.324509 0.249455 0.851391
O O3 0.239637 0.251410 0.848469
O O4 0.295113 0.268934 0.699139
O O5 0.922327 0.266405 0.205230
O O6 0.008771 0.225038 0.121276
O O7 0.953168 0.000000 0.141544
O O8 0.944160 0.219392 0.035719
O O9 0.901381 0.731487 0.906835
O O10 0.937152 0.000000 0.928134
O O11 0.654485 0.000000 0.071220
O O12 0.672267 0.254232 0.981708
O O13 0.692428 0.500000 0.885799
O O14 0.658346 0.260918 0.820393
O O15 0.132469 0.500000 0.764989
O O16 0.147269 0.270434 0.657855
O O17 0.314283 0.251341 0.518244
O O18 0.266816 0.232585 0.397193
O O19 0.313534 0.000000 0.428437
O O20 0.284920 0.500000 0.602320
#
# Coordination Sequence:
#
# PCOD9219199 Si02
#       8
#     8   8   8   8   8   8   8   8
#     4  11  22  38  54  71 100 135 173 213 251 292
#     4   9  18  32  52  75 101 131 167 207 250 301
#     4   9  18  34  52  73 100 132 168 208 252 294
#     4  12  24  36  51  74 101 134 175 211 248 297
#     4  12  23  35  50  71 101 138 176 210 246 290
#     4  11  20  32  50  76 106 136 168 205 250 301
#     4   9  18  32  49  72 102 131 162 204 251 296
#     4   9  18  33  51  72  97 129 168 207 247 293
#
# _framework density 15.734603999999999
#
# number of rings (size 3 to 8) (size 9 to 14) (size 15 to 20)
#    0.000    1.750    2.500    4.125    0.000    2.500 
#    0.000    1.250    0.000    0.000    0.000    0.875 
#    0.000    7.000    0.000    0.000    0.000    0.000 
#
# Total GULP energy -178647.766511 kJ/mol
# GULP energy per Si atom -5582.742703 kJ/mol
# Density = 1.569879 g / cm^3
# Si number density = 15.734604 Si / 1000 Ang^3
#
#
#
# Elastic Constant Matrix: (Units=GPa)
#
#
# Indices 1 2 3 4 5 6 
#
# 1 103.1763 45.5660 78.7483 0.0000 -7.3469 0.0000
# 2 45.5660 65.4685 46.5647 0.0000 -3.8940 0.0000
# 3 78.7483 46.5647 122.2785 0.0000 -11.6255 0.0000
# 4 0.0000 0.0000 0.0000 25.5790 0.0000 -2.8462
# 5 -7.3469 -3.8940 -11.6255 0.0000 22.9301 0.0000
# 6 0.0000 0.0000 0.0000 -2.8462 0.0000 26.8606
#
#
#
# Elastic Compliance Matrix: (Units=1/GPa)
#
#
# Indices 1 2 3 4 5 6 
#
# 1 0.021107 -0.006888 -0.010967 0.000000 0.000033 0.000000
# 2 -0.006888 0.023202 -0.004449 0.000000 -0.000523 0.000000
# 3 -0.010967 -0.004449 0.017366 0.000000 0.004535 0.000000
# 4 0.000000 0.000000 0.000000 0.039561 0.000000 0.004192
# 5 0.000033 -0.000523 0.004535 0.000000 0.045832 0.000000
# 6 0.000000 0.000000 0.000000 0.004192 0.000000 0.037673
#
#
# Mechanical properties :
#
#
# Convention : Reuss Voigt Hill
#
# Bulk Modulus (GPa) = 58.59311 70.29792 64.44552
# Shear Modulus (GPa) = 21.27308 23.07688 22.17498
#
# Velocity S-wave (km/s) = 3.68094 3.83382 3.75815
# Velocity P-wave (km/s) = 7.44211 8.02321 7.73811
#
# Compressibility (1/GPa) = 0.01706685
#
# Stress axis : x y z
#
# Youngs Moduli (GPa) = 47.37805 43.09945 57.58314
#
# Poissons Ratio (x) = 0.29688 0.63150
# Poissons Ratio (y) = 0.32635 0.25620
# Poissons Ratio (z) = 0.51958 0.19176
#
# Static dielectric constant tensor:
#      x y z
#    x 1.513540 0.000000 -0.011400 
#    y 0.000000 1.528360 0.000000 
#    z -0.011400 0.000000 1.514460 
# 
# From -- ./inp_files/248320.got.cif
#   From: 2010.05.17/outbox.cif.g08.bks.cpg/sg12_125_cif.got.tgz:248320.got - 2010.06.03 13:09:07.
