data_PCOD9219998
_publ_section_title
;
Structure prediction by ZEFSAII (Michael W. Deem and Ramdas Pophale) SiO2 
 PCOD9219998
Probable space group: C 2/M
;
_chemical_formula_sum "Si O2"
_cell_formula_units_Z 48
_cell_length_a 8.925621
_cell_length_b 25.447047
_cell_length_c 11.932543
_cell_angle_alpha 90.000000
_cell_angle_beta 108.496961
_cell_angle_gamma 90.000000
_cell_volume 2570.236771
_symmetry_space_group_name_H-M "C 2/M"
_symmetry_group_IT_number 12
_symmetry_cell_setting 'monoclinic'
loop_
_space_group_symop_operation_xyz
x,y,z
-x,y,-z
-x,-y,-z
x,-y,z
1/2+x,1/2+y,z
1/2-x,1/2+y,-z
1/2-x,1/2-y,-z
1/2+x,1/2-y,z
loop_
_atom_site_type_symbol
_atom_site_label
_atom_site_fract_x
_atom_site_fract_y
_atom_site_fract_z
Si Si1 0.143230 0.297415 0.125458
Si Si2 0.996499 0.810878 0.867249
Si Si3 0.683250 0.500000 0.045532
Si Si4 0.769317 0.093605 0.767240
Si Si5 0.185576 0.442156 0.509457
Si Si6 0.408267 0.894845 0.728934
Si Si7 0.629958 0.000000 0.129402
O O1 0.321497 0.299187 0.120743
O O2 0.137936 0.346076 0.207305
O O3 0.105247 0.241970 0.175451
O O4 0.000000 0.303713 0.000000
O O5 0.904233 0.862040 0.801574
O O6 0.000000 0.819858 0.000000
O O7 0.727588 0.551202 0.130397
O O8 0.500000 0.500000 0.000000
O O9 0.724832 0.500000 0.922766
O O10 0.777029 0.068084 0.645864
O O11 0.590507 0.114832 0.737207
O O12 0.226853 0.500000 0.476072
O O13 0.193786 0.402348 0.408135
O O14 0.000000 0.443194 0.500000
O O15 0.389779 0.948431 0.798107
O O16 0.500000 0.000000 0.000000
#
# Coordination Sequence:
#
# PCOD9219998 Si02
#       7
#     8   8   4   8   8   8   4
#     4  11  23  40  63  90 121 157 199 251 306 364
#     4  11  23  40  62  90 122 158 200 247 310 362
#     4  12  26  35  55  87 129 160 200 247 306 364
#     4  11  21  39  61  87 123 163 202 249 297 360
#     4   9  18  36  60  86 118 165 207 245 291 353
#     4  11  21  37  62  89 122 158 207 246 300 360
#     4  12  22  35  57  91 123 162 194 250 307 362
#
# _framework density 18.675322000000001
#
# number of rings (size 3 to 8) (size 9 to 14) (size 15 to 20)
#    0.000    1.167    3.333    5.000    4.667    0.000 
#    0.000    1.667    0.000    2.000    0.000    0.000 
#    0.000    0.000    0.000    0.000    0.000    0.000 
#
# Total GULP energy -133720.169916 kJ/mol
# GULP energy per Si atom -5571.673746 kJ/mol
# Density = 1.863282 g / cm^3
# Si number density = 18.675322 Si / 1000 Ang^3
#
#
#
# Elastic Constant Matrix: (Units=GPa)
#
#
# Indices 1 2 3 4 5 6 
#
# 1 116.8613 24.6554 14.6639 0.0000 2.1235 0.0000
# 2 24.6554 106.0474 36.6978 0.0000 6.1722 0.0000
# 3 14.6639 36.6978 68.7995 0.0000 -7.9937 0.0000
# 4 0.0000 0.0000 0.0000 25.7722 0.0000 -6.8232
# 5 2.1235 6.1722 -7.9937 0.0000 14.2487 0.0000
# 6 0.0000 0.0000 0.0000 -6.8232 0.0000 31.9331
#
#
#
# Elastic Compliance Matrix: (Units=1/GPa)
#
#
# Indices 1 2 3 4 5 6 
#
# 1 0.009075 -0.001604 -0.001236 0.000000 -0.001351 0.000000
# 2 -0.001604 0.013055 -0.007757 0.000000 -0.009768 0.000000
# 3 -0.001236 -0.007757 0.020697 0.000000 0.015156 0.000000
# 4 0.000000 0.000000 0.000000 0.041128 0.000000 0.008788
# 5 -0.001351 -0.009768 0.015156 0.000000 0.083117 0.000000
# 6 0.000000 0.000000 0.000000 0.008788 0.000000 0.033193
#
#
# Mechanical properties :
#
#
# Convention : Reuss Voigt Hill
#
# Bulk Modulus (GPa) = 46.22236 49.30470 47.76353
# Shear Modulus (GPa) = 21.86555 28.77020 25.31788
#
# Velocity S-wave (km/s) = 3.42545 3.92924 3.68596
# Velocity P-wave (km/s) = 6.35996 6.85883 6.61410
#
# Compressibility (1/GPa) = 0.02163455
#
# Stress axis : x y z
#
# Youngs Moduli (GPa) = 110.19152 76.59672 48.31647
#
# Poissons Ratio (x) = 0.12283 0.05971
# Poissons Ratio (y) = 0.17670 0.37479
# Poissons Ratio (z) = 0.13619 0.59415
#
# Static dielectric constant tensor:
#      x y z
#    x 1.653560 0.000000 0.030370 
#    y 0.000000 1.654500 0.000000 
#    z 0.030370 0.000000 1.620740 
# 
# From -- ./inp_files/122620.got.cif
#   From: 2010.05.17/outbox.cif.g08.bks.cpg/sg12_62_cif.got.tgz:122620.got - 2010.06.03 13:09:07.
