data_PCOD9219245
_publ_section_title
;
Structure prediction by ZEFSAII (Michael W. Deem and Ramdas Pophale) SiO2 
 PCOD9219245
Probable space group: C 2/M
;
_chemical_formula_sum "Si O2"
_cell_formula_units_Z 64
_cell_length_a 21.647437
_cell_length_b 21.143532
_cell_length_c 11.092747
_cell_angle_alpha 90.000000
_cell_angle_beta 134.819490
_cell_angle_gamma 90.000000
_cell_volume 3601.405904
_symmetry_space_group_name_H-M "C 2/M"
_symmetry_group_IT_number 12
_symmetry_cell_setting 'monoclinic'
loop_
_space_group_symop_operation_xyz
x,y,z
-x,y,-z
-x,-y,-z
x,-y,z
1/2+x,1/2+y,z
1/2-x,1/2+y,-z
1/2-x,1/2-y,-z
1/2+x,1/2-y,z
loop_
_atom_site_type_symbol
_atom_site_label
_atom_site_fract_x
_atom_site_fract_y
_atom_site_fract_z
Si Si1 0.362625 0.602882 0.245812
Si Si2 0.132348 0.194517 0.105111
Si Si3 0.563067 0.690241 0.266634
Si Si4 0.775711 0.929542 0.880083
Si Si5 0.951292 0.071534 0.606060
Si Si6 0.070574 0.293082 0.489535
Si Si7 0.227990 0.764955 0.832804
Si Si8 0.579565 0.068509 0.515244
O O1 0.386429 0.568301 0.402847
O O2 0.457590 0.603165 0.312506
O O3 0.322336 0.668998 0.232904
O O4 0.299003 0.577006 0.054291
O O5 0.125449 0.202255 0.238986
O O6 0.177959 0.128916 0.124543
O O7 0.184142 0.253831 0.120513
O O8 0.035321 0.192017 0.918403
O O9 0.583458 0.620250 0.344088
O O10 0.567078 0.740528 0.380861
O O11 0.672559 0.927971 0.711339
O O12 0.806774 0.000000 0.884567
O O13 0.969183 0.000000 0.671660
O O14 0.161348 0.284194 0.682945
O O15 0.066678 0.364297 0.431840
O O16 0.000000 0.284197 0.500000
O O17 0.250000 0.750000 0.000000
O O18 0.500000 0.067271 0.500000
O O19 0.578331 0.000000 0.448406
#
# Coordination Sequence:
#
# PCOD9219245 Si02
#       8
#     8   8   8   8   8   8   8   8
#     4  11  20  33  55  86 115 149 194 237 290 346
#     4  11  24  39  54  84 115 154 200 240 287 344
#     4  11  24  39  56  81 120 157 198 237 286 350
#     4  11  20  35  57  83 116 151 191 240 297 348
#     4  11  21  36  56  85 121 160 196 234 287 351
#     4  11  20  35  59  86 112 145 186 235 293 344
#     4  12  20  34  57  83 112 144 190 241 289 333
#     4   9  19  35  56  84 113 142 181 239 301 349
#
# _framework density 17.770838000000001
#
# number of rings (size 3 to 8) (size 9 to 14) (size 15 to 20)
#    0.000    1.125    5.000    3.000    0.000    2.000 
#    0.000    1.250    0.000    0.000    0.000    1.750 
#    0.000    0.000    0.000    1.250    0.000    0.000 
#
# Total GULP energy -178265.313970 kJ/mol
# GULP energy per Si atom -5570.791062 kJ/mol
# Density = 1.773039 g / cm^3
# Si number density = 17.770838 Si / 1000 Ang^3
#
#
#
# Elastic Constant Matrix: (Units=GPa)
#
#
# Indices 1 2 3 4 5 6 
#
# 1 92.2586 49.6114 35.6585 0.0000 -12.4009 0.0000
# 2 49.6114 149.2455 18.4014 0.0000 -7.2431 0.0000
# 3 35.6585 18.4014 54.1768 0.0000 -2.9322 0.0000
# 4 0.0000 0.0000 0.0000 13.8044 0.0000 -9.4911
# 5 -12.4009 -7.2431 -2.9322 0.0000 25.0160 0.0000
# 6 0.0000 0.0000 0.0000 -9.4911 0.0000 -7.1162
#
#
#
# Elastic Compliance Matrix: (Units=1/GPa)
#
#
# Indices 1 2 3 4 5 6 
#
# 1 0.017927 -0.004420 -0.009950 0.000000 0.006441 0.000000
# 2 -0.004420 0.008161 0.000148 0.000000 0.000189 0.000000
# 3 -0.009950 0.000148 0.024850 0.000000 -0.001977 0.000000
# 4 0.000000 0.000000 0.000000 0.037789 0.000000 -0.050400
# 5 0.006441 0.000189 -0.001977 0.000000 0.042990 0.000000
# 6 0.000000 0.000000 0.000000 -0.050400 0.000000 -0.073305
#
#
# Mechanical properties :
#
#
# Convention : Reuss Voigt Hill
#
# Bulk Modulus (GPa) = 44.45713 55.89149 50.17431
# Shear Modulus (GPa) = 52.99210 19.14147 36.06679
#
# Velocity S-wave (km/s) = 5.46667 3.28552 4.50994
# Velocity P-wave (km/s) = 8.05712 6.77587 7.44411
#
# Compressibility (1/GPa) = 0.02249358
#
# Stress axis : x y z
#
# Youngs Moduli (GPa) = 55.78115 122.53999 40.24196
#
# Poissons Ratio (x) = 0.54162 0.40039
# Poissons Ratio (y) = 0.24655 -0.00594
# Poissons Ratio (z) = 0.55500 -0.01809
#
# Static dielectric constant tensor:
#      x y z
#    x 1.539190 0.000000 -0.012900 
#    y 0.000000 1.680420 0.000000 
#    z -0.012900 0.000000 1.600650 
# 
# From -- ./inp_files/169695.got.cif
#   From: 2010.05.17/outbox.cif.g08.bks.cpg/sg12_85_cif.got.tgz:169695.got - 2010.06.03 13:09:07.
