data_PCOD9219353
_publ_section_title
;
Structure prediction by ZEFSAII (Michael W. Deem and Ramdas Pophale) SiO2 
 PCOD9219353
Probable space group: C 2/M
;
_chemical_formula_sum "Si O2"
_cell_formula_units_Z 58
_cell_length_a 17.385634
_cell_length_b 14.571745
_cell_length_c 16.123017
_cell_angle_alpha 90.000000
_cell_angle_beta 55.548828
_cell_angle_gamma 90.000000
_cell_volume 3368.187499
_symmetry_space_group_name_H-M "C 2/M"
_symmetry_group_IT_number 12
_symmetry_cell_setting 'monoclinic'
loop_
_space_group_symop_operation_xyz
x,y,z
-x,y,-z
-x,-y,-z
x,-y,z
1/2+x,1/2+y,z
1/2-x,1/2+y,-z
1/2-x,1/2-y,-z
1/2+x,1/2-y,z
loop_
_atom_site_type_symbol
_atom_site_label
_atom_site_fract_x
_atom_site_fract_y
_atom_site_fract_z
Si Si1 0.528519 0.760366 0.701491
Si Si2 0.648936 0.389844 0.927168
Si Si3 0.888706 0.357665 0.574231
Si Si4 0.022296 0.111032 0.849000
Si Si5 0.384787 0.330631 0.505202
Si Si6 0.689285 0.894907 0.559133
Si Si7 0.500000 0.500000 0.500000
Si Si8 0.143973 0.606168 0.217761
O O1 0.530614 0.678380 0.766330
O O2 0.540980 0.712357 0.604484
O O3 0.615872 0.830210 0.651459
O O4 0.437193 0.824237 0.759569
O O5 0.654330 0.500000 0.921558
O O6 0.602037 0.365156 0.867856
O O7 0.754762 0.358691 0.873227
O O8 0.575541 0.368915 0.044476
O O9 0.868799 0.249073 0.581588
O O10 0.839702 0.393672 0.520417
O O11 0.854676 0.394982 0.682541
O O12 0.000000 0.375574 0.500000
O O13 0.026754 0.000000 0.828390
O O14 0.291387 0.353673 0.511419
O O15 0.424736 0.420407 0.521120
O O16 0.685490 0.000000 0.590081
O O17 0.127664 0.500000 0.200597
#
# Coordination Sequence:
#
# PCOD9219353 Si02
#       8
#     8   8   8   8   8   8   2   8
#     4  11  22  35  53  83 111 140 188 225 265 331
#     4   8  18  36  57  83 104 137 179 226 285 328
#     4  11  20  36  53  77 117 145 181 228 266 316
#     4   9  19  37  58  80 111 135 175 236 280 324
#     4  11  23  38  51  78 110 151 188 223 263 326
#     4  11  23  37  54  79 112 150 189 224 269 321
#     4  12  20  40  56  64 112 150 186 220 268 314
#     4  11  21  34  56  82 110 146 180 221 276 325
#
# _framework density 17.219944000000002
#
# number of rings (size 3 to 8) (size 9 to 14) (size 15 to 20)
#    0.000    1.655    4.138    3.310    4.828    1.103 
#    0.000    0.000    0.000    0.000    0.000    7.724 
#    0.000    0.000    0.000    0.000    0.000    0.000 
#
# Total GULP energy -161459.682930 kJ/mol
# GULP energy per Si atom -5567.575273 kJ/mol
# Density = 1.718075 g / cm^3
# Si number density = 17.219944 Si / 1000 Ang^3
#
#
#
# Elastic Constant Matrix: (Units=GPa)
#
#
# Indices 1 2 3 4 5 6 
#
# 1 89.6977 23.7196 7.8582 0.0000 -14.6698 0.0000
# 2 23.7196 117.2058 18.9840 0.0000 -2.4093 0.0000
# 3 7.8582 18.9840 27.0326 0.0000 -1.3795 0.0000
# 4 0.0000 0.0000 0.0000 34.9504 0.0000 -4.7391
# 5 -14.6698 -2.4093 -1.3795 0.0000 24.4349 0.0000
# 6 0.0000 0.0000 0.0000 -4.7391 0.0000 32.5680
#
#
#
# Elastic Compliance Matrix: (Units=1/GPa)
#
#
# Indices 1 2 3 4 5 6 
#
# 1 0.013131 -0.002196 -0.001889 0.000000 0.007560 0.000000
# 2 -0.002196 0.010002 -0.006421 0.000000 -0.000695 0.000000
# 3 -0.001889 -0.006421 0.042082 0.000000 0.000609 0.000000
# 4 0.000000 0.000000 0.000000 0.029188 0.000000 0.004247
# 5 0.007560 -0.000695 0.000609 0.000000 0.045430 0.000000
# 6 0.000000 0.000000 0.000000 0.004247 0.000000 0.031323
#
#
# Mechanical properties :
#
#
# Convention : Reuss Voigt Hill
#
# Bulk Modulus (GPa) = 22.62310 37.22882 29.92596
# Shear Modulus (GPa) = 24.16588 30.61561 27.39074
#
# Velocity S-wave (km/s) = 3.75022 4.22111 3.99261
# Velocity P-wave (km/s) = 5.64964 6.73970 6.21860
#
# Compressibility (1/GPa) = 0.04420261
#
# Stress axis : x y z
#
# Youngs Moduli (GPa) = 76.15420 99.97795 23.76311
#
# Poissons Ratio (x) = 0.21956 0.04489
# Poissons Ratio (y) = 0.16724 0.15259
# Poissons Ratio (z) = 0.14387 0.64198
#
# Static dielectric constant tensor:
#      x y z
#    x 1.609310 0.000000 -0.019150 
#    y 0.000000 1.582100 0.000000 
#    z -0.019150 0.000000 1.601830 
# 
# From -- ./inp_files/215210.got.cif
#   From: 2010.05.17/outbox.cif.g08.bks.cpg/sg12_108_cif.got.tgz:215210.got - 2010.06.03 13:09:07.
