data_PCOD9219972
_publ_section_title
;
Structure prediction by ZEFSAII (Michael W. Deem and Ramdas Pophale) SiO2 
 PCOD9219972
Probable space group: C 2/M
;
_chemical_formula_sum "Si O2"
_cell_formula_units_Z 58
_cell_length_a 29.064126
_cell_length_b 7.568529
_cell_length_c 24.467196
_cell_angle_alpha 90.000000
_cell_angle_beta 149.438992
_cell_angle_gamma 90.000000
_cell_volume 2736.565974
_symmetry_space_group_name_H-M "C 2/M"
_symmetry_group_IT_number 12
_symmetry_cell_setting 'monoclinic'
loop_
_space_group_symop_operation_xyz
x,y,z
-x,y,-z
-x,-y,-z
x,-y,z
1/2+x,1/2+y,z
1/2-x,1/2+y,-z
1/2-x,1/2-y,-z
1/2+x,1/2-y,z
loop_
_atom_site_type_symbol
_atom_site_label
_atom_site_fract_x
_atom_site_fract_y
_atom_site_fract_z
Si Si1 0.213573 0.299142 0.107249
Si Si2 0.600108 0.298713 0.092750
Si Si3 0.990737 0.285319 0.687787
Si Si4 0.952987 0.283416 0.133744
Si Si5 0.284734 0.210251 0.475139
Si Si6 0.377744 0.797316 0.767408
Si Si7 0.916693 0.295891 0.331564
Si Si8 0.500000 0.500000 0.500000
O O1 0.235405 0.500000 0.113666
O O2 0.157927 0.299130 0.106953
O O3 0.307989 0.205126 0.214668
O O4 0.142433 0.226491 0.989826
O O5 0.590209 0.500000 0.062688
O O6 0.640875 0.298068 0.194818
O O7 0.500000 0.224312 0.000000
O O8 0.988963 0.500000 0.689206
O O9 0.887256 0.224765 0.575057
O O10 0.029874 0.225962 0.786401
O O11 0.045366 0.240623 0.689307
O O12 0.953746 0.500000 0.133656
O O13 0.037069 0.227571 0.180854
O O14 0.250000 0.250000 0.500000
O O15 0.212090 0.290968 0.360281
O O16 0.284664 0.000000 0.466252
O O17 0.398868 0.000000 0.802450
O O18 0.945933 0.500000 0.372408
O O19 0.951652 0.156734 0.412055
#
# Coordination Sequence:
#
# PCOD9219972 Si02
#       8
#     8   8   8   8   8   8   8   2
#     4  11  22  41  68  99 134 176 227 283 337 408
#     4  11  23  38  59  90 133 174 223 278 335 402
#     4   9  20  41  66  94 132 178 221 273 340 404
#     4   9  18  35  64  95 134 175 217 268 336 407
#     4  11  21  37  60  91 129 169 216 268 326 393
#     4  11  21  37  59  89 125 173 220 266 334 399
#     4  11  25  48  76 101 136 180 226 284 342 397
#     4  12  26  52  76 102 138 172 238 282 340 408
#
# _framework density 21.194445999999999
#
# number of rings (size 3 to 8) (size 9 to 14) (size 15 to 20)
#    0.000    1.517    3.448    1.862    0.000    2.207 
#    4.966    2.759    3.034    0.000    0.000    0.000 
#    0.000    0.000    0.000    0.000    0.000    0.000 
#
# Total GULP energy -161744.582476 kJ/mol
# GULP energy per Si atom -5577.399396 kJ/mol
# Density = 2.114621 g / cm^3
# Si number density = 21.194446 Si / 1000 Ang^3
#
#
#
# Elastic Constant Matrix: (Units=GPa)
#
#
# Indices 1 2 3 4 5 6 
#
# 1 81.8097 15.2724 72.4286 0.0000 9.3874 0.0000
# 2 15.2724 92.6877 24.3040 -0.0002 -5.0142 -0.0001
# 3 72.4286 24.3040 158.1795 0.0000 -18.4477 0.0000
# 4 0.0000 -0.0002 0.0000 9.7729 0.0000 -12.3780
# 5 9.3874 -5.0142 -18.4477 0.0000 35.3445 0.0000
# 6 0.0000 -0.0001 0.0000 -12.3780 0.0000 1.3992
#
#
#
# Elastic Compliance Matrix: (Units=1/GPa)
#
#
# Indices 1 2 3 4 5 6 
#
# 1 0.025810 -0.001545 -0.013210 0.000000 -0.013969 0.000000
# 2 -0.001545 0.011352 -0.000853 0.000000 0.001575 0.000000
# 3 -0.013210 -0.000853 0.013733 0.000000 0.010555 0.000000
# 4 0.000000 0.000000 0.000000 -0.010027 0.000000 -0.088706
# 5 -0.013969 0.001575 0.010555 0.000000 0.037736 0.000000
# 6 0.000000 0.000000 0.000000 -0.088706 0.000000 -0.070036
#
#
# Mechanical properties :
#
#
# Convention : Reuss Voigt Hill
#
# Bulk Modulus (GPa) = 50.81459 61.85409 56.33434
# Shear Modulus (GPa) = 107.89384 24.01477 65.95431
#
# Velocity S-wave (km/s) = 7.14263 3.36976 5.58446
# Velocity P-wave (km/s) = 9.59429 6.66242 8.25949
#
# Compressibility (1/GPa) = 0.01967939
#
# Stress axis : x y z
#
# Youngs Moduli (GPa) = 38.74510 88.08707 72.81938
#
# Poissons Ratio (x) = 0.13606 0.96193
# Poissons Ratio (y) = 0.05985 0.06213
# Poissons Ratio (z) = 0.51181 0.07516
#
# Static dielectric constant tensor:
#      x y z
#    x 1.627640 0.000000 0.310720 
#    y 0.000000 1.913150 0.000000 
#    z 0.310720 0.000000 0.799380 
# 
# From -- ./inp_files/351520.got.cif
#   From: 2010.05.17/outbox.cif.g08.bks.cpg/sg12_176_cif.got.tgz:351520.got - 2010.06.03 13:09:07.
