data_PCOD9219224
_publ_section_title
;
Structure prediction by ZEFSAII (Michael W. Deem and Ramdas Pophale) SiO2 
 PCOD9219224
Probable space group: C 2/M
;
_chemical_formula_sum "Si O2"
_cell_formula_units_Z 44
_cell_length_a 23.784384
_cell_length_b 15.299443
_cell_length_c 10.351767
_cell_angle_alpha 90.000000
_cell_angle_beta 33.905299
_cell_angle_gamma 90.000000
_cell_volume 2101.249164
_symmetry_space_group_name_H-M "C 2/M"
_symmetry_group_IT_number 12
_symmetry_cell_setting 'monoclinic'
loop_
_space_group_symop_operation_xyz
x,y,z
-x,y,-z
-x,-y,-z
x,-y,z
1/2+x,1/2+y,z
1/2-x,1/2+y,-z
1/2-x,1/2-y,-z
1/2+x,1/2-y,z
loop_
_atom_site_type_symbol
_atom_site_label
_atom_site_fract_x
_atom_site_fract_y
_atom_site_fract_z
Si Si1 0.084695 0.184940 0.573417
Si Si2 0.214018 0.000000 0.053836
Si Si3 0.855160 0.500000 0.530164
Si Si4 0.772547 0.680258 0.073911
Si Si5 0.001955 0.645235 0.640019
Si Si6 0.500000 0.649450 0.000000
Si Si7 0.988473 0.000000 0.690875
Si Si8 0.851501 0.000000 0.207852
O O1 0.204670 0.194177 0.330899
O O2 0.027541 0.201456 0.817821
O O3 0.051119 0.259566 0.538788
O O4 0.049608 0.088950 0.596141
O O5 0.241142 0.087690 0.075170
O O6 0.093040 0.000000 0.267665
O O7 0.283789 0.000000 0.793182
O O8 0.769221 0.500000 0.581629
O O9 0.929453 0.583664 0.400355
O O10 0.750000 0.750000 0.000000
O O11 0.887813 0.667366 0.893692
O O12 0.000000 0.605002 0.500000
O O13 0.598097 0.585542 0.823772
O O14 0.907887 0.000000 0.963161
#
# Coordination Sequence:
#
# PCOD9219224 Si02
#       8
#     8   4   4   8   8   4   4   4
#     4  11  23  40  63  92 124 162 210 264 314 371
#     4  11  20  32  58  86 123 165 199 241 313 377
#     4  11  21  40  62  92 127 175 210 249 312 387
#     4  12  23  36  57  91 126 164 204 252 307 372
#     4  12  23  40  61  90 133 171 206 251 314 383
#     4   9  20  44  70  89 120 164 210 273 316 361
#     4   9  20  34  58  92 122 155 204 259 316 365
#     4   8  18  39  69  93 116 161 221 262 312 365
#
# _framework density 20.939926
#
# number of rings (size 3 to 8) (size 9 to 14) (size 15 to 20)
#    0.000    1.273    3.636    3.000    0.000    3.636 
#    0.000    3.636    0.000    1.636    0.000    0.000 
#    0.000    0.000    0.000    0.000    0.000    0.000 
#
# Total GULP energy -122608.051535 kJ/mol
# GULP energy per Si atom -5573.093252 kJ/mol
# Density = 2.089227 g / cm^3
# Si number density = 20.939926 Si / 1000 Ang^3
#
#
#
# Elastic Constant Matrix: (Units=GPa)
#
#
# Indices 1 2 3 4 5 6 
#
# 1 71.2093 19.4282 29.6906 0.0000 -26.6490 0.0000
# 2 19.4282 102.4689 15.2732 0.0000 -14.0227 0.0000
# 3 29.6906 15.2732 136.0260 0.0000 -33.1854 0.0000
# 4 0.0000 0.0000 0.0000 26.3988 0.0000 -6.4384
# 5 -26.6490 -14.0227 -33.1854 0.0000 51.8124 0.0000
# 6 0.0000 0.0000 0.0000 -6.4384 0.0000 19.5341
#
#
#
# Elastic Compliance Matrix: (Units=1/GPa)
#
#
# Indices 1 2 3 4 5 6 
#
# 1 0.018260 -0.002140 -0.001891 0.000000 0.007602 0.000000
# 2 -0.002140 0.010421 -0.000336 0.000000 0.001504 0.000000
# 3 -0.001891 -0.000336 0.008939 0.000000 0.004662 0.000000
# 4 0.000000 0.000000 0.000000 0.041192 0.000000 0.013577
# 5 0.007602 0.001504 0.004662 0.000000 0.026603 0.000000
# 6 0.000000 0.000000 0.000000 0.013577 0.000000 0.055667
#
#
# Mechanical properties :
#
#
# Convention : Reuss Voigt Hill
#
# Bulk Modulus (GPa) = 34.61806 48.72089 41.66948
# Shear Modulus (GPa) = 27.86362 35.90320 31.88341
#
# Velocity S-wave (km/s) = 3.65176 4.14524 3.90630
# Velocity P-wave (km/s) = 5.86075 6.79913 6.34731
#
# Compressibility (1/GPa) = 0.02888665
#
# Stress axis : x y z
#
# Youngs Moduli (GPa) = 54.76399 95.96231 111.86472
#
# Poissons Ratio (x) = 0.20536 0.21152
# Poissons Ratio (y) = 0.11720 0.03758
# Poissons Ratio (z) = 0.10355 0.03223
#
# Static dielectric constant tensor:
#      x y z
#    x 1.821900 0.000000 -0.006660 
#    y 0.000000 1.730360 0.000000 
#    z -0.006660 0.000000 1.836590 
# 
# From -- ./inp_files/183429.got.cif
#   From: 2010.05.17/outbox.cif.g08.bks.cpg/sg12_92_cif.got.tgz:183429.got - 2010.06.03 13:09:07.
