data_PCOD9219064
_publ_section_title
;
Structure prediction by ZEFSAII (Michael W. Deem and Ramdas Pophale) SiO2 
 PCOD9219064
Probable space group: C 2/M
;
_chemical_formula_sum "Si O2"
_cell_formula_units_Z 40
_cell_length_a 15.447318
_cell_length_b 19.584374
_cell_length_c 8.843592
_cell_angle_alpha 90.000000
_cell_angle_beta 128.740992
_cell_angle_gamma 90.000000
_cell_volume 2086.779445
_symmetry_space_group_name_H-M "C 2/M"
_symmetry_group_IT_number 12
_symmetry_cell_setting 'monoclinic'
loop_
_space_group_symop_operation_xyz
x,y,z
-x,y,-z
-x,-y,-z
x,-y,z
1/2+x,1/2+y,z
1/2-x,1/2+y,-z
1/2-x,1/2-y,-z
1/2+x,1/2-y,z
loop_
_atom_site_type_symbol
_atom_site_label
_atom_site_fract_x
_atom_site_fract_y
_atom_site_fract_z
Si Si1 0.028046 0.843375 0.742285
Si Si2 0.304505 0.268189 0.897020
Si Si3 0.113762 0.633236 0.181464
Si Si4 0.915487 0.301216 0.529029
Si Si5 0.146652 0.078607 0.598019
O O1 0.105749 0.873786 0.692915
O O2 0.974042 0.770285 0.640350
O O3 0.924452 0.895061 0.623895
O O4 0.105793 0.827374 0.969919
O O5 0.365221 0.202527 0.892949
O O6 0.203574 0.287595 0.676974
O O7 0.250000 0.250000 0.000000
O O8 0.099824 0.654866 0.339072
O O9 0.223898 0.589527 0.282947
O O10 0.000000 0.600717 0.000000
O O11 0.000000 0.332925 0.500000
O O12 0.122804 0.000000 0.603959
#
# Coordination Sequence:
#
# PCOD9219064 Si02
#       5
#     8   8   8   8   8
#     4  11  19  37  62  91 119 153 204 254 313 344
#     4  12  19  34  58  95 129 148 195 262 321 369
#     4  12  23  36  62  96 124 161 202 253 322 359
#     4  12  21  35  59  96 129 154 194 267 322 363
#     4  11  23  41  61  87 127 169 214 243 281 385
#
# _framework density 19.168292999999998
#
# number of rings (size 3 to 8) (size 9 to 14) (size 15 to 20)
#    0.000    0.400   10.000    1.800    0.000    0.400 
#    0.000    0.000    0.000    4.200    0.000    0.000 
#    0.000    0.000    0.000    0.000    0.000    0.000 
#
# Total GULP energy -111698.798124 kJ/mol
# GULP energy per Si atom -5584.939906 kJ/mol
# Density = 1.912467 g / cm^3
# Si number density = 19.168293 Si / 1000 Ang^3
#
#
#
# Elastic Constant Matrix: (Units=GPa)
#
#
# Indices 1 2 3 4 5 6 
#
# 1 91.6421 22.1590 40.9325 0.0000 23.1267 0.0000
# 2 22.1590 59.1450 30.9050 0.0000 9.0455 0.0000
# 3 40.9325 30.9050 130.9919 0.0000 34.1576 0.0000
# 4 0.0000 0.0000 0.0000 10.3945 0.0000 -3.1612
# 5 23.1267 9.0455 34.1576 0.0000 44.4316 0.0000
# 6 0.0000 0.0000 0.0000 -3.1612 0.0000 4.7872
#
#
#
# Elastic Compliance Matrix: (Units=1/GPa)
#
#
# Indices 1 2 3 4 5 6 
#
# 1 0.013960 -0.003274 -0.002337 0.000000 -0.004803 0.000000
# 2 -0.003274 0.020063 -0.003864 0.000000 0.000591 0.000000
# 3 -0.002337 -0.003864 0.010949 0.000000 -0.006414 0.000000
# 4 0.000000 0.000000 0.000000 0.120380 0.000000 0.079492
# 5 -0.004803 0.000591 -0.006414 0.000000 0.029817 0.000000
# 6 0.000000 0.000000 0.000000 0.079492 0.000000 0.261382
#
#
# Mechanical properties :
#
#
# Convention : Reuss Voigt Hill
#
# Bulk Modulus (GPa) = 38.43254 52.19688 45.31471
# Shear Modulus (GPa) = 10.32683 24.44149 17.38416
#
# Velocity S-wave (km/s) = 2.32361 3.57473 3.01478
# Velocity P-wave (km/s) = 5.22422 6.65794 5.98417
#
# Compressibility (1/GPa) = 0.02601962
#
# Stress axis : x y z
#
# Youngs Moduli (GPa) = 71.63491 49.84238 91.33614
#
# Poissons Ratio (x) = 0.16320 0.21348
# Poissons Ratio (y) = 0.23455 0.35296
# Poissons Ratio (z) = 0.16743 0.19261
#
# Static dielectric constant tensor:
#      x y z
#    x 1.707470 0.000000 0.023540 
#    y 0.000000 1.624010 0.000000 
#    z 0.023540 0.000000 1.694440 
# 
# From -- ./inp_files/62598.got.cif
#   From: 2010.05.17/outbox.cif.g08.bks.cpg/sg12_32_cif.got.tgz:62598.got - 2010.06.03 13:09:07.
