data_PCOD9219083
_publ_section_title
;
Structure prediction by ZEFSAII (Michael W. Deem and Ramdas Pophale) SiO2 
 PCOD9219083
Probable space group: C 2/M
;
_chemical_formula_sum "Si O2"
_cell_formula_units_Z 32
_cell_length_a 17.222931
_cell_length_b 15.597518
_cell_length_c 11.793179
_cell_angle_alpha 90.000000
_cell_angle_beta 31.828393
_cell_angle_gamma 90.000000
_cell_volume 1670.761840
_symmetry_space_group_name_H-M "C 2/M"
_symmetry_group_IT_number 12
_symmetry_cell_setting 'monoclinic'
loop_
_space_group_symop_operation_xyz
x,y,z
-x,y,-z
-x,-y,-z
x,-y,z
1/2+x,1/2+y,z
1/2-x,1/2+y,-z
1/2-x,1/2-y,-z
1/2+x,1/2-y,z
loop_
_atom_site_type_symbol
_atom_site_label
_atom_site_fract_x
_atom_site_fract_y
_atom_site_fract_z
Si Si1 0.823084 0.094678 0.204581
Si Si2 0.829057 0.161920 0.434500
Si Si3 0.658004 0.267780 0.001628
Si Si4 0.659110 0.095004 0.860201
O O1 0.778459 0.103572 0.391014
O O2 0.788134 0.000000 0.203543
O O3 0.773354 0.169332 0.180645
O O4 0.000000 0.103113 0.000000
O O5 0.750000 0.250000 0.500000
O O6 0.774531 0.122022 0.619331
O O7 0.002141 0.186034 0.222529
O O8 0.750000 0.250000 0.000000
O O9 0.643241 0.174015 0.965120
O O10 0.695864 0.000000 0.860950
O O11 0.500000 0.089520 0.000000
#
# Coordination Sequence:
#
# PCOD9219083 Si02
#       4
#     8   8   8   8
#     4   9  18  35  60  84 108 146 198 243 282 341
#     4  11  19  38  63  83 112 154 199 237 292 346
#     4  11  23  38  58  88 124 154 188 243 301 353
#     4  11  22  39  63  91 118 155 204 250 292 349
#
# _framework density 19.152937999999999
#
# number of rings (size 3 to 8) (size 9 to 14) (size 15 to 20)
#    0.000    1.500    5.000    1.500    0.000    3.000 
#    0.000    1.250    0.000    1.500    0.000    0.000 
#    0.000    0.000    0.000    0.000    0.000    0.000 
#
# Total GULP energy -89130.179645 kJ/mol
# GULP energy per Si atom -5570.636228 kJ/mol
# Density = 1.910935 g / cm^3
# Si number density = 19.152938 Si / 1000 Ang^3
#
#
#
# Elastic Constant Matrix: (Units=GPa)
#
#
# Indices 1 2 3 4 5 6 
#
# 1 101.1989 54.9716 18.8447 0.0000 4.7002 0.0000
# 2 54.9716 157.6252 11.6903 0.0000 6.3032 0.0000
# 3 18.8447 11.6903 67.7602 0.0000 6.6563 0.0000
# 4 0.0000 0.0000 0.0000 14.5205 0.0000 -2.6493
# 5 4.7002 6.3032 6.6563 0.0000 10.7418 0.0000
# 6 0.0000 0.0000 0.0000 -2.6493 0.0000 2.3777
#
#
#
# Elastic Compliance Matrix: (Units=1/GPa)
#
#
# Indices 1 2 3 4 5 6 
#
# 1 0.012717 -0.004178 -0.002673 0.000000 -0.001456 0.000000
# 2 -0.004178 0.007910 0.000079 0.000000 -0.002862 0.000000
# 3 -0.002673 0.000079 0.016374 0.000000 -0.009023 0.000000
# 4 0.000000 0.000000 0.000000 0.086441 0.000000 0.096314
# 5 -0.001456 -0.002862 -0.009023 0.000000 0.101002 -0.000001
# 6 0.000000 0.000000 0.000000 0.096314 -0.000001 0.527890
#
#
# Mechanical properties :
#
#
# Convention : Reuss Voigt Hill
#
# Bulk Modulus (GPa) = 42.63396 55.28862 48.96129
# Shear Modulus (GPa) = 6.46248 21.59983 14.03116
#
# Velocity S-wave (km/s) = 1.83888 3.36185 2.70957
# Velocity P-wave (km/s) = 5.17848 6.63317 5.95045
#
# Compressibility (1/GPa) = 0.02345548
#
# Stress axis : x y z
#
# Youngs Moduli (GPa) = 78.63734 126.42205 61.07229
#
# Poissons Ratio (x) = 0.52825 0.16323
# Poissons Ratio (y) = 0.32858 -0.00480
# Poissons Ratio (z) = 0.21017 -0.00993
#
# Static dielectric constant tensor:
#      x y z
#    x 1.710260 0.000000 0.069280 
#    y 0.000000 1.719200 0.000000 
#    z 0.069280 0.000000 1.755360 
# 
# From -- ./inp_files/45203.got.cif
#   From: 2010.05.17/outbox.cif.g08.bks.cpg/sg12_23_cif.got.tgz:45203.got - 2010.06.03 13:09:07.
