data_PCOD9219284
_publ_section_title
;
Structure prediction by ZEFSAII (Michael W. Deem and Ramdas Pophale) SiO2 
 PCOD9219284
Probable space group: C 2/M
;
_chemical_formula_sum "Si O2"
_cell_formula_units_Z 60
_cell_length_a 12.394750
_cell_length_b 14.279537
_cell_length_c 12.491686
_cell_angle_alpha 90.000000
_cell_angle_beta 86.627902
_cell_angle_gamma 90.000000
_cell_volume 2207.091628
_symmetry_space_group_name_H-M "C 2/M"
_symmetry_group_IT_number 12
_symmetry_cell_setting 'monoclinic'
loop_
_space_group_symop_operation_xyz
x,y,z
-x,y,-z
-x,-y,-z
x,-y,z
1/2+x,1/2+y,z
1/2-x,1/2+y,-z
1/2-x,1/2-y,-z
1/2+x,1/2-y,z
loop_
_atom_site_type_symbol
_atom_site_label
_atom_site_fract_x
_atom_site_fract_y
_atom_site_fract_z
Si Si1 0.652581 0.114463 0.382405
Si Si2 0.175593 0.111160 0.463605
Si Si3 0.752783 0.500000 0.004781
Si Si4 0.179411 0.219357 0.781055
Si Si5 0.880184 0.827766 0.976643
Si Si6 0.929428 0.393866 0.308409
Si Si7 0.005909 0.889527 0.669748
Si Si8 0.924298 0.362576 0.900499
O O1 0.710514 0.142907 0.491315
O O2 0.525350 0.136689 0.383386
O O3 0.723703 0.162028 0.283327
O O4 0.662102 0.000000 0.372654
O O5 0.108985 0.148706 0.365788
O O6 0.090813 0.120242 0.566355
O O7 0.184119 0.000000 0.444575
O O8 0.684411 0.415497 0.063540
O O9 0.820418 0.421610 0.932975
O O10 0.160700 0.319356 0.722815
O O11 0.069677 0.162840 0.757677
O O12 0.168420 0.220502 0.911198
O O13 0.894244 0.745361 0.891365
O O14 0.000000 0.862114 0.000000
O O15 0.892829 0.500000 0.335336
O O16 0.003461 0.399706 0.198134
O O17 0.997114 0.000000 0.694482
O O18 0.000000 0.369978 0.000000
#
# Coordination Sequence:
#
# PCOD9219284 Si02
#       8
#     8   8   4   8   8   8   8   8
#     4   9  19  34  59  87 110 144 179 224 271 325
#     4   7  11  25  47  80 115 135 174 217 260 317
#     4  12  24  36  64  80 102 139 186 223 280 326
#     4  11  20  34  57  80 112 140 185 224 273 321
#     4  11  24  41  54  81 115 143 180 229 275 323
#     4  11  22  38  58  78 106 145 188 230 271 317
#     4   8  14  25  50  82 111 145 170 214 273 323
#     4  11  22  42  57  78 106 143 186 230 270 321
#
# _framework density 27.185096999999999
#
# number of rings (size 3 to 8) (size 9 to 14) (size 15 to 20)
#    0.000    2.133    3.333    3.600    3.733    0.000 
#    0.000    0.667    0.000    1.600    0.000    7.467 
#    0.000    0.000    0.000    0.000    0.000    0.000 
#
# Total GULP energy -167377.056840 kJ/mol
# GULP energy per Si atom -5579.235228 kJ/mol
# Density = 2.712322 g / cm^3
# Si number density = 27.185097 Si / 1000 Ang^3
#
#
#
# Elastic Constant Matrix: (Units=GPa)
#
#
# Indices 1 2 3 4 5 6 
#
# 1 111.8803 28.1855 19.9154 0.0000 -1.7862 0.0000
# 2 28.1855 162.8856 21.0917 0.0000 -3.1401 0.0000
# 3 19.9154 21.0917 101.6005 0.0000 1.9134 0.0000
# 4 0.0000 0.0000 0.0000 11.8217 0.0000 -51.3710
# 5 -1.7862 -3.1401 1.9134 0.0000 31.2107 0.0000
# 6 0.0000 0.0000 0.0000 -51.3710 0.0000 -173.5013
#
#
#
# Elastic Compliance Matrix: (Units=1/GPa)
#
#
# Indices 1 2 3 4 5 6 
#
# 1 0.009593 -0.001444 -0.001590 0.000000 0.000501 0.000000
# 2 -0.001444 0.006542 -0.001087 0.000000 0.000642 0.000000
# 3 -0.001590 -0.001087 0.010396 0.000000 -0.000838 0.000000
# 4 0.000000 0.000000 0.000000 0.036993 0.000000 -0.010953
# 5 0.000501 0.000642 -0.000838 0.000000 0.032185 0.000000
# 6 0.000000 0.000000 0.000000 -0.010953 0.000000 -0.002521
#
#
# Mechanical properties :
#
#
# Convention : Reuss Voigt Hill
#
# Bulk Modulus (GPa) = 54.68082 57.19462 55.93772
# Shear Modulus (GPa) = 46.49962 -5.61552 20.44205
#
# Velocity S-wave (km/s) = 4.14028 -1.43880 2.74516
# Velocity P-wave (km/s) = 6.55850 4.28071 5.53797
#
# Compressibility (1/GPa) = 0.01828795
#
# Stress axis : x y z
#
# Youngs Moduli (GPa) = 104.24227 152.84982 96.19467
#
# Poissons Ratio (x) = 0.22078 0.15295
# Poissons Ratio (y) = 0.15057 0.10458
# Poissons Ratio (z) = 0.16574 0.16617
#
# Static dielectric constant tensor:
#      x y z
#    x 2.169950 0.000000 0.117110 
#    y 0.000000 2.122180 0.000000 
#    z 0.117110 0.000000 2.298020 
# 
# From -- ./inp_files/269926.got.cif
#   From: 2010.05.17/outbox.cif.g08.bks.cpg/sg12_135_cif.got.tgz:269926.got - 2010.06.03 13:09:07.
