data_PCOD9219837
_publ_section_title
;
Structure prediction by ZEFSAII (Michael W. Deem and Ramdas Pophale) SiO2 
 PCOD9219837
Probable space group: C 2/M
;
_chemical_formula_sum "Si O2"
_cell_formula_units_Z 64
_cell_length_a 27.629376
_cell_length_b 15.507051
_cell_length_c 12.934908
_cell_angle_alpha 90.000000
_cell_angle_beta 144.864076
_cell_angle_gamma 90.000000
_cell_volume 3189.500188
_symmetry_space_group_name_H-M "C 2/M"
_symmetry_group_IT_number 12
_symmetry_cell_setting 'monoclinic'
loop_
_space_group_symop_operation_xyz
x,y,z
-x,y,-z
-x,-y,-z
x,-y,z
1/2+x,1/2+y,z
1/2-x,1/2+y,-z
1/2-x,1/2-y,-z
1/2+x,1/2-y,z
loop_
_atom_site_type_symbol
_atom_site_label
_atom_site_fract_x
_atom_site_fract_y
_atom_site_fract_z
Si Si1 0.830198 0.641840 0.854747
Si Si2 0.101479 0.752908 0.396970
Si Si3 0.182766 0.098400 0.978320
Si Si4 0.332210 0.899001 0.079779
Si Si5 0.015572 0.407943 0.148410
Si Si6 0.957060 0.759635 0.314343
Si Si7 0.721191 0.326203 0.260646
Si Si8 0.696363 0.400341 0.446599
O O1 0.840979 0.744058 0.856239
O O2 0.776852 0.607994 0.664297
O O3 0.788285 0.621828 0.892241
O O4 0.921421 0.600295 0.026600
O O5 0.069862 0.673930 0.272023
O O6 0.188059 0.718119 0.597364
O O7 0.127168 0.836591 0.375590
O O8 0.029193 0.768028 0.353961
O O9 0.112223 0.166842 0.824340
O O10 0.156886 0.000000 0.912232
O O11 0.266102 0.116187 0.056358
O O12 0.202316 0.110515 0.133862
O O13 0.409043 0.832268 0.223717
O O14 0.356333 0.000000 0.124642
O O15 0.053924 0.500000 0.247998
O O16 0.000000 0.408676 0.000000
O O17 0.000000 0.767807 0.500000
O O18 0.717146 0.366822 0.367640
O O19 0.670705 0.500000 0.398308
#
# Coordination Sequence:
#
# PCOD9219837 Si02
#       8
#     8   8   8   8   8   8   8   8
#     4  11  21  39  65  94 128 171 215 267 319 384
#     4  11  24  39  62  98 129 168 213 264 323 386
#     4  11  25  44  69  95 127 175 224 265 316 385
#     4  11  23  42  69  98 128 169 219 268 322 387
#     4  11  21  35  59  92 129 165 207 265 328 383
#     4  12  26  43  66  95 133 169 212 273 334 386
#     4  11  22  43  67  92 130 172 219 264 315 384
#     4  11  24  41  66  97 132 174 220 264 311 377
#
# _framework density 20.065840000000001
#
# number of rings (size 3 to 8) (size 9 to 14) (size 15 to 20)
#    0.000    0.875    2.500    5.625    3.500    3.000 
#    0.000    0.000    0.000    4.125    0.000    0.000 
#    0.000    0.000    0.000    0.000    0.000    0.000 
#
# Total GULP energy -178853.864983 kJ/mol
# GULP energy per Si atom -5589.183281 kJ/mol
# Density = 2.002017 g / cm^3
# Si number density = 20.065840 Si / 1000 Ang^3
#
#
#
# Elastic Constant Matrix: (Units=GPa)
#
#
# Indices 1 2 3 4 5 6 
#
# 1 121.2084 58.5511 48.4347 0.0000 -7.6197 0.0000
# 2 58.5511 143.2925 38.8447 0.0000 8.0659 0.0000
# 3 48.4347 38.8447 75.5015 0.0000 -13.5666 0.0000
# 4 0.0000 0.0000 0.0000 12.4197 0.0000 -4.9878
# 5 -7.6197 8.0659 -13.5666 0.0000 34.0422 0.0000
# 6 0.0000 0.0000 0.0000 -4.9878 0.0000 25.0662
#
#
#
# Elastic Compliance Matrix: (Units=1/GPa)
#
#
# Indices 1 2 3 4 5 6 
#
# 1 0.012398 -0.003535 -0.005909 0.000000 0.001258 0.000000
# 2 -0.003535 0.009618 -0.003482 0.000000 -0.004458 0.000000
# 3 -0.005909 -0.003482 0.020182 0.000000 0.007545 0.000000
# 4 0.000000 0.000000 0.000000 0.087510 0.000000 0.017413
# 5 0.001258 -0.004458 0.007545 0.000000 0.033720 0.000000
# 6 0.000000 0.000000 0.000000 0.017413 0.000000 0.043359
#
#
# Mechanical properties :
#
#
# Convention : Reuss Voigt Hill
#
# Bulk Modulus (GPa) = 61.17050 70.18484 65.67767
# Shear Modulus (GPa) = 21.00066 27.25040 24.12553
#
# Velocity S-wave (km/s) = 3.23861 3.68917 3.47121
# Velocity P-wave (km/s) = 6.67352 7.29382 6.99055
#
# Compressibility (1/GPa) = 0.01634775
#
# Stress axis : x y z
#
# Youngs Moduli (GPa) = 80.65764 103.97273 49.54852
#
# Poissons Ratio (x) = 0.36755 0.29277
# Poissons Ratio (y) = 0.28513 0.17250
# Poissons Ratio (z) = 0.47658 0.36198
#
# Static dielectric constant tensor:
#      x y z
#    x 0.861790 0.000000 -0.211750 
#    y 0.000000 1.729550 0.000000 
#    z -0.211750 0.000000 1.648680 
# 
# From -- ./inp_files/183816.got.cif
#   From: 2010.05.17/outbox.cif.g08.bks.cpg/sg12_92_cif.got.tgz:183816.got - 2010.06.03 13:09:07.
