data_PCOD9219194
_publ_section_title
;
Structure prediction by ZEFSAII (Michael W. Deem and Ramdas Pophale) SiO2 
 PCOD9219194
Probable space group: C 2/M
;
_chemical_formula_sum "Si O2"
_cell_formula_units_Z 60
_cell_length_a 22.709244
_cell_length_b 22.108316
_cell_length_c 7.413349
_cell_angle_alpha 90.000000
_cell_angle_beta 110.555396
_cell_angle_gamma 90.000000
_cell_volume 3485.003257
_symmetry_space_group_name_H-M "C 2/M"
_symmetry_group_IT_number 12
_symmetry_cell_setting 'monoclinic'
loop_
_space_group_symop_operation_xyz
x,y,z
-x,y,-z
-x,-y,-z
x,-y,z
1/2+x,1/2+y,z
1/2-x,1/2+y,-z
1/2-x,1/2-y,-z
1/2+x,1/2-y,z
loop_
_atom_site_type_symbol
_atom_site_label
_atom_site_fract_x
_atom_site_fract_y
_atom_site_fract_z
Si Si1 0.339649 0.746600 0.334833
Si Si2 0.136243 0.284590 0.236348
Si Si3 0.039119 0.802511 0.725968
Si Si4 0.047285 0.935144 0.720092
Si Si5 0.256112 0.364129 0.380043
Si Si6 0.219481 0.828758 0.190867
Si Si7 0.000000 0.720421 0.000000
Si Si8 0.806944 0.066793 0.130253
O O1 0.367040 0.772597 0.551770
O O2 0.394344 0.727917 0.256352
O O3 0.305042 0.685255 0.355633
O O4 0.283755 0.791802 0.211708
O O5 0.188401 0.335767 0.269513
O O6 0.166047 0.222646 0.179354
O O7 0.069587 0.307149 0.088814
O O8 0.041121 0.870440 0.808377
O O9 0.000000 0.806142 0.500000
O O10 0.003603 0.761506 0.827945
O O11 0.119665 0.933463 0.736144
O O12 0.000000 0.935365 0.500000
O O13 0.037980 0.000000 0.807129
O O14 0.267785 0.363744 0.606648
O O15 0.268023 0.421991 0.270726
O O16 0.203807 0.878396 0.022585
O O17 0.793034 0.000000 0.037861
#
# Coordination Sequence:
#
# PCOD9219194 Si02
#       8
#     8   8   8   8   8   8   4   8
#     4   9  17  35  52  73 101 139 167 204 268 311
#     4   9  19  33  50  78 105 130 171 202 258 324
#     4  11  20  32  49  72 107 134 174 212 246 299
#     4   9  19  34  50  68  99 143 179 210 242 283
#     4   9  19  35  53  73 102 136 166 211 261 303
#     4   9  20  34  53  74 105 132 169 214 256 308
#     4  12  22  28  47  80 103 130 162 208 258 302
#     4  11  21  33  52  78 100 135 185 210 245 298
#
# _framework density 17.216626000000002
#
# number of rings (size 3 to 8) (size 9 to 14) (size 15 to 20)
#    0.000    2.267    2.667    2.400    1.867    1.600 
#    0.000    0.333    0.000    4.000    0.000    0.467 
#    0.000    3.200    0.000    0.000    0.000    0.000 
#
# Total GULP energy -167006.548595 kJ/mol
# GULP energy per Si atom -5566.884953 kJ/mol
# Density = 1.717744 g / cm^3
# Si number density = 17.216626 Si / 1000 Ang^3
#
#
#
# Elastic Constant Matrix: (Units=GPa)
#
#
# Indices 1 2 3 4 5 6 
#
# 1 67.2005 16.0867 32.1269 0.0000 11.1990 0.0000
# 2 16.0867 52.2935 29.9713 0.0000 2.3208 0.0000
# 3 32.1269 29.9713 79.9179 0.0000 10.0854 0.0000
# 4 0.0000 0.0000 0.0000 8.0855 0.0000 6.4761
# 5 11.1990 2.3208 10.0854 0.0000 26.6061 0.0000
# 6 0.0000 0.0000 0.0000 6.4761 0.0000 -2.6638
#
#
#
# Elastic Compliance Matrix: (Units=1/GPa)
#
#
# Indices 1 2 3 4 5 6 
#
# 1 0.019310 -0.002098 -0.006273 0.000000 -0.005567 0.000000
# 2 -0.002098 0.024636 -0.008650 0.000000 0.002013 0.000000
# 3 -0.006273 -0.008650 0.018747 0.000000 -0.003711 0.000000
# 4 0.000000 0.000000 0.000000 0.041964 0.000000 0.102022
# 5 -0.005567 0.002013 -0.003711 0.000000 0.041160 0.000000
# 6 0.000000 0.000000 0.000000 0.102022 0.000000 -0.127376
#
#
# Mechanical properties :
#
#
# Convention : Reuss Voigt Hill
#
# Bulk Modulus (GPa) = 34.90250 39.53130 37.21690
# Shear Modulus (GPa) = 80.60080 14.48736 47.54408
#
# Velocity S-wave (km/s) = 6.84962 2.90397 5.26072
# Velocity P-wave (km/s) = 9.10346 5.85278 7.65271
#
# Compressibility (1/GPa) = 0.02865125
#
# Stress axis : x y z
#
# Youngs Moduli (GPa) = 51.78708 40.59027 53.34161
#
# Poissons Ratio (x) = 0.08514 0.33463
# Poissons Ratio (y) = 0.10863 0.46141
# Poissons Ratio (z) = 0.32488 0.35111
#
# Static dielectric constant tensor:
#      x y z
#    x 1.596000 0.000000 0.014790 
#    y 0.000000 1.593240 0.000000 
#    z 0.014790 0.000000 1.631970 
# 
# From -- ./inp_files/98137.got.cif
#   From: 2010.05.17/outbox.cif.g08.bks.cpg/sg12_50_cif.got.tgz:98137.got - 2010.06.03 13:09:07.
