data_PCOD9219553
_publ_section_title
;
Structure prediction by ZEFSAII (Michael W. Deem and Ramdas Pophale) SiO2 
 PCOD9219553
Probable space group: C 2/M
;
_chemical_formula_sum "Si O2"
_cell_formula_units_Z 64
_cell_length_a 19.646600
_cell_length_b 32.636302
_cell_length_c 12.238391
_cell_angle_alpha 90.000000
_cell_angle_beta 154.637903
_cell_angle_gamma 90.000000
_cell_volume 3361.233797
_symmetry_space_group_name_H-M "C 2/M"
_symmetry_group_IT_number 12
_symmetry_cell_setting 'monoclinic'
loop_
_space_group_symop_operation_xyz
x,y,z
-x,y,-z
-x,-y,-z
x,-y,z
1/2+x,1/2+y,z
1/2-x,1/2+y,-z
1/2-x,1/2-y,-z
1/2+x,1/2-y,z
loop_
_atom_site_type_symbol
_atom_site_label
_atom_site_fract_x
_atom_site_fract_y
_atom_site_fract_z
Si Si1 0.733161 0.850576 0.827005
Si Si2 0.936283 0.546353 0.083024
Si Si3 0.815951 0.254559 0.218324
Si Si4 0.237160 0.046529 0.582365
Si Si5 0.557595 0.381657 0.202293
Si Si6 0.328700 0.756702 0.771868
Si Si7 0.467593 0.125861 0.269474
Si Si8 0.337839 0.184251 0.588692
O O1 0.696716 0.802524 0.770844
O O2 0.684736 0.863788 0.878313
O O3 0.615431 0.871793 0.568752
O O4 0.911231 0.860282 0.051241
O O5 0.917086 0.500000 0.098010
O O6 0.101969 0.547489 0.256658
O O7 0.946468 0.581742 0.186023
O O8 0.797353 0.554178 0.793017
O O9 0.709172 0.233983 0.157752
O O10 0.000000 0.241765 0.500000
O O11 0.750000 0.250000 0.000000
O O12 0.123688 0.081109 0.370194
O O13 0.173104 0.000000 0.483167
O O14 0.694960 0.348403 0.379491
O O15 0.500000 0.396687 0.000000
O O16 0.339147 0.796869 0.711729
O O17 0.199655 0.724439 0.539072
O O18 0.500000 0.735918 0.000000
O O19 0.513082 0.159351 0.243149
#
# Coordination Sequence:
#
# PCOD9219553 Si02
#       8
#     8   8   8   8   8   8   8   8
#     4  11  23  39  63  86 128 165 209 253 323 373
#     4   9  18  37  64  91 122 161 201 252 315 383
#     4  12  26  46  66  89 131 178 214 268 329 386
#     4   9  19  36  61  94 125 154 199 255 313 372
#     4  12  21  38  61  90 119 164 201 257 307 372
#     4  11  25  39  61  92 121 163 215 269 311 378
#     4  11  20  41  62  89 118 168 204 253 313 376
#     4  11  22  38  63  87 124 156 212 258 319 358
#
# _framework density 19.040627000000001
#
# number of rings (size 3 to 8) (size 9 to 14) (size 15 to 20)
#    0.000    1.250    5.000    1.875    7.000    1.250 
#    0.000    3.125    0.000    1.500    0.000    0.000 
#    0.000    0.000    0.000    0.000    0.000    0.000 
#
# Total GULP energy -178691.307474 kJ/mol
# GULP energy per Si atom -5584.103359 kJ/mol
# Density = 1.899729 g / cm^3
# Si number density = 19.040627 Si / 1000 Ang^3
#
#
#
# Elastic Constant Matrix: (Units=GPa)
#
#
# Indices 1 2 3 4 5 6 
#
# 1 150.2435 48.5448 38.8554 0.0000 -6.1396 0.0000
# 2 48.5448 99.1779 32.3402 0.0000 -20.6183 0.0000
# 3 38.8554 32.3402 63.5567 0.0001 -11.2915 0.0000
# 4 0.0000 0.0000 0.0001 -32.0033 0.0000 -6.9212
# 5 -6.1396 -20.6183 -11.2915 0.0000 32.2841 0.0000
# 6 0.0000 0.0000 0.0000 -6.9212 0.0000 34.3704
#
#
#
# Elastic Compliance Matrix: (Units=1/GPa)
#
#
# Indices 1 2 3 4 5 6 
#
# 1 0.008680 -0.003355 -0.003931 0.000000 -0.001867 0.000000
# 2 -0.003355 0.014556 -0.004071 0.000000 0.007235 0.000000
# 3 -0.003931 -0.004071 0.020913 0.000000 0.003967 0.000000
# 4 0.000000 0.000000 0.000000 -0.029943 0.000000 -0.006030
# 5 -0.001867 0.007235 0.003967 0.000000 0.036628 0.000000
# 6 0.000000 0.000000 0.000000 -0.006030 0.000000 0.027881
#
#
# Mechanical properties :
#
#
# Convention : Reuss Voigt Hill
#
# Bulk Modulus (GPa) = 46.64890 61.38433 54.01662
# Shear Modulus (GPa) = 46.05121 19.81276 32.93199
#
# Velocity S-wave (km/s) = 4.92324 3.22926 4.16331
# Velocity P-wave (km/s) = 7.54126 6.79800 7.17925
#
# Compressibility (1/GPa) = 0.02143673
#
# Stress axis : x y z
#
# Youngs Moduli (GPa) = 115.20396 68.69824 47.81624
#
# Poissons Ratio (x) = 0.23048 0.18798
# Poissons Ratio (y) = 0.38650 0.19464
# Poissons Ratio (z) = 0.45289 0.27964
#
# Static dielectric constant tensor:
#      x y z
#    x 1.697220 0.000000 -0.006610 
#    y 0.000000 1.646910 0.000000 
#    z -0.006610 0.000000 1.705060 
# 
# From -- ./inp_files/161218.got.cif
#   From: 2010.05.17/outbox.cif.g08.bks.cpg/sg12_81_cif.got.tgz:161218.got - 2010.06.03 13:09:07.
