data_PCOD9219856
_publ_section_title
;
Structure prediction by ZEFSAII (Michael W. Deem and Ramdas Pophale) SiO2 
 PCOD9219856
Probable space group: C 2/M
;
_chemical_formula_sum "Si O2"
_cell_formula_units_Z 52
_cell_length_a 14.299668
_cell_length_b 27.419298
_cell_length_c 20.286857
_cell_angle_alpha 90.000000
_cell_angle_beta 157.344476
_cell_angle_gamma 90.000000
_cell_volume 3063.880596
_symmetry_space_group_name_H-M "C 2/M"
_symmetry_group_IT_number 12
_symmetry_cell_setting 'monoclinic'
loop_
_space_group_symop_operation_xyz
x,y,z
-x,y,-z
-x,-y,-z
x,-y,z
1/2+x,1/2+y,z
1/2-x,1/2+y,-z
1/2-x,1/2-y,-z
1/2+x,1/2-y,z
loop_
_atom_site_type_symbol
_atom_site_label
_atom_site_fract_x
_atom_site_fract_y
_atom_site_fract_z
Si Si1 0.679441 0.554697 0.363757
Si Si2 0.005439 0.687898 0.697095
Si Si3 0.746514 0.945831 0.744952
Si Si4 0.000000 0.869122 0.000000
Si Si5 0.028994 0.247183 0.204975
Si Si6 0.953610 0.842567 0.679509
Si Si7 0.237561 0.726685 0.199458
O O1 0.593922 0.500000 0.327144
O O2 0.707773 0.555524 0.303252
O O3 0.522993 0.601577 0.282321
O O4 0.958437 0.560031 0.569861
O O5 0.266269 0.661566 0.871031
O O6 0.054508 0.735976 0.686228
O O7 0.924587 0.708527 0.714621
O O8 0.798648 0.659370 0.524551
O O9 0.815178 0.000000 0.813337
O O10 0.899222 0.903617 0.877378
O O11 0.058143 0.196283 0.265959
O O12 0.179319 0.259191 0.236685
O O13 0.750000 0.250000 0.000000
O O14 0.158313 0.824297 0.760861
O O15 0.000000 0.736127 0.000000
#
# Coordination Sequence:
#
# PCOD9219856 Si02
#       7
#     8   8   8   4   8   8   8
#     4   9  19  36  54  80 110 144 192 237 279 334
#     4  11  23  35  49  85 113 147 188 219 273 346
#     4   9  19  32  52  80 109 144 186 230 284 336
#     4  12  19  32  54  76 120 144 181 222 280 330
#     4  11  21  37  57  79 113 144 182 233 278 328
#     4  11  23  36  57  82 112 153 186 223 287 333
#     4  11  21  36  54  81 110 145 186 225 269 342
#
# _framework density 16.971941000000001
#
# number of rings (size 3 to 8) (size 9 to 14) (size 15 to 20)
#    0.000    1.538    5.385    3.000    4.308    2.462 
#    0.000    0.000    0.000    0.462    0.000    4.308 
#    0.000    0.000    0.000    0.000    0.000    0.000 
#
# Total GULP energy -144795.963922 kJ/mol
# GULP energy per Si atom -5569.075535 kJ/mol
# Density = 1.693331 g / cm^3
# Si number density = 16.971941 Si / 1000 Ang^3
#
#
#
# Elastic Constant Matrix: (Units=GPa)
#
#
# Indices 1 2 3 4 5 6 
#
# 1 107.4928 37.9467 14.4757 -0.0082 -4.3997 0.0013
# 2 37.9467 116.7610 24.3587 -0.0120 -6.8076 0.0001
# 3 14.4757 24.3587 55.6739 -0.0102 -11.2007 0.0109
# 4 -0.0082 -0.0120 -0.0102 37.4327 -0.0123 5.8520
# 5 -4.3997 -6.8076 -11.2007 -0.0123 20.4194 0.0017
# 6 0.0013 0.0001 0.0109 5.8520 0.0017 23.5782
#
#
#
# Elastic Compliance Matrix: (Units=1/GPa)
#
#
# Indices 1 2 3 4 5 6 
#
# 1 0.010609 -0.003151 -0.001271 0.000001 0.000538 0.000000
# 2 -0.003151 0.010379 -0.003554 0.000002 0.000831 0.000001
# 3 -0.001271 -0.003554 0.021979 0.000010 0.010597 -0.000013
# 4 0.000001 0.000002 0.000010 0.027793 0.000024 -0.006898
# 5 0.000538 0.000831 0.010597 0.000024 0.055179 -0.000015
# 6 0.000000 0.000001 -0.000013 -0.006898 -0.000015 0.044124
#
#
# Mechanical properties :
#
#
# Convention : Reuss Voigt Hill
#
# Bulk Modulus (GPa) = 37.01928 48.16555 42.59241
# Shear Modulus (GPa) = 25.63828 29.82918 27.73373
#
# Velocity S-wave (km/s) = 3.89090 4.19687 4.04678
# Velocity P-wave (km/s) = 6.48420 7.20598 6.85459
#
# Compressibility (1/GPa) = 0.02701295
#
# Stress axis : x y z
#
# Youngs Moduli (GPa) = 94.26335 96.35238 45.49703
#
# Poissons Ratio (x) = 0.30362 0.05785
# Poissons Ratio (y) = 0.29704 0.16171
# Poissons Ratio (z) = 0.11985 0.34246
#
# Static dielectric constant tensor:
#      x y z
#    x 1.601930 0.000000 -0.008640 
#    y 0.000000 1.609560 0.000000 
#    z -0.008640 0.000000 1.595880 
# 
# From -- ./inp_files/312676.got.cif
#   From: 2010.05.17/outbox.cif.g08.bks.cpg/sg12_157_cif.got.tgz:312676.got - 2010.06.03 13:09:07.
