data_PCOD9219649
_publ_section_title
;
Structure prediction by ZEFSAII (Michael W. Deem and Ramdas Pophale) SiO2 
 PCOD9219649
Probable space group: C 2/M
;
_chemical_formula_sum "Si O2"
_cell_formula_units_Z 64
_cell_length_a 26.505911
_cell_length_b 8.514641
_cell_length_c 17.657565
_cell_angle_alpha 90.000000
_cell_angle_beta 90.000000
_cell_angle_gamma 90.000000
_cell_volume 3985.106119
_symmetry_space_group_name_H-M "C 2/M"
_symmetry_group_IT_number 12
_symmetry_cell_setting 'monoclinic'
loop_
_space_group_symop_operation_xyz
x,y,z
-x,y,-z
-x,-y,-z
x,-y,z
1/2+x,1/2+y,z
1/2-x,1/2+y,-z
1/2-x,1/2-y,-z
1/2+x,1/2-y,z
loop_
_atom_site_type_symbol
_atom_site_label
_atom_site_fract_x
_atom_site_fract_y
_atom_site_fract_z
Si Si1 0.440943 0.309602 0.334637
Si Si2 0.061303 0.817060 0.500000
Si Si3 1.000000 0.811507 0.088046
Si Si4 0.597012 0.188391 0.178652
Si Si5 0.597012 0.188391 0.821348
Si Si6 0.695148 0.810549 0.087436
Si Si7 0.195148 0.310549 0.912564
Si Si8 0.440943 0.309602 0.665363
O O1 0.439458 0.500000 0.335258
O O2 0.423897 0.251032 0.417972
O O3 0.409699 0.246957 0.264247
O O4 0.500000 0.265401 0.323857
O O5 0.076103 0.751032 0.417972
O O6 0.000000 0.815973 0.500000
O O7 0.076844 0.000000 0.500000
O O8 0.950416 0.749705 0.130377
O O9 0.049584 0.749705 0.130377
O O10 1.000000 0.000000 0.091809
O O11 0.000000 0.762883 0.000000
O O12 0.648964 0.242484 0.139655
O O13 0.590301 0.246957 0.264247
O O14 0.595952 0.000000 0.177653
O O15 0.648964 0.242484 0.860345
O O16 0.595952 0.000000 0.822347
O O17 0.750000 0.750000 0.111485
O O18 0.695965 0.000000 0.088117
O O19 0.686883 0.759910 1.000000
O O20 0.195965 0.500000 0.911883
O O21 0.439458 0.500000 0.664742
#
# Coordination Sequence:
#
# PCOD9219649 Si02
#       8
#     8   8   8   8   8   8   8   8
#     4   9  16  28  46  68  96 128 163 195 227 275
#     4   7  12  24  43  65  90 125 161 194 229 267
#     4  11  23  35  47  66  93 128 167 197 226 275
#     4  11  21  32  48  71 100 128 154 191 243 289
#     4  11  21  32  48  71 100 128 154 191 243 289
#     4   9  19  35  52  69  90 120 159 200 240 281
#     4   9  19  35  52  69  90 120 159 200 240 281
#     4   9  16  28  46  68  96 128 163 195 227 275
#
# _framework density 16.059797
#
# number of rings (size 3 to 8) (size 9 to 14) (size 15 to 20)
#    0.000    2.500    1.250    3.375    0.000    4.000 
#    0.000    3.125    0.000    2.250    0.000    0.875 
#    0.000    0.000    0.000    0.000    0.000    0.000 
#
# Total GULP energy -178363.504112 kJ/mol
# GULP energy per Si atom -5573.859503 kJ/mol
# Density = 1.602324 g / cm^3
# Si number density = 16.059797 Si / 1000 Ang^3
#
#
#
# Elastic Constant Matrix: (Units=GPa)
#
#
# Indices 1 2 3 4 5 6 
#
# 1 119.1096 19.4329 87.8233 0.0000 -0.2745 0.0000
# 2 19.4329 15.0095 25.7890 0.0000 0.5943 0.0000
# 3 87.8233 25.7890 164.1289 0.0000 4.4848 0.0000
# 4 0.0000 0.0000 0.0000 15.8354 0.0000 -0.5973
# 5 -0.2745 0.5943 4.4848 0.0000 14.6193 0.0000
# 6 0.0000 0.0000 0.0000 -0.5973 0.0000 22.2229
#
#
#
# Elastic Compliance Matrix: (Units=1/GPa)
#
#
# Indices 1 2 3 4 5 6 
#
# 1 0.014546 -0.007452 -0.006684 0.000000 0.002627 0.000000
# 2 -0.007452 0.095088 -0.010935 0.000000 -0.000651 0.000000
# 3 -0.006684 -0.010935 0.011475 0.000000 -0.003201 0.000000
# 4 0.000000 0.000000 0.000000 0.063214 0.000000 0.001699
# 5 0.002627 -0.000651 -0.003201 0.000000 0.069461 0.000000
# 6 0.000000 0.000000 0.000000 0.001699 0.000000 0.045044
#
#
# Mechanical properties :
#
#
# Convention : Reuss Voigt Hill
#
# Bulk Modulus (GPa) = 14.09140 62.70427 38.39783
# Shear Modulus (GPa) = 13.41826 21.54903 17.48365
#
# Velocity S-wave (km/s) = 2.89367 3.66703 3.30306
# Velocity P-wave (km/s) = 4.46742 7.55371 6.20549
#
# Compressibility (1/GPa) = 0.07096526
#
# Stress axis : x y z
#
# Youngs Moduli (GPa) = 68.74742 10.51660 87.14492
#
# Poissons Ratio (x) = 0.07837 0.58250
# Poissons Ratio (y) = 0.51231 0.95297
# Poissons Ratio (z) = 0.45952 0.11500
#
# Static dielectric constant tensor:
#      x y z
#    x 1.506700 0.000000 0.005560 
#    y 0.000000 1.552080 0.000000 
#    z 0.005560 0.000000 1.566150 
# 
# From -- ./inp_files/287546.got.cif
#   From: 2010.05.17/outbox.cif.g08.bks.cpg/sg12_144_cif.got.tgz:287546.got - 2010.06.03 13:09:07.
