data_PCOD9219153
_publ_section_title
;
Structure prediction by ZEFSAII (Michael W. Deem and Ramdas Pophale) SiO2 
 PCOD9219153
Probable space group: C 2/M
;
_chemical_formula_sum "Si O2"
_cell_formula_units_Z 52
_cell_length_a 22.997796
_cell_length_b 7.775888
_cell_length_c 19.063212
_cell_angle_alpha 90.000000
_cell_angle_beta 144.761052
_cell_angle_gamma 90.000000
_cell_volume 1966.974874
_symmetry_space_group_name_H-M "C 2/M"
_symmetry_group_IT_number 12
_symmetry_cell_setting 'monoclinic'
loop_
_space_group_symop_operation_xyz
x,y,z
-x,y,-z
-x,-y,-z
x,-y,z
1/2+x,1/2+y,z
1/2-x,1/2+y,-z
1/2-x,1/2-y,-z
1/2+x,1/2-y,z
loop_
_atom_site_type_symbol
_atom_site_label
_atom_site_fract_x
_atom_site_fract_y
_atom_site_fract_z
Si Si1 0.171429 0.500000 0.815204
Si Si2 0.533009 0.201064 0.137788
Si Si3 0.007491 0.804341 0.753832
Si Si4 0.725152 0.308266 0.256328
Si Si5 0.809072 0.794330 0.487234
Si Si6 0.174315 0.311137 0.009341
Si Si7 0.587952 0.305015 0.643117
O O1 0.254784 0.650829 0.918817
O O2 0.103391 0.310017 0.869302
O O3 0.551938 0.297928 0.229633
O O4 0.607639 0.266308 0.152170
O O5 0.411585 0.210511 0.015005
O O6 0.556820 0.000000 0.171166
O O7 0.099219 0.654716 0.710485
O O8 0.925165 0.749876 0.616926
O O9 0.039530 0.000000 0.774671
O O10 0.735787 0.500000 0.236652
O O11 0.767900 0.295973 0.377620
O O12 0.801969 0.195963 0.286712
O O13 0.750000 0.750000 0.500000
O O14 0.802765 0.000000 0.469792
O O15 0.220812 0.500000 0.060467
O O16 0.500000 0.265832 0.500000
O O17 0.567602 0.500000 0.648009
#
# Coordination Sequence:
#
# PCOD9219153 Si02
#       7
#     4   8   8   8   8   8   8
#     4  12  21  40  67  90 118 156 206 246 313 366
#     4   9  17  30  50  77 122 164 194 233 282 341
#     4   9  16  29  47  77 123 164 196 238 279 341
#     4  12  23  36  58  85 122 167 205 251 310 364
#     4  11  20  29  50  83 122 166 206 239 294 362
#     4   9  18  32  56  88 124 161 201 239 287 359
#     4  11  26  48  69  89 116 147 205 269 320 362
#
# _framework density 26.436537000000001
#
# number of rings (size 3 to 8) (size 9 to 14) (size 15 to 20)
#    0.923    0.769    3.077    3.000    1.077    1.846 
#    0.000    1.538    0.000    2.769    0.000    1.077 
#    0.000    0.000    0.000    0.000    0.000    0.000 
#
# Total GULP energy -145033.616799 kJ/mol
# GULP energy per Si atom -5578.216031 kJ/mol
# Density = 2.637637 g / cm^3
# Si number density = 26.436537 Si / 1000 Ang^3
#
#
#
# Elastic Constant Matrix: (Units=GPa)
#
#
# Indices 1 2 3 4 5 6 
#
# 1 105.4604 13.6431 29.6444 0.0000 16.3317 0.0000
# 2 13.6431 165.6523 50.1069 0.0000 18.2213 0.0000
# 3 29.6444 50.1069 130.2001 0.0000 22.6571 0.0000
# 4 0.0000 0.0000 0.0000 39.8035 0.0000 75.0529
# 5 16.3317 18.2213 22.6571 0.0000 37.1787 0.0000
# 6 0.0000 0.0000 0.0000 75.0529 0.0000 -186.8831
#
#
#
# Elastic Compliance Matrix: (Units=1/GPa)
#
#
# Indices 1 2 3 4 5 6 
#
# 1 0.010532 0.000070 -0.001805 0.000000 -0.003561 0.000000
# 2 0.000070 0.006962 -0.002345 0.000000 -0.002014 0.000000
# 3 -0.001805 -0.002345 0.009683 0.000000 -0.003959 0.000000
# 4 0.000000 0.000000 0.000000 0.014297 0.000000 0.005742
# 5 -0.003561 -0.002014 -0.003959 0.000000 0.031861 0.000000
# 6 0.000000 0.000000 0.000000 0.005742 0.000000 -0.003045
#
#
# Mechanical properties :
#
#
# Convention : Reuss Voigt Hill
#
# Bulk Modulus (GPa) = 52.58475 65.34463 58.96469
# Shear Modulus (GPa) = 58.97083 -1.45229 28.75927
#
# Velocity S-wave (km/s) = 4.72811 -0.74199 3.30185
# Velocity P-wave (km/s) = 7.05271 4.90277 6.07363
#
# Compressibility (1/GPa) = 0.01901692
#
# Stress axis : x y z
#
# Youngs Moduli (GPa) = 94.94829 143.64270 103.27618
#
# Poissons Ratio (x) = -0.01011 0.18646
# Poissons Ratio (y) = -0.00668 0.24216
# Poissons Ratio (z) = 0.17142 0.33681
#
# Static dielectric constant tensor:
#      x y z
#    x 2.236380 0.000000 0.040780 
#    y 0.000000 2.011230 0.000000 
#    z 0.040780 0.000000 2.095480 
# 
# From -- ./inp_files/380076.got.cif
#   From: 2010.05.17/outbox.cif.g08.bks.cpg/sg12_191_cif.got.tgz:380076.got - 2010.06.03 13:09:07.
