data_PCOD9219438
_publ_section_title
;
Structure prediction by ZEFSAII (Michael W. Deem and Ramdas Pophale) SiO2 
 PCOD9219438
Probable space group: C 2/M
;
_chemical_formula_sum "Si O2"
_cell_formula_units_Z 48
_cell_length_a 21.817457
_cell_length_b 15.177125
_cell_length_c 17.833941
_cell_angle_alpha 90.000000
_cell_angle_beta 153.751002
_cell_angle_gamma 90.000000
_cell_volume 2611.748764
_symmetry_space_group_name_H-M "C 2/M"
_symmetry_group_IT_number 12
_symmetry_cell_setting 'monoclinic'
loop_
_space_group_symop_operation_xyz
x,y,z
-x,y,-z
-x,-y,-z
x,-y,z
1/2+x,1/2+y,z
1/2-x,1/2+y,-z
1/2-x,1/2-y,-z
1/2+x,1/2-y,z
loop_
_atom_site_type_symbol
_atom_site_label
_atom_site_fract_x
_atom_site_fract_y
_atom_site_fract_z
Si Si1 0.955085 0.269122 0.759213
Si Si2 0.856119 0.102795 0.016242
Si Si3 0.946740 0.147089 0.365603
Si Si4 0.188229 0.757282 0.554285
Si Si5 0.195311 0.598650 0.990083
Si Si6 0.348538 0.833211 0.330439
O O1 0.881086 0.280657 0.597302
O O2 0.840666 0.286808 0.697009
O O3 0.016796 0.170701 0.837353
O O4 0.084208 0.334404 0.900634
O O5 0.770083 0.117873 0.845566
O O6 0.895269 0.000000 0.067121
O O7 0.750171 0.125190 0.968008
O O8 0.830007 0.100126 0.190417
O O9 0.881434 0.241381 0.321601
O O10 0.000000 0.103153 0.500000
O O11 0.081350 0.167699 0.463563
O O12 0.194154 0.692002 0.631881
O O13 0.137994 0.500000 0.922462
O O14 0.500000 0.878748 0.500000
#
# Coordination Sequence:
#
# PCOD9219438 Si02
#       6
#     8   8   8   8   8   8
#     4  11  20  38  58  84 116 151 194 237 288 341
#     4  11  22  35  59  88 116 154 194 239 286 345
#     4   9  17  35  58  82 108 145 192 233 281 339
#     4   9  20  35  60  81 110 159 185 232 291 339
#     4  11  21  35  59  87 114 150 194 240 287 339
#     4   9  18  35  57  84 111 149 193 231 286 340
#
# _framework density 18.378491
#
# number of rings (size 3 to 8) (size 9 to 14) (size 15 to 20)
#    0.000    2.333    3.333    2.500    0.000    1.333 
#    0.000    6.667    0.000    6.000    0.000    0.000 
#    0.000    0.000    0.000    0.000    0.000    0.000 
#
# Total GULP energy -133792.891391 kJ/mol
# GULP energy per Si atom -5574.703808 kJ/mol
# Density = 1.833666 g / cm^3
# Si number density = 18.378491 Si / 1000 Ang^3
#
#
#
# Elastic Constant Matrix: (Units=GPa)
#
#
# Indices 1 2 3 4 5 6 
#
# 1 130.0958 25.4109 51.3156 0.0001 10.5120 0.0000
# 2 25.4109 54.3390 20.9071 0.0002 17.3936 0.0001
# 3 51.3156 20.9071 87.7390 0.0002 -1.9583 0.0001
# 4 0.0001 0.0002 0.0002 2.7384 0.0001 -2.1361
# 5 10.5120 17.3936 -1.9583 0.0001 37.1875 0.0001
# 6 0.0000 0.0001 0.0001 -2.1361 0.0001 -0.9294
#
#
#
# Elastic Compliance Matrix: (Units=1/GPa)
#
#
# Indices 1 2 3 4 5 6 
#
# 1 0.010525 -0.001956 -0.005742 0.000000 -0.002362 -0.000001
# 2 -0.001956 0.024892 -0.005041 0.000000 -0.011355 0.000001
# 3 -0.005742 -0.005041 0.016065 0.000000 0.004827 0.000002
# 4 0.000000 0.000000 0.000000 0.130753 0.000000 -0.300523
# 5 -0.002362 -0.011355 0.004827 0.000000 0.033124 0.000002
# 6 -0.000001 0.000001 0.000002 -0.300523 0.000002 -0.385269
#
#
# Mechanical properties :
#
#
# Convention : Reuss Voigt Hill
#
# Bulk Modulus (GPa) = 38.45693 51.93791 45.19742
# Shear Modulus (GPa) = -36.82815 19.43532 -8.69642
#
# Velocity S-wave (km/s) = -4.48132 3.25546 -2.17764
# Velocity P-wave (km/s) = 2.40955 6.51553 4.28055
#
# Compressibility (1/GPa) = 0.02600312
#
# Stress axis : x y z
#
# Youngs Moduli (GPa) = 95.01594 40.17365 62.24843
#
# Poissons Ratio (x) = 0.07859 0.35743
# Poissons Ratio (y) = 0.18587 0.31378
# Poissons Ratio (z) = 0.54559 0.20251
#
# Static dielectric constant tensor:
#      x y z
#    x 1.629790 0.000000 -0.018990 
#    y 0.000000 1.632400 0.000000 
#    z -0.018990 0.000000 1.650350 
# 
# From -- ./inp_files/284081.got.cif
#   From: 2010.05.17/outbox.cif.g08.bks.cpg/sg12_143_cif.got.tgz:284081.got - 2010.06.03 13:09:07.
