data_PCOD9219130
_publ_section_title
;
Structure prediction by ZEFSAII (Michael W. Deem and Ramdas Pophale) SiO2 
 PCOD9219130
Probable space group: C 2/M
;
_chemical_formula_sum "Si O2"
_cell_formula_units_Z 48
_cell_length_a 28.632275
_cell_length_b 9.150629
_cell_length_c 20.248590
_cell_angle_alpha 90.000000
_cell_angle_beta 33.354518
_cell_angle_gamma 90.000000
_cell_volume 2916.892547
_symmetry_space_group_name_H-M "C 2/M"
_symmetry_group_IT_number 12
_symmetry_cell_setting 'monoclinic'
loop_
_space_group_symop_operation_xyz
x,y,z
-x,y,-z
-x,-y,-z
x,-y,z
1/2+x,1/2+y,z
1/2-x,1/2+y,-z
1/2-x,1/2-y,-z
1/2+x,1/2-y,z
loop_
_atom_site_type_symbol
_atom_site_label
_atom_site_fract_x
_atom_site_fract_y
_atom_site_fract_z
Si Si1 0.564236 0.832536 0.861286
Si Si2 0.301324 0.326204 0.215669
Si Si3 0.596611 0.175486 0.023512
Si Si4 0.159289 0.674435 0.096962
Si Si5 0.127904 0.826315 0.395329
Si Si6 0.439807 0.673794 0.669876
O O1 0.642062 0.731583 0.790053
O O2 0.501980 0.787865 0.875302
O O3 0.592874 0.000000 0.818274
O O4 0.500000 0.831486 0.000000
O O5 0.302977 0.500000 0.210673
O O6 0.206228 0.264670 0.330030
O O7 0.344963 0.258353 0.098386
O O8 0.624581 0.207417 0.064677
O O9 0.605266 0.000000 0.001716
O O10 0.167920 0.500000 0.092463
O O11 0.096542 0.735571 0.226794
O O12 0.250000 0.750000 0.000000
O O13 0.111169 0.793493 0.337650
O O14 0.038797 0.798345 0.537357
O O15 0.145899 0.000000 0.378836
O O16 0.430006 0.500000 0.693804
#
# Coordination Sequence:
#
# PCOD9219130 Si02
#       6
#     8   8   8   8   8   8
#     4   8  15  30  49  66  90 127 164 195 234 285
#     4  11  20  28  46  77 103 122 154 202 246 280
#     4   9  19  34  49  67  96 134 166 191 231 289
#     4  11  22  34  50  73 101 130 160 195 235 283
#     4   9  18  34  53  70  94 129 163 195 234 287
#     4   9  19  35  53  72  94 125 165 201 235 278
#
# _framework density 16.455869
#
# number of rings (size 3 to 8) (size 9 to 14) (size 15 to 20)
#    0.000    2.500    0.000    5.000    0.000    9.667 
#    0.000    1.667    0.000    1.000    0.000    0.000 
#    0.000    0.000    0.000    0.000    0.000    0.000 
#
# Total GULP energy -133857.756824 kJ/mol
# GULP energy per Si atom -5577.406534 kJ/mol
# Density = 1.641841 g / cm^3
# Si number density = 16.455869 Si / 1000 Ang^3
#
#
#
# Elastic Constant Matrix: (Units=GPa)
#
#
# Indices 1 2 3 4 5 6 
#
# 1 145.3762 71.4004 59.9411 -0.0015 -19.3688 0.0008
# 2 71.4004 69.2745 46.7854 -0.0055 -14.3501 0.0042
# 3 59.9411 46.7854 54.1306 -0.0025 -9.3584 0.0018
# 4 -0.0015 -0.0055 -0.0025 26.9455 0.0013 2.1264
# 5 -19.3688 -14.3501 -9.3584 0.0013 27.9295 -0.0005
# 6 0.0008 0.0042 0.0018 2.1264 -0.0005 19.3287
#
#
#
# Elastic Compliance Matrix: (Units=1/GPa)
#
#
# Indices 1 2 3 4 5 6 
#
# 1 0.015436 -0.009849 -0.008072 -0.000002 0.002939 0.000003
# 2 -0.009849 0.042851 -0.024950 0.000006 0.006826 -0.000007
# 3 -0.008072 -0.024950 0.048608 -0.000001 -0.002130 0.000001
# 4 -0.000002 0.000006 -0.000001 0.037437 -0.000001 -0.004119
# 5 0.002939 0.006826 -0.002130 -0.000001 0.040637 0.000000
# 6 0.000003 -0.000007 0.000001 -0.004119 0.000000 0.052190
#
#
# Mechanical properties :
#
#
# Convention : Reuss Voigt Hill
#
# Bulk Modulus (GPa) = 47.27364 69.44834 58.36099
# Shear Modulus (GPa) = 15.15373 20.88435 18.01904
#
# Velocity S-wave (km/s) = 3.03788 3.56633 3.31266
# Velocity P-wave (km/s) = 6.41052 7.69757 7.08334
#
# Compressibility (1/GPa) = 0.02115344
#
# Stress axis : x y z
#
# Youngs Moduli (GPa) = 64.78403 23.33660 20.57261
#
# Poissons Ratio (x) = 0.22985 0.16606
# Poissons Ratio (y) = 0.63807 0.51328
# Poissons Ratio (z) = 0.52293 0.58224
#
# Static dielectric constant tensor:
#      x y z
#    x 1.568290 0.000000 -0.014020 
#    y 0.000000 1.542610 0.000000 
#    z -0.014020 0.000000 1.531920 
# 
# From -- ./inp_files/248794.got.cif
#   From: 2010.05.17/outbox.cif.g08.bks.cpg/sg12_125_cif.got.tgz:248794.got - 2010.06.03 13:09:07.
