data_PCOD9219841
_publ_section_title
;
Structure prediction by ZEFSAII (Michael W. Deem and Ramdas Pophale) SiO2 
 PCOD9219841
Probable space group: C 2/M
;
_chemical_formula_sum "Si O2"
_cell_formula_units_Z 56
_cell_length_a 19.263256
_cell_length_b 8.846766
_cell_length_c 21.209928
_cell_angle_alpha 90.000000
_cell_angle_beta 58.259651
_cell_angle_gamma 90.000000
_cell_volume 3073.955267
_symmetry_space_group_name_H-M "C 2/M"
_symmetry_group_IT_number 12
_symmetry_cell_setting 'monoclinic'
loop_
_space_group_symop_operation_xyz
x,y,z
-x,y,-z
-x,-y,-z
x,-y,z
1/2+x,1/2+y,z
1/2-x,1/2+y,-z
1/2-x,1/2-y,-z
1/2+x,1/2-y,z
loop_
_atom_site_type_symbol
_atom_site_label
_atom_site_fract_x
_atom_site_fract_y
_atom_site_fract_z
Si Si1 0.997846 0.819204 0.426918
Si Si2 0.130137 0.667911 0.711314
Si Si3 0.284305 0.823351 0.207422
Si Si4 0.471907 0.818033 0.082415
Si Si5 0.029171 0.175621 0.180746
Si Si6 0.836147 0.671355 0.451613
Si Si7 0.113347 0.320475 0.262665
O O1 0.063322 0.747315 0.346616
O O2 0.000000 0.775020 0.500000
O O3 0.909277 0.767312 0.445557
O O4 0.007524 0.000000 0.418720
O O5 0.094929 0.500000 0.745607
O O6 0.206012 0.688408 0.721442
O O7 0.150239 0.662998 0.629428
O O8 0.064482 0.796983 0.753925
O O9 0.375449 0.782185 0.139357
O O10 0.208231 0.725448 0.222163
O O11 0.269749 0.000000 0.198296
O O12 0.527103 0.748885 0.111991
O O13 0.478969 0.000000 0.081403
O O14 0.500000 0.766521 0.000000
O O15 0.079531 0.255503 0.212492
O O16 0.050329 0.000000 0.167713
O O17 0.836933 0.500000 0.476838
O O18 0.750000 0.750000 0.500000
O O19 0.102077 0.500000 0.268733
#
# Coordination Sequence:
#
# PCOD9219841 Si02
#       7
#     8   8   8   8   8   8   8
#     4  11  25  43  61  83 115 155 199 249 307 357
#     4   9  19  37  58  80 110 150 192 241 292 344
#     4   9  19  36  59  87 118 151 192 236 288 347
#     4   9  19  39  66  93 123 157 191 235 292 349
#     4  11  21  35  60  88 116 153 195 237 287 344
#     4  11  23  38  58  84 115 150 195 245 297 352
#     4  12  24  39  59  85 119 156 200 246 293 350
#
# _framework density 18.217572000000001
#
# number of rings (size 3 to 8) (size 9 to 14) (size 15 to 20)
#    0.000    1.714    1.429    4.286    2.000    4.286 
#    0.000    0.714    0.000    0.000    0.000    0.000 
#    0.000    0.000    0.000    0.000    0.000    0.000 
#
# Total GULP energy -156147.848307 kJ/mol
# GULP energy per Si atom -5576.708868 kJ/mol
# Density = 1.817611 g / cm^3
# Si number density = 18.217572 Si / 1000 Ang^3
#
#
#
# Elastic Constant Matrix: (Units=GPa)
#
#
# Indices 1 2 3 4 5 6 
#
# 1 125.5062 56.2100 66.4112 0.0000 18.7690 0.0002
# 2 56.2100 88.9393 44.4047 0.0000 13.1492 0.0004
# 3 66.4112 44.4047 106.1837 0.0000 29.7885 0.0000
# 4 0.0000 0.0000 0.0000 22.2942 0.0000 1.3401
# 5 18.7690 13.1492 29.7885 0.0000 27.4616 0.0000
# 6 0.0002 0.0004 0.0000 1.3401 0.0000 32.4047
#
#
#
# Elastic Compliance Matrix: (Units=1/GPa)
#
#
# Indices 1 2 3 4 5 6 
#
# 1 0.013797 -0.005577 -0.006326 0.000000 0.000102 0.000000
# 2 -0.005577 0.016470 -0.003243 0.000000 -0.000556 0.000000
# 3 -0.006326 -0.003243 0.018804 0.000000 -0.014521 0.000000
# 4 0.000000 0.000000 0.000000 0.044966 0.000000 -0.001860
# 5 0.000102 -0.000556 -0.014521 0.000000 0.052362 0.000000
# 6 0.000000 0.000000 0.000000 -0.001860 0.000000 0.030937
#
#
# Mechanical properties :
#
#
# Convention : Reuss Voigt Hill
#
# Bulk Modulus (GPa) = 53.25115 72.74234 62.99675
# Shear Modulus (GPa) = 23.37662 26.67232 25.02447
#
# Velocity S-wave (km/s) = 3.58605 3.83051 3.71029
# Velocity P-wave (km/s) = 6.81472 7.71882 7.28082
#
# Compressibility (1/GPa) = 0.01877894
#
# Stress axis : x y z
#
# Youngs Moduli (GPa) = 72.47695 60.71717 53.17973
#
# Poissons Ratio (x) = 0.33861 0.33641
# Poissons Ratio (y) = 0.40419 0.17249
# Poissons Ratio (z) = 0.45849 0.19693
#
# Static dielectric constant tensor:
#      x y z
#    x 1.609330 0.000000 0.021450 
#    y 0.000000 1.672040 0.000000 
#    z 0.021450 0.000000 1.639170 
# 
# From -- ./inp_files/313794.got.cif
#   From: 2010.05.17/outbox.cif.g08.bks.cpg/sg12_157_cif.got.tgz:313794.got - 2010.06.03 13:09:07.
