data_PCOD9219269
_publ_section_title
;
Structure prediction by ZEFSAII (Michael W. Deem and Ramdas Pophale) SiO2 
 PCOD9219269
Probable space group: C 2/M
;
_chemical_formula_sum "Si O2"
_cell_formula_units_Z 64
_cell_length_a 24.131622
_cell_length_b 27.429589
_cell_length_c 17.293859
_cell_angle_alpha 90.000000
_cell_angle_beta 160.743335
_cell_angle_gamma 90.000000
_cell_volume 3775.278475
_symmetry_space_group_name_H-M "C 2/M"
_symmetry_group_IT_number 12
_symmetry_cell_setting 'monoclinic'
loop_
_space_group_symop_operation_xyz
x,y,z
-x,y,-z
-x,-y,-z
x,-y,z
1/2+x,1/2+y,z
1/2-x,1/2+y,-z
1/2-x,1/2-y,-z
1/2+x,1/2-y,z
loop_
_atom_site_type_symbol
_atom_site_label
_atom_site_fract_x
_atom_site_fract_y
_atom_site_fract_z
Si Si1 0.658128 0.677249 0.657968
Si Si2 0.339609 0.209697 0.339983
Si Si3 0.447146 0.622358 0.621645
Si Si4 0.124457 0.295698 0.427447
Si Si5 0.442403 0.883986 0.107492
Si Si6 0.869981 0.056516 0.254802
Si Si7 0.026357 0.803814 0.207055
Si Si8 0.642332 0.943897 0.253423
O O1 0.500000 0.659555 0.500000
O O2 0.675925 0.733226 0.699825
O O3 0.614731 0.666871 0.512989
O O4 0.824994 0.648253 0.897105
O O5 0.500000 0.191082 0.500000
O O6 0.370359 0.206739 0.472607
O O7 0.153400 0.191694 0.072390
O O8 0.590294 0.594809 0.761577
O O9 0.470563 0.648405 0.734041
O O10 0.308312 0.580362 0.439546
O O11 0.044634 0.246593 0.282458
O O12 0.311957 0.301493 0.637247
O O13 0.017855 0.344093 0.265114
O O14 0.587812 0.910215 0.252195
O O15 0.316496 0.927012 0.966866
O O16 0.000000 0.059479 0.500000
O O17 0.876208 0.000000 0.238216
O O18 0.665894 0.000000 0.306335
O O19 0.500000 0.941943 0.000000
#
# Coordination Sequence:
#
# PCOD9219269 Si02
#       8
#     8   8   8   8   8   8   8   8
#     4  11  20  34  53  85 121 154 192 235 283 337
#     4  11  25  39  59  86 117 155 200 244 279 332
#     4  12  20  36  56  83 117 163 191 232 291 342
#     4  11  24  39  58  86 120 158 196 236 288 349
#     4  12  20  36  56  83 117 163 191 232 291 342
#     4  11  22  36  57  85 121 159 197 240 289 345
#     4  11  24  39  58  86 120 158 196 236 288 349
#     4  11  22  34  53  85 121 151 195 242 285 347
#
# _framework density 16.952390999999999
#
# number of rings (size 3 to 8) (size 9 to 14) (size 15 to 20)
#    0.000    0.750    7.500    1.125    1.750    2.500 
#    2.250    0.000    0.000    0.000    0.000    5.250 
#    0.000    0.000    0.000    0.000    0.000    0.000 
#
# Total GULP energy -178260.821617 kJ/mol
# GULP energy per Si atom -5570.650676 kJ/mol
# Density = 1.691381 g / cm^3
# Si number density = 16.952391 Si / 1000 Ang^3
#
#
#
# Elastic Constant Matrix: (Units=GPa)
#
#
# Indices 1 2 3 4 5 6 
#
# 1 71.8292 -1.2836 19.0284 0.0000 -5.3934 0.0000
# 2 -1.2836 60.1435 4.5827 0.0000 -7.8924 0.0000
# 3 19.0284 4.5827 61.0886 0.0001 -2.2027 0.0001
# 4 0.0000 0.0000 0.0001 50.2015 0.0000 28.0519
# 5 -5.3934 -7.8924 -2.2027 0.0000 14.2773 0.0000
# 6 0.0000 0.0000 0.0001 28.0519 0.0000 48.4944
#
#
#
# Elastic Compliance Matrix: (Units=1/GPa)
#
#
# Indices 1 2 3 4 5 6 
#
# 1 0.015664 0.001486 -0.004774 0.000000 0.006002 0.000000
# 2 0.001486 0.018128 -0.001449 0.000000 0.010359 0.000000
# 3 -0.004774 -0.001449 0.017972 0.000000 0.000168 0.000000
# 4 0.000000 0.000000 0.000000 0.029434 0.000000 -0.017026
# 5 0.006002 0.010359 0.000168 0.000000 0.078061 0.000000
# 6 0.000000 0.000000 0.000000 -0.017026 0.000000 0.030470
#
#
# Mechanical properties :
#
#
# Convention : Reuss Voigt Hill
#
# Bulk Modulus (GPa) = 23.64709 26.41291 25.03000
# Shear Modulus (GPa) = 23.44119 33.97689 28.70904
#
# Velocity S-wave (km/s) = 3.72259 4.48175 4.11969
# Velocity P-wave (km/s) = 5.69704 6.51121 6.11769
#
# Compressibility (1/GPa) = 0.04228850
#
# Stress axis : x y z
#
# Youngs Moduli (GPa) = 63.84117 55.16203 55.64349
#
# Poissons Ratio (x) = -0.08195 0.26565
# Poissons Ratio (y) = -0.09485 0.08064
# Poissons Ratio (z) = 0.30479 0.07994
#
# Static dielectric constant tensor:
#      x y z
#    x 1.586920 0.000000 0.000070 
#    y 0.000000 1.561650 0.000000 
#    z 0.000070 0.000000 1.531320 
# 
# From -- ./inp_files/67855.got.cif
#   From: 2010.05.17/outbox.cif.g08.bks.cpg/sg12_34_cif.got.tgz:67855.got - 2010.06.03 13:09:07.
