data_PCOD9219482
_publ_section_title
;
Structure prediction by ZEFSAII (Michael W. Deem and Ramdas Pophale) SiO2 
 PCOD9219482
Probable space group: C 2/M
;
_chemical_formula_sum "Si O2"
_cell_formula_units_Z 56
_cell_length_a 13.083944
_cell_length_b 19.175528
_cell_length_c 11.704014
_cell_angle_alpha 90.000000
_cell_angle_beta 110.124194
_cell_angle_gamma 90.000000
_cell_volume 2757.165710
_symmetry_space_group_name_H-M "C 2/M"
_symmetry_group_IT_number 12
_symmetry_cell_setting 'monoclinic'
loop_
_space_group_symop_operation_xyz
x,y,z
-x,y,-z
-x,-y,-z
x,-y,z
1/2+x,1/2+y,z
1/2-x,1/2+y,-z
1/2-x,1/2-y,-z
1/2+x,1/2-y,z
loop_
_atom_site_type_symbol
_atom_site_label
_atom_site_fract_x
_atom_site_fract_y
_atom_site_fract_z
Si Si1 0.734545 0.920459 0.233793
Si Si2 0.733696 0.688599 0.341172
Si Si3 0.513080 0.265366 0.138929
Si Si4 0.869084 0.176334 0.448701
Si Si5 0.504125 0.898880 0.866319
Si Si6 0.271453 0.921808 0.169412
Si Si7 0.201999 0.174505 0.943999
O O1 0.817807 0.885676 0.353695
O O2 0.610802 0.921043 0.230994
O O3 0.730478 0.867351 0.124628
O O4 0.764094 0.000000 0.212894
O O5 0.631109 0.719062 0.231717
O O6 0.824083 0.749145 0.385064
O O7 0.684640 0.671001 0.446166
O O8 0.775475 0.621918 0.287654
O O9 0.488102 0.184314 0.143061
O O10 0.416370 0.310884 0.155059
O O11 0.500000 0.279938 0.000000
O O12 0.000000 0.175003 0.500000
O O13 0.609950 0.926006 0.843237
O O14 0.500000 0.917581 0.000000
O O15 0.228803 0.000000 0.168570
O O16 0.201531 0.876033 0.053008
O O17 0.250000 0.250000 0.000000
#
# Coordination Sequence:
#
# PCOD9219482 Si02
#       7
#     8   8   8   8   8   8   8
#     4  12  25  42  66 100 138 178 228 281 343 407
#     4  11  25  45  70 101 134 175 230 289 341 402
#     4  11  20  38  68 103 128 169 224 278 341 391
#     4  11  26  47  73  97 127 182 243 285 329 405
#     4  11  22  38  68 102 142 176 220 279 337 414
#     4  12  25  40  64 102 146 182 215 274 357 413
#     4  12  21  38  66  98 137 177 224 273 328 405
#
# _framework density 20.310711999999999
#
# number of rings (size 3 to 8) (size 9 to 14) (size 15 to 20)
#    0.000    0.571    5.714    3.429    2.000    1.429 
#    0.000    3.571    0.000    2.143    0.000    0.000 
#    0.000    0.000    0.000    0.000    0.000    0.000 
#
# Total GULP energy -156524.106814 kJ/mol
# GULP energy per Si atom -5590.146672 kJ/mol
# Density = 2.026448 g / cm^3
# Si number density = 20.310712 Si / 1000 Ang^3
#
#
#
# Elastic Constant Matrix: (Units=GPa)
#
#
# Indices 1 2 3 4 5 6 
#
# 1 103.4696 51.1045 33.4269 0.0000 21.4166 0.0000
# 2 51.1045 165.0066 54.3917 0.0000 -3.6615 0.0000
# 3 33.4269 54.3917 92.7496 0.0000 7.5514 0.0000
# 4 0.0000 0.0000 0.0000 -61.3043 0.0000 -10.3362
# 5 21.4166 -3.6615 7.5514 0.0000 39.9619 0.0000
# 6 0.0000 0.0000 0.0000 -10.3362 0.0000 3.6507
#
#
#
# Elastic Compliance Matrix: (Units=1/GPa)
#
#
# Indices 1 2 3 4 5 6 
#
# 1 0.013692 -0.003682 -0.002184 0.000000 -0.007262 0.000000
# 2 -0.003682 0.008598 -0.004001 0.000000 0.003517 0.000000
# 3 -0.002184 -0.004001 0.014066 0.000000 -0.001854 0.000000
# 4 0.000000 0.000000 0.000000 -0.011041 0.000000 -0.031261
# 5 -0.007262 0.003517 -0.001854 0.000000 0.029589 0.000000
# 6 0.000000 0.000000 0.000000 -0.031261 0.000000 0.185410
#
#
# Mechanical properties :
#
#
# Convention : Reuss Voigt Hill
#
# Bulk Modulus (GPa) = 60.16351 71.00798 65.58574
# Shear Modulus (GPa) = 18.82613 11.28184 15.05399
#
# Velocity S-wave (km/s) = 3.04782 2.35938 2.72542
# Velocity P-wave (km/s) = 6.48625 6.51606 6.50117
#
# Compressibility (1/GPa) = 0.01662137
#
# Stress axis : x y z
#
# Youngs Moduli (GPa) = 73.03561 116.31025 71.09112
#
# Poissons Ratio (x) = 0.42822 0.15528
# Poissons Ratio (y) = 0.26890 0.28447
# Poissons Ratio (z) = 0.15952 0.46541
#
# Static dielectric constant tensor:
#      x y z
#    x 1.769090 0.000000 -0.026840 
#    y 0.000000 1.737320 0.000000 
#    z -0.026840 0.000000 1.747180 
# 
# From -- ./inp_files/145673.got.cif
#   From: 2010.05.17/outbox.cif.g08.bks.cpg/sg12_73_cif.got.tgz:145673.got - 2010.06.03 13:09:07.
