data_PCOD9219667
_publ_section_title
;
Structure prediction by ZEFSAII (Michael W. Deem and Ramdas Pophale) SiO2 
 PCOD9219667
Probable space group: C 2/M
;
_chemical_formula_sum "Si O2"
_cell_formula_units_Z 40
_cell_length_a 9.261664
_cell_length_b 19.023689
_cell_length_c 14.520419
_cell_angle_alpha 90.000000
_cell_angle_beta 130.830005
_cell_angle_gamma 90.000000
_cell_volume 1935.795743
_symmetry_space_group_name_H-M "C 2/M"
_symmetry_group_IT_number 12
_symmetry_cell_setting 'monoclinic'
loop_
_space_group_symop_operation_xyz
x,y,z
-x,y,-z
-x,-y,-z
x,-y,z
1/2+x,1/2+y,z
1/2-x,1/2+y,-z
1/2-x,1/2-y,-z
1/2+x,1/2-y,z
loop_
_atom_site_type_symbol
_atom_site_label
_atom_site_fract_x
_atom_site_fract_y
_atom_site_fract_z
Si Si1 0.863094 0.846341 0.028047
Si Si2 0.001178 0.720039 0.204244
Si Si3 0.279529 0.500000 0.033013
Si Si4 0.447880 0.271362 0.371324
Si Si5 0.365333 0.000000 0.818205
Si Si6 0.976831 0.924222 0.381404
O O1 0.912766 0.794805 0.132745
O O2 0.890576 0.927882 0.063877
O O3 0.644393 0.833648 0.905281
O O4 0.000000 0.826661 0.000000
O O5 0.000677 0.715695 0.314971
O O6 0.220625 0.719785 0.267991
O O7 0.193358 0.500000 0.099412
O O8 0.087233 0.500000 0.891762
O O9 0.500000 0.256422 0.500000
O O10 0.541495 0.346684 0.380872
O O11 0.249300 0.933908 0.730285
O O12 0.000000 0.925053 0.500000
O O13 0.056724 0.000000 0.378173
#
# Coordination Sequence:
#
# PCOD9219667 Si02
#       6
#     8   8   4   8   4   8
#     4  11  23  40  58  81 116 154 196 239 285 342
#     4  11  23  40  58  84 119 151 190 238 288 341
#     4  11  21  32  58  82 111 147 192 232 290 330
#     4  11  21  37  61  86 114 148 189 235 287 349
#     4   9  17  32  48  90 111 137 180 232 282 347
#     4   8  16  31  52  79 109 138 176 227 279 326
#
# _framework density 20.663336999999999
#
# number of rings (size 3 to 8) (size 9 to 14) (size 15 to 20)
#    0.600    1.200    2.000    3.300    0.000    1.600 
#    0.000    0.000    0.000    0.000    0.000    1.400 
#    0.000    0.000    0.000    0.000    0.000    0.000 
#
# Total GULP energy -111352.568311 kJ/mol
# GULP energy per Si atom -5567.628416 kJ/mol
# Density = 2.061631 g / cm^3
# Si number density = 20.663337 Si / 1000 Ang^3
#
#
#
# Elastic Constant Matrix: (Units=GPa)
#
#
# Indices 1 2 3 4 5 6 
#
# 1 48.1588 -17.4189 3.7934 0.0000 0.9771 0.0000
# 2 -17.4189 76.4587 15.0602 0.0000 -12.3543 0.0000
# 3 3.7934 15.0602 84.6910 0.0000 -6.4268 0.0000
# 4 0.0000 0.0000 0.0000 19.5922 0.0000 -5.3348
# 5 0.9771 -12.3543 -6.4268 0.0000 24.3465 0.0000
# 6 0.0000 0.0000 0.0000 -5.3348 0.0000 23.7895
#
#
#
# Elastic Compliance Matrix: (Units=1/GPa)
#
#
# Indices 1 2 3 4 5 6 
#
# 1 0.023014 0.005878 -0.001959 0.000000 0.001542 0.000000
# 2 0.005878 0.016097 -0.002575 0.000000 0.007253 0.000000
# 3 -0.001959 -0.002575 0.012511 0.000000 0.002074 0.000000
# 4 0.000000 0.000000 0.000000 0.054360 0.000000 0.012190
# 5 0.001542 0.007253 0.002074 0.000000 0.045240 0.000000
# 6 0.000000 0.000000 0.000000 0.012190 0.000000 0.044769
#
#
# Mechanical properties :
#
#
# Convention : Reuss Voigt Hill
#
# Bulk Modulus (GPa) = 18.41318 23.57532 20.99425
# Shear Modulus (GPa) = 23.65115 27.40390 25.52752
#
# Velocity S-wave (km/s) = 3.38686 3.64567 3.51864
# Velocity P-wave (km/s) = 4.92187 5.39955 5.16624
#
# Compressibility (1/GPa) = 0.05430893
#
# Stress axis : x y z
#
# Youngs Moduli (GPa) = 43.45225 62.12232 79.93116
#
# Poissons Ratio (x) = -0.36516 0.15659
# Poissons Ratio (y) = -0.25541 0.20586
# Poissons Ratio (z) = 0.08513 0.15999
#
# Static dielectric constant tensor:
#      x y z
#    x 1.955720 0.000000 -0.360790 
#    y 0.000000 1.817850 0.000000 
#    z -0.360790 0.000000 2.342430 
# 
# From -- ./inp_files/197342.got.cif
#   From: 2010.05.17/outbox.cif.g08.bks.cpg/sg12_99_cif.got.tgz:197342.got - 2010.06.03 13:09:07.
