data_PCOD9219470
_publ_section_title
;
Structure prediction by ZEFSAII (Michael W. Deem and Ramdas Pophale) SiO2 
 PCOD9219470
Probable space group: C 2/M
;
_chemical_formula_sum "Si O2"
_cell_formula_units_Z 44
_cell_length_a 8.903255
_cell_length_b 26.384493
_cell_length_c 12.522333
_cell_angle_alpha 90.000000
_cell_angle_beta 43.763508
_cell_angle_gamma 90.000000
_cell_volume 2034.651953
_symmetry_space_group_name_H-M "C 2/M"
_symmetry_group_IT_number 12
_symmetry_cell_setting 'monoclinic'
loop_
_space_group_symop_operation_xyz
x,y,z
-x,y,-z
-x,-y,-z
x,-y,z
1/2+x,1/2+y,z
1/2-x,1/2+y,-z
1/2-x,1/2-y,-z
1/2+x,1/2-y,z
loop_
_atom_site_type_symbol
_atom_site_label
_atom_site_fract_x
_atom_site_fract_y
_atom_site_fract_z
Si Si1 0.966083 0.391131 0.281548
Si Si2 0.275415 0.894370 0.060855
Si Si3 0.939623 0.500000 0.228509
Si Si4 0.365180 0.198402 0.673865
Si Si5 0.548135 0.703717 0.251951
Si Si6 0.820416 0.000000 0.853025
Si Si7 0.500000 0.343834 0.500000
O O1 0.942589 0.451171 0.301660
O O2 0.725871 0.373524 0.367617
O O3 0.043423 0.355908 0.337844
O O4 0.154587 0.385031 0.096187
O O5 0.219887 0.840113 0.138681
O O6 0.104203 0.940607 0.168899
O O7 0.500000 0.913008 0.000000
O O8 0.749819 0.500000 0.236089
O O9 0.147553 0.500000 0.041515
O O10 0.500000 0.214543 0.500000
O O11 0.384957 0.238470 0.760548
O O12 0.121558 0.199015 0.756286
O O13 0.454782 0.687292 0.415355
#
# Coordination Sequence:
#
# PCOD9219470 Si02
#       7
#     8   8   4   8   8   4   4
#     4  11  23  39  66  92 132 163 209 258 312 366
#     4  11  20  38  64  99 127 158 210 265 303 360
#     4   9  16  35  60  94 125 169 202 251 312 363
#     4  12  25  45  64  90 126 170 206 257 318 385
#     4  12  25  40  67  91 121 166 213 253 316 377
#     4   9  14  34  65  92 127 168 201 250 309 370
#     4  12  20  39  66  96 118 171 204 254 310 374
#
# _framework density 21.625321
#
# number of rings (size 3 to 8) (size 9 to 14) (size 15 to 20)
#    0.000    0.909    8.182    1.636    0.000    1.818 
#    0.000    2.273    0.000    3.273    0.000    0.000 
#    0.000    0.000    0.000    0.000    0.000    0.000 
#
# Total GULP energy -122497.734974 kJ/mol
# GULP energy per Si atom -5568.078862 kJ/mol
# Density = 2.157610 g / cm^3
# Si number density = 21.625321 Si / 1000 Ang^3
#
#
#
# Elastic Constant Matrix: (Units=GPa)
#
#
# Indices 1 2 3 4 5 6 
#
# 1 100.5350 58.0103 5.6839 0.0000 3.9948 0.0000
# 2 58.0103 167.2526 34.7165 0.0000 6.7724 0.0000
# 3 5.6839 34.7165 32.3141 0.0000 6.7430 0.0000
# 4 0.0000 0.0000 0.0000 27.2433 0.0000 20.7536
# 5 3.9948 6.7724 6.7430 0.0000 10.0282 0.0000
# 6 0.0000 0.0000 0.0000 20.7536 0.0000 -0.3147
#
#
#
# Elastic Compliance Matrix: (Units=1/GPa)
#
#
# Indices 1 2 3 4 5 6 
#
# 1 0.012860 -0.005152 0.004207 0.000000 -0.004472 0.000000
# 2 -0.005152 0.009761 -0.010042 0.000000 0.002213 0.000000
# 3 0.004207 -0.010042 0.046446 0.000000 -0.026125 0.000000
# 4 0.000000 0.000000 0.000000 0.000716 0.000000 0.047244
# 5 -0.004472 0.002213 -0.026125 0.000000 0.117572 0.000000
# 6 0.000000 0.000000 0.000000 0.047244 0.000000 -0.062017
#
#
# Mechanical properties :
#
#
# Convention : Reuss Voigt Hill
#
# Bulk Modulus (GPa) = 21.23535 55.21368 38.22451
# Shear Modulus (GPa) = 30.67284 20.83743 25.75514
#
# Velocity S-wave (km/s) = 3.77022 3.10750 3.45479
# Velocity P-wave (km/s) = 5.36598 6.20184 5.79899
#
# Compressibility (1/GPa) = 0.04709130
#
# Stress axis : x y z
#
# Youngs Moduli (GPa) = 77.76260 102.45003 21.53019
#
# Poissons Ratio (x) = 0.52786 -0.09057
# Poissons Ratio (y) = 0.40066 0.21621
# Poissons Ratio (z) = -0.32712 1.02881
#
# Static dielectric constant tensor:
#      x y z
#    x 1.816040 0.000000 -0.022320 
#    y 0.000000 1.870070 0.000000 
#    z -0.022320 0.000000 1.824280 
# 
# From -- ./inp_files/124120.got.cif
#   From: 2010.05.17/outbox.cif.g08.bks.cpg/sg12_63_cif.got.tgz:124120.got - 2010.06.03 13:09:07.
