data_PCOD9219761
_publ_section_title
;
Structure prediction by ZEFSAII (Michael W. Deem and Ramdas Pophale) SiO2 
 PCOD9219761
Probable space group: C 2/M
;
_chemical_formula_sum "Si O2"
_cell_formula_units_Z 48
_cell_length_a 19.781929
_cell_length_b 23.038394
_cell_length_c 11.913044
_cell_angle_alpha 90.000000
_cell_angle_beta 156.424047
_cell_angle_gamma 90.000000
_cell_volume 2171.525451
_symmetry_space_group_name_H-M "C 2/M"
_symmetry_group_IT_number 12
_symmetry_cell_setting 'monoclinic'
loop_
_space_group_symop_operation_xyz
x,y,z
-x,y,-z
-x,-y,-z
x,-y,z
1/2+x,1/2+y,z
1/2-x,1/2+y,-z
1/2-x,1/2-y,-z
1/2+x,1/2-y,z
loop_
_atom_site_type_symbol
_atom_site_label
_atom_site_fract_x
_atom_site_fract_y
_atom_site_fract_z
Si Si1 0.198626 0.243125 0.192108
Si Si2 0.309530 0.140183 0.708410
Si Si3 0.572032 0.775790 0.766656
Si Si4 0.183682 0.885857 0.270278
Si Si5 0.481008 0.087911 0.341725
Si Si6 0.677745 0.565411 0.711823
O O1 0.185677 0.290636 0.268967
O O2 0.394695 0.247977 0.451112
O O3 0.167941 0.177109 0.183760
O O4 0.075390 0.263495 0.905378
O O5 0.234344 0.125538 0.474806
O O6 0.216935 0.110993 0.673280
O O7 0.500000 0.117359 0.000000
O O8 0.563453 0.843530 0.726566
O O9 0.750000 0.750000 0.000000
O O10 0.337116 0.918353 0.441823
O O11 0.000000 0.914402 0.000000
O O12 0.500000 0.068789 0.500000
O O13 0.328560 0.064201 0.033345
O O14 0.500000 0.580084 0.500000
O O15 0.662884 0.500000 0.642046
#
# Coordination Sequence:
#
# PCOD9219761 Si02
#       6
#     8   8   8   8   8   8
#     4  11  21  35  56  92 136 175 220 261 319 396
#     4  12  22  42  67  96 131 176 219 278 334 395
#     4  11  21  34  55  95 132 180 218 264 325 396
#     4  11  23  39  61 102 137 180 217 261 323 405
#     4  11  24  44  66  97 137 172 225 281 335 400
#     4  11  27  49  74 100 126 172 231 288 349 396
#
# _framework density 22.104275999999999
#
# number of rings (size 3 to 8) (size 9 to 14) (size 15 to 20)
#    0.000    0.833    3.333    5.500    4.667    0.667 
#    0.000    0.000    0.000    1.000    0.000    0.000 
#    0.000    0.000    0.000    0.000    0.000    0.000 
#
# Total GULP energy -134195.060946 kJ/mol
# GULP energy per Si atom -5591.460873 kJ/mol
# Density = 2.205397 g / cm^3
# Si number density = 22.104276 Si / 1000 Ang^3
#
#
#
# Elastic Constant Matrix: (Units=GPa)
#
#
# Indices 1 2 3 4 5 6 
#
# 1 109.0576 14.8814 48.3182 0.0000 12.4600 0.0000
# 2 14.8814 50.4702 3.5048 0.0000 9.4958 0.0000
# 3 48.3182 3.5048 109.9614 0.0000 11.8967 0.0000
# 4 0.0000 0.0000 0.0000 -9.4280 0.0000 -0.4889
# 5 12.4600 9.4958 11.8967 0.0000 64.9290 0.0000
# 6 0.0000 0.0000 0.0000 -0.4889 0.0000 1.3770
#
#
#
# Elastic Compliance Matrix: (Units=1/GPa)
#
#
# Indices 1 2 3 4 5 6 
#
# 1 0.011917 -0.002989 -0.005041 0.000000 -0.000926 0.000000
# 2 -0.002989 0.021136 0.000931 0.000000 -0.002688 0.000000
# 3 -0.005041 0.000931 0.011416 0.000000 -0.001260 0.000000
# 4 0.000000 0.000000 0.000000 -0.104149 0.000000 -0.036978
# 5 -0.000926 -0.002688 -0.001260 0.000000 0.016203 0.000000
# 6 0.000000 0.000000 0.000000 -0.036978 0.000000 0.713062
#
#
# Mechanical properties :
#
#
# Convention : Reuss Voigt Hill
#
# Bulk Modulus (GPa) = 33.03645 44.76645 38.90145
# Shear Modulus (GPa) = 7.20593 24.89459 16.05026
#
# Velocity S-wave (km/s) = 1.80750 3.35958 2.69758
# Velocity P-wave (km/s) = 4.39707 5.94520 5.22875
#
# Compressibility (1/GPa) = 0.03026959
#
# Stress axis : x y z
#
# Youngs Moduli (GPa) = 83.91726 47.31216 87.59816
#
# Poissons Ratio (x) = 0.14143 0.44156
# Poissons Ratio (y) = 0.25086 -0.08153
# Poissons Ratio (z) = 0.42301 -0.04403
#
# Static dielectric constant tensor:
#      x y z
#    x 1.703360 0.000000 0.165690 
#    y 0.000000 1.785230 0.000000 
#    z 0.165690 0.000000 1.694690 
# 
# From -- ./inp_files/170694.got.cif
#   From: 2010.05.17/outbox.cif.g08.bks.cpg/sg12_86_cif.got.tgz:170694.got - 2010.06.03 13:09:07.
