data_PCOD9219225
_publ_section_title
;
Structure prediction by ZEFSAII (Michael W. Deem and Ramdas Pophale) SiO2 
 PCOD9219225
Probable space group: C 2/M
;
_chemical_formula_sum "Si O2"
_cell_formula_units_Z 48
_cell_length_a 13.010293
_cell_length_b 22.080618
_cell_length_c 12.259299
_cell_angle_alpha 90.000000
_cell_angle_beta 45.131040
_cell_angle_gamma 90.000000
_cell_volume 2495.973322
_symmetry_space_group_name_H-M "C 2/M"
_symmetry_group_IT_number 12
_symmetry_cell_setting 'monoclinic'
loop_
_space_group_symop_operation_xyz
x,y,z
-x,y,-z
-x,-y,-z
x,-y,z
1/2+x,1/2+y,z
1/2-x,1/2+y,-z
1/2-x,1/2-y,-z
1/2+x,1/2-y,z
loop_
_atom_site_type_symbol
_atom_site_label
_atom_site_fract_x
_atom_site_fract_y
_atom_site_fract_z
Si Si1 0.330500 0.807206 0.156321
Si Si2 0.081720 0.500000 0.091717
Si Si3 0.265793 0.615724 0.981058
Si Si4 0.901208 0.072690 0.283327
Si Si5 0.829610 0.168789 0.156659
Si Si6 0.352091 0.617263 0.564807
Si Si7 0.270955 0.000000 0.255206
O O1 0.288166 0.737902 0.212410
O O2 0.285562 0.843126 0.298336
O O3 0.500000 0.810658 0.000000
O O4 0.255681 0.841504 0.109019
O O5 0.149220 0.562392 0.081234
O O6 0.908586 0.500000 0.233134
O O7 0.146451 0.500000 0.920298
O O8 0.253176 0.653256 0.100899
O O9 0.425749 0.585299 0.857694
O O10 0.821139 0.115824 0.254060
O O11 0.860363 0.096840 0.434078
O O12 0.875205 0.000000 0.291504
O O13 0.000000 0.171022 0.000000
O O14 0.500000 0.646787 0.500000
O O15 0.329051 0.557263 0.653996
#
# Coordination Sequence:
#
# PCOD9219225 Si02
#       7
#     8   4   8   8   8   8   4
#     4  11  22  40  62  90 122 159 202 251 302 356
#     4  11  20  32  58  89 115 153 199 250 311 350
#     4  11  20  36  62  90 120 155 202 254 298 358
#     4  11  22  38  61  92 123 158 203 251 302 360
#     4   9  23  39  60  87 120 165 205 246 295 359
#     4  12  22  36  63  89 123 156 197 256 310 354
#     4  11  21  34  53  89 122 151 197 246 310 361
#
# _framework density 19.230974
#
# number of rings (size 3 to 8) (size 9 to 14) (size 15 to 20)
#    0.000    1.167    5.000    1.750    1.167    1.667 
#    0.000    0.000    3.667    1.000    0.000    0.000 
#    0.000    0.000    0.000    0.000    0.000    0.000 
#
# Total GULP energy -133779.636256 kJ/mol
# GULP energy per Si atom -5574.151511 kJ/mol
# Density = 1.918720 g / cm^3
# Si number density = 19.230974 Si / 1000 Ang^3
#
#
#
# Elastic Constant Matrix: (Units=GPa)
#
#
# Indices 1 2 3 4 5 6 
#
# 1 49.3525 28.9720 8.0720 -0.0001 7.7924 0.0001
# 2 28.9720 140.4188 30.4207 0.0000 16.3699 0.0000
# 3 8.0720 30.4207 65.9484 0.0000 5.4591 0.0000
# 4 -0.0001 0.0000 0.0000 -34.2610 0.0001 43.2955
# 5 7.7924 16.3699 5.4591 0.0001 28.9935 -0.0001
# 6 0.0001 0.0000 0.0000 43.2955 -0.0001 -21.4061
#
#
#
# Elastic Compliance Matrix: (Units=1/GPa)
#
#
# Indices 1 2 3 4 5 6 
#
# 1 0.023464 -0.004273 -0.000588 0.000000 -0.003783 0.000000
# 2 -0.004273 0.009135 -0.003412 0.000000 -0.003367 0.000000
# 3 -0.000588 -0.003412 0.016900 0.000000 -0.001098 0.000000
# 4 0.000000 0.000000 0.000000 0.018759 0.000000 0.037942
# 5 -0.003783 -0.003367 -0.001098 0.000000 0.037615 0.000000
# 6 0.000000 0.000000 0.000000 0.037942 0.000000 0.030024
#
#
# Mechanical properties :
#
#
# Convention : Reuss Voigt Hill
#
# Bulk Modulus (GPa) = 30.34563 43.40544 36.87553
# Shear Modulus (GPa) = 30.59460 7.21561 18.90511
#
# Velocity S-wave (km/s) = 3.99294 1.93913 3.13877
# Velocity P-wave (km/s) = 6.08867 5.25673 5.68793
#
# Compressibility (1/GPa) = 0.03295367
#
# Stress axis : x y z
#
# Youngs Moduli (GPa) = 42.61802 109.47097 59.17130
#
# Poissons Ratio (x) = 0.46776 0.03478
# Poissons Ratio (y) = 0.18210 0.20189
# Poissons Ratio (z) = 0.02505 0.37352
#
# Static dielectric constant tensor:
#      x y z
#    x 1.738660 0.000000 0.007190 
#    y 0.000000 1.973350 0.000000 
#    z 0.007190 0.000000 1.656690 
# 
# From -- ./inp_files/147968.got.cif
#   From: 2010.05.17/outbox.cif.g08.bks.cpg/sg12_74_cif.got.tgz:147968.got - 2010.06.03 13:09:07.
