data_PCOD9219277
_publ_section_title
;
Structure prediction by ZEFSAII (Michael W. Deem and Ramdas Pophale) SiO2 
 PCOD9219277
Probable space group: C 2/M
;
_chemical_formula_sum "Si O2"
_cell_formula_units_Z 60
_cell_length_a 12.080887
_cell_length_b 23.802119
_cell_length_c 12.005932
_cell_angle_alpha 90.000000
_cell_angle_beta 64.139678
_cell_angle_gamma 90.000000
_cell_volume 3106.599705
_symmetry_space_group_name_H-M "C 2/M"
_symmetry_group_IT_number 12
_symmetry_cell_setting 'monoclinic'
loop_
_space_group_symop_operation_xyz
x,y,z
-x,y,-z
-x,-y,-z
x,-y,z
1/2+x,1/2+y,z
1/2-x,1/2+y,-z
1/2-x,1/2-y,-z
1/2+x,1/2-y,z
loop_
_atom_site_type_symbol
_atom_site_label
_atom_site_fract_x
_atom_site_fract_y
_atom_site_fract_z
Si Si1 0.836474 0.301808 0.389400
Si Si2 0.931942 0.357583 0.652227
Si Si3 0.500000 0.313768 0.000000
Si Si4 0.893391 0.841426 0.824299
Si Si5 0.193444 0.567740 0.875154
Si Si6 0.255956 0.259632 0.205873
Si Si7 0.954480 0.433187 0.837263
Si Si8 0.407887 0.318389 0.439379
O O1 0.780344 0.278993 0.301405
O O2 0.730709 0.340680 0.489073
O O3 0.878839 0.248357 0.444886
O O4 0.962310 0.332249 0.315463
O O5 0.820180 0.313552 0.714583
O O6 0.000000 0.362223 0.500000
O O7 0.908700 0.412800 0.735888
O O8 0.433372 0.349152 0.933495
O O9 0.611982 0.277268 0.900089
O O10 0.810623 0.891803 0.813639
O O11 0.823463 0.781138 0.839841
O O12 0.019466 0.836169 0.700614
O O13 0.217766 0.500000 0.864640
O O14 0.092726 0.579426 0.823001
O O15 0.133332 0.584491 0.021117
O O16 0.950134 0.500000 0.837912
O O17 0.500000 0.329589 0.500000
#
# Coordination Sequence:
#
# PCOD9219277 Si02
#       8
#     8   8   4   8   8   8   8   8
#     4  11  20  36  55  81 120 160 201 233 282 349
#     4  12  23  35  60  92 123 158 198 244 294 356
#     4  12  26  38  51  86 131 156 186 242 304 364
#     4  12  23  37  60  86 118 156 198 248 297 355
#     4   9  20  42  67  86 110 151 206 252 298 354
#     4  12  23  39  55  87 124 162 200 237 294 359
#     4   9  20  40  64  89 115 151 199 254 302 347
#     4  11  20  34  55  82 114 157 197 234 284 346
#
# _framework density 19.31372
#
# number of rings (size 3 to 8) (size 9 to 14) (size 15 to 20)
#    0.000    1.067    4.000    4.800    0.000    2.400 
#    0.000    0.333    0.000    2.000    0.000    0.000 
#    0.000    0.000    0.000    0.000    0.000    0.000 
#
# Total GULP energy -167156.972743 kJ/mol
# GULP energy per Si atom -5571.899091 kJ/mol
# Density = 1.926976 g / cm^3
# Si number density = 19.313720 Si / 1000 Ang^3
#
#
#
# Elastic Constant Matrix: (Units=GPa)
#
#
# Indices 1 2 3 4 5 6 
#
# 1 77.8107 20.4677 34.8132 0.0000 -9.9062 0.0000
# 2 20.4677 34.3251 27.7783 0.0000 -1.7618 0.0000
# 3 34.8132 27.7783 86.2554 0.0000 -9.2165 0.0000
# 4 0.0000 0.0000 0.0000 15.1182 0.0000 -2.6152
# 5 -9.9062 -1.7618 -9.2165 0.0000 49.0852 0.0000
# 6 0.0000 0.0000 0.0000 -2.6152 0.0000 11.4905
#
#
#
# Elastic Compliance Matrix: (Units=1/GPa)
#
#
# Indices 1 2 3 4 5 6 
#
# 1 0.016815 -0.006243 -0.004528 0.000000 0.002319 0.000000
# 2 -0.006243 0.041767 -0.011129 0.000000 -0.001850 0.000000
# 3 -0.004528 -0.011129 0.017210 0.000000 0.001918 0.000000
# 4 0.000000 0.000000 0.000000 0.068856 0.000000 0.015671
# 5 0.002319 -0.001850 0.001918 0.000000 0.021135 0.000000
# 6 0.000000 0.000000 0.000000 0.015671 0.000000 0.090595
#
#
# Mechanical properties :
#
#
# Convention : Reuss Voigt Hill
#
# Bulk Modulus (GPa) = 31.25801 40.50108 35.87954
# Shear Modulus (GPa) = 16.08525 22.82757 19.45641
#
# Velocity S-wave (km/s) = 2.88903 3.44166 3.17738
# Velocity P-wave (km/s) = 5.22954 6.06704 5.66379
#
# Compressibility (1/GPa) = 0.03199180
#
# Stress axis : x y z
#
# Youngs Moduli (GPa) = 59.47000 23.94218 58.10519
#
# Poissons Ratio (x) = 0.14947 0.26312
# Poissons Ratio (y) = 0.37127 0.64665
# Poissons Ratio (z) = 0.26930 0.26645
#
# Static dielectric constant tensor:
#      x y z
#    x 1.711860 0.000000 -0.017280 
#    y 0.000000 1.719110 0.000000 
#    z -0.017280 0.000000 1.829020 
# 
# From -- ./inp_files/136966.got.cif
#   From: 2010.05.17/outbox.cif.g08.bks.cpg/sg12_69_cif.got.tgz:136966.got - 2010.06.03 13:09:07.
