data_PCOD9219373
_publ_section_title
;
Structure prediction by ZEFSAII (Michael W. Deem and Ramdas Pophale) SiO2 
 PCOD9219373
Probable space group: C 2/M
;
_chemical_formula_sum "Si O2"
_cell_formula_units_Z 48
_cell_length_a 11.627771
_cell_length_b 19.067886
_cell_length_c 27.125988
_cell_angle_alpha 90.000000
_cell_angle_beta 157.733352
_cell_angle_gamma 90.000000
_cell_volume 2278.921041
_symmetry_space_group_name_H-M "C 2/M"
_symmetry_group_IT_number 12
_symmetry_cell_setting 'monoclinic'
loop_
_space_group_symop_operation_xyz
x,y,z
-x,y,-z
-x,-y,-z
x,-y,z
1/2+x,1/2+y,z
1/2-x,1/2+y,-z
1/2-x,1/2-y,-z
1/2+x,1/2-y,z
loop_
_atom_site_type_symbol
_atom_site_label
_atom_site_fract_x
_atom_site_fract_y
_atom_site_fract_z
Si Si1 0.227379 0.309156 0.193718
Si Si2 0.761174 0.673824 0.264217
Si Si3 0.794212 0.076983 0.580236
Si Si4 0.715790 0.747589 0.632713
Si Si5 0.307755 0.919608 0.974002
Si Si6 0.628772 0.388990 0.501020
O O1 0.124121 0.245876 0.187992
O O2 0.476778 0.360931 0.315992
O O3 0.430983 0.266621 0.234466
O O4 0.969642 0.360995 0.072008
O O5 0.881574 0.696417 0.365252
O O6 0.522776 0.611387 0.169249
O O7 0.066914 0.649896 0.358826
O O8 0.500000 0.083007 0.500000
O O9 0.771536 0.075846 0.511051
O O10 0.925369 0.000000 0.645710
O O11 0.500000 0.758704 0.500000
O O12 0.620874 0.670049 0.612014
O O13 0.295133 0.000000 0.988037
O O14 0.500000 0.921130 0.000000
O O15 0.500000 0.424626 0.500000
#
# Coordination Sequence:
#
# PCOD9219373 Si02
#       6
#     8   8   8   8   8   8
#     4  12  21  40  68  92 127 173 226 279 329 394
#     4  12  22  39  68  95 129 176 222 277 331 396
#     4  11  25  40  62  98 139 181 222 271 337 406
#     4  11  20  36  62 101 136 165 211 279 336 392
#     4  11  26  44  62  90 131 176 224 279 336 396
#     4  11  22  39  66 100 137 173 215 279 341 398
#
# _framework density 21.062598999999999
#
# number of rings (size 3 to 8) (size 9 to 14) (size 15 to 20)
#    0.000    0.667    6.667    4.000    0.000    1.000 
#    0.000    0.000    0.000    0.500    0.000    3.500 
#    0.000    0.000    0.000    0.000    0.000    0.000 
#
# Total GULP energy -133706.789492 kJ/mol
# GULP energy per Si atom -5571.116229 kJ/mol
# Density = 2.101466 g / cm^3
# Si number density = 21.062599 Si / 1000 Ang^3
#
#
#
# Elastic Constant Matrix: (Units=GPa)
#
#
# Indices 1 2 3 4 5 6 
#
# 1 120.6736 32.0620 25.7366 -0.0035 2.2876 0.0014
# 2 32.0620 140.7708 34.4125 0.0029 6.6542 0.0020
# 3 25.7366 34.4125 61.2048 0.0256 5.4365 -0.0033
# 4 -0.0035 0.0029 0.0256 45.9157 0.0036 14.7514
# 5 2.2876 6.6542 5.4365 0.0036 21.7894 0.0066
# 6 0.0014 0.0020 -0.0033 14.7514 0.0066 18.8851
#
#
#
# Elastic Compliance Matrix: (Units=1/GPa)
#
#
# Indices 1 2 3 4 5 6 
#
# 1 0.009321 -0.001357 -0.003177 0.000004 0.000228 -0.000004
# 2 -0.001357 0.008475 -0.004067 0.000003 -0.001431 -0.000003
# 3 -0.003177 -0.004067 0.020270 -0.000017 -0.003482 0.000019
# 4 0.000004 0.000003 -0.000017 0.029076 0.000005 -0.022711
# 5 0.000228 -0.001431 -0.003482 0.000005 0.047176 -0.000021
# 6 -0.000004 -0.000003 0.000019 -0.022711 -0.000021 0.070692
#
#
# Mechanical properties :
#
#
# Convention : Reuss Voigt Hill
#
# Bulk Modulus (GPa) = 47.92947 56.34127 52.13537
# Shear Modulus (GPa) = 23.90457 32.68057 28.29257
#
# Velocity S-wave (km/s) = 3.37253 3.94330 3.66903
# Velocity P-wave (km/s) = 6.16201 6.89495 6.53876
#
# Compressibility (1/GPa) = 0.02086399
#
# Stress axis : x y z
#
# Youngs Moduli (GPa) = 107.28997 117.99786 49.33314
#
# Poissons Ratio (x) = 0.16014 0.15671
# Poissons Ratio (y) = 0.14561 0.20065
# Poissons Ratio (z) = 0.34081 0.47992
#
# Static dielectric constant tensor:
#      x y z
#    x 1.862750 0.000000 -0.029860 
#    y 0.000000 1.811650 -0.000010 
#    z -0.029860 -0.000010 1.745140 
# 
# From -- ./inp_files/359062.got.cif
#   From: 2010.05.17/outbox.cif.g08.bks.cpg/sg12_180_cif.got.tgz:359062.got - 2010.06.03 13:09:07.
