data_PCOD9219414
_publ_section_title
;
Structure prediction by ZEFSAII (Michael W. Deem and Ramdas Pophale) SiO2 
 PCOD9219414
Probable space group: C 2/M
;
_chemical_formula_sum "Si O2"
_cell_formula_units_Z 56
_cell_length_a 10.956311
_cell_length_b 19.934072
_cell_length_c 11.546572
_cell_angle_alpha 90.000000
_cell_angle_beta 86.170227
_cell_angle_gamma 90.000000
_cell_volume 2516.184788
_symmetry_space_group_name_H-M "C 2/M"
_symmetry_group_IT_number 12
_symmetry_cell_setting 'monoclinic'
loop_
_space_group_symop_operation_xyz
x,y,z
-x,y,-z
-x,-y,-z
x,-y,z
1/2+x,1/2+y,z
1/2-x,1/2+y,-z
1/2-x,1/2-y,-z
1/2+x,1/2-y,z
loop_
_atom_site_type_symbol
_atom_site_label
_atom_site_fract_x
_atom_site_fract_y
_atom_site_fract_z
Si Si1 0.593262 0.924157 0.881707
Si Si2 0.716628 0.826371 0.028994
Si Si3 0.859771 0.295251 0.547279
Si Si4 0.445958 0.677928 0.132342
Si Si5 0.707626 0.421511 0.507117
Si Si6 0.519449 0.810776 0.224943
Si Si7 0.525590 0.421600 0.309823
O O1 0.545045 0.883308 0.771656
O O2 0.628396 0.000000 0.850186
O O3 0.500000 0.930248 0.000000
O O4 0.699804 0.876551 0.924535
O O5 0.814523 0.853488 0.114116
O O6 0.590018 0.818180 0.100994
O O7 0.750000 0.750000 0.000000
O O8 0.750000 0.250000 0.500000
O O9 0.817931 0.370228 0.516870
O O10 0.881875 0.294215 0.683502
O O11 0.000000 0.278584 0.500000
O O12 0.434299 0.746443 0.207204
O O13 0.526132 0.627732 0.202087
O O14 0.500000 0.688135 0.000000
O O15 0.741368 0.500000 0.509990
O O16 0.636185 0.408560 0.391410
O O17 0.601691 0.410010 0.611269
O O18 0.528716 0.500000 0.277524
#
# Coordination Sequence:
#
# PCOD9219414 Si02
#       7
#     8   8   8   8   8   8   8
#     4   9  19  38  62  91 122 159 212 267 318 385
#     4  11  20  37  61  89 125 169 222 263 329 401
#     4  12  29  44  67 104 140 175 229 294 346 401
#     4  12  22  36  61  89 134 174 219 272 331 410
#     4   9  20  45  73  96 130 178 228 284 348 412
#     4  11  23  40  64  90 125 176 215 273 339 403
#     4   9  20  39  69  99 130 178 229 281 344 414
#
# _framework density 22.255915000000002
#
# number of rings (size 3 to 8) (size 9 to 14) (size 15 to 20)
#    0.000    1.571    2.857    3.000    6.000    1.714 
#    2.571    2.857    0.000    0.000    0.000    0.000 
#    0.000    0.000    0.000    0.000    0.000    0.000 
#
# Total GULP energy -156157.689131 kJ/mol
# GULP energy per Si atom -5577.060326 kJ/mol
# Density = 2.220526 g / cm^3
# Si number density = 22.255915 Si / 1000 Ang^3
#
#
#
# Elastic Constant Matrix: (Units=GPa)
#
#
# Indices 1 2 3 4 5 6 
#
# 1 80.2037 39.2557 24.9444 0.0000 24.7597 0.0000
# 2 39.2557 139.9233 67.8289 0.0000 32.6943 0.0000
# 3 24.9444 67.8289 101.6813 0.0000 33.5112 0.0000
# 4 0.0000 0.0000 0.0000 26.8908 0.0000 16.2482
# 5 24.7597 32.6943 33.5112 0.0000 33.9385 0.0000
# 6 0.0000 0.0000 0.0000 16.2482 0.0000 30.0060
#
#
#
# Elastic Compliance Matrix: (Units=1/GPa)
#
#
# Indices 1 2 3 4 5 6 
#
# 1 0.016782 -0.002824 0.001342 0.000000 -0.010848 0.000000
# 2 -0.002824 0.011586 -0.005983 0.000000 -0.003192 0.000000
# 3 0.001342 -0.005983 0.017670 0.000000 -0.012663 0.000000
# 4 0.000000 0.000000 0.000000 0.055272 0.000000 -0.029930
# 5 -0.010848 -0.003192 -0.012663 0.000000 0.052957 0.000000
# 6 0.000000 0.000000 0.000000 -0.029930 0.000000 0.049534
#
#
# Mechanical properties :
#
#
# Convention : Reuss Voigt Hill
#
# Bulk Modulus (GPa) = 32.14765 65.09624 48.62195
# Shear Modulus (GPa) = 21.82452 30.81902 26.32177
#
# Velocity S-wave (km/s) = 3.13488 3.72527 3.44275
# Velocity P-wave (km/s) = 5.25159 6.91491 6.13983
#
# Compressibility (1/GPa) = 0.03110647
#
# Stress axis : x y z
#
# Youngs Moduli (GPa) = 59.58793 86.31457 56.59294
#
# Poissons Ratio (x) = 0.24376 -0.07595
# Poissons Ratio (y) = 0.16828 0.33862
# Poissons Ratio (z) = -0.07997 0.51646
#
# Static dielectric constant tensor:
#      x y z
#    x 0.961010 0.000000 -0.171050 
#    y 0.000000 1.888310 0.000000 
#    z -0.171050 0.000000 1.840210 
# 
# From -- ./inp_files/133312.got.cif
#   From: 2010.05.17/outbox.cif.g08.bks.cpg/sg12_67_cif.got.tgz:133312.got - 2010.06.03 13:09:07.
