data_PCOD9219015
_publ_section_title
;
Structure prediction by ZEFSAII (Michael W. Deem and Ramdas Pophale) SiO2 
 PCOD9219015
Probable space group: C 2/M
;
_chemical_formula_sum "Si O2"
_cell_formula_units_Z 48
_cell_length_a 10.750757
_cell_length_b 23.007136
_cell_length_c 21.224809
_cell_angle_alpha 90.000000
_cell_angle_beta 147.490787
_cell_angle_gamma 90.000000
_cell_volume 2821.444534
_symmetry_space_group_name_H-M "C 2/M"
_symmetry_group_IT_number 12
_symmetry_cell_setting 'monoclinic'
loop_
_space_group_symop_operation_xyz
x,y,z
-x,y,-z
-x,-y,-z
x,-y,z
1/2+x,1/2+y,z
1/2-x,1/2+y,-z
1/2-x,1/2-y,-z
1/2+x,1/2-y,z
loop_
_atom_site_type_symbol
_atom_site_label
_atom_site_fract_x
_atom_site_fract_y
_atom_site_fract_z
Si Si1 0.991513 0.431271 0.599641
Si Si2 0.994800 0.753219 0.921826
Si Si3 0.290073 0.378113 0.830548
Si Si4 0.237066 0.431872 0.943810
Si Si5 0.372341 0.125510 0.877856
Si Si6 0.879310 0.068844 0.657426
O O1 0.975176 0.500000 0.606491
O O2 0.076327 0.397762 0.697028
O O3 0.194928 0.423797 0.634850
O O4 0.754640 0.413348 0.463817
O O5 0.863464 0.812149 0.847224
O O6 0.876376 0.691964 0.855624
O O7 0.250000 0.750000 0.000000
O O8 0.000000 0.756307 0.000000
O O9 0.236388 0.391933 0.880866
O O10 0.521666 0.416769 0.917895
O O11 0.233762 0.500000 0.925668
O O12 0.024016 0.414218 0.896277
O O13 0.112952 0.102638 0.770574
O O14 0.500000 0.124326 0.000000
O O15 0.928840 0.000000 0.674042
#
# Coordination Sequence:
#
# PCOD9219015 Si02
#       6
#     8   8   8   8   8   8
#     4   9  18  34  56  78 106 144 179 217 276 330
#     4  11  21  37  54  79 115 147 183 230 277 333
#     4  11  19  35  54  78 106 144 188 215 275 331
#     4  11  21  33  52  82 114 138 178 234 278 332
#     4  11  22  34  55  82 108 144 184 227 286 326
#     4   9  19  35  53  80 111 136 176 230 272 328
#
# _framework density 17.012563
#
# number of rings (size 3 to 8) (size 9 to 14) (size 15 to 20)
#    0.000    1.667    3.333    4.500    2.333    2.667 
#    0.000    1.667    0.000    3.000    0.000    0.000 
#    0.000    0.000    0.000    0.000    0.000    0.000 
#
# Total GULP energy -133871.741658 kJ/mol
# GULP energy per Si atom -5577.989236 kJ/mol
# Density = 1.697384 g / cm^3
# Si number density = 17.012563 Si / 1000 Ang^3
#
#
#
# Elastic Constant Matrix: (Units=GPa)
#
#
# Indices 1 2 3 4 5 6 
#
# 1 51.1555 26.1652 22.4738 0.0008 5.4918 0.0019
# 2 26.1652 90.6036 48.9410 0.0002 9.0007 0.0002
# 3 22.4738 48.9410 112.8111 0.0018 1.0431 0.0067
# 4 0.0008 0.0002 0.0018 14.4634 0.0012 0.4216
# 5 5.4918 9.0007 1.0431 0.0012 23.6240 0.0007
# 6 0.0019 0.0002 0.0067 0.4216 0.0007 19.5643
#
#
#
# Elastic Compliance Matrix: (Units=1/GPa)
#
#
# Indices 1 2 3 4 5 6 
#
# 1 0.023628 -0.005170 -0.002433 -0.000001 -0.003416 -0.000001
# 2 -0.005170 0.016220 -0.005963 0.000001 -0.004714 0.000003
# 3 -0.002433 -0.005963 0.011915 -0.000001 0.002311 -0.000004
# 4 -0.000001 0.000001 -0.000001 0.069184 -0.000004 -0.001491
# 5 -0.003416 -0.004714 0.002311 -0.000004 0.044818 -0.000002
# 6 -0.000001 0.000003 -0.000004 -0.001491 -0.000002 0.051146
#
#
# Mechanical properties :
#
#
# Convention : Reuss Voigt Hill
#
# Bulk Modulus (GPa) = 40.59973 49.97003 45.28488
# Shear Modulus (GPa) = 19.82154 21.99634 20.90894
#
# Velocity S-wave (km/s) = 3.41708 3.59966 3.50955
# Velocity P-wave (km/s) = 6.28370 6.83468 6.56498
#
# Compressibility (1/GPa) = 0.02463071
#
# Stress axis : x y z
#
# Youngs Moduli (GPa) = 42.32257 61.65412 83.93118
#
# Poissons Ratio (x) = 0.31877 0.20416
# Poissons Ratio (y) = 0.21882 0.50048
# Poissons Ratio (z) = 0.10295 0.36764
#
# Static dielectric constant tensor:
#      x y z
#    x 1.643800 0.000000 -0.058570 
#    y 0.000000 1.582510 0.000000 
#    z -0.058570 0.000000 1.597480 
# 
# From -- ./inp_files/132433.got.cif
#   From: 2010.05.17/outbox.cif.g08.bks.cpg/sg12_67_cif.got.tgz:132433.got - 2010.06.03 13:09:07.
