data_PCOD9219276
_publ_section_title
;
Structure prediction by ZEFSAII (Michael W. Deem and Ramdas Pophale) SiO2 
 PCOD9219276
Probable space group: C 2/M
;
_chemical_formula_sum "Si O2"
_cell_formula_units_Z 56
_cell_length_a 8.506590
_cell_length_b 29.771970
_cell_length_c 18.282068
_cell_angle_alpha 90.000000
_cell_angle_beta 45.737601
_cell_angle_gamma 90.000000
_cell_volume 3315.835291
_symmetry_space_group_name_H-M "C 2/M"
_symmetry_group_IT_number 12
_symmetry_cell_setting 'monoclinic'
loop_
_space_group_symop_operation_xyz
x,y,z
-x,y,-z
-x,-y,-z
x,-y,z
1/2+x,1/2+y,z
1/2-x,1/2+y,-z
1/2-x,1/2-y,-z
1/2+x,1/2-y,z
loop_
_atom_site_type_symbol
_atom_site_label
_atom_site_fract_x
_atom_site_fract_y
_atom_site_fract_z
Si Si1 0.688240 0.199056 0.500000
Si Si2 0.984843 0.355078 0.303054
Si Si3 0.893979 0.199773 0.112338
Si Si4 0.269006 0.199773 0.112338
Si Si5 0.105995 0.855078 0.303054
Si Si6 0.012597 0.049680 0.619068
Si Si7 0.130199 0.450320 0.619068
O O1 0.500000 0.199166 0.500000
O O2 0.750000 0.250000 0.500000
O O3 0.599981 0.173364 0.600193
O O4 0.900559 0.173364 0.399807
O O5 0.795227 0.353711 0.303182
O O6 0.014147 0.406737 0.318632
O O7 0.202868 0.333288 0.199738
O O8 0.798064 0.250000 0.134624
O O9 0.083864 0.200962 0.110757
O O10 0.000000 0.187329 0.000000
O O11 0.197917 0.166712 0.199738
O O12 0.500000 0.187329 0.000000
O O13 0.029956 0.906737 0.318632
O O14 0.818709 0.049415 0.620861
O O15 0.236454 0.055357 0.500000
O O16 0.014300 0.000000 0.653089
O O17 0.026433 0.500000 0.653089
#
# Coordination Sequence:
#
# PCOD9219276 Si02
#       7
#     8   8   8   8   8   8   8
#     4  12  24  36  49  72 107 143 178 215 261 316
#     4  11  20  34  55  80 108 140 175 217 265 315
#     4  11  22  38  57  79 105 138 179 222 263 313
#     4  11  22  38  57  79 105 138 179 222 263 313
#     4  11  20  34  55  80 108 140 175 217 265 315
#     4   8  14  27  50  79 107 137 175 215 256 309
#     4   8  14  27  50  79 107 137 175 215 256 309
#
# _framework density 16.888655
#
# number of rings (size 3 to 8) (size 9 to 14) (size 15 to 20)
#    0.000    1.714    1.429    7.286    0.000    0.000 
#    0.000    0.000    0.000    5.143    0.000    0.000 
#    0.000    0.000    0.000    0.000    0.000    0.000 
#
# Total GULP energy -156335.379760 kJ/mol
# GULP energy per Si atom -5583.406420 kJ/mol
# Density = 1.685022 g / cm^3
# Si number density = 16.888655 Si / 1000 Ang^3
#
#
#
# Elastic Constant Matrix: (Units=GPa)
#
#
# Indices 1 2 3 4 5 6 
#
# 1 104.4267 50.8884 43.0538 0.0000 -0.0988 0.0000
# 2 50.8884 181.8164 113.6807 0.0000 0.7135 0.0000
# 3 43.0538 113.6807 127.0622 0.0000 0.3561 0.0000
# 4 0.0000 0.0000 0.0000 20.9113 0.0000 0.0907
# 5 -0.0988 0.7135 0.3561 0.0000 26.3418 0.0000
# 6 0.0000 0.0000 0.0000 0.0907 0.0000 12.9309
#
#
#
# Elastic Compliance Matrix: (Units=1/GPa)
#
#
# Indices 1 2 3 4 5 6 
#
# 1 0.011373 -0.001757 -0.002282 0.000000 0.000121 0.000000
# 2 -0.001757 0.012755 -0.010816 0.000000 -0.000206 0.000000
# 3 -0.002282 -0.010816 0.018321 0.000000 0.000037 0.000000
# 4 0.000000 0.000000 0.000000 0.047823 0.000000 -0.000335
# 5 0.000121 -0.000206 0.000037 0.000000 0.037968 0.000000
# 6 0.000000 0.000000 0.000000 -0.000335 0.000000 0.077337
#
#
# Mechanical properties :
#
#
# Convention : Reuss Voigt Hill
#
# Bulk Modulus (GPa) = 78.50163 92.06125 85.28144
# Shear Modulus (GPa) = 20.87392 25.74894 23.31143
#
# Velocity S-wave (km/s) = 3.51945 3.90889 3.71927
# Velocity P-wave (km/s) = 7.94344 8.66034 8.30963
#
# Compressibility (1/GPa) = 0.01273859
#
# Stress axis : x y z
#
# Youngs Moduli (GPa) = 87.92557 78.39807 54.58334
#
# Poissons Ratio (x) = 0.13772 0.12458
# Poissons Ratio (y) = 0.15445 0.59039
# Poissons Ratio (z) = 0.20068 0.84798
#
# Static dielectric constant tensor:
#      x y z
#    x 1.571600 0.000000 -0.000380 
#    y 0.000000 1.584900 0.000000 
#    z -0.000380 0.000000 1.538110 
# 
# From -- ./inp_files/260088.got.cif
#   From: 2010.05.17/outbox.cif.g08.bks.cpg/sg12_131_cif.got.tgz:260088.got - 2010.06.03 13:09:07.
