data_PCOD9219456
_publ_section_title
;
Structure prediction by ZEFSAII (Michael W. Deem and Ramdas Pophale) SiO2 
 PCOD9219456
Probable space group: C 2/M
;
_chemical_formula_sum "Si O2"
_cell_formula_units_Z 44
_cell_length_a 10.577713
_cell_length_b 22.751059
_cell_length_c 10.369647
_cell_angle_alpha 90.000000
_cell_angle_beta 99.769976
_cell_angle_gamma 90.000000
_cell_volume 2459.306489
_symmetry_space_group_name_H-M "C 2/M"
_symmetry_group_IT_number 12
_symmetry_cell_setting 'monoclinic'
loop_
_space_group_symop_operation_xyz
x,y,z
-x,y,-z
-x,-y,-z
x,-y,z
1/2+x,1/2+y,z
1/2-x,1/2+y,-z
1/2-x,1/2-y,-z
1/2+x,1/2-y,z
loop_
_atom_site_type_symbol
_atom_site_label
_atom_site_fract_x
_atom_site_fract_y
_atom_site_fract_z
Si Si1 0.000000 0.294939 0.000000
Si Si2 0.185069 0.000000 0.941635
Si Si3 0.853857 0.720216 0.423403
Si Si4 0.317881 0.626150 0.716493
Si Si5 0.746997 0.628783 0.990491
Si Si6 0.551994 0.295120 0.790406
Si Si7 0.410996 0.500000 0.776516
O O1 0.124486 0.334798 0.006947
O O2 0.009666 0.253026 0.125642
O O3 0.258524 0.061619 0.944559
O O4 0.064844 0.000000 0.822319
O O5 0.134536 0.000000 0.081298
O O6 0.750000 0.750000 0.500000
O O7 0.801050 0.655652 0.377162
O O8 0.862026 0.760592 0.297163
O O9 0.000000 0.717750 0.500000
O O10 0.439889 0.667073 0.706703
O O11 0.356642 0.558668 0.701052
O O12 0.291017 0.630252 0.865528
O O13 0.635502 0.660878 0.891447
#
# Coordination Sequence:
#
# PCOD9219456 Si02
#       7
#     4   4   8   8   8   8   4
#     4  12  22  31  54  91 126 152 178 242 308 360
#     4   9  18  33  54  85 120 154 183 230 289 372
#     4  12  26  41  59  87 121 162 204 244 290 346
#     4  11  20  38  62  88 117 153 196 242 293 355
#     4  11  21  34  58  89 124 152 189 236 302 364
#     4  12  21  36  61  89 120 150 191 244 305 352
#     4   9  18  34  59  86 113 151 192 236 293 349
#
# _framework density 17.891223
#
# number of rings (size 3 to 8) (size 9 to 14) (size 15 to 20)
#    0.000    0.909    7.273    1.636    0.000    0.364 
#    0.000    0.455    0.000    3.273    0.000    0.000 
#    0.000    0.000    0.000    0.000    0.000    0.000 
#
# Total GULP energy -122827.912518 kJ/mol
# GULP energy per Si atom -5583.086933 kJ/mol
# Density = 1.785050 g / cm^3
# Si number density = 17.891223 Si / 1000 Ang^3
#
#
#
# Elastic Constant Matrix: (Units=GPa)
#
#
# Indices 1 2 3 4 5 6 
#
# 1 66.4181 37.8359 5.0876 0.0000 9.6203 0.0000
# 2 37.8359 154.3558 22.9365 0.0000 7.1657 0.0000
# 3 5.0876 22.9365 40.3291 0.0000 0.9494 0.0000
# 4 0.0000 0.0000 0.0000 7.7888 0.0000 13.6953
# 5 9.6203 7.1657 0.9494 0.0000 36.2452 0.0000
# 6 0.0000 0.0000 0.0000 13.6953 0.0000 20.3458
#
#
#
# Elastic Compliance Matrix: (Units=1/GPa)
#
#
# Indices 1 2 3 4 5 6 
#
# 1 0.018046 -0.004277 0.000249 0.000000 -0.003951 0.000000
# 2 -0.004277 0.008151 -0.004088 0.000000 -0.000369 0.000000
# 3 0.000249 -0.004088 0.027089 0.000000 0.000033 0.000000
# 4 0.000000 0.000000 0.000000 -0.699354 0.000000 0.470754
# 5 -0.003951 -0.000369 0.000033 0.000000 0.028711 0.000000
# 6 0.000000 0.000000 0.000000 0.470754 0.000000 -0.267727
#
#
# Mechanical properties :
#
#
# Convention : Reuss Voigt Hill
#
# Bulk Modulus (GPa) = 26.98745 43.64702 35.31723
# Shear Modulus (GPa) = -5.83770 25.89216 10.02723
#
# Velocity S-wave (km/s) = -1.80831 3.80833 2.36996
# Velocity P-wave (km/s) = 3.27978 6.61715 5.22224
#
# Compressibility (1/GPa) = 0.03705427
#
# Stress axis : x y z
#
# Youngs Moduli (GPa) = 55.41471 122.67700 36.91581
#
# Poissons Ratio (x) = 0.52469 -0.00919
# Poissons Ratio (y) = 0.23701 0.15090
# Poissons Ratio (z) = -0.01380 0.50148
#
# Static dielectric constant tensor:
#      x y z
#    x 1.613780 0.000000 0.006690 
#    y 0.000000 1.610980 0.000000 
#    z 0.006690 0.000000 1.623870 
# 
# From -- ./inp_files/49406.got.cif
#   From: 2010.05.17/outbox.cif.g08.bks.cpg/sg12_25_cif.got.tgz:49406.got - 2010.06.03 13:09:07.
