data_PCOD9219398
_publ_section_title
;
Structure prediction by ZEFSAII (Michael W. Deem and Ramdas Pophale) SiO2 
 PCOD9219398
Probable space group: C 2/M
;
_chemical_formula_sum "Si O2"
_cell_formula_units_Z 44
_cell_length_a 9.061267
_cell_length_b 25.565046
_cell_length_c 12.072527
_cell_angle_alpha 90.000000
_cell_angle_beta 51.675785
_cell_angle_gamma 90.000000
_cell_volume 2193.989729
_symmetry_space_group_name_H-M "C 2/M"
_symmetry_group_IT_number 12
_symmetry_cell_setting 'monoclinic'
loop_
_space_group_symop_operation_xyz
x,y,z
-x,y,-z
-x,-y,-z
x,-y,z
1/2+x,1/2+y,z
1/2-x,1/2+y,-z
1/2-x,1/2-y,-z
1/2+x,1/2-y,z
loop_
_atom_site_type_symbol
_atom_site_label
_atom_site_fract_x
_atom_site_fract_y
_atom_site_fract_z
Si Si1 0.102080 0.100511 0.352759
Si Si2 0.274667 0.787638 0.755601
Si Si3 0.090113 0.208345 0.612196
Si Si4 0.000000 0.724756 0.000000
Si Si5 0.476240 0.859425 0.814545
Si Si6 0.287836 0.058662 0.047406
O O1 0.314770 0.116679 0.290193
O O2 0.145722 0.075130 0.212043
O O3 0.000000 0.069247 0.500000
O O4 0.959734 0.149817 0.403315
O O5 0.129933 0.797723 0.724813
O O6 0.405809 0.739589 0.662494
O O7 0.171592 0.764448 0.910378
O O8 0.404154 0.835332 0.733291
O O9 0.250000 0.250000 0.500000
O O10 0.996151 0.686893 0.896090
O O11 0.319552 0.899144 0.935868
O O12 0.244119 0.000000 0.029224
O O13 0.500000 0.057839 0.000000
#
# Coordination Sequence:
#
# PCOD9219398 Si02
#       6
#     8   8   8   4   8   8
#     4  11  21  36  56  81 116 149 193 239 280 342
#     4  12  23  33  53  79 113 156 193 227 275 337
#     4  12  23  36  52  79 119 159 193 224 279 343
#     4  12  20  34  53  78 113 148 190 230 272 342
#     4  11  20  37  57  81 115 151 191 237 284 343
#     4   9  19  37  62  85 109 143 191 251 300 333
#
# _framework density 20.054789
#
# number of rings (size 3 to 8) (size 9 to 14) (size 15 to 20)
#    0.000    0.909    6.364    3.273    2.545    0.364 
#    0.000    0.000    0.000    2.182    0.000    0.000 
#    0.000   10.182    0.000    0.000    0.000    0.000 
#
# Total GULP energy -122531.719514 kJ/mol
# GULP energy per Si atom -5569.623614 kJ/mol
# Density = 2.000914 g / cm^3
# Si number density = 20.054789 Si / 1000 Ang^3
#
#
#
# Elastic Constant Matrix: (Units=GPa)
#
#
# Indices 1 2 3 4 5 6 
#
# 1 59.8157 10.0780 11.9424 0.0000 16.0555 0.0000
# 2 10.0780 67.0849 10.9398 0.0000 2.6370 0.0000
# 3 11.9424 10.9398 95.8158 0.0000 -10.9727 0.0000
# 4 0.0000 0.0000 0.0000 16.8841 0.0000 -0.4737
# 5 16.0555 2.6370 -10.9727 0.0000 31.4500 0.0000
# 6 0.0000 0.0000 0.0000 -0.4737 0.0000 7.7826
#
#
#
# Elastic Compliance Matrix: (Units=1/GPa)
#
#
# Indices 1 2 3 4 5 6 
#
# 1 0.020994 -0.002079 -0.003736 0.000000 -0.011847 0.000000
# 2 -0.002079 0.015512 -0.001603 0.000000 -0.000799 0.000000
# 3 -0.003736 -0.001603 0.011790 0.000000 0.006155 0.000000
# 4 0.000000 0.000000 0.000000 0.059329 0.000000 0.003611
# 5 -0.011847 -0.000799 0.006155 0.000000 0.040059 0.000000
# 6 0.000000 0.000000 0.000000 0.003611 0.000000 0.128711
#
#
# Mechanical properties :
#
#
# Convention : Reuss Voigt Hill
#
# Bulk Modulus (GPa) = 29.88703 32.07077 30.97890
# Shear Modulus (GPa) = 16.53524 23.87375 20.20450
#
# Velocity S-wave (km/s) = 2.87453 3.45400 3.17750
# Velocity P-wave (km/s) = 5.09434 5.65094 5.37984
#
# Compressibility (1/GPa) = 0.03345933
#
# Stress axis : x y z
#
# Youngs Moduli (GPa) = 47.63239 64.46754 84.81545
#
# Poissons Ratio (x) = 0.13403 0.31687
# Poissons Ratio (y) = 0.09903 0.13599
# Poissons Ratio (z) = 0.17796 0.10337
#
# Static dielectric constant tensor:
#      x y z
#    x 1.856870 0.000000 -0.182100 
#    y 0.000000 1.719260 0.000000 
#    z -0.182100 0.000000 2.032520 
# 
# From -- ./inp_files/124071.got.cif
#   From: 2010.05.17/outbox.cif.g08.bks.cpg/sg12_63_cif.got.tgz:124071.got - 2010.06.03 13:09:07.
