data_PCOD9219253
_publ_section_title
;
Structure prediction by ZEFSAII (Michael W. Deem and Ramdas Pophale) SiO2 
 PCOD9219253
Probable space group: C 2/M
;
_chemical_formula_sum "Si O2"
_cell_formula_units_Z 48
_cell_length_a 10.636143
_cell_length_b 19.979632
_cell_length_c 21.098765
_cell_angle_alpha 90.000000
_cell_angle_beta 30.231302
_cell_angle_gamma 90.000000
_cell_volume 2257.466428
_symmetry_space_group_name_H-M "C 2/M"
_symmetry_group_IT_number 12
_symmetry_cell_setting 'monoclinic'
loop_
_space_group_symop_operation_xyz
x,y,z
-x,y,-z
-x,-y,-z
x,-y,z
1/2+x,1/2+y,z
1/2-x,1/2+y,-z
1/2-x,1/2-y,-z
1/2+x,1/2-y,z
loop_
_atom_site_type_symbol
_atom_site_label
_atom_site_fract_x
_atom_site_fract_y
_atom_site_fract_z
Si Si1 0.018573 0.698193 0.734311
Si Si2 0.060312 0.107207 0.904569
Si Si3 0.585558 0.817938 0.078089
Si Si4 0.567500 0.650110 0.257636
Si Si5 0.791927 0.573935 0.675577
Si Si6 0.261787 0.169264 0.487602
O O1 0.736950 0.672288 0.841146
O O2 0.038286 0.777220 0.716141
O O3 0.198818 0.661727 0.605323
O O4 0.047305 0.685742 0.795615
O O5 0.207388 0.070378 0.785634
O O6 0.796952 0.126384 0.989358
O O7 0.000000 0.077727 0.000000
O O8 0.635653 0.838102 0.872668
O O9 0.750000 0.750000 0.000000
O O10 0.439936 0.596710 0.267051
O O11 0.466175 0.639017 0.373314
O O12 0.883610 0.500000 0.617444
O O13 0.999376 0.632669 0.584363
O O14 0.250000 0.250000 0.500000
#
# Coordination Sequence:
#
# PCOD9219253 Si02
#       6
#     8   8   8   8   8   8
#     4   9  19  34  57  86 125 157 209 277 327 365
#     4   9  19  37  59  89 122 163 219 262 316 376
#     4  11  20  33  56  90 130 166 206 267 328 377
#     4  11  22  34  58  90 127 168 206 260 326 389
#     4  11  24  42  64  91 130 172 211 260 329 400
#     4   9  21  40  60  90 122 160 219 272 317 379
#
# _framework density 21.262772999999999
#
# number of rings (size 3 to 8) (size 9 to 14) (size 15 to 20)
#    0.000    2.000    1.667    1.500    4.667    4.333 
#    0.000    1.667    0.000    4.000    0.000   11.667 
#    0.000    0.000    0.000    0.000    0.000    0.000 
#
# Total GULP energy -133713.848762 kJ/mol
# GULP energy per Si atom -5571.410365 kJ/mol
# Density = 2.121438 g / cm^3
# Si number density = 21.262773 Si / 1000 Ang^3
#
#
#
# Elastic Constant Matrix: (Units=GPa)
#
#
# Indices 1 2 3 4 5 6 
#
# 1 84.1103 41.3195 42.3304 -0.0199 -23.7810 -0.1088
# 2 41.3195 90.6634 17.2822 0.0405 -8.2810 0.0612
# 3 42.3304 17.2822 126.7584 0.0598 14.6603 -0.1821
# 4 -0.0199 0.0405 0.0598 0.7244 -0.0494 10.0469
# 5 -23.7810 -8.2810 14.6603 -0.0494 38.1060 0.5508
# 6 -0.1088 0.0612 -0.1821 10.0469 0.5508 -111.0208
#
#
#
# Elastic Compliance Matrix: (Units=1/GPa)
#
#
# Indices 1 2 3 4 5 6 
#
# 1 0.025931 -0.008336 -0.009613 0.000957 0.018069 0.000162
# 2 -0.008336 0.014389 0.001112 -0.000586 -0.002503 -0.000051
# 3 -0.009613 0.001112 0.012154 -0.000526 -0.010433 -0.000109
# 4 0.000957 -0.000586 -0.000526 0.612208 0.000666 0.055405
# 5 0.018069 -0.002503 -0.010433 0.000666 0.040986 0.000262
# 6 0.000162 -0.000051 -0.000109 0.055405 0.000262 -0.003992
#
#
# Mechanical properties :
#
#
# Convention : Reuss Voigt Hill
#
# Bulk Modulus (GPa) = 53.19207 55.93293 54.56250
# Shear Modulus (GPa) = 6.74202 -1.06476 2.83863
#
# Velocity S-wave (km/s) = 1.78261 -0.70841 1.15669
# Velocity P-wave (km/s) = 5.41366 5.06888 5.24411
#
# Compressibility (1/GPa) = 0.01879980
#
# Stress axis : x y z
#
# Youngs Moduli (GPa) = 38.56331 69.49948 82.27435
#
# Poissons Ratio (x) = 0.57934 0.79092
# Poissons Ratio (y) = 0.32146 -0.09146
# Poissons Ratio (z) = 0.37072 -0.07726
#
# Static dielectric constant tensor:
#      x y z
#    x 1.795820 0.000140 -0.010890 
#    y 0.000140 1.758950 0.000100 
#    z -0.010890 0.000100 1.802870 
# 
# From -- ./inp_files/340374.got.cif
#   From: 2010.05.17/outbox.cif.g08.bks.cpg/sg12_171_cif.got.tgz:340374.got - 2010.06.03 13:09:07.
