data_PCOD9219902
_publ_section_title
;
Structure prediction by ZEFSAII (Michael W. Deem and Ramdas Pophale) SiO2 
 PCOD9219902
Probable space group: C 2/M
;
_chemical_formula_sum "Si O2"
_cell_formula_units_Z 48
_cell_length_a 30.215170
_cell_length_b 7.778832
_cell_length_c 15.051832
_cell_angle_alpha 90.000000
_cell_angle_beta 39.109254
_cell_angle_gamma 90.000000
_cell_volume 2231.625249
_symmetry_space_group_name_H-M "C 2/M"
_symmetry_group_IT_number 12
_symmetry_cell_setting 'monoclinic'
loop_
_space_group_symop_operation_xyz
x,y,z
-x,y,-z
-x,-y,-z
x,-y,z
1/2+x,1/2+y,z
1/2-x,1/2+y,-z
1/2-x,1/2-y,-z
1/2+x,1/2-y,z
loop_
_atom_site_type_symbol
_atom_site_label
_atom_site_fract_x
_atom_site_fract_y
_atom_site_fract_z
Si Si1 0.509449 0.711246 0.087207
Si Si2 0.251385 0.794805 0.394688
Si Si3 0.595583 0.709128 0.599083
Si Si4 0.930689 0.210973 0.556294
Si Si5 0.778918 0.799043 0.858195
Si Si6 0.660455 0.696616 0.902162
O O1 0.511321 0.500000 0.083048
O O2 0.446090 0.766705 0.249243
O O3 0.500000 0.766480 0.000000
O O4 0.582383 0.771927 0.017725
O O5 0.250000 0.750000 0.500000
O O6 0.176257 0.737780 0.474423
O O7 0.310729 0.707846 0.243255
O O8 0.258595 0.000000 0.372520
O O9 0.595522 0.500000 0.601923
O O10 0.563177 0.762082 0.556195
O O11 0.855634 0.274430 0.711922
O O12 0.000000 0.267458 0.500000
O O13 0.929967 0.000000 0.559474
O O14 0.719425 0.769988 0.875899
O O15 0.791053 0.000000 0.842839
O O16 0.750000 0.750000 0.000000
O O17 0.652835 0.500000 0.942451
#
# Coordination Sequence:
#
# PCOD9219902 Si02
#       6
#     8   8   8   8   8   8
#     4   9  18  32  53  84 116 148 195 243 276 325
#     4  11  21  36  59  86 116 152 192 240 291 343
#     4   9  17  32  54  80 111 146 190 242 282 325
#     4   9  18  33  57  85 109 141 192 242 282 334
#     4  11  23  40  61  88 118 151 192 242 296 350
#     4  11  22  37  60  89 119 153 191 238 293 349
#
# _framework density 21.508987999999999
#
# number of rings (size 3 to 8) (size 9 to 14) (size 15 to 20)
#    0.000    2.000    1.667    2.500    2.333    2.667 
#    0.000    0.000    0.000   15.000    0.000    0.000 
#    0.000    0.000    0.000    0.000    0.000    0.000 
#
# Total GULP energy -134012.918833 kJ/mol
# GULP energy per Si atom -5583.871618 kJ/mol
# Density = 2.146003 g / cm^3
# Si number density = 21.508988 Si / 1000 Ang^3
#
#
#
# Elastic Constant Matrix: (Units=GPa)
#
#
# Indices 1 2 3 4 5 6 
#
# 1 79.2631 2.1502 -4.7484 -0.0001 5.2442 0.0000
# 2 2.1502 29.4156 0.4211 -0.0024 -3.6810 0.0005
# 3 -4.7484 0.4211 76.0610 -0.0008 1.2554 0.0002
# 4 -0.0001 -0.0024 -0.0008 17.1318 0.0002 4.3520
# 5 5.2442 -3.6810 1.2554 0.0002 39.4878 0.0000
# 6 0.0000 0.0005 0.0002 4.3520 0.0000 20.5316
#
#
#
# Elastic Compliance Matrix: (Units=1/GPa)
#
#
# Indices 1 2 3 4 5 6 
#
# 1 0.012820 -0.001179 0.000837 0.000000 -0.001839 0.000000
# 2 -0.001179 0.034510 -0.000321 0.000005 0.003384 -0.000002
# 3 0.000837 -0.000321 0.013211 0.000001 -0.000561 0.000000
# 4 0.000000 0.000005 0.000001 0.061693 0.000000 -0.013077
# 5 -0.001839 0.003384 -0.000561 0.000000 0.025902 0.000000
# 6 0.000000 -0.000002 0.000000 -0.013077 0.000000 0.051477
#
#
# Mechanical properties :
#
#
# Convention : Reuss Voigt Hill
#
# Bulk Modulus (GPa) = 16.88749 20.04284 18.46517
# Shear Modulus (GPa) = 22.65766 27.89137 25.27451
#
# Velocity S-wave (km/s) = 3.24914 3.60492 3.43164
# Velocity P-wave (km/s) = 4.68447 5.16390 4.93002
#
# Compressibility (1/GPa) = 0.05921541
#
# Stress axis : x y z
#
# Youngs Moduli (GPa) = 78.00293 28.97728 75.69656
#
# Poissons Ratio (x) = 0.03417 -0.06337
# Poissons Ratio (y) = 0.09198 0.02426
# Poissons Ratio (z) = -0.06531 0.00929
#
# Static dielectric constant tensor:
#      x y z
#    x 1.900650 0.000000 0.034150 
#    y 0.000000 1.978650 0.000000 
#    z 0.034150 0.000000 1.763050 
# 
# From -- ./inp_files/244833.got.cif
#   From: 2010.05.17/outbox.cif.g08.bks.cpg/sg12_123_cif.got.tgz:244833.got - 2010.06.03 13:09:07.
