data_PCOD9219848
_publ_section_title
;
Structure prediction by ZEFSAII (Michael W. Deem and Ramdas Pophale) SiO2 
 PCOD9219848
Probable space group: C 2/M
;
_chemical_formula_sum "Si O2"
_cell_formula_units_Z 44
_cell_length_a 21.204072
_cell_length_b 15.338077
_cell_length_c 16.636417
_cell_angle_alpha 90.000000
_cell_angle_beta 161.401120
_cell_angle_gamma 90.000000
_cell_volume 1725.679091
_symmetry_space_group_name_H-M "C 2/M"
_symmetry_group_IT_number 12
_symmetry_cell_setting 'monoclinic'
loop_
_space_group_symop_operation_xyz
x,y,z
-x,y,-z
-x,-y,-z
x,-y,z
1/2+x,1/2+y,z
1/2-x,1/2+y,-z
1/2-x,1/2-y,-z
1/2+x,1/2-y,z
loop_
_atom_site_type_symbol
_atom_site_label
_atom_site_fract_x
_atom_site_fract_y
_atom_site_fract_z
Si Si1 0.086629 0.638317 0.192337
Si Si2 0.094559 0.500000 0.489640
Si Si3 0.519843 0.669260 0.698925
Si Si4 0.500000 0.754852 0.500000
Si Si5 0.951464 0.363555 0.201696
Si Si6 0.169325 0.000000 0.060711
Si Si7 0.563751 0.333096 0.988901
O O1 0.317976 0.619779 0.471332
O O2 0.983380 0.606581 0.148799
O O3 0.000000 0.614356 0.000000
O O4 0.055419 0.743208 0.163649
O O5 0.097214 0.415200 0.436272
O O6 0.248383 0.500000 0.747451
O O7 0.874588 0.500000 0.261802
O O8 0.514247 0.699723 0.598590
O O9 0.525013 0.759404 0.756459
O O10 0.725949 0.619904 0.955778
O O11 0.297257 0.808853 0.263401
O O12 0.042392 0.087898 0.901109
O O13 0.500000 0.362029 0.000000
#
# Coordination Sequence:
#
# PCOD9219848 Si02
#       7
#     8   4   8   4   8   4   8
#     4  11  22  40  67  97 126 163 226 269 317 381
#     4  11  26  44  65  95 135 177 215 255 331 392
#     4  11  21  38  64  94 125 171 215 269 319 371
#     4  12  18  37  64  89 128 166 218 266 316 377
#     4  11  24  41  63  91 132 171 213 272 319 377
#     4  11  23  42  64  91 141 180 207 252 320 412
#     4  11  21  35  62  98 128 169 215 257 310 383
#
# _framework density 25.497208000000001
#
# number of rings (size 3 to 8) (size 9 to 14) (size 15 to 20)
#    0.000    0.909    5.455    4.091    2.545    0.000 
#    0.000    1.364    0.000    3.818    0.000    0.000 
#    0.000    0.000    0.000    0.000    0.000    0.000 
#
# Total GULP energy -123250.685967 kJ/mol
# GULP energy per Si atom -5602.303908 kJ/mol
# Density = 2.543918 g / cm^3
# Si number density = 25.497208 Si / 1000 Ang^3
#
#
#
# Elastic Constant Matrix: (Units=GPa)
#
#
# Indices 1 2 3 4 5 6 
#
# 1 186.7884 5.1286 45.3577 0.0005 -3.4453 0.0006
# 2 5.1286 54.6655 4.3040 0.0026 -1.9918 0.0014
# 3 45.3577 4.3040 153.2523 0.0010 14.3349 0.0019
# 4 0.0005 0.0026 0.0010 17.1517 0.0005 -3.4124
# 5 -3.4453 -1.9918 14.3349 0.0005 56.7665 0.0011
# 6 0.0006 0.0014 0.0019 -3.4124 0.0011 13.2966
#
#
#
# Elastic Compliance Matrix: (Units=1/GPa)
#
#
# Indices 1 2 3 4 5 6 
#
# 1 0.005812 -0.000376 -0.001783 0.000000 0.000790 0.000000
# 2 -0.000376 0.018393 -0.000475 -0.000003 0.000742 -0.000003
# 3 -0.001783 -0.000475 0.007249 0.000000 -0.001956 -0.000001
# 4 0.000000 -0.000003 0.000000 0.061440 -0.000001 0.015768
# 5 0.000790 0.000742 -0.001956 -0.000001 0.018184 -0.000002
# 6 0.000000 -0.000003 -0.000001 0.015768 -0.000002 0.079254
#
#
# Mechanical properties :
#
#
# Convention : Reuss Voigt Hill
#
# Bulk Modulus (GPa) = 38.18917 56.03185 47.11051
# Shear Modulus (GPa) = 24.47045 40.10403 32.28724
#
# Velocity S-wave (km/s) = 3.10131 3.97026 3.56238
# Velocity P-wave (km/s) = 5.27584 6.56054 5.95295
#
# Compressibility (1/GPa) = 0.02618543
#
# Stress axis : x y z
#
# Youngs Moduli (GPa) = 172.06963 54.36913 137.94530
#
# Poissons Ratio (x) = 0.02045 0.24601
# Poissons Ratio (y) = 0.06471 0.06548
# Poissons Ratio (z) = 0.30686 0.02581
#
# Static dielectric constant tensor:
#      x y z
#    x 1.990710 0.000000 -0.025610 
#    y 0.000000 2.043430 0.000000 
#    z -0.025610 0.000000 1.971500 
# 
# From -- ./inp_files/285825.got.cif
#   From: 2010.05.17/outbox.cif.g08.bks.cpg/sg12_143_cif.got.tgz:285825.got - 2010.06.03 13:09:07.
