data_PCOD9219655
_publ_section_title
;
Structure prediction by ZEFSAII (Michael W. Deem and Ramdas Pophale) SiO2 
 PCOD9219655
Probable space group: C 2/M
;
_chemical_formula_sum "Si O2"
_cell_formula_units_Z 56
_cell_length_a 14.804442
_cell_length_b 8.469513
_cell_length_c 28.251163
_cell_angle_alpha 90.000000
_cell_angle_beta 119.924157
_cell_angle_gamma 90.000000
_cell_volume 3070.074005
_symmetry_space_group_name_H-M "C 2/M"
_symmetry_group_IT_number 12
_symmetry_cell_setting 'monoclinic'
loop_
_space_group_symop_operation_xyz
x,y,z
-x,y,-z
-x,-y,-z
x,-y,z
1/2+x,1/2+y,z
1/2-x,1/2+y,-z
1/2-x,1/2-y,-z
1/2+x,1/2-y,z
loop_
_atom_site_type_symbol
_atom_site_label
_atom_site_fract_x
_atom_site_fract_y
_atom_site_fract_z
Si Si1 0.041023 0.690567 0.647952
Si Si2 0.381114 0.312017 0.143926
Si Si3 0.845102 0.308194 0.933017
Si Si4 0.934578 0.691156 0.054503
Si Si5 0.753650 0.190631 0.350728
Si Si6 0.476360 0.190038 0.735158
Si Si7 0.810298 0.690377 0.561437
O O1 0.043081 0.500000 0.648104
O O2 0.143549 0.750065 0.648489
O O3 0.030820 0.742109 0.700207
O O4 0.931720 0.740777 0.595182
O O5 0.381604 0.500000 0.149079
O O6 0.261945 0.252929 0.118111
O O7 0.410804 0.266598 0.098333
O O8 0.459824 0.243601 0.202813
O O9 0.843374 0.500000 0.933497
O O10 0.949058 0.264759 0.932080
O O11 0.859484 0.258551 0.991533
O O12 0.929456 0.500000 0.057104
O O13 0.644620 0.242438 0.297969
O O14 0.743503 0.240571 0.403130
O O15 0.755413 0.000000 0.350517
O O16 0.474607 0.000000 0.733864
O O17 0.809904 0.500000 0.561042
O O18 0.750000 0.750000 0.500000
#
# Coordination Sequence:
#
# PCOD9219655 Si02
#       7
#     8   8   8   8   8   8   8
#     4   9  19  36  56  76 102 135 172 211 252 293
#     4  11  21  32  49  77 104 125 160 212 256 292
#     4   8  17  33  52  72  97 130 166 200 243 303
#     4   9  17  34  55  71  94 133 169 197 242 306
#     4   9  19  36  56  75 100 135 173 208 248 297
#     4   9  20  38  53  69  98 136 171 204 247 303
#     4   9  19  35  53  78 110 140 169 206 248 296
#
# _framework density 18.240603
#
# number of rings (size 3 to 8) (size 9 to 14) (size 15 to 20)
#    0.000    2.857    0.000    3.429    0.000    4.000 
#    0.000   13.571    0.000    0.000    0.000    0.000 
#    0.000    0.000    0.000    0.000    0.000    0.000 
#
# Total GULP energy -156108.287809 kJ/mol
# GULP energy per Si atom -5575.295993 kJ/mol
# Density = 1.819909 g / cm^3
# Si number density = 18.240603 Si / 1000 Ang^3
#
#
#
# Elastic Constant Matrix: (Units=GPa)
#
#
# Indices 1 2 3 4 5 6 
#
# 1 121.6691 14.3724 42.8318 0.0000 13.8845 0.0000
# 2 14.3724 9.2291 11.6451 0.0000 3.4324 0.0000
# 3 42.8318 11.6451 94.9227 0.0000 21.0054 0.0000
# 4 0.0000 0.0000 0.0000 26.5782 0.0000 -4.4241
# 5 13.8845 3.4324 21.0054 0.0000 13.3737 0.0000
# 6 0.0000 0.0000 0.0000 -4.4241 0.0000 27.0278
#
#
#
# Elastic Compliance Matrix: (Units=1/GPa)
#
#
# Indices 1 2 3 4 5 6 
#
# 1 0.011069 -0.012460 -0.002500 0.000000 -0.004368 0.000000
# 2 -0.012460 0.143616 -0.010273 0.000000 -0.007788 0.000000
# 3 -0.002500 -0.010273 0.018033 0.000000 -0.023092 0.000000
# 4 0.000000 0.000000 0.000000 0.038679 0.000000 0.006331
# 5 -0.004368 -0.007788 -0.023092 0.000000 0.117577 0.000000
# 6 0.000000 0.000000 0.000000 0.006331 0.000000 0.038035
#
#
# Mechanical properties :
#
#
# Convention : Reuss Voigt Hill
#
# Bulk Modulus (GPa) = 8.17972 40.39105 24.28538
# Shear Modulus (GPa) = 10.91167 23.86070 17.38619
#
# Velocity S-wave (km/s) = 2.44848 3.62070 3.09068
# Velocity P-wave (km/s) = 3.53377 6.29848 5.10678
#
# Compressibility (1/GPa) = 0.12225359
#
# Stress axis : x y z
#
# Youngs Moduli (GPa) = 90.34016 6.96301 55.45371
#
# Poissons Ratio (x) = 0.08676 0.13861
# Poissons Ratio (y) = 1.12561 0.56968
# Poissons Ratio (z) = 0.22581 0.07153
#
# Static dielectric constant tensor:
#      x y z
#    x 1.626700 0.000000 0.015760 
#    y 0.000000 1.629060 0.000000 
#    z 0.015760 0.000000 1.613170 
# 
# From -- ./inp_files/359655.got.cif
#   From: 2010.05.17/outbox.cif.g08.bks.cpg/sg12_180_cif.got.tgz:359655.got - 2010.06.03 13:09:07.
