data_PCOD9219948
_publ_section_title
;
Structure prediction by ZEFSAII (Michael W. Deem and Ramdas Pophale) SiO2 
 PCOD9219948
Probable space group: C 2/M
;
_chemical_formula_sum "Si O2"
_cell_formula_units_Z 36
_cell_length_a 13.561751
_cell_length_b 18.586602
_cell_length_c 7.504912
_cell_angle_alpha 90.000000
_cell_angle_beta 62.307441
_cell_angle_gamma 90.000000
_cell_volume 1675.048429
_symmetry_space_group_name_H-M "C 2/M"
_symmetry_group_IT_number 12
_symmetry_cell_setting 'monoclinic'
loop_
_space_group_symop_operation_xyz
x,y,z
-x,y,-z
-x,-y,-z
x,-y,z
1/2+x,1/2+y,z
1/2-x,1/2+y,-z
1/2-x,1/2-y,-z
1/2+x,1/2-y,z
loop_
_atom_site_type_symbol
_atom_site_label
_atom_site_fract_x
_atom_site_fract_y
_atom_site_fract_z
Si Si1 0.707179 0.620134 0.620891
Si Si2 0.025781 0.000000 0.692239
Si Si3 0.117672 0.781587 0.995406
Si Si4 0.867573 0.500000 0.597327
Si Si5 0.723622 0.500000 0.074532
Si Si6 0.275988 0.657499 0.778085
O O1 0.600488 0.568183 0.682593
O O2 0.692936 0.665273 0.812025
O O3 0.815825 0.569813 0.543946
O O4 0.712839 0.668672 0.440692
O O5 0.000000 0.000000 0.500000
O O6 0.904795 0.000000 0.885070
O O7 0.173165 0.703317 0.940059
O O8 0.120875 0.813255 0.191525
O O9 0.000000 0.780677 0.000000
O O10 0.000000 0.500000 0.500000
O O11 0.808793 0.500000 0.840392
O O12 0.736679 0.572658 0.176559
#
# Coordination Sequence:
#
# PCOD9219948 Si02
#       6
#     8   4   8   4   4   8
#     4  11  23  43  69 102 138 175 227 283 343 396
#     4  11  21  36  74 109 129 168 228 285 342 398
#     4  11  25  42  68  99 138 181 225 278 344 398
#     4  11  26  44  67 100 141 186 230 272 338 415
#     4  12  21  43  70  97 139 171 225 290 337 390
#     4  11  24  44  66 100 138 174 229 279 331 426
#
# _framework density 21.491917999999998
#
# number of rings (size 3 to 8) (size 9 to 14) (size 15 to 20)
#    0.000    0.889    4.444    2.667    0.000    2.667 
#    0.000    1.667    0.000    0.000    0.000    0.000 
#    0.000    0.000    0.000    0.000    0.000    0.000 
#
# Total GULP energy -100731.364489 kJ/mol
# GULP energy per Si atom -5596.186916 kJ/mol
# Density = 2.144300 g / cm^3
# Si number density = 21.491918 Si / 1000 Ang^3
#
#
#
# Elastic Constant Matrix: (Units=GPa)
#
#
# Indices 1 2 3 4 5 6 
#
# 1 148.9950 35.9109 37.8531 0.0000 -14.2101 0.0000
# 2 35.9109 108.0531 1.3947 0.0000 -7.7395 0.0000
# 3 37.8531 1.3947 72.9110 0.0000 -0.4009 0.0000
# 4 0.0000 0.0000 0.0000 21.1917 0.0000 7.8001
# 5 -14.2101 -7.7395 -0.4009 0.0000 41.1885 0.0000
# 6 0.0000 0.0000 0.0000 7.8001 0.0000 25.9098
#
#
#
# Elastic Compliance Matrix: (Units=1/GPa)
#
#
# Indices 1 2 3 4 5 6 
#
# 1 0.008723 -0.002665 -0.004464 0.000000 0.002465 0.000000
# 2 -0.002665 0.010197 0.001194 0.000000 0.001008 0.000000
# 3 -0.004464 0.001194 0.016004 0.000000 -0.001160 0.000000
# 4 0.000000 0.000000 0.000000 0.053069 0.000000 -0.015976
# 5 0.002465 0.001008 -0.001160 0.000000 0.025307 0.000000
# 6 0.000000 0.000000 0.000000 -0.015976 0.000000 0.043405
#
#
# Mechanical properties :
#
#
# Convention : Reuss Voigt Hill
#
# Bulk Modulus (GPa) = 43.37661 53.36405 48.37033
# Shear Modulus (GPa) = 28.36711 34.64471 31.50591
#
# Velocity S-wave (km/s) = 3.63698 4.01931 3.83292
# Velocity P-wave (km/s) = 6.15332 6.81348 6.49180
#
# Compressibility (1/GPa) = 0.02305390
#
# Stress axis : x y z
#
# Youngs Moduli (GPa) = 114.63627 98.06622 62.48496
#
# Poissons Ratio (x) = 0.26134 0.27895
# Poissons Ratio (y) = 0.30550 -0.07461
# Poissons Ratio (z) = 0.51177 -0.11709
#
# Static dielectric constant tensor:
#      x y z
#    x 1.776890 0.000000 0.022570 
#    y 0.000000 1.792330 0.000000 
#    z 0.022570 0.000000 1.783090 
# 
# From -- ./inp_files/48459.got.cif
#   From: 2010.05.17/outbox.cif.g08.bks.cpg/sg12_25_cif.got.tgz:48459.got - 2010.06.03 13:09:07.
