data_PCOD9219300
_publ_section_title
;
Structure prediction by ZEFSAII (Michael W. Deem and Ramdas Pophale) SiO2 
 PCOD9219300
Probable space group: C 2/M
;
_chemical_formula_sum "Si O2"
_cell_formula_units_Z 56
_cell_length_a 30.640456
_cell_length_b 18.006452
_cell_length_c 10.223071
_cell_angle_alpha 90.000000
_cell_angle_beta 30.988609
_cell_angle_gamma 90.000000
_cell_volume 2904.025028
_symmetry_space_group_name_H-M "C 2/M"
_symmetry_group_IT_number 12
_symmetry_cell_setting 'monoclinic'
loop_
_space_group_symop_operation_xyz
x,y,z
-x,y,-z
-x,-y,-z
x,-y,z
1/2+x,1/2+y,z
1/2-x,1/2+y,-z
1/2-x,1/2-y,-z
1/2+x,1/2-y,z
loop_
_atom_site_type_symbol
_atom_site_label
_atom_site_fract_x
_atom_site_fract_y
_atom_site_fract_z
Si Si1 0.395938 0.201080 0.418274
Si Si2 0.779780 0.411458 0.304016
Si Si3 0.810917 0.852181 0.713386
Si Si4 0.238924 0.410689 0.170927
Si Si5 0.405244 0.800555 0.080994
Si Si6 0.509167 0.587333 0.828787
Si Si7 0.158750 0.850987 0.843239
O O1 0.339494 0.266570 0.626155
O O2 0.354325 0.123302 0.565925
O O3 0.391613 0.207896 0.271795
O O4 0.494685 0.207926 0.202092
O O5 0.779089 0.500000 0.296227
O O6 0.754569 0.375175 0.231170
O O7 0.868109 0.378659 0.129003
O O8 0.709688 0.385274 0.589846
O O9 0.897427 0.896553 0.460835
O O10 0.775250 0.877108 0.943730
O O11 0.240296 0.500000 0.166445
O O12 0.295617 0.379024 0.144357
O O13 0.349397 0.737256 0.153861
O O14 0.493814 0.500000 0.875423
O O15 0.500000 0.619097 0.000000
O O16 0.437481 0.621193 0.921569
#
# Coordination Sequence:
#
# PCOD9219300 Si02
#       7
#     8   8   8   8   8   8   8
#     4  11  23  44  69  96 129 174 215 270 323 385
#     4  12  23  39  67  99 129 170 220 268 318 379
#     4  12  24  44  65  94 133 173 219 259 324 393
#     4  12  27  44  64  97 137 174 212 264 330 388
#     4  11  23  42  70 100 127 165 224 273 320 377
#     4  11  20  34  62  94 126 163 210 266 318 374
#     4  12  22  41  64  94 130 167 215 268 318 382
#
# _framework density 19.283581000000002
#
# number of rings (size 3 to 8) (size 9 to 14) (size 15 to 20)
#    0.000    0.429    5.714    4.286    0.000    1.143 
#    0.000    5.000    0.000    1.714    0.000    0.000 
#    0.000    0.000    0.000    0.000    0.000    0.000 
#
# Total GULP energy -156616.153856 kJ/mol
# GULP energy per Si atom -5593.434066 kJ/mol
# Density = 1.923969 g / cm^3
# Si number density = 19.283581 Si / 1000 Ang^3
#
#
#
# Elastic Constant Matrix: (Units=GPa)
#
#
# Indices 1 2 3 4 5 6 
#
# 1 79.1036 36.7609 37.5777 0.0000 3.0340 0.0000
# 2 36.7609 92.3470 48.7057 0.0000 -11.6067 0.0000
# 3 37.5777 48.7057 84.7607 0.0000 9.6236 0.0000
# 4 0.0000 0.0000 0.0000 -6.9828 0.0000 11.1210
# 5 3.0340 -11.6067 9.6236 0.0000 30.5409 0.0000
# 6 0.0000 0.0000 0.0000 11.1210 0.0000 5.4445
#
#
#
# Elastic Compliance Matrix: (Units=1/GPa)
#
#
# Indices 1 2 3 4 5 6 
#
# 1 0.017079 -0.004538 -0.004745 0.000000 -0.001926 0.000000
# 2 -0.004538 0.019592 -0.010519 0.000000 0.011211 0.000000
# 3 -0.004745 -0.010519 0.021102 0.000000 -0.010176 0.000000
# 4 0.000000 0.000000 0.000000 -0.033672 0.000000 0.068778
# 5 -0.001926 0.011211 -0.010176 0.000000 0.040401 0.000000
# 6 0.000000 0.000000 0.000000 0.068778 0.000000 0.043185
#
#
# Mechanical properties :
#
#
# Convention : Reuss Voigt Hill
#
# Bulk Modulus (GPa) = 55.04328 55.81112 55.42720
# Shear Modulus (GPa) = 32.60545 14.67833 23.64189
#
# Velocity S-wave (km/s) = 4.11644 2.76195 3.50524
# Velocity P-wave (km/s) = 7.15539 6.25909 6.72220
#
# Compressibility (1/GPa) = 0.01816752
#
# Stress axis : x y z
#
# Youngs Moduli (GPa) = 58.55290 51.04026 47.38919
#
# Poissons Ratio (x) = 0.23161 0.22488
# Poissons Ratio (y) = 0.26570 0.49851
# Poissons Ratio (z) = 0.27786 0.53692
#
# Static dielectric constant tensor:
#      x y z
#    x 1.663290 0.000000 -0.009160 
#    y 0.000000 1.692150 0.000000 
#    z -0.009160 0.000000 1.653320 
# 
# From -- ./inp_files/105960.got.cif
#   From: 2010.05.17/outbox.cif.g08.bks.cpg/sg12_53_cif.got.tgz:105960.got - 2010.06.03 13:09:07.
