data_PCOD9219943
_publ_section_title
;
Structure prediction by ZEFSAII (Michael W. Deem and Ramdas Pophale) SiO2 
 PCOD9219943
Probable space group: C 2/M
;
_chemical_formula_sum "Si O2"
_cell_formula_units_Z 56
_cell_length_a 12.027208
_cell_length_b 20.991553
_cell_length_c 10.913665
_cell_angle_alpha 90.000000
_cell_angle_beta 79.883127
_cell_angle_gamma 90.000000
_cell_volume 2712.528642
_symmetry_space_group_name_H-M "C 2/M"
_symmetry_group_IT_number 12
_symmetry_cell_setting 'monoclinic'
loop_
_space_group_symop_operation_xyz
x,y,z
-x,y,-z
-x,-y,-z
x,-y,z
1/2+x,1/2+y,z
1/2-x,1/2+y,-z
1/2-x,1/2-y,-z
1/2+x,1/2-y,z
loop_
_atom_site_type_symbol
_atom_site_label
_atom_site_fract_x
_atom_site_fract_y
_atom_site_fract_z
Si Si1 0.768229 0.693248 0.819718
Si Si2 0.876023 0.306292 0.067673
Si Si3 0.369286 0.745612 0.561954
Si Si4 0.371299 0.404634 0.549658
Si Si5 0.721119 0.927439 0.813196
Si Si6 0.334723 0.426379 0.285659
Si Si7 0.945716 0.923429 0.887886
O O1 0.671508 0.747185 0.846047
O O2 0.846600 0.719596 0.695158
O O3 0.729660 0.623692 0.784585
O O4 0.814096 0.688887 0.948168
O O5 0.868504 0.371268 0.149967
O O6 0.000000 0.292077 0.000000
O O7 0.500000 0.765851 0.500000
O O8 0.250000 0.750000 0.500000
O O9 0.379764 0.669960 0.575627
O O10 0.500000 0.429071 0.500000
O O11 0.291131 0.430507 0.672555
O O12 0.309660 0.416486 0.432412
O O13 0.820206 0.903660 0.885383
O O14 0.683293 0.000000 0.848331
O O15 0.317053 0.500000 0.253358
O O16 0.467322 0.410948 0.237884
O O17 0.939091 0.000000 0.900953
O O18 0.000000 0.896461 0.000000
#
# Coordination Sequence:
#
# PCOD9219943 Si02
#       7
#     8   8   8   8   8   8   8
#     4  11  25  45  67  96 131 171 221 281 332 410
#     4  11  27  45  68  92 127 175 225 274 336 402
#     4  11  24  42  71 103 135 181 229 281 343 409
#     4  11  21  36  64  98 135 174 220 276 340 407
#     4  11  22  38  61  92 129 168 220 270 326 394
#     4  11  22  37  63  97 134 172 213 272 341 399
#     4   9  18  32  54  86 126 166 205 260 324 386
#
# _framework density 20.644943000000001
#
# number of rings (size 3 to 8) (size 9 to 14) (size 15 to 20)
#    0.000    1.286    4.286    1.286    2.000    5.429 
#    0.000    0.000    0.000    0.429    0.000    0.000 
#    0.000    0.000    0.000    0.000    0.000    0.000 
#
# Total GULP energy -156003.509931 kJ/mol
# GULP energy per Si atom -5571.553926 kJ/mol
# Density = 2.059795 g / cm^3
# Si number density = 20.644943 Si / 1000 Ang^3
#
#
#
# Elastic Constant Matrix: (Units=GPa)
#
#
# Indices 1 2 3 4 5 6 
#
# 1 50.1643 23.2401 27.0928 0.0000 -19.9415 0.0000
# 2 23.2401 123.1825 35.1333 0.0000 -13.1746 0.0000
# 3 27.0928 35.1333 109.8110 0.0000 -16.9124 0.0000
# 4 0.0000 0.0000 0.0000 8.7194 0.0000 -9.5242
# 5 -19.9415 -13.1746 -16.9124 0.0000 37.1456 0.0000
# 6 0.0000 0.0000 0.0000 -9.5242 0.0000 1.3808
#
#
#
# Elastic Compliance Matrix: (Units=1/GPa)
#
#
# Indices 1 2 3 4 5 6 
#
# 1 0.028427 -0.002845 -0.004203 0.000000 0.012338 0.000000
# 2 -0.002845 0.009359 -0.002169 0.000000 0.000805 0.000000
# 3 -0.004203 -0.002169 0.011154 0.000000 0.002053 0.000000
# 4 0.000000 0.000000 0.000000 -0.017551 0.000000 -0.121064
# 5 0.012338 0.000805 0.002053 0.000000 0.034765 0.000000
# 6 0.000000 0.000000 0.000000 -0.121064 0.000000 -0.110834
#
#
# Mechanical properties :
#
#
# Convention : Reuss Voigt Hill
#
# Bulk Modulus (GPa) = 32.77937 50.45447 41.61692
# Shear Modulus (GPa) = -310.97990 22.62859 -144.17566
#
# Velocity S-wave (km/s) = -12.28656 3.31431 -8.36585
# Velocity P-wave (km/s) = 13.61496 6.25607 8.55070
#
# Compressibility (1/GPa) = 0.03050699
#
# Stress axis : x y z
#
# Youngs Moduli (GPa) = 35.17747 106.84497 89.65765
#
# Poissons Ratio (x) = 0.30395 0.37685
# Poissons Ratio (y) = 0.10007 0.19443
# Poissons Ratio (z) = 0.14786 0.23171
#
# Static dielectric constant tensor:
#      x y z
#    x 1.876280 0.000000 0.043870 
#    y 0.000000 1.720380 0.000000 
#    z 0.043870 0.000000 1.778410 
# 
# From -- ./inp_files/133170.got.cif
#   From: 2010.05.17/outbox.cif.g08.bks.cpg/sg12_67_cif.got.tgz:133170.got - 2010.06.03 13:09:07.
