data_PCOD9219281
_publ_section_title
;
Structure prediction by ZEFSAII (Michael W. Deem and Ramdas Pophale) SiO2 
 PCOD9219281
Probable space group: C 2/M
;
_chemical_formula_sum "Si O2"
_cell_formula_units_Z 48
_cell_length_a 26.552366
_cell_length_b 8.645852
_cell_length_c 11.626709
_cell_angle_alpha 90.000000
_cell_angle_beta 91.854384
_cell_angle_gamma 90.000000
_cell_volume 2667.720488
_symmetry_space_group_name_H-M "C 2/M"
_symmetry_group_IT_number 12
_symmetry_cell_setting 'monoclinic'
loop_
_space_group_symop_operation_xyz
x,y,z
-x,y,-z
-x,-y,-z
x,-y,z
1/2+x,1/2+y,z
1/2-x,1/2+y,-z
1/2-x,1/2-y,-z
1/2+x,1/2-y,z
loop_
_atom_site_type_symbol
_atom_site_label
_atom_site_fract_x
_atom_site_fract_y
_atom_site_fract_z
Si Si1 0.561120 0.813666 0.630647
Si Si2 0.658153 0.324785 0.732401
Si Si3 0.053829 0.688349 0.363864
Si Si4 0.196108 0.176665 0.475940
Si Si5 0.245870 0.816167 0.127625
Si Si6 0.150471 0.681063 0.254311
O O1 0.603383 0.753812 0.721664
O O2 0.504219 0.768136 0.660626
O O3 0.567096 0.761727 0.496515
O O4 0.563930 0.000000 0.628702
O O5 0.654912 0.500000 0.776749
O O6 0.671606 0.329643 0.598574
O O7 0.705030 0.242380 0.798169
O O8 0.056205 0.500000 0.365223
O O9 0.093033 0.739996 0.267913
O O10 0.250000 0.250000 0.500000
O O11 0.169736 0.290452 0.385252
O O12 0.198317 0.000000 0.429828
O O13 0.192884 0.761075 0.179521
O O14 0.246680 0.000000 0.126191
O O15 0.250000 0.750000 0.000000
O O16 0.149969 0.500000 0.224497
#
# Coordination Sequence:
#
# PCOD9219281 Si02
#       6
#     8   8   8   8   8   8
#     4   9  16  31  52  79 113 153 190 220 261 318
#     4  11  22  35  53  81 115 148 183 226 274 327
#     4   8  16  29  51  80 114 151 187 221 261 320
#     4  11  21  31  48  77 113 148 183 221 273 331
#     4  12  26  43  61  80 105 141 184 232 283 334
#     4  11  20  34  56  82 113 147 184 227 273 327
#
# _framework density 17.992889000000002
#
# number of rings (size 3 to 8) (size 9 to 14) (size 15 to 20)
#    0.000    1.667    3.333    4.000    0.000    1.333 
#    0.000    3.333    0.000    1.000    0.000    7.000 
#    0.000    0.000    0.000    0.000    0.000    0.000 
#
# Total GULP energy -133706.524330 kJ/mol
# GULP energy per Si atom -5571.105180 kJ/mol
# Density = 1.795194 g / cm^3
# Si number density = 17.992889 Si / 1000 Ang^3
#
#
#
# Elastic Constant Matrix: (Units=GPa)
#
#
# Indices 1 2 3 4 5 6 
#
# 1 168.5486 48.3455 50.6890 0.0000 -17.9437 0.0000
# 2 48.3455 74.5374 26.3088 0.0000 -3.7508 0.0000
# 3 50.6890 26.3088 70.8764 0.0000 -13.8098 0.0000
# 4 0.0000 0.0000 0.0000 24.0782 0.0000 1.3632
# 5 -17.9437 -3.7508 -13.8098 0.0000 10.7345 0.0000
# 6 0.0000 0.0000 0.0000 1.3632 0.0000 22.9683
#
#
#
# Elastic Compliance Matrix: (Units=1/GPa)
#
#
# Indices 1 2 3 4 5 6 
#
# 1 0.009141 -0.004378 -0.002980 0.000000 0.009916 0.000000
# 2 -0.004378 0.017592 -0.004841 0.000000 -0.007398 0.000000
# 3 -0.002980 -0.004841 0.022336 0.000000 0.022062 0.000000
# 4 0.000000 0.000000 0.000000 0.041671 0.000000 -0.002473
# 5 0.009916 -0.007398 0.022062 0.000000 0.135530 0.000000
# 6 0.000000 0.000000 0.000000 -0.002473 0.000000 0.043685
#
#
# Mechanical properties :
#
#
# Convention : Reuss Voigt Hill
#
# Bulk Modulus (GPa) = 40.53308 62.73876 51.63592
# Shear Modulus (GPa) = 16.52482 24.13083 20.32783
#
# Velocity S-wave (km/s) = 3.03381 3.66612 3.36485
# Velocity P-wave (km/s) = 5.90324 7.27083 6.62243
#
# Compressibility (1/GPa) = 0.02467121
#
# Stress axis : x y z
#
# Youngs Moduli (GPa) = 109.40228 56.84466 44.77138
#
# Poissons Ratio (x) = 0.24886 0.13342
# Poissons Ratio (y) = 0.47894 0.21672
# Poissons Ratio (z) = 0.32602 0.27516
#
# Static dielectric constant tensor:
#      x y z
#    x 1.688660 0.000000 -0.016080 
#    y 0.000000 1.636720 0.000000 
#    z -0.016080 0.000000 1.597170 
# 
# From -- ./inp_files/179285.got.cif
#   From: 2010.05.17/outbox.cif.g08.bks.cpg/sg12_90_cif.got.tgz:179285.got - 2010.06.03 13:09:07.
