data_PCOD9219908
_publ_section_title
;
Structure prediction by ZEFSAII (Michael W. Deem and Ramdas Pophale) SiO2 
 PCOD9219908
Probable space group: C 2/M
;
_chemical_formula_sum "Si O2"
_cell_formula_units_Z 48
_cell_length_a 14.937479
_cell_length_b 13.648553
_cell_length_c 12.549469
_cell_angle_alpha 90.000000
_cell_angle_beta 95.596536
_cell_angle_gamma 90.000000
_cell_volume 2546.326948
_symmetry_space_group_name_H-M "C 2/M"
_symmetry_group_IT_number 12
_symmetry_cell_setting 'monoclinic'
loop_
_space_group_symop_operation_xyz
x,y,z
-x,y,-z
-x,-y,-z
x,-y,z
1/2+x,1/2+y,z
1/2-x,1/2+y,-z
1/2-x,1/2-y,-z
1/2+x,1/2-y,z
loop_
_atom_site_type_symbol
_atom_site_label
_atom_site_fract_x
_atom_site_fract_y
_atom_site_fract_z
Si Si1 0.628253 0.112705 0.423085
Si Si2 0.656273 0.759350 0.847036
Si Si3 0.584042 0.110375 0.652907
Si Si4 0.394004 0.108384 0.966065
Si Si5 0.648105 0.235087 0.226839
Si Si6 0.495431 0.384385 0.127846
O O1 0.635937 0.136089 0.549563
O O2 0.521345 0.110257 0.386732
O O3 0.662942 0.196983 0.348474
O O4 0.661476 0.000000 0.409338
O O5 0.601333 0.820531 0.753362
O O6 0.756845 0.759660 0.815331
O O7 0.602596 0.657258 0.850741
O O8 0.650258 0.814259 0.959317
O O9 0.610564 0.000000 0.685756
O O10 0.383900 0.140391 0.843505
O O11 0.357492 0.000000 0.981106
O O12 0.500000 0.108917 0.000000
O O13 0.573625 0.319311 0.194182
O O14 0.505629 0.500000 0.151010
O O15 0.500000 0.369474 0.000000
#
# Coordination Sequence:
#
# PCOD9219908 Si02
#       6
#     8   8   8   8   8   8
#     4   9  18  35  61  87 111 142 183 239 298 343
#     4  12  22  37  59  85 117 153 196 235 285 348
#     4   9  18  35  61  87 111 142 183 239 298 343
#     4  11  21  36  60  87 114 142 180 246 304 338
#     4  12  22  37  59  85 117 153 196 235 285 348
#     4  11  24  42  57  78 121 165 198 232 282 348
#
# _framework density 18.850681999999999
#
# number of rings (size 3 to 8) (size 9 to 14) (size 15 to 20)
#    0.000    1.333    5.000    2.500    0.000    6.000 
#    0.000    0.000    0.000    2.000    0.000    0.000 
#    0.000    0.000    0.000    0.000    0.000    0.000 
#
# Total GULP energy -133887.240439 kJ/mol
# GULP energy per Si atom -5578.635018 kJ/mol
# Density = 1.880778 g / cm^3
# Si number density = 18.850682 Si / 1000 Ang^3
#
#
#
# Elastic Constant Matrix: (Units=GPa)
#
#
# Indices 1 2 3 4 5 6 
#
# 1 40.5325 16.5305 -13.3467 0.0000 -16.5300 0.0000
# 2 16.5305 89.4964 28.0054 0.0000 -16.5016 0.0000
# 3 -13.3467 28.0054 66.2142 0.0000 -10.4263 0.0000
# 4 0.0000 0.0000 0.0000 23.4399 0.0000 -5.9296
# 5 -16.5300 -16.5016 -10.4263 0.0000 23.4059 0.0000
# 6 0.0000 0.0000 0.0000 -5.9296 0.0000 4.1705
#
#
#
# Elastic Compliance Matrix: (Units=1/GPa)
#
#
# Indices 1 2 3 4 5 6 
#
# 1 0.050197 -0.008368 0.019692 0.000000 0.038324 0.000000
# 2 -0.008368 0.015493 -0.008012 0.000000 0.001444 0.000000
# 3 0.019692 -0.008012 0.025553 0.000000 0.019641 0.000000
# 4 0.000000 0.000000 0.000000 0.066625 0.000000 0.094726
# 5 0.038324 0.001444 0.019641 0.000000 0.079557 0.000000
# 6 0.000000 0.000000 0.000000 0.094726 0.000000 0.374457
#
#
# Mechanical properties :
#
#
# Convention : Reuss Voigt Hill
#
# Bulk Modulus (GPa) = 10.21783 28.73571 19.47677
# Shear Modulus (GPa) = 7.83846 21.20687 14.52267
#
# Velocity S-wave (km/s) = 2.04137 3.35773 2.77863
# Velocity P-wave (km/s) = 3.31488 5.50540 4.54411
#
# Compressibility (1/GPa) = 0.09786810
#
# Stress axis : x y z
#
# Youngs Moduli (GPa) = 19.92132 64.54728 39.13414
#
# Poissons Ratio (x) = 0.54010 -0.77062
# Poissons Ratio (y) = 0.16669 0.31354
# Poissons Ratio (z) = -0.39229 0.51714
#
# Static dielectric constant tensor:
#      x y z
#    x 1.691920 0.000000 -0.009340 
#    y 0.000000 1.663390 0.000000 
#    z -0.009340 0.000000 1.667000 
# 
# From -- ./inp_files/142843.got.cif
#   From: 2010.05.17/outbox.cif.g08.bks.cpg/sg12_72_cif.got.tgz:142843.got - 2010.06.03 13:09:07.
