data_PCOD9219155
_publ_section_title
;
Structure prediction by ZEFSAII (Michael W. Deem and Ramdas Pophale) SiO2 
 PCOD9219155
Probable space group: C 2/M
;
_chemical_formula_sum "Si O2"
_cell_formula_units_Z 56
_cell_length_a 20.176499
_cell_length_b 7.692752
_cell_length_c 25.568009
_cell_angle_alpha 90.000000
_cell_angle_beta 46.306721
_cell_angle_gamma 90.000000
_cell_volume 2869.403952
_symmetry_space_group_name_H-M "C 2/M"
_symmetry_group_IT_number 12
_symmetry_cell_setting 'monoclinic'
loop_
_space_group_symop_operation_xyz
x,y,z
-x,y,-z
-x,-y,-z
x,-y,z
1/2+x,1/2+y,z
1/2-x,1/2+y,-z
1/2-x,1/2-y,-z
1/2+x,1/2-y,z
loop_
_atom_site_type_symbol
_atom_site_label
_atom_site_fract_x
_atom_site_fract_y
_atom_site_fract_z
Si Si1 0.639572 0.710376 0.896699
Si Si2 0.192006 0.201298 0.267838
Si Si3 0.475991 0.713197 0.705832
Si Si4 0.556398 0.288482 0.047184
Si Si5 0.303554 0.706366 0.307457
Si Si6 0.012164 0.212344 0.182845
Si Si7 0.315119 0.291560 0.416407
O O1 0.644581 0.500000 0.892733
O O2 0.727120 0.778888 0.818685
O O3 0.545535 0.757973 0.917862
O O4 0.626651 0.768630 0.963840
O O5 0.230738 0.265917 0.301739
O O6 0.100204 0.279078 0.292768
O O7 0.173121 0.000000 0.286405
O O8 0.474726 0.500000 0.706350
O O9 0.455433 0.765629 0.777141
O O10 0.579424 0.768444 0.635713
O O11 0.559572 0.500000 0.045381
O O12 0.565515 0.228653 0.101940
O O13 0.314257 0.500000 0.306138
O O14 0.405539 0.769741 0.236408
O O15 0.280953 0.772655 0.378009
O O16 0.013490 0.000000 0.181312
O O17 0.319040 0.500000 0.412004
O O18 0.250000 0.250000 0.500000
#
# Coordination Sequence:
#
# PCOD9219155 Si02
#       7
#     8   8   8   8   8   8   8
#     4   9  16  27  44  68  94 121 161 207 242 277
#     4  11  20  30  45  70 101 130 157 191 239 288
#     4   8  17  31  47  69  98 129 158 187 231 291
#     4   8  13  23  45  70  87 115 166 212 238 270
#     4   9  17  31  53  74  92 122 163 199 229 270
#     4   8  12  25  49  69  84 116 169 209 225 263
#     4   9  18  35  58  79  97 121 156 195 232 275
#
# _framework density 19.516247
#
# number of rings (size 3 to 8) (size 9 to 14) (size 15 to 20)
#    0.000    3.143    1.429    3.000    0.000    0.571 
#    0.000    4.286    0.000    6.000    0.000    0.000 
#    0.000    0.000    0.000    0.000    0.000    0.000 
#
# Total GULP energy -155993.116649 kJ/mol
# GULP energy per Si atom -5571.182737 kJ/mol
# Density = 1.947183 g / cm^3
# Si number density = 19.516247 Si / 1000 Ang^3
#
#
#
# Elastic Constant Matrix: (Units=GPa)
#
#
# Indices 1 2 3 4 5 6 
#
# 1 132.2767 1.8361 65.9748 -0.0002 20.8375 0.0012
# 2 1.8361 25.6097 -2.6006 0.0001 2.4993 0.0034
# 3 65.9748 -2.6006 132.8406 0.0002 28.2437 0.0007
# 4 -0.0002 0.0001 0.0002 19.1231 -0.0002 0.1438
# 5 20.8375 2.4993 28.2437 -0.0002 21.6559 0.0001
# 6 0.0012 0.0034 0.0007 0.1438 0.0001 12.8262
#
#
#
# Elastic Compliance Matrix: (Units=1/GPa)
#
#
# Indices 1 2 3 4 5 6 
#
# 1 0.010372 -0.000748 -0.004237 0.000000 -0.004367 -0.000001
# 2 -0.000748 0.040112 0.002751 0.000000 -0.007497 -0.000011
# 3 -0.004237 0.002751 0.012296 0.000000 -0.012277 -0.000001
# 4 0.000000 0.000000 0.000000 0.052297 0.000001 -0.000586
# 5 -0.004367 -0.007497 -0.012277 0.000001 0.067256 0.000003
# 6 -0.000001 -0.000011 -0.000001 -0.000586 0.000003 0.077972
#
#
# Mechanical properties :
#
#
# Convention : Reuss Voigt Hill
#
# Bulk Modulus (GPa) = 17.14912 46.79418 31.97165
# Shear Modulus (GPa) = 17.59254 25.75548 21.67401
#
# Velocity S-wave (km/s) = 3.00564 3.63670 3.33613
# Velocity P-wave (km/s) = 4.56633 6.45470 5.59082
#
# Compressibility (1/GPa) = 0.05831204
#
# Stress axis : x y z
#
# Youngs Moduli (GPa) = 96.41730 24.92996 81.32502
#
# Poissons Ratio (x) = 0.01864 0.34458
# Poissons Ratio (y) = 0.07209 -0.22369
# Poissons Ratio (z) = 0.40853 -0.06857
#
# Static dielectric constant tensor:
#      x y z
#    x 1.706020 0.000000 0.030590 
#    y 0.000000 1.733050 0.000000 
#    z 0.030590 0.000000 1.684280 
# 
# From -- ./inp_files/345475.got.cif
#   From: 2010.05.17/outbox.cif.g08.bks.cpg/sg12_173_cif.got.tgz:345475.got - 2010.06.03 13:09:07.
