data_PCOD9219004
_publ_section_title
;
Structure prediction by ZEFSAII (Michael W. Deem and Ramdas Pophale) SiO2 
 PCOD9219004
Probable space group: C 2/M
;
_chemical_formula_sum "Si O2"
_cell_formula_units_Z 64
_cell_length_a 19.492674
_cell_length_b 20.009374
_cell_length_c 23.196127
_cell_angle_alpha 90.000000
_cell_angle_beta 23.436637
_cell_angle_gamma 90.000000
_cell_volume 3598.436410
_symmetry_space_group_name_H-M "C 2/M"
_symmetry_group_IT_number 12
_symmetry_cell_setting 'monoclinic'
loop_
_space_group_symop_operation_xyz
x,y,z
-x,y,-z
-x,-y,-z
x,-y,z
1/2+x,1/2+y,z
1/2-x,1/2+y,-z
1/2-x,1/2-y,-z
1/2+x,1/2-y,z
loop_
_atom_site_type_symbol
_atom_site_label
_atom_site_fract_x
_atom_site_fract_y
_atom_site_fract_z
Si Si1 0.945656 0.880951 0.603179
Si Si2 0.504066 0.424519 0.304108
Si Si3 0.167317 0.767047 0.902792
Si Si4 0.852869 0.296341 0.877862
Si Si5 0.679834 0.705102 0.604743
Si Si6 0.042028 0.628550 0.908609
Si Si7 0.009163 0.266795 0.559282
Si Si8 0.156885 0.425097 0.038533
O O1 0.745467 0.859314 0.751676
O O2 0.000000 0.914004 0.500000
O O3 0.964509 0.915654 0.651166
O O4 0.054129 0.812313 0.523822
O O5 0.437360 0.500000 0.346408
O O6 0.388934 0.364317 0.368299
O O7 0.678426 0.417995 0.131388
O O8 0.253522 0.796774 0.893561
O O9 0.328548 0.769121 0.733802
O O10 0.000000 0.798716 0.000000
O O11 0.082366 0.694889 0.989352
O O12 0.855719 0.369802 0.902581
O O13 0.029860 0.254686 0.741463
O O14 0.750000 0.250000 0.000000
O O15 0.750000 0.750000 0.500000
O O16 0.835514 0.695373 0.529145
O O17 0.998614 0.588686 0.885209
O O18 0.000000 0.589649 0.000000
O O19 0.000000 0.288369 0.500000
O O20 0.156359 0.500000 0.061988
#
# Coordination Sequence:
#
# PCOD9219004 Si02
#       8
#     8   8   8   8   8   8   8   8
#     4  11  22  35  55  88 125 165 204 247 297 362
#     4  11  23  42  61  86 125 168 207 251 305 368
#     4  11  21  37  59  91 124 156 204 256 308 360
#     4  12  23  38  65  91 120 163 210 257 302 357
#     4  12  23  40  64  92 124 163 208 258 308 362
#     4  11  19  34  58  84 124 162 206 241 293 366
#     4  11  23  36  60  91 124 156 203 260 307 357
#     4  11  24  39  60  91 123 164 210 253 305 363
#
# _framework density 17.785502999999999
#
# number of rings (size 3 to 8) (size 9 to 14) (size 15 to 20)
#    0.000    0.750    8.750    0.000    5.250    1.000 
#    0.000    1.875    0.000    0.750    0.000    0.000 
#    0.000    0.000    0.000    0.000    0.000    0.000 
#
# Total GULP energy -178183.576500 kJ/mol
# GULP energy per Si atom -5568.236766 kJ/mol
# Density = 1.774502 g / cm^3
# Si number density = 17.785503 Si / 1000 Ang^3
#
#
#
# Elastic Constant Matrix: (Units=GPa)
#
#
# Indices 1 2 3 4 5 6 
#
# 1 145.5542 58.5781 56.1128 -0.0016 0.9751 -0.0015
# 2 58.5781 117.8017 42.9701 -0.0163 -3.9892 0.0027
# 3 56.1128 42.9701 115.0113 -0.0117 5.8560 0.0004
# 4 -0.0016 -0.0163 -0.0117 12.2115 0.0097 2.1375
# 5 0.9751 -3.9892 5.8560 0.0097 32.7186 0.0000
# 6 -0.0015 0.0027 0.0004 2.1375 0.0000 10.5114
#
#
#
# Elastic Compliance Matrix: (Units=1/GPa)
#
#
# Indices 1 2 3 4 5 6 
#
# 1 0.009591 -0.003553 -0.003346 -0.000007 -0.000120 0.000004
# 2 -0.003553 0.011259 -0.002572 0.000012 0.001939 -0.000006
# 3 -0.003346 -0.002572 0.011403 0.000009 -0.002255 -0.000002
# 4 -0.000007 0.000012 0.000009 0.084912 -0.000025 -0.017267
# 5 -0.000120 0.001939 -0.002255 -0.000025 0.031207 0.000005
# 6 0.000004 -0.000006 -0.000002 -0.017267 0.000005 0.098646
#
#
# Mechanical properties :
#
#
# Convention : Reuss Voigt Hill
#
# Bulk Modulus (GPa) = 75.12066 77.07657 76.09862
# Shear Modulus (GPa) = 18.49134 25.80205 22.14669
#
# Velocity S-wave (km/s) = 3.22791 3.81298 3.53258
# Velocity P-wave (km/s) = 7.49809 7.92565 7.71483
#
# Compressibility (1/GPa) = 0.01331192
#
# Stress axis : x y z
#
# Youngs Moduli (GPa) = 104.26759 88.81516 87.69695
#
# Poissons Ratio (x) = 0.31554 0.29341
# Poissons Ratio (y) = 0.37044 0.22556
# Poissons Ratio (z) = 0.34885 0.22844
#
# Static dielectric constant tensor:
#      x y z
#    x 1.590330 0.000000 0.003780 
#    y 0.000000 1.610820 0.000020 
#    z 0.003780 0.000020 1.622550 
# 
# From -- ./inp_files/347860.got.cif
#   From: 2010.05.17/outbox.cif.g08.bks.cpg/sg12_174_cif.got.tgz:347860.got - 2010.06.03 13:09:07.
