data_PCOD9219550
_publ_section_title
;
Structure prediction by ZEFSAII (Michael W. Deem and Ramdas Pophale) SiO2 
 PCOD9219550
Probable space group: C 2/M
;
_chemical_formula_sum "Si O2"
_cell_formula_units_Z 24
_cell_length_a 8.818261
_cell_length_b 15.050899
_cell_length_c 8.009751
_cell_angle_alpha 90.000000
_cell_angle_beta 87.098139
_cell_angle_gamma 90.000000
_cell_volume 1061.713056
_symmetry_space_group_name_H-M "C 2/M"
_symmetry_group_IT_number 12
_symmetry_cell_setting 'monoclinic'
loop_
_space_group_symop_operation_xyz
x,y,z
-x,y,-z
-x,-y,-z
x,-y,z
1/2+x,1/2+y,z
1/2-x,1/2+y,-z
1/2-x,1/2-y,-z
1/2+x,1/2-y,z
loop_
_atom_site_type_symbol
_atom_site_label
_atom_site_fract_x
_atom_site_fract_y
_atom_site_fract_z
Si Si1 0.774673 0.653310 0.074814
Si Si2 0.532757 0.097005 0.248783
Si Si3 0.922850 0.000000 0.769488
Si Si4 0.763346 0.000000 0.420767
O O1 0.636265 0.590165 0.137609
O O2 0.894668 0.662979 0.222440
O O3 0.750000 0.750000 0.000000
O O4 0.860868 0.604905 0.918731
O O5 0.455980 0.000000 0.247204
O O6 0.650841 0.084494 0.394333
O O7 0.844665 0.000000 0.591684
O O8 0.102615 0.000000 0.724273
#
# Coordination Sequence:
#
# PCOD9219550 Si02
#       4
#     8   8   4   4
#     4  11  21  35  65  92 125 164 211 266 312 375
#     4   9  19  41  58  88 124 162 210 257 317 367
#     4  11  20  41  58 100 128 163 220 251 322 376
#     4   9  22  35  68  86 130 177 196 267 318 375
#
# _framework density 22.604977999999999
#
# number of rings (size 3 to 8) (size 9 to 14) (size 15 to 20)
#    1.000    1.000    3.333    1.000    0.000   10.667 
#    0.000    1.667    0.000    0.000    0.000    0.000 
#    0.000    0.000    0.000    0.000    0.000    0.167 
#
# Total GULP energy -66808.219563 kJ/mol
# GULP energy per Si atom -5567.351630 kJ/mol
# Density = 2.255353 g / cm^3
# Si number density = 22.604978 Si / 1000 Ang^3
#
#
#
# Elastic Constant Matrix: (Units=GPa)
#
#
# Indices 1 2 3 4 5 6 
#
# 1 143.0103 62.8836 34.8600 0.0000 4.2869 0.0000
# 2 62.8836 126.6474 37.2718 0.0000 10.1180 0.0000
# 3 34.8600 37.2718 87.7631 0.0000 25.7321 0.0000
# 4 0.0000 0.0000 0.0000 25.8976 0.0000 14.4595
# 5 4.2869 10.1180 25.7321 0.0000 54.6742 0.0000
# 6 0.0000 0.0000 0.0000 14.4595 0.0000 4.4969
#
#
#
# Elastic Compliance Matrix: (Units=1/GPa)
#
#
# Indices 1 2 3 4 5 6 
#
# 1 0.009290 -0.004022 -0.002304 0.000000 0.001101 0.000000
# 2 -0.004022 0.010767 -0.002880 0.000000 -0.000321 0.000000
# 3 -0.002304 -0.002880 0.015457 0.000000 -0.006561 0.000000
# 4 0.000000 0.000000 0.000000 -0.048553 0.000000 0.156120
# 5 0.001101 -0.000321 -0.006561 0.000000 0.021351 0.000000
# 6 0.000000 0.000000 0.000000 0.156120 0.000000 -0.279618
#
#
# Mechanical properties :
#
#
# Convention : Reuss Voigt Hill
#
# Bulk Modulus (GPa) = 58.48484 69.71684 64.10084
# Shear Modulus (GPa) = -20.22708 31.84075 5.80683
#
# Velocity S-wave (km/s) = -2.99458 3.75717 1.60450
# Velocity P-wave (km/s) = 3.73792 7.05195 5.64367
#
# Compressibility (1/GPa) = 0.01709845
#
# Stress axis : x y z
#
# Youngs Moduli (GPa) = 107.64306 92.88019 64.69755
#
# Poissons Ratio (x) = 0.37361 0.14909
# Poissons Ratio (y) = 0.43299 0.18636
# Poissons Ratio (z) = 0.24806 0.26753
#
# Static dielectric constant tensor:
#      x y z
#    x 1.940220 0.000000 0.026350 
#    y 0.000000 1.859780 0.000000 
#    z 0.026350 0.000000 1.932320 
# 
# From -- ./inp_files/44216.got.cif
#   From: 2010.05.17/outbox.cif.g08.bks.cpg/sg12_23_cif.got.tgz:44216.got - 2010.06.03 13:09:07.
