data_PCOD9219675
_publ_section_title
;
Structure prediction by ZEFSAII (Michael W. Deem and Ramdas Pophale) SiO2 
 PCOD9219675
Probable space group: C 2/M
;
_chemical_formula_sum "Si O2"
_cell_formula_units_Z 48
_cell_length_a 18.920290
_cell_length_b 8.682402
_cell_length_c 25.048097
_cell_angle_alpha 90.000000
_cell_angle_beta 41.789013
_cell_angle_gamma 90.000000
_cell_volume 2742.019662
_symmetry_space_group_name_H-M "C 2/M"
_symmetry_group_IT_number 12
_symmetry_cell_setting 'monoclinic'
loop_
_space_group_symop_operation_xyz
x,y,z
-x,y,-z
-x,-y,-z
x,-y,z
1/2+x,1/2+y,z
1/2-x,1/2+y,-z
1/2-x,1/2-y,-z
1/2+x,1/2-y,z
loop_
_atom_site_type_symbol
_atom_site_label
_atom_site_fract_x
_atom_site_fract_y
_atom_site_fract_z
Si Si1 0.160755 0.817374 0.011490
Si Si2 0.367943 0.815358 0.422890
Si Si3 0.127826 0.321606 0.919288
Si Si4 0.585998 0.314121 0.495059
Si Si5 0.674183 0.812930 0.668112
Si Si6 0.426723 0.812673 0.164075
O O1 0.178330 0.770680 0.939583
O O2 0.158322 0.000000 0.017442
O O3 0.250000 0.750000 0.000000
O O4 0.046054 0.748958 0.091925
O O5 0.250000 0.750000 0.500000
O O6 0.435584 0.750094 0.433646
O O7 0.391060 0.769598 0.348593
O O8 0.365639 0.000000 0.426992
O O9 0.161113 0.500000 0.904491
O O10 0.138981 0.265958 0.852021
O O11 0.000000 0.317678 0.000000
O O12 0.500000 0.266196 0.500000
O O13 0.586357 0.500000 0.498049
O O14 0.703776 0.264812 0.409813
O O15 0.625869 0.760305 0.751117
O O16 0.674954 0.000000 0.669475
O O17 0.431165 0.000000 0.160425
#
# Coordination Sequence:
#
# PCOD9219675 Si02
#       6
#     8   8   8   8   8   8
#     4  11  21  33  50  71  96 124 157 195 235 279
#     4   9  16  28  47  69  94 125 161 195 232 281
#     4   8  15  29  49  70  92 122 157 190 228 278
#     4   9  17  30  48  70  97 128 162 197 234 278
#     4   8  15  29  49  70  93 126 160 192 235 281
#     4   9  17  32  52  71  95 125 157 193 235 283
#
# _framework density 17.505344999999998
#
# number of rings (size 3 to 8) (size 9 to 14) (size 15 to 20)
#    0.000    3.000    0.000    4.000    0.000    3.333 
#    0.000    5.833    0.000    2.000    0.000    0.000 
#    0.000    0.000    0.000    0.000    0.000    0.000 
#
# Total GULP energy -133619.817763 kJ/mol
# GULP energy per Si atom -5567.492407 kJ/mol
# Density = 1.746550 g / cm^3
# Si number density = 17.505345 Si / 1000 Ang^3
#
#
#
# Elastic Constant Matrix: (Units=GPa)
#
#
# Indices 1 2 3 4 5 6 
#
# 1 160.3009 39.3055 64.5520 0.0000 40.7193 0.0000
# 2 39.3055 35.4121 19.6350 0.0000 10.9458 0.0000
# 3 64.5520 19.6350 99.4538 0.0000 42.7758 0.0000
# 4 0.0000 0.0000 0.0000 15.6501 0.0000 5.8189
# 5 40.7193 10.9458 42.7758 0.0000 33.3268 0.0000
# 6 0.0000 0.0000 0.0000 5.8189 0.0000 27.7294
#
#
#
# Elastic Compliance Matrix: (Units=1/GPa)
#
#
# Indices 1 2 3 4 5 6 
#
# 1 0.011358 -0.008903 -0.002017 0.000000 -0.008365 0.000000
# 2 -0.008903 0.039116 -0.002449 0.000000 0.001174 0.000000
# 3 -0.002017 -0.002449 0.023310 0.000000 -0.026651 0.000000
# 4 0.000000 0.000000 0.000000 0.069305 0.000000 -0.014543
# 5 -0.008365 0.001174 -0.026651 0.000000 0.074048 0.000000
# 6 0.000000 0.000000 0.000000 -0.014543 0.000000 0.039115
#
#
# Mechanical properties :
#
#
# Convention : Reuss Voigt Hill
#
# Bulk Modulus (GPa) = 21.25536 60.23911 40.74724
# Shear Modulus (GPa) = 16.74084 26.78624 21.76354
#
# Velocity S-wave (km/s) = 3.09581 3.91599 3.52980
# Velocity P-wave (km/s) = 4.99473 7.41169 6.31983
#
# Compressibility (1/GPa) = 0.04704695
#
# Stress axis : x y z
#
# Youngs Moduli (GPa) = 88.04114 25.56499 42.90029
#
# Poissons Ratio (x) = 0.22761 0.08651
# Poissons Ratio (y) = 0.78386 0.10505
# Poissons Ratio (z) = 0.17754 0.06260
#
# Static dielectric constant tensor:
#      x y z
#    x 1.617850 0.000000 0.035970 
#    y 0.000000 1.592070 0.000000 
#    z 0.035970 0.000000 1.612000 
# 
# From -- ./inp_files/341903.got.cif
#   From: 2010.05.17/outbox.cif.g08.bks.cpg/sg12_171_cif.got.tgz:341903.got - 2010.06.03 13:09:07.
