data_PCOD9219827
_publ_section_title
;
Structure prediction by ZEFSAII (Michael W. Deem and Ramdas Pophale) SiO2 
 PCOD9219827
Probable space group: C 2/M
;
_chemical_formula_sum "Si O2"
_cell_formula_units_Z 56
_cell_length_a 23.612031
_cell_length_b 27.381984
_cell_length_c 11.418133
_cell_angle_alpha 90.000000
_cell_angle_beta 23.239434
_cell_angle_gamma 90.000000
_cell_volume 2912.877861
_symmetry_space_group_name_H-M "C 2/M"
_symmetry_group_IT_number 12
_symmetry_cell_setting 'monoclinic'
loop_
_space_group_symop_operation_xyz
x,y,z
-x,y,-z
-x,-y,-z
x,-y,z
1/2+x,1/2+y,z
1/2-x,1/2+y,-z
1/2-x,1/2-y,-z
1/2+x,1/2-y,z
loop_
_atom_site_type_symbol
_atom_site_label
_atom_site_fract_x
_atom_site_fract_y
_atom_site_fract_z
Si Si1 0.692612 0.375309 0.316779
Si Si2 0.866020 0.233628 0.182106
Si Si3 0.169500 0.596268 0.187715
Si Si4 0.939607 0.655598 0.988457
Si Si5 0.050077 0.053713 0.268903
Si Si6 0.861608 0.226875 0.695159
Si Si7 0.330322 0.178610 0.626098
O O1 0.540913 0.402789 0.617936
O O2 0.685689 0.318733 0.291518
O O3 0.772826 0.399938 0.054093
O O4 0.796339 0.373765 0.230667
O O5 0.750000 0.250000 0.500000
O O6 0.798916 0.197986 0.211419
O O7 0.914058 0.285668 0.037726
O O8 0.000000 0.212074 0.000000
O O9 0.197012 0.647128 0.205402
O O10 0.000000 0.585990 0.500000
O O11 0.278565 0.561140 0.050164
O O12 0.059631 0.648015 0.661519
O O13 0.000000 0.642989 0.000000
O O14 0.000000 0.055096 0.500000
O O15 0.014264 0.000000 0.289536
O O16 0.902937 0.271665 0.533377
O O17 0.000000 0.208729 0.500000
O O18 0.750000 0.250000 0.000000
#
# Coordination Sequence:
#
# PCOD9219827 Si02
#       7
#     8   8   8   8   8   8   8
#     4  11  21  37  58  82 119 152 195 239 289 353
#     4  11  22  36  51  73 114 164 208 243 273 330
#     4  11  21  35  58  88 118 151 184 238 297 351
#     4  11  22  37  54  78 112 156 200 244 282 342
#     4   9  21  40  61  88 118 149 191 242 297 357
#     4  12  23  32  48  81 117 159 189 223 284 343
#     4  12  22  34  54  81 122 153 197 243 283 341
#
# _framework density 19.224974
#
# number of rings (size 3 to 8) (size 9 to 14) (size 15 to 20)
#    0.000    1.000    7.143    2.571    0.000    1.429 
#    0.000    0.000    0.000    0.429    0.000    1.000 
#    0.000    0.000    0.000    0.000    0.000    0.000 
#
# Total GULP energy -156187.148643 kJ/mol
# GULP energy per Si atom -5578.112452 kJ/mol
# Density = 1.918122 g / cm^3
# Si number density = 19.224974 Si / 1000 Ang^3
#
#
#
# Elastic Constant Matrix: (Units=GPa)
#
#
# Indices 1 2 3 4 5 6 
#
# 1 102.9327 17.0292 33.8861 0.0034 -32.6655 -0.0023
# 2 17.0292 58.6061 9.9535 0.0017 -11.8850 -0.0021
# 3 33.8861 9.9535 70.6043 0.0124 -20.7283 -0.0010
# 4 0.0034 0.0017 0.0124 13.2120 -0.0029 -9.2754
# 5 -32.6655 -11.8850 -20.7283 -0.0029 35.5635 0.0025
# 6 -0.0023 -0.0021 -0.0010 -9.2754 0.0025 7.9130
#
#
#
# Elastic Compliance Matrix: (Units=1/GPa)
#
#
# Indices 1 2 3 4 5 6 
#
# 1 0.014569 -0.001429 -0.003622 0.000013 0.010793 0.000015
# 2 -0.001429 0.018496 -0.000594 0.000009 0.004522 0.000014
# 3 -0.003622 -0.000594 0.018037 -0.000086 0.006987 -0.000101
# 4 0.000013 0.000009 -0.000086 0.427423 -0.000035 0.501014
# 5 0.010793 0.004522 0.006987 -0.000035 0.043616 -0.000049
# 6 0.000015 0.000014 -0.000101 0.501014 -0.000049 0.713650
#
#
# Mechanical properties :
#
#
# Convention : Reuss Voigt Hill
#
# Bulk Modulus (GPa) = 25.11827 39.32007 32.21917
# Shear Modulus (GPa) = 3.96714 22.75598 13.36156
#
# Velocity S-wave (km/s) = 1.43806 3.44418 2.63917
# Velocity P-wave (km/s) = 3.98135 6.02607 5.10709
#
# Compressibility (1/GPa) = 0.03981166
#
# Stress axis : x y z
#
# Youngs Moduli (GPa) = 68.63805 54.06464 55.44149
#
# Poissons Ratio (x) = 0.07728 0.20082
# Poissons Ratio (y) = 0.09811 0.03292
# Poissons Ratio (z) = 0.24862 0.03211
#
# Static dielectric constant tensor:
#      x y z
#    x 1.675220 0.000000 -0.016750 
#    y 0.000000 1.686380 0.000010 
#    z -0.016750 0.000010 1.726620 
# 
# From -- ./inp_files/178683.got.cif
#   From: 2010.05.17/outbox.cif.g08.bks.cpg/sg12_90_cif.got.tgz:178683.got - 2010.06.03 13:09:07.
