data_PCOD9219697
_publ_section_title
;
Structure prediction by ZEFSAII (Michael W. Deem and Ramdas Pophale) SiO2 
 PCOD9219697
Probable space group: C 2/M
;
_chemical_formula_sum "Si O2"
_cell_formula_units_Z 64
_cell_length_a 25.067670
_cell_length_b 8.124174
_cell_length_c 16.760798
_cell_angle_alpha 90.000000
_cell_angle_beta 90.077361
_cell_angle_gamma 90.000000
_cell_volume 3413.402336
_symmetry_space_group_name_H-M "C 2/M"
_symmetry_group_IT_number 12
_symmetry_cell_setting 'monoclinic'
loop_
_space_group_symop_operation_xyz
x,y,z
-x,y,-z
-x,-y,-z
x,-y,z
1/2+x,1/2+y,z
1/2-x,1/2+y,-z
1/2-x,1/2-y,-z
1/2+x,1/2-y,z
loop_
_atom_site_type_symbol
_atom_site_label
_atom_site_fract_x
_atom_site_fract_y
_atom_site_fract_z
Si Si1 0.785969 0.298757 0.765331
Si Si2 0.059033 0.298646 0.971236
Si Si3 0.373765 0.193339 0.882875
Si Si4 0.308065 0.802101 0.468474
Si Si5 0.671776 0.695146 0.711295
Si Si6 0.563392 0.805939 0.788964
Si Si7 0.366790 0.198537 0.624806
Si Si8 0.949659 0.189772 0.745746
O O1 0.785694 0.500000 0.766620
O O2 0.820227 0.239068 0.841258
O O3 0.725264 0.243575 0.756301
O O4 0.819832 0.251751 0.686656
O O5 0.060185 0.500000 0.973044
O O6 0.068090 0.246095 0.880507
O O7 0.102680 0.237452 0.035027
O O8 0.000000 0.249366 0.000000
O O9 0.419846 0.209433 0.815665
O O10 0.364051 0.000000 0.896224
O O11 0.250000 0.750000 0.500000
O O12 0.319511 0.727991 0.382255
O O13 0.350396 0.749053 0.536346
O O14 0.309532 0.000000 0.462595
O O15 0.667598 0.500000 0.724259
O O16 0.618094 0.775740 0.743118
O O17 0.512251 0.723266 0.748344
O O18 0.552029 0.000000 0.791706
O O19 0.421155 0.264417 0.662881
O O20 0.368994 0.000000 0.625941
O O21 0.939034 0.000000 0.763282
#
# Coordination Sequence:
#
# PCOD9219697 Si02
#       8
#     8   8   8   8   8   8   8   8
#     4   8  15  30  53  78 107 145 180 216 269 326
#     4   9  16  30  56  84 105 137 190 238 271 321
#     4   9  16  32  56  80 107 143 186 229 272 327
#     4  11  21  36  59  87 115 147 188 231 276 323
#     4  11  22  38  55  80 116 151 187 229 280 334
#     4  11  22  38  57  79 109 149 191 229 278 340
#     4   9  18  35  57  81 109 145 184 224 271 326
#     4  11  21  33  52  83 114 143 178 228 284 329
#
# _framework density 18.74962
#
# number of rings (size 3 to 8) (size 9 to 14) (size 15 to 20)
#    0.000    2.125    2.500    3.000    0.000    1.000 
#    0.000    3.750    0.000    3.750    0.000    0.000 
#    0.000    0.000    0.000    0.000    0.000    0.000 
#
# Total GULP energy -178552.442992 kJ/mol
# GULP energy per Si atom -5579.763843 kJ/mol
# Density = 1.870695 g / cm^3
# Si number density = 18.749620 Si / 1000 Ang^3
#
#
#
# Elastic Constant Matrix: (Units=GPa)
#
#
# Indices 1 2 3 4 5 6 
#
# 1 108.2737 -8.7667 60.0058 0.0000 24.6294 0.0000
# 2 -8.7667 15.6041 -1.9620 0.0000 6.1781 0.0000
# 3 60.0058 -1.9620 101.7069 0.0000 24.5040 0.0000
# 4 0.0000 0.0000 0.0000 7.2275 0.0000 -0.9270
# 5 24.6294 6.1781 24.5040 0.0000 36.9683 0.0000
# 6 0.0000 0.0000 0.0000 -0.9270 0.0000 21.2124
#
#
#
# Elastic Compliance Matrix: (Units=1/GPa)
#
#
# Indices 1 2 3 4 5 6 
#
# 1 0.015932 0.011025 -0.007361 0.000000 -0.007577 0.000000
# 2 0.011025 0.078340 -0.000083 0.000000 -0.020382 0.000000
# 3 -0.007361 -0.000083 0.015457 0.000000 -0.005327 0.000000
# 4 0.000000 0.000000 0.000000 0.139140 0.000000 0.006080
# 5 -0.007577 -0.020382 -0.005327 0.000000 0.039036 0.000000
# 6 0.000000 0.000000 0.000000 0.006080 0.000000 0.047408
#
#
# Mechanical properties :
#
#
# Convention : Reuss Voigt Hill
#
# Bulk Modulus (GPa) = 8.55498 36.01544 22.28521
# Shear Modulus (GPa) = 13.61975 24.83547 19.22761
#
# Velocity S-wave (km/s) = 2.69811 3.64343 3.20581
# Velocity P-wave (km/s) = 3.77876 6.07864 5.06107
#
# Compressibility (1/GPa) = 0.11689102
#
# Stress axis : x y z
#
# Youngs Moduli (GPa) = 62.76707 12.76493 64.69485
#
# Poissons Ratio (x) = -0.14074 0.47624
# Poissons Ratio (y) = -0.69203 0.00537
# Poissons Ratio (z) = 0.46205 0.00106
#
# Static dielectric constant tensor:
#      x y z
#    x 1.634180 0.000000 0.035400 
#    y 0.000000 1.672170 0.000000 
#    z 0.035400 0.000000 1.653850 
# 
# From -- ./inp_files/287781.got.cif
#   From: 2010.05.17/outbox.cif.g08.bks.cpg/sg12_144_cif.got.tgz:287781.got - 2010.06.03 13:09:07.
