data_PCOD9219227
_publ_section_title
;
Structure prediction by ZEFSAII (Michael W. Deem and Ramdas Pophale) SiO2 
 PCOD9219227
Probable space group: C 2/M
;
_chemical_formula_sum "Si O2"
_cell_formula_units_Z 56
_cell_length_a 13.606903
_cell_length_b 18.084481
_cell_length_c 13.861944
_cell_angle_alpha 90.000000
_cell_angle_beta 49.749229
_cell_angle_gamma 90.000000
_cell_volume 2603.402809
_symmetry_space_group_name_H-M "C 2/M"
_symmetry_group_IT_number 12
_symmetry_cell_setting 'monoclinic'
loop_
_space_group_symop_operation_xyz
x,y,z
-x,y,-z
-x,-y,-z
x,-y,z
1/2+x,1/2+y,z
1/2-x,1/2+y,-z
1/2-x,1/2-y,-z
1/2+x,1/2-y,z
loop_
_atom_site_type_symbol
_atom_site_label
_atom_site_fract_x
_atom_site_fract_y
_atom_site_fract_z
Si Si1 0.543695 0.353261 0.768961
Si Si2 0.069840 0.000000 0.627398
Si Si3 0.710709 0.216251 0.325689
Si Si4 0.001733 0.587716 0.209598
Si Si5 0.659812 0.500000 0.383801
Si Si6 0.945159 0.286652 0.382368
Si Si7 0.279121 0.588687 0.974134
Si Si8 0.808745 0.371199 0.186564
O O1 0.556246 0.427011 0.697519
O O2 0.674134 0.342913 0.746608
O O3 0.538324 0.282538 0.700835
O O4 0.409318 0.365340 0.910488
O O5 0.188828 0.000000 0.480120
O O6 0.967675 0.000000 0.604363
O O7 0.662207 0.227369 0.467419
O O8 0.580003 0.200540 0.351828
O O9 0.771633 0.288793 0.239156
O O10 0.986699 0.500000 0.231561
O O11 0.925418 0.639783 0.331868
O O12 0.951036 0.610230 0.135183
O O13 0.154530 0.604527 0.118203
O O14 0.724827 0.425664 0.305434
O O15 0.304461 0.500000 0.961029
O O16 0.232592 0.609437 0.895442
#
# Coordination Sequence:
#
# PCOD9219227 Si02
#       8
#     8   4   8   8   4   8   8   8
#     4  12  21  40  66  90 127 164 206 258 320 371
#     4  11  22  34  57  98 128 163 202 260 326 379
#     4  11  25  40  64  94 127 164 207 264 310 378
#     4  11  25  41  65  89 129 174 211 259 311 375
#     4  11  20  32  60  96 127 156 205 261 325 387
#     4  11  24  46  61  91 131 165 210 258 315 376
#     4  11  22  42  63  96 129 161 212 265 315 374
#     4  12  19  38  62  97 126 163 203 260 325 376
#
# _framework density 21.510308999999999
#
# number of rings (size 3 to 8) (size 9 to 14) (size 15 to 20)
#    0.000    0.714    6.429    1.714    2.000    4.000 
#    1.286    1.429    0.000    1.714    0.000    0.000 
#    0.000    0.000    0.000    0.000    0.000    0.000 
#
# Total GULP energy -156303.434226 kJ/mol
# GULP energy per Si atom -5582.265508 kJ/mol
# Density = 2.146135 g / cm^3
# Si number density = 21.510309 Si / 1000 Ang^3
#
#
#
# Elastic Constant Matrix: (Units=GPa)
#
#
# Indices 1 2 3 4 5 6 
#
# 1 88.8656 5.8705 -3.3189 0.0000 -31.8406 0.0000
# 2 5.8705 87.9469 8.0713 0.0000 3.1899 0.0000
# 3 -3.3189 8.0713 56.0099 0.0000 -23.9632 0.0000
# 4 0.0000 0.0000 0.0000 30.9369 0.0000 -11.1742
# 5 -31.8406 3.1899 -23.9632 0.0000 44.8054 0.0000
# 6 0.0000 0.0000 0.0000 -11.1742 0.0000 44.4560
#
#
#
# Elastic Compliance Matrix: (Units=1/GPa)
#
#
# Indices 1 2 3 4 5 6 
#
# 1 0.018264 -0.002722 0.009220 0.000000 0.018104 0.000000
# 2 -0.002722 0.012101 -0.004021 0.000000 -0.004947 0.000000
# 3 0.009220 -0.004021 0.028405 0.000000 0.022030 0.000000
# 4 0.000000 0.000000 0.000000 0.035551 0.000000 0.008936
# 5 0.018104 -0.004947 0.022030 0.000000 0.047319 0.000000
# 6 0.000000 0.000000 0.000000 0.008936 0.000000 0.024740
#
#
# Mechanical properties :
#
#
# Convention : Reuss Voigt Hill
#
# Bulk Modulus (GPa) = 15.69291 28.22982 21.96137
# Shear Modulus (GPa) = 27.37210 38.85295 33.11252
#
# Velocity S-wave (km/s) = 3.57110 4.25461 3.92775
# Velocity P-wave (km/s) = 4.93103 6.10638 5.54991
#
# Compressibility (1/GPa) = 0.06372303
#
# Stress axis : x y z
#
# Youngs Moduli (GPa) = 54.75334 82.64010 35.20474
#
# Poissons Ratio (x) = 0.22494 -0.32459
# Poissons Ratio (y) = 0.14903 0.14157
# Poissons Ratio (z) = -0.50483 0.33233
#
# Static dielectric constant tensor:
#      x y z
#    x 1.776860 0.000000 0.095240 
#    y 0.000000 1.708940 0.000000 
#    z 0.095240 0.000000 1.484880 
# 
# From -- ./inp_files/216328.got.cif
#   From: 2010.05.17/outbox.cif.g08.bks.cpg/sg12_109_cif.got.tgz:216328.got - 2010.06.03 13:09:07.
