data_PCOD9219497
_publ_section_title
;
Structure prediction by ZEFSAII (Michael W. Deem and Ramdas Pophale) SiO2 
 PCOD9219497
Probable space group: C 2/M
;
_chemical_formula_sum "Si O2"
_cell_formula_units_Z 64
_cell_length_a 16.805733
_cell_length_b 16.910767
_cell_length_c 13.233037
_cell_angle_alpha 90.000000
_cell_angle_beta 47.154435
_cell_angle_gamma 90.000000
_cell_volume 2757.378663
_symmetry_space_group_name_H-M "C 2/M"
_symmetry_group_IT_number 12
_symmetry_cell_setting 'monoclinic'
loop_
_space_group_symop_operation_xyz
x,y,z
-x,y,-z
-x,-y,-z
x,-y,z
1/2+x,1/2+y,z
1/2-x,1/2+y,-z
1/2-x,1/2-y,-z
1/2+x,1/2-y,z
loop_
_atom_site_type_symbol
_atom_site_label
_atom_site_fract_x
_atom_site_fract_y
_atom_site_fract_z
Si Si1 0.009731 0.199748 0.661599
Si Si2 0.390873 0.208578 0.227861
Si Si3 0.187042 0.908204 0.439656
Si Si4 0.625466 0.359030 0.891657
Si Si5 0.733491 0.916005 0.408434
Si Si6 0.489725 0.134986 0.398183
Si Si7 0.205847 0.159962 0.045192
Si Si8 0.429085 0.087309 0.888630
O O1 0.079127 0.236205 0.698738
O O2 0.080059 0.145686 0.526083
O O3 0.961980 0.277315 0.647624
O O4 0.905675 0.155793 0.796838
O O5 0.290668 0.146817 0.322148
O O6 0.372118 0.269453 0.153576
O O7 0.496958 0.154246 0.125706
O O8 0.195042 0.915930 0.554265
O O9 0.187599 0.000000 0.400111
O O10 0.696655 0.406531 0.750538
O O11 0.500000 0.383980 0.000000
O O12 0.676807 0.365267 0.956829
O O13 0.639634 0.852501 0.501115
O O14 0.673237 0.000000 0.460315
O O15 0.500000 0.099251 0.500000
O O16 0.537834 0.091669 0.259471
O O17 0.250000 0.250000 0.000000
O O18 0.303242 0.108380 0.005496
O O19 0.453810 0.000000 0.905256
#
# Coordination Sequence:
#
# PCOD9219497 Si02
#       8
#     8   8   8   8   8   8   8   8
#     4  11  21  39  62  87 122 160 207 256 302 373
#     4  11  20  39  64  92 119 160 213 258 303 363
#     4  11  21  37  61  90 124 157 195 253 318 366
#     4  12  23  38  62  89 122 166 211 260 300 367
#     4  11  22  34  55  90 127 152 185 242 309 370
#     4  11  22  36  59  92 116 155 202 245 305 368
#     4  12  23  42  61  91 124 168 214 250 312 378
#     4  11  23  40  65  93 131 167 202 259 321 376
#
# _framework density 23.210450000000002
#
# number of rings (size 3 to 8) (size 9 to 14) (size 15 to 20)
#    0.000    0.750    7.500    2.625    0.000    3.250 
#    0.000    0.000    0.000    7.125    0.000    0.000 
#    0.000    0.000    0.000    0.000    0.000    0.000 
#
# Total GULP energy -178827.437360 kJ/mol
# GULP energy per Si atom -5588.357417 kJ/mol
# Density = 2.315762 g / cm^3
# Si number density = 23.210450 Si / 1000 Ang^3
#
#
#
# Elastic Constant Matrix: (Units=GPa)
#
#
# Indices 1 2 3 4 5 6 
#
# 1 41.6234 10.5491 11.0236 0.0000 -12.4763 0.0000
# 2 10.5491 90.4575 14.1117 0.0000 -15.4440 0.0000
# 3 11.0236 14.1117 99.1359 0.0000 -27.9930 0.0000
# 4 0.0000 0.0000 0.0000 -8.7095 0.0000 -2.1584
# 5 -12.4763 -15.4440 -27.9930 0.0000 30.7162 0.0000
# 6 0.0000 0.0000 0.0000 -2.1584 0.0000 0.0090
#
#
#
# Elastic Compliance Matrix: (Units=1/GPa)
#
#
# Indices 1 2 3 4 5 6 
#
# 1 0.027523 -0.001423 0.000130 0.000000 0.010582 0.000000
# 2 -0.001423 0.012167 -0.000013 0.000000 0.005528 0.000000
# 3 0.000130 -0.000013 0.013583 0.000000 0.012425 0.000000
# 4 0.000000 0.000000 0.000000 -0.001902 0.000000 -0.455635
# 5 0.010582 0.005528 0.012425 0.000000 0.050957 0.000000
# 6 0.000000 0.000000 0.000000 -0.455635 0.000000 1.838563
#
#
# Mechanical properties :
#
#
# Convention : Reuss Voigt Hill
#
# Bulk Modulus (GPa) = 19.73895 33.62061 26.67978
# Shear Modulus (GPa) = 2.55051 17.43864 9.99457
#
# Velocity S-wave (km/s) = 1.04940 2.74401 2.07736
# Velocity P-wave (km/s) = 3.16088 4.95540 4.15615
#
# Compressibility (1/GPa) = 0.05066125
#
# Stress axis : x y z
#
# Youngs Moduli (GPa) = 36.33299 82.19198 73.62122
#
# Poissons Ratio (x) = 0.11698 -0.00959
# Poissons Ratio (y) = 0.05171 0.00094
# Poissons Ratio (z) = -0.00473 0.00105
#
# Static dielectric constant tensor:
#      x y z
#    x 1.935080 0.000000 0.001800 
#    y 0.000000 1.891220 0.000000 
#    z 0.001800 0.000000 1.859720 
# 
# From -- ./inp_files/226845.got.cif
#   From: 2010.05.17/outbox.cif.g08.bks.cpg/sg12_114_cif.got.tgz:226845.got - 2010.06.03 13:09:07.
