data_PCOD9219304
_publ_section_title
;
Structure prediction by ZEFSAII (Michael W. Deem and Ramdas Pophale) SiO2 
 PCOD9219304
Probable space group: C 2/M
;
_chemical_formula_sum "Si O2"
_cell_formula_units_Z 44
_cell_length_a 25.960058
_cell_length_b 15.872430
_cell_length_c 5.015722
_cell_angle_alpha 90.000000
_cell_angle_beta 100.138994
_cell_angle_gamma 90.000000
_cell_volume 2034.449466
_symmetry_space_group_name_H-M "C 2/M"
_symmetry_group_IT_number 12
_symmetry_cell_setting 'monoclinic'
loop_
_space_group_symop_operation_xyz
x,y,z
-x,y,-z
-x,-y,-z
x,-y,z
1/2+x,1/2+y,z
1/2-x,1/2+y,-z
1/2-x,1/2-y,-z
1/2+x,1/2-y,z
loop_
_atom_site_type_symbol
_atom_site_label
_atom_site_fract_x
_atom_site_fract_y
_atom_site_fract_z
Si Si1 0.465139 0.386290 0.717320
Si Si2 0.054098 0.295805 0.116432
Si Si3 0.460078 0.000000 0.213213
Si Si4 0.840488 0.098051 0.650758
Si Si5 0.394265 0.837820 0.317318
Si Si6 0.193255 0.213547 0.875404
O O1 0.500000 0.410685 0.500000
O O2 0.461791 0.285689 0.733773
O O3 0.403627 0.408555 0.664605
O O4 0.500000 0.412527 0.000000
O O5 0.091306 0.342211 0.359240
O O6 0.077746 0.270313 0.854955
O O7 0.000000 0.339815 0.000000
O O8 0.500000 0.000000 0.500000
O O9 0.419374 0.921210 0.206886
O O10 0.500000 0.000000 0.000000
O O11 0.814333 0.149025 0.380174
O O12 0.822131 0.000000 0.661944
O O13 0.828694 0.158221 0.894729
O O14 0.336905 0.800649 0.231614
O O15 0.250000 0.250000 0.000000
#
# Coordination Sequence:
#
# PCOD9219304 Si02
#       6
#     8   8   4   8   8   8
#     4  11  21  35  63  98 140 184 219 266 332 424
#     4  11  20  34  63  94 129 178 226 267 334 426
#     4  12  26  40  62 100 148 178 224 298 360 430
#     4  12  26  48  73 110 146 181 237 301 361 428
#     4  12  22  42  64  95 136 182 236 286 352 425
#     4  12  26  50  77 100 137 192 251 306 365 430
#
# _framework density 21.627471
#
# number of rings (size 3 to 8) (size 9 to 14) (size 15 to 20)
#    0.000    0.364    3.636    7.636    0.000    0.727 
#    3.273    0.000    0.000    0.000    0.000    0.000 
#    0.000    0.000    0.000    0.000    0.000    0.000 
#
# Total GULP energy -122478.315222 kJ/mol
# GULP energy per Si atom -5567.196146 kJ/mol
# Density = 2.157825 g / cm^3
# Si number density = 21.627471 Si / 1000 Ang^3
#
#
#
# Elastic Constant Matrix: (Units=GPa)
#
#
# Indices 1 2 3 4 5 6 
#
# 1 87.8876 41.1399 56.4634 0.0000 33.6046 0.0000
# 2 41.1399 150.4355 37.9289 0.0000 16.4290 0.0000
# 3 56.4634 37.9289 191.8617 0.0000 2.8517 0.0000
# 4 0.0000 0.0000 0.0000 -15.4270 0.0000 -22.6395
# 5 33.6046 16.4290 2.8517 0.0000 45.8308 0.0000
# 6 0.0000 0.0000 0.0000 -22.6395 0.0000 -5.6625
#
#
#
# Elastic Compliance Matrix: (Units=1/GPa)
#
#
# Indices 1 2 3 4 5 6 
#
# 1 0.022075 -0.002991 -0.005686 0.000000 -0.014760 0.000000
# 2 -0.002991 0.007681 -0.000630 0.000000 -0.000521 0.000000
# 3 -0.005686 -0.000630 0.006951 0.000000 0.003962 0.000000
# 4 0.000000 0.000000 0.000000 0.013318 0.000000 -0.053245
# 5 -0.014760 -0.000521 0.003962 0.000000 0.032582 0.000000
# 6 0.000000 0.000000 0.000000 -0.053245 0.000000 0.036282
#
#
# Mechanical properties :
#
#
# Convention : Reuss Voigt Hill
#
# Bulk Modulus (GPa) = 55.27278 77.91657 66.59468
# Shear Modulus (GPa) = 34.83484 24.59177 29.71330
#
# Velocity S-wave (km/s) = 4.01768 3.37569 3.71059
# Velocity P-wave (km/s) = 6.86546 7.16231 7.01545
#
# Compressibility (1/GPa) = 0.01809209
#
# Stress axis : x y z
#
# Youngs Moduli (GPa) = 45.30069 130.18700 143.86283
#
# Poissons Ratio (x) = 0.38944 0.81796
# Poissons Ratio (y) = 0.13551 0.09069
# Poissons Ratio (z) = 0.25756 0.08207
#
# Static dielectric constant tensor:
#      x y z
#    x 1.853630 0.000000 -0.024720 
#    y 0.000000 1.933360 0.000000 
#    z -0.024720 0.000000 1.807030 
# 
# From -- ./inp_files/24861.got.cif
#   From: 2010.05.17/outbox.cif.g08.bks.cpg/sg12_13_cif.got.tgz:24861.got - 2010.06.03 13:09:07.
