data_PCOD9219419
_publ_section_title
;
Structure prediction by ZEFSAII (Michael W. Deem and Ramdas Pophale) SiO2 
 PCOD9219419
Probable space group: C 2/M
;
_chemical_formula_sum "Si O2"
_cell_formula_units_Z 40
_cell_length_a 11.780012
_cell_length_b 15.954263
_cell_length_c 11.964237
_cell_angle_alpha 90.000000
_cell_angle_beta 66.524081
_cell_angle_gamma 90.000000
_cell_volume 2062.455536
_symmetry_space_group_name_H-M "C 2/M"
_symmetry_group_IT_number 12
_symmetry_cell_setting 'monoclinic'
loop_
_space_group_symop_operation_xyz
x,y,z
-x,y,-z
-x,-y,-z
x,-y,z
1/2+x,1/2+y,z
1/2-x,1/2+y,-z
1/2-x,1/2-y,-z
1/2+x,1/2-y,z
loop_
_atom_site_type_symbol
_atom_site_label
_atom_site_fract_x
_atom_site_fract_y
_atom_site_fract_z
Si Si1 0.060065 0.846794 0.656545
Si Si2 0.323937 0.400893 0.617782
Si Si3 0.075401 0.323758 0.789604
Si Si4 0.398862 0.500000 0.201628
Si Si5 0.682300 0.500000 0.012064
Si Si6 0.325542 0.832535 0.000678
O O1 0.135264 0.853731 0.511306
O O2 0.071260 0.759140 0.715572
O O3 0.112888 0.918158 0.717517
O O4 0.917843 0.867444 0.676867
O O5 0.347873 0.500000 0.595885
O O6 0.179893 0.384669 0.698526
O O7 0.934347 0.350637 0.868028
O O8 0.121959 0.311040 0.897908
O O9 0.315140 0.500000 0.124065
O O10 0.540057 0.500000 0.103686
O O11 0.745158 0.416545 0.034371
O O12 0.250000 0.750000 0.000000
#
# Coordination Sequence:
#
# PCOD9219419 Si02
#       6
#     8   8   8   4   4   8
#     4  11  21  40  63  95 123 168 213 261 307 376
#     4  11  22  40  66  96 127 162 215 264 311 378
#     4  11  24  37  66  88 130 163 209 258 320 372
#     4  11  20  37  63  89 117 167 214 255 307 374
#     4  11  24  37  63  87 129 164 212 261 321 371
#     4  11  24  42  59  95 127 167 212 263 319 382
#
# _framework density 19.394359000000001
#
# number of rings (size 3 to 8) (size 9 to 14) (size 15 to 20)
#    0.000    1.000    2.000    6.000    2.800    4.000 
#    0.000    0.000    0.000    1.200    0.000    0.000 
#    0.000    0.000    0.000    0.000    0.000    0.000 
#
# Total GULP energy -111690.219544 kJ/mol
# GULP energy per Si atom -5584.510977 kJ/mol
# Density = 1.935022 g / cm^3
# Si number density = 19.394359 Si / 1000 Ang^3
#
#
#
# Elastic Constant Matrix: (Units=GPa)
#
#
# Indices 1 2 3 4 5 6 
#
# 1 75.2375 36.2001 35.5934 0.0000 -7.0273 0.0000
# 2 36.2001 99.7893 26.5399 0.0000 10.0617 0.0000
# 3 35.5934 26.5399 100.1312 0.0000 0.9697 0.0000
# 4 0.0000 0.0000 0.0000 16.0804 0.0000 17.1185
# 5 -7.0273 10.0617 0.9697 0.0000 46.1014 0.0000
# 6 0.0000 0.0000 0.0000 17.1185 0.0000 21.0921
#
#
#
# Elastic Compliance Matrix: (Units=1/GPa)
#
#
# Indices 1 2 3 4 5 6 
#
# 1 0.019029 -0.005947 -0.005230 0.000000 0.004308 0.000000
# 2 -0.005947 0.012887 -0.001266 0.000000 -0.003692 0.000000
# 3 -0.005230 -0.001266 0.012189 0.000000 -0.000777 0.000000
# 4 0.000000 0.000000 0.000000 0.457282 0.000000 -0.371134
# 5 0.004308 -0.003692 -0.000777 0.000000 0.023170 0.000000
# 6 0.000000 0.000000 0.000000 -0.371134 0.000000 0.348627
#
#
# Mechanical properties :
#
#
# Convention : Reuss Voigt Hill
#
# Bulk Modulus (GPa) = 52.02844 52.42499 52.22671
# Shear Modulus (GPa) = 5.52806 28.44307 16.98556
#
# Velocity S-wave (km/s) = 1.69013 3.83373 2.96260
# Velocity P-wave (km/s) = 5.54017 6.83274 6.22012
#
# Compressibility (1/GPa) = 0.01922026
#
# Stress axis : x y z
#
# Youngs Moduli (GPa) = 52.55170 77.59519 82.04081
#
# Poissons Ratio (x) = 0.46142 0.42905
# Poissons Ratio (y) = 0.31250 0.10389
# Poissons Ratio (z) = 0.27483 0.09826
#
# Static dielectric constant tensor:
#      x y z
#    x 1.696000 0.000000 -0.026250 
#    y 0.000000 1.621900 0.000000 
#    z -0.026250 0.000000 1.708540 
# 
# From -- ./inp_files/129617.got.cif
#   From: 2010.05.17/outbox.cif.g08.bks.cpg/sg12_65_cif.got.tgz:129617.got - 2010.06.03 13:09:07.
