data_PCOD9219728
_publ_section_title
;
Structure prediction by ZEFSAII (Michael W. Deem and Ramdas Pophale) SiO2 
 PCOD9219728
Probable space group: C 2/M
;
_chemical_formula_sum "Si O2"
_cell_formula_units_Z 56
_cell_length_a 19.401574
_cell_length_b 8.988803
_cell_length_c 28.808170
_cell_angle_alpha 90.000000
_cell_angle_beta 39.688766
_cell_angle_gamma 90.000000
_cell_volume 3208.447510
_symmetry_space_group_name_H-M "C 2/M"
_symmetry_group_IT_number 12
_symmetry_cell_setting 'monoclinic'
loop_
_space_group_symop_operation_xyz
x,y,z
-x,y,-z
-x,-y,-z
x,-y,z
1/2+x,1/2+y,z
1/2-x,1/2+y,-z
1/2-x,1/2-y,-z
1/2+x,1/2-y,z
loop_
_atom_site_type_symbol
_atom_site_label
_atom_site_fract_x
_atom_site_fract_y
_atom_site_fract_z
Si Si1 0.352762 0.324447 0.688461
Si Si2 0.901703 0.678580 0.084611
Si Si3 0.187743 0.321218 0.598837
Si Si4 0.590154 0.320764 0.556682
Si Si5 0.158805 0.174194 0.194343
Si Si6 0.874267 0.823266 0.198552
Si Si7 0.031137 0.322697 0.762303
O O1 0.334973 0.500000 0.687749
O O2 0.468012 0.275543 0.608290
O O3 0.362868 0.309325 0.739226
O O4 0.247419 0.234720 0.728508
O O5 0.903334 0.500000 0.091981
O O6 0.784864 0.712012 0.122811
O O7 0.905984 0.759196 0.131779
O O8 0.000000 0.717433 0.000000
O O9 0.178922 0.500000 0.598745
O O10 0.314290 0.282166 0.528663
O O11 0.127262 0.247718 0.586502
O O12 0.128393 0.278879 0.676855
O O13 0.587829 0.500000 0.562859
O O14 0.078099 0.272823 0.206516
O O15 0.142055 0.000000 0.191676
O O16 0.950794 0.757830 0.198522
O O17 0.876694 0.000000 0.196790
O O18 0.033709 0.500000 0.767196
#
# Coordination Sequence:
#
# PCOD9219728 Si02
#       7
#     8   8   8   8   8   8   8
#     4   9  17  32  53  75 102 138 179 221 266 317
#     4   9  19  39  64  86 109 137 167 204 255 314
#     4   9  18  29  46  74 104 136 176 222 266 309
#     4   9  16  29  49  73 101 135 176 222 269 312
#     4   9  17  31  54  82 106 134 172 211 253 307
#     4  11  23  36  54  78 107 140 176 218 262 308
#     4  11  21  34  51  75 109 144 179 217 261 313
#
# _framework density 17.453925000000002
#
# number of rings (size 3 to 8) (size 9 to 14) (size 15 to 20)
#    0.000    2.429    1.429    2.571    0.000    3.714 
#    0.000    1.429    0.000    4.286    0.000    0.000 
#    0.000    0.000    0.000    0.000    0.000    0.000 
#
# Total GULP energy -156170.580735 kJ/mol
# GULP energy per Si atom -5577.520741 kJ/mol
# Density = 1.741420 g / cm^3
# Si number density = 17.453925 Si / 1000 Ang^3
#
#
#
# Elastic Constant Matrix: (Units=GPa)
#
#
# Indices 1 2 3 4 5 6 
#
# 1 65.6072 38.8484 33.3640 0.0000 -0.3567 0.0003
# 2 38.8484 46.9755 36.3876 0.0001 0.0370 0.0004
# 3 33.3640 36.3876 106.5606 0.0000 -15.4623 0.0001
# 4 0.0000 0.0001 0.0000 17.9757 0.0000 -4.5841
# 5 -0.3567 0.0370 -15.4623 0.0000 17.5386 0.0000
# 6 0.0003 0.0004 0.0001 -4.5841 0.0000 28.4870
#
#
#
# Elastic Compliance Matrix: (Units=1/GPa)
#
#
# Indices 1 2 3 4 5 6 
#
# 1 0.029995 -0.023753 -0.001358 0.000000 -0.000537 0.000000
# 2 -0.023753 0.049390 -0.010909 0.000000 -0.010205 -0.000001
# 3 -0.001358 -0.010909 0.015519 0.000000 0.013677 0.000000
# 4 0.000000 0.000000 0.000000 0.058011 0.000000 0.009335
# 5 -0.000537 -0.010205 0.013677 0.000000 0.069086 0.000000
# 6 0.000000 -0.000001 0.000000 0.009335 0.000000 0.036606
#
#
# Mechanical properties :
#
#
# Convention : Reuss Voigt Hill
#
# Bulk Modulus (GPa) = 43.73823 48.48260 46.11041
# Shear Modulus (GPa) = 14.78113 20.16982 17.47547
#
# Velocity S-wave (km/s) = 2.91325 3.40310 3.16766
# Velocity P-wave (km/s) = 6.03570 6.57870 6.31304
#
# Compressibility (1/GPa) = 0.02286330
#
# Stress axis : x y z
#
# Youngs Moduli (GPa) = 33.33866 20.24720 64.43568
#
# Poissons Ratio (x) = 0.48094 0.08753
# Poissons Ratio (y) = 0.79190 0.70292
# Poissons Ratio (z) = 0.04529 0.22087
#
# Static dielectric constant tensor:
#      x y z
#    x 1.566610 0.000000 -0.019750 
#    y 0.000000 1.579240 0.000000 
#    z -0.019750 0.000000 1.612870 
# 
# From -- ./inp_files/362898.got.cif
#   From: 2010.05.17/outbox.cif.g08.bks.cpg/sg12_182_cif.got.tgz:362898.got - 2010.06.03 13:09:07.
