data_PCOD9219473
_publ_section_title
;
Structure prediction by ZEFSAII (Michael W. Deem and Ramdas Pophale) SiO2 
 PCOD9219473
Probable space group: C 2/M
;
_chemical_formula_sum "Si O2"
_cell_formula_units_Z 48
_cell_length_a 20.053455
_cell_length_b 15.417776
_cell_length_c 11.927238
_cell_angle_alpha 90.000000
_cell_angle_beta 41.346115
_cell_angle_gamma 90.000000
_cell_volume 2436.090480
_symmetry_space_group_name_H-M "C 2/M"
_symmetry_group_IT_number 12
_symmetry_cell_setting 'monoclinic'
loop_
_space_group_symop_operation_xyz
x,y,z
-x,y,-z
-x,-y,-z
x,-y,z
1/2+x,1/2+y,z
1/2-x,1/2+y,-z
1/2-x,1/2-y,-z
1/2+x,1/2-y,z
loop_
_atom_site_type_symbol
_atom_site_label
_atom_site_fract_x
_atom_site_fract_y
_atom_site_fract_z
Si Si1 0.121508 0.000000 0.704152
Si Si2 0.606746 0.176732 0.926494
Si Si3 0.896071 0.398946 0.502838
Si Si4 0.729797 0.148432 0.552351
Si Si5 0.764336 0.829718 0.124264
Si Si6 0.115741 0.000000 0.980578
Si Si7 0.116402 0.399212 0.149179
O O1 0.173976 0.914040 0.587228
O O2 0.135658 0.000000 0.821127
O O3 0.001887 0.000000 0.842107
O O4 0.681638 0.142575 0.735893
O O5 0.662288 0.257061 0.917523
O O6 0.500000 0.197954 0.000000
O O7 0.593174 0.111459 0.047077
O O8 0.886784 0.500000 0.547196
O O9 0.850190 0.386182 0.437295
O O10 0.826406 0.342891 0.671842
O O11 0.013808 0.377716 0.345700
O O12 0.750000 0.250000 0.500000
O O13 0.832581 0.915029 0.037894
O O14 0.704517 0.835874 0.081821
O O15 0.141427 0.500000 0.140118
#
# Coordination Sequence:
#
# PCOD9219473 Si02
#       7
#     4   8   8   8   8   4   8
#     4  11  24  38  63  97 128 171 212 275 323 381
#     4  12  27  40  66  96 133 170 212 262 322 391
#     4  11  20  38  65  94 125 166 212 266 319 374
#     4  12  22  41  62  93 134 168 212 268 326 381
#     4  12  22  43  64  95 128 168 215 272 317 374
#     4  11  22  38  69  92 126 162 226 271 315 372
#     4  11  25  42  66  94 131 172 213 259 322 387
#
# _framework density 19.703700999999999
#
# number of rings (size 3 to 8) (size 9 to 14) (size 15 to 20)
#    0.000    0.500    7.500    1.000    5.833    1.667 
#    0.000    0.000    0.000    1.000    0.000    0.000 
#    0.000    0.000    0.000    0.000    0.000    0.000 
#
# Total GULP energy -134027.797683 kJ/mol
# GULP energy per Si atom -5584.491570 kJ/mol
# Density = 1.965885 g / cm^3
# Si number density = 19.703701 Si / 1000 Ang^3
#
#
#
# Elastic Constant Matrix: (Units=GPa)
#
#
# Indices 1 2 3 4 5 6 
#
# 1 138.9991 31.5129 48.9805 0.0000 -6.3608 0.0000
# 2 31.5129 82.5458 43.2332 0.0000 -15.4935 0.0000
# 3 48.9805 43.2332 114.9402 0.0000 -10.9396 0.0000
# 4 0.0000 0.0000 0.0000 17.7256 0.0000 4.0289
# 5 -6.3608 -15.4935 -10.9396 0.0000 37.2042 0.0000
# 6 0.0000 0.0000 0.0000 4.0289 0.0000 15.5594
#
#
#
# Elastic Compliance Matrix: (Units=1/GPa)
#
#
# Indices 1 2 3 4 5 6 
#
# 1 0.008656 -0.001733 -0.003050 0.000000 -0.000139 0.000000
# 2 -0.001733 0.016295 -0.004910 0.000000 0.005046 0.000000
# 3 -0.003050 -0.004910 0.011937 0.000000 0.000944 0.000000
# 4 0.000000 0.000000 0.000000 0.059944 0.000000 -0.015522
# 5 -0.000139 0.005046 0.000944 0.000000 0.029234 0.000000
# 6 0.000000 0.000000 0.000000 -0.015522 0.000000 0.068289
#
#
# Mechanical properties :
#
#
# Convention : Reuss Voigt Hill
#
# Bulk Modulus (GPa) = 57.14070 64.88202 61.01136
# Shear Modulus (GPa) = 22.77141 28.28172 25.52656
#
# Velocity S-wave (km/s) = 3.40323 3.79271 3.60324
# Velocity P-wave (km/s) = 6.67125 7.22357 6.95290
#
# Compressibility (1/GPa) = 0.01750066
#
# Stress axis : x y z
#
# Youngs Moduli (GPa) = 115.53294 61.36865 83.77608
#
# Poissons Ratio (x) = 0.10636 0.25550
# Poissons Ratio (y) = 0.20023 0.41137
# Poissons Ratio (z) = 0.35235 0.30134
#
# Static dielectric constant tensor:
#      x y z
#    x 1.717820 0.000000 0.010480 
#    y 0.000000 1.696190 0.000000 
#    z 0.010480 0.000000 1.686840 
# 
# From -- ./inp_files/167563.got.cif
#   From: 2010.05.17/outbox.cif.g08.bks.cpg/sg12_84_cif.got.tgz:167563.got - 2010.06.03 13:09:07.
