data_PCOD9219441
_publ_section_title
;
Structure prediction by ZEFSAII (Michael W. Deem and Ramdas Pophale) SiO2 
 PCOD9219441
Probable space group: C 2/M
;
_chemical_formula_sum "Si O2"
_cell_formula_units_Z 56
_cell_length_a 12.058479
_cell_length_b 23.797811
_cell_length_c 9.056749
_cell_angle_alpha 90.000000
_cell_angle_beta 109.031537
_cell_angle_gamma 90.000000
_cell_volume 2456.911742
_symmetry_space_group_name_H-M "C 2/M"
_symmetry_group_IT_number 12
_symmetry_cell_setting 'monoclinic'
loop_
_space_group_symop_operation_xyz
x,y,z
-x,y,-z
-x,-y,-z
x,-y,z
1/2+x,1/2+y,z
1/2-x,1/2+y,-z
1/2-x,1/2-y,-z
1/2+x,1/2-y,z
loop_
_atom_site_type_symbol
_atom_site_label
_atom_site_fract_x
_atom_site_fract_y
_atom_site_fract_z
Si Si1 0.706749 0.617669 0.829409
Si Si2 0.308800 0.106507 0.442776
Si Si3 0.984063 0.767715 0.829863
Si Si4 0.081588 0.561760 0.243850
Si Si5 0.275669 0.205342 0.637864
Si Si6 0.118078 0.347582 0.843279
Si Si7 0.535665 0.382715 0.345592
O O1 0.797510 0.575330 0.790988
O O2 0.690191 0.669372 0.704272
O O3 0.576114 0.594134 0.794949
O O4 0.772838 0.642182 0.999919
O O5 0.383730 0.061690 0.566503
O O6 0.334899 0.158006 0.564695
O O7 0.346391 0.128842 0.301046
O O8 0.168450 0.095390 0.380661
O O9 0.076026 0.717831 0.827893
O O10 0.961309 0.817069 0.703037
O O11 0.863111 0.733999 0.787929
O O12 0.000000 0.792372 0.000000
O O13 0.035734 0.500000 0.186288
O O14 0.989151 0.610524 0.161978
O O15 0.250000 0.250000 0.500000
O O16 0.500000 0.392099 0.500000
#
# Coordination Sequence:
#
# PCOD9219441 Si02
#       7
#     8   8   8   8   8   8   8
#     4  11  24  43  64  94 136 173 221 273 318 392
#     4  11  25  40  64  95 130 169 218 271 328 388
#     4  12  24  37  62  97 136 180 219 264 322 385
#     4  11  24  47  75  98 125 167 219 277 342 399
#     4  11  20  38  58  86 128 176 224 257 308 377
#     4  12  25  40  64  99 139 170 213 281 329 383
#     4  12  25  42  63  90 132 181 224 259 314 390
#
# _framework density 22.792840000000002
#
# number of rings (size 3 to 8) (size 9 to 14) (size 15 to 20)
#    0.000    0.571    8.571    0.857    6.000    2.857 
#    0.000    1.429    0.000    0.000    0.000    3.000 
#    0.000    0.000    0.000    0.000    0.000    0.000 
#
# Total GULP energy -156123.535270 kJ/mol
# GULP energy per Si atom -5575.840545 kJ/mol
# Density = 2.274096 g / cm^3
# Si number density = 22.792840 Si / 1000 Ang^3
#
#
#
# Elastic Constant Matrix: (Units=GPa)
#
#
# Indices 1 2 3 4 5 6 
#
# 1 79.7209 -12.7542 7.6567 0.0000 10.2478 0.0000
# 2 -12.7542 56.0934 -2.2682 0.0000 -1.9194 0.0000
# 3 7.6567 -2.2682 101.3310 0.0000 8.8901 0.0000
# 4 0.0000 0.0000 0.0000 3.2035 0.0000 0.8007
# 5 10.2478 -1.9194 8.8901 0.0000 39.9549 0.0000
# 6 0.0000 0.0000 0.0000 0.8007 0.0000 3.8688
#
#
#
# Elastic Compliance Matrix: (Units=1/GPa)
#
#
# Indices 1 2 3 4 5 6 
#
# 1 0.013485 0.002930 -0.000675 0.000000 -0.003168 0.000000
# 2 0.002930 0.018504 0.000184 0.000000 0.000096 0.000000
# 3 -0.000675 0.000184 0.010105 0.000000 -0.002066 0.000000
# 4 0.000000 0.000000 0.000000 0.329190 0.000000 -0.068128
# 5 -0.003168 0.000096 -0.002066 0.000000 0.026305 0.000000
# 6 0.000000 0.000000 0.000000 -0.068128 0.000000 0.272574
#
#
# Mechanical properties :
#
#
# Convention : Reuss Voigt Hill
#
# Bulk Modulus (GPa) = 21.28894 24.71263 23.00079
# Shear Modulus (GPa) = 7.34276 25.70617 16.52446
#
# Velocity S-wave (km/s) = 1.79681 3.36194 2.69548
# Velocity P-wave (km/s) = 3.69664 5.09274 4.44979
#
# Compressibility (1/GPa) = 0.04697275
#
# Stress axis : x y z
#
# Youngs Moduli (GPa) = 74.15851 54.04101 98.95997
#
# Poissons Ratio (x) = -0.15836 0.06684
# Poissons Ratio (y) = -0.21731 -0.01824
# Poissons Ratio (z) = 0.05009 -0.00996
#
# Static dielectric constant tensor:
#      x y z
#    x 1.974390 0.000000 -0.001910 
#    y 0.000000 1.957450 0.000000 
#    z -0.001910 0.000000 1.948800 
# 
# From -- ./inp_files/53285.got.cif
#   From: 2010.05.17/outbox.cif.g08.bks.cpg/sg12_27_cif.got.tgz:53285.got - 2010.06.03 13:09:07.
