data_PCOD9219093
_publ_section_title
;
Structure prediction by ZEFSAII (Michael W. Deem and Ramdas Pophale) SiO2 
 PCOD9219093
Probable space group: C 2/M
;
_chemical_formula_sum "Si O2"
_cell_formula_units_Z 56
_cell_length_a 18.856144
_cell_length_b 20.714651
_cell_length_c 14.999447
_cell_angle_alpha 90.000000
_cell_angle_beta 30.801923
_cell_angle_gamma 90.000000
_cell_volume 3000.105479
_symmetry_space_group_name_H-M "C 2/M"
_symmetry_group_IT_number 12
_symmetry_cell_setting 'monoclinic'
loop_
_space_group_symop_operation_xyz
x,y,z
-x,y,-z
-x,-y,-z
x,-y,z
1/2+x,1/2+y,z
1/2-x,1/2+y,-z
1/2-x,1/2-y,-z
1/2+x,1/2-y,z
loop_
_atom_site_type_symbol
_atom_site_label
_atom_site_fract_x
_atom_site_fract_y
_atom_site_fract_z
Si Si1 0.370929 0.425506 0.073044
Si Si2 0.875087 0.370533 0.195794
Si Si3 0.333609 0.269763 0.499861
Si Si4 0.841082 0.575561 0.417262
Si Si5 0.949118 0.000000 0.693289
Si Si6 0.233993 0.000000 0.274079
Si Si7 0.480270 0.618799 0.259068
Si Si8 0.115332 0.362414 0.450919
O O1 0.332623 0.500000 0.090039
O O2 0.250838 0.389184 0.255162
O O3 0.500000 0.430244 0.000000
O O4 0.425148 0.385508 0.929884
O O5 0.758087 0.317053 0.339221
O O6 0.914833 0.390560 0.253959
O O7 0.815362 0.435456 0.214277
O O8 0.000000 0.346607 0.000000
O O9 0.250000 0.250000 0.500000
O O10 0.463015 0.312380 0.325641
O O11 0.366706 0.206743 0.521052
O O12 0.837024 0.500000 0.404588
O O13 0.679838 0.599333 0.592361
O O14 0.909726 0.590882 0.437482
O O15 0.814982 0.000000 0.775268
O O16 0.090273 0.000000 0.483521
O O17 0.960818 0.935897 0.739485
O O18 0.000000 0.360879 0.500000
#
# Coordination Sequence:
#
# PCOD9219093 Si02
#       8
#     8   8   8   8   4   4   8   8
#     4  11  21  38  70  99 123 163 225 273 308 380
#     4  11  22  39  65  95 120 161 217 261 314 386
#     4  11  22  41  65  86 121 176 218 253 311 384
#     4  11  19  39  67  89 124 168 209 261 315 377
#     4  11  20  36  61  94 128 155 211 266 331 375
#     4  11  21  36  62  96 124 159 201 270 333 378
#     4  11  19  38  66  94 119 162 220 268 309 373
#     4  12  27  44  61  97 136 171 212 262 325 379
#
# _framework density 18.66601
#
# number of rings (size 3 to 8) (size 9 to 14) (size 15 to 20)
#    0.000    0.857    9.286    0.643    0.000    4.000 
#    2.571    0.714    0.000    0.000    0.000    0.000 
#    0.000    0.000    0.000    0.000    0.000    0.000 
#
# Total GULP energy -156291.918953 kJ/mol
# GULP energy per Si atom -5581.854248 kJ/mol
# Density = 1.862353 g / cm^3
# Si number density = 18.666010 Si / 1000 Ang^3
#
#
#
# Elastic Constant Matrix: (Units=GPa)
#
#
# Indices 1 2 3 4 5 6 
#
# 1 112.5811 10.5139 37.9770 -0.0016 7.1990 -0.0005
# 2 10.5139 79.4832 38.5052 -0.0017 5.5441 -0.0002
# 3 37.9770 38.5052 87.3888 -0.0023 30.2024 -0.0047
# 4 -0.0016 -0.0017 -0.0023 9.2071 0.0009 -6.0337
# 5 7.1990 5.5441 30.2024 0.0009 26.7864 0.0039
# 6 -0.0005 -0.0002 -0.0047 -6.0337 0.0039 1.3926
#
#
#
# Elastic Compliance Matrix: (Units=1/GPa)
#
#
# Indices 1 2 3 4 5 6 
#
# 1 0.010806 0.001659 -0.007053 0.000012 0.004705 0.000018
# 2 0.001659 0.017253 -0.011363 0.000022 0.008795 0.000033
# 3 -0.007053 -0.011363 0.029570 -0.000067 -0.029093 -0.000112
# 4 0.000012 0.000022 -0.000067 -0.059052 0.000107 -0.255846
# 5 0.004705 0.008795 -0.029093 0.000107 0.067051 0.000180
# 6 0.000018 0.000033 -0.000112 -0.255846 0.000180 -0.390407
#
#
# Mechanical properties :
#
#
# Convention : Reuss Voigt Hill
#
# Bulk Modulus (GPa) = 41.46710 50.38282 45.92496
# Shear Modulus (GPa) = -17.65363 20.30768 1.32703
#
# Velocity S-wave (km/s) = -3.07866 3.30199 0.84408
# Velocity P-wave (km/s) = 3.10258 6.44886 5.06033
#
# Compressibility (1/GPa) = 0.02411550
#
# Stress axis : x y z
#
# Youngs Moduli (GPa) = 92.54175 57.96139 33.81832
#
# Poissons Ratio (x) = -0.09618 0.23853
# Poissons Ratio (y) = -0.15356 0.38426
# Poissons Ratio (z) = 0.65272 0.65859
#
# Static dielectric constant tensor:
#      x y z
#    x 1.656330 0.000000 0.011120 
#    y 0.000000 1.650670 0.000000 
#    z 0.011120 0.000000 1.625320 
# 
# From -- ./inp_files/227623.got.cif
#   From: 2010.05.17/outbox.cif.g08.bks.cpg/sg12_114_cif.got.tgz:227623.got - 2010.06.03 13:09:07.
