data_PCOD9219182
_publ_section_title
;
Structure prediction by ZEFSAII (Michael W. Deem and Ramdas Pophale) SiO2 
 PCOD9219182
Probable space group: C 2/M
;
_chemical_formula_sum "Si O2"
_cell_formula_units_Z 48
_cell_length_a 21.196111
_cell_length_b 7.741114
_cell_length_c 23.904146
_cell_angle_alpha 90.000000
_cell_angle_beta 41.329152
_cell_angle_gamma 90.000000
_cell_volume 2590.176198
_symmetry_space_group_name_H-M "C 2/M"
_symmetry_group_IT_number 12
_symmetry_cell_setting 'monoclinic'
loop_
_space_group_symop_operation_xyz
x,y,z
-x,y,-z
-x,-y,-z
x,-y,z
1/2+x,1/2+y,z
1/2-x,1/2+y,-z
1/2-x,1/2-y,-z
1/2+x,1/2-y,z
loop_
_atom_site_type_symbol
_atom_site_label
_atom_site_fract_x
_atom_site_fract_y
_atom_site_fract_z
Si Si1 0.407597 0.698219 0.915538
Si Si2 0.424321 0.291667 0.722003
Si Si3 0.029884 0.211990 0.541756
Si Si4 0.763411 0.204928 0.556155
Si Si5 0.769563 0.706298 0.906605
Si Si6 0.941197 0.207060 0.265840
O O1 0.427968 0.500000 0.917607
O O2 0.337728 0.705280 0.907564
O O3 0.504767 0.776532 0.825513
O O4 0.338406 0.770124 0.010047
O O5 0.427442 0.500000 0.720027
O O6 0.457361 0.233038 0.639052
O O7 0.320621 0.238464 0.813735
O O8 0.501722 0.229656 0.716920
O O9 0.135988 0.272631 0.487754
O O10 0.000000 0.268034 0.500000
O O11 0.030278 0.000000 0.541560
O O12 0.750000 0.250000 0.500000
O O13 0.669979 0.259224 0.652588
O O14 0.768992 0.000000 0.555634
O O15 0.771153 0.500000 0.916317
O O16 0.954017 0.000000 0.256360
#
# Coordination Sequence:
#
# PCOD9219182 Si02
#       6
#     8   8   8   8   8   8
#     4   8  15  26  38  56  88 122 149 179 220 268
#     4   9  16  28  44  63  88 119 151 185 227 271
#     4   9  18  33  50  66  88 122 161 192 223 272
#     4  11  20  31  48  70  92 119 153 190 230 273
#     4   9  15  23  38  61  87 117 149 183 223 267
#     4   9  16  28  44  65  91 120 150 184 226 272
#
# _framework density 18.531556999999999
#
# number of rings (size 3 to 8) (size 9 to 14) (size 15 to 20)
#    0.000    2.833    1.667    2.000    0.000    3.333 
#    0.000    0.000    0.000    4.500    0.000    1.167 
#    0.000    9.333    0.000    0.000    0.000    0.000 
#
# Total GULP energy -133615.608516 kJ/mol
# GULP energy per Si atom -5567.317022 kJ/mol
# Density = 1.848938 g / cm^3
# Si number density = 18.531557 Si / 1000 Ang^3
#
#
#
# Elastic Constant Matrix: (Units=GPa)
#
#
# Indices 1 2 3 4 5 6 
#
# 1 69.3042 1.2503 65.9905 0.0000 3.6524 0.0002
# 2 1.2503 31.6074 3.9081 0.0003 1.4638 0.0001
# 3 65.9905 3.9081 237.2728 0.0002 -2.7815 -0.0001
# 4 0.0000 0.0003 0.0002 25.1379 0.0000 -2.8900
# 5 3.6524 1.4638 -2.7815 0.0000 15.2595 -0.0001
# 6 0.0002 0.0001 -0.0001 -2.8900 -0.0001 8.9874
#
#
#
# Elastic Compliance Matrix: (Units=1/GPa)
#
#
# Indices 1 2 3 4 5 6 
#
# 1 0.020136 0.000177 -0.005672 0.000000 -0.005871 -0.000001
# 2 0.000177 0.031855 -0.000611 0.000000 -0.003209 0.000000
# 3 -0.005672 -0.000611 0.005831 0.000000 0.002479 0.000000
# 4 0.000000 0.000000 0.000000 0.041308 0.000000 0.013283
# 5 -0.005871 -0.003209 0.002479 0.000000 0.067698 0.000001
# 6 -0.000001 0.000000 0.000000 0.013283 0.000001 0.115538
#
#
# Mechanical properties :
#
#
# Convention : Reuss Voigt Hill
#
# Bulk Modulus (GPa) = 21.92543 53.38693 37.65618
# Shear Modulus (GPa) = 16.14034 27.67932 21.90983
#
# Velocity S-wave (km/s) = 2.95441 3.86895 3.44219
# Velocity P-wave (km/s) = 4.84718 6.98781 6.01351
#
# Compressibility (1/GPa) = 0.04560915
#
# Stress axis : x y z
#
# Youngs Moduli (GPa) = 49.66190 31.39185 171.49129
#
# Poissons Ratio (x) = -0.00555 0.97270
# Poissons Ratio (y) = -0.00877 0.10486
# Poissons Ratio (z) = 0.28168 0.01919
#
# Static dielectric constant tensor:
#      x y z
#    x 1.592420 0.000000 -0.011160 
#    y 0.000000 1.698580 0.000000 
#    z -0.011160 0.000000 1.713760 
# 
# From -- ./inp_files/229318.got.cif
#   From: 2010.05.17/outbox.cif.g08.bks.cpg/sg12_115_cif.got.tgz:229318.got - 2010.06.03 13:09:07.
