data_PCOD9219178
_publ_section_title
;
Structure prediction by ZEFSAII (Michael W. Deem and Ramdas Pophale) SiO2 
 PCOD9219178
Probable space group: C 2/M
;
_chemical_formula_sum "Si O2"
_cell_formula_units_Z 40
_cell_length_a 13.973218
_cell_length_b 8.210448
_cell_length_c 15.291019
_cell_angle_alpha 90.000000
_cell_angle_beta 103.155955
_cell_angle_gamma 90.000000
_cell_volume 1708.240607
_symmetry_space_group_name_H-M "C 2/M"
_symmetry_group_IT_number 12
_symmetry_cell_setting 'monoclinic'
loop_
_space_group_symop_operation_xyz
x,y,z
-x,y,-z
-x,-y,-z
x,-y,z
1/2+x,1/2+y,z
1/2-x,1/2+y,-z
1/2-x,1/2-y,-z
1/2+x,1/2-y,z
loop_
_atom_site_type_symbol
_atom_site_label
_atom_site_fract_x
_atom_site_fract_y
_atom_site_fract_z
Si Si1 0.714798 0.818372 0.899974
Si Si2 0.167036 0.821153 0.712947
Si Si3 0.093798 0.500000 0.398326
Si Si4 0.141389 0.500000 0.604686
Si Si5 0.068084 0.819990 0.291148
Si Si6 0.481438 0.687202 0.098132
O O1 0.723590 0.707741 0.816133
O O2 0.597537 0.818301 0.888877
O O3 0.753760 0.000000 0.893857
O O4 0.750000 0.750000 0.000000
O O5 0.183555 0.664259 0.656303
O O6 0.049237 0.821152 0.709426
O O7 0.189439 0.000000 0.681168
O O8 0.148806 0.500000 0.502068
O O9 0.112299 0.664805 0.348215
O O10 0.976009 0.500000 0.396130
O O11 0.068836 0.802864 0.186014
O O12 0.105572 0.000000 0.323568
O O13 0.442631 0.500000 0.099698
O O14 0.500000 0.709252 0.000000
#
# Coordination Sequence:
#
# PCOD9219178 Si02
#       6
#     8   8   4   4   8   8
#     4  11  20  31  47  69  96 129 165 197 235 286
#     4   9  16  28  42  59  86 119 153 187 235 280
#     4   9  16  24  39  58  86 116 155 188 229 280
#     4   9  16  26  38  60  84 118 151 192 231 278
#     4   8  15  26  40  59  86 120 152 185 230 279
#     4   9  18  32  48  68  96 131 163 196 240 284
#
# _framework density 23.415906
#
# number of rings (size 3 to 8) (size 9 to 14) (size 15 to 20)
#    0.000    2.800    1.000    3.000    4.200    1.200 
#    0.000    4.000    0.000    0.000    0.000    0.000 
#    0.000    1.600    0.800    0.000    0.000    0.000 
#
# Total GULP energy -111694.621150 kJ/mol
# GULP energy per Si atom -5584.731058 kJ/mol
# Density = 2.336261 g / cm^3
# Si number density = 23.415906 Si / 1000 Ang^3
#
#
#
# Elastic Constant Matrix: (Units=GPa)
#
#
# Indices 1 2 3 4 5 6 
#
# 1 62.7269 25.4337 -6.1405 0.0000 0.5739 0.0000
# 2 25.4337 216.7820 119.3701 0.0000 -4.8967 0.0000
# 3 -6.1405 119.3701 175.1200 0.0000 -11.0302 0.0000
# 4 0.0000 0.0000 0.0000 27.0873 0.0000 -1.4911
# 5 0.5739 -4.8967 -11.0302 0.0000 10.4959 0.0000
# 6 0.0000 0.0000 0.0000 -1.4911 0.0000 24.7065
#
#
#
# Elastic Compliance Matrix: (Units=1/GPa)
#
#
# Indices 1 2 3 4 5 6 
#
# 1 0.017852 -0.003918 0.003342 0.000000 0.000707 0.000000
# 2 -0.003918 0.008283 -0.005919 0.000000 -0.002141 0.000000
# 3 0.003342 -0.005919 0.010362 0.000000 0.007946 0.000000
# 4 0.000000 0.000000 0.000000 0.037041 0.000000 0.002235
# 5 0.000707 -0.002141 0.007946 0.000000 0.102588 0.000000
# 6 0.000000 0.000000 0.000000 0.002235 0.000000 0.040610
#
#
# Mechanical properties :
#
#
# Convention : Reuss Voigt Hill
#
# Bulk Modulus (GPa) = 42.54175 81.32837 61.93506
# Shear Modulus (GPa) = 21.04706 33.52232 27.28469
#
# Velocity S-wave (km/s) = 3.00131 3.78776 3.41724
# Velocity P-wave (km/s) = 5.49707 7.34418 6.48671
#
# Compressibility (1/GPa) = 0.02350632
#
# Stress axis : x y z
#
# Youngs Moduli (GPa) = 56.01751 120.72450 96.50263
#
# Poissons Ratio (x) = 0.47305 -0.32246
# Poissons Ratio (y) = 0.21950 0.57116
# Poissons Ratio (z) = -0.18718 0.71452
#
# Static dielectric constant tensor:
#      x y z
#    x 2.114070 0.000000 0.088440 
#    y 0.000000 1.836150 0.000000 
#    z 0.088440 0.000000 1.898340 
# 
# From -- ./inp_files/229113.got.cif
#   From: 2010.05.17/outbox.cif.g08.bks.cpg/sg12_115_cif.got.tgz:229113.got - 2010.06.03 13:09:07.
