data_PCOD9219652
_publ_section_title
;
Structure prediction by ZEFSAII (Michael W. Deem and Ramdas Pophale) SiO2 
 PCOD9219652
Probable space group: C 2/M
;
_chemical_formula_sum "Si O2"
_cell_formula_units_Z 48
_cell_length_a 15.445237
_cell_length_b 14.257395
_cell_length_c 9.494763
_cell_angle_alpha 90.000000
_cell_angle_beta 58.115524
_cell_angle_gamma 90.000000
_cell_volume 1775.355441
_symmetry_space_group_name_H-M "C 2/M"
_symmetry_group_IT_number 12
_symmetry_cell_setting 'monoclinic'
loop_
_space_group_symop_operation_xyz
x,y,z
-x,y,-z
-x,-y,-z
x,-y,z
1/2+x,1/2+y,z
1/2-x,1/2+y,-z
1/2-x,1/2-y,-z
1/2+x,1/2-y,z
loop_
_atom_site_type_symbol
_atom_site_label
_atom_site_fract_x
_atom_site_fract_y
_atom_site_fract_z
Si Si1 0.114613 0.302581 0.410747
Si Si2 0.579410 0.140519 0.747201
Si Si3 0.704962 0.600275 0.368731
Si Si4 0.137539 0.865260 0.032816
Si Si5 0.352306 0.858385 0.925322
Si Si6 0.092328 0.134747 0.752906
O O1 0.112009 0.363741 0.554325
O O2 0.178026 0.206832 0.349117
O O3 0.138421 0.361072 0.252907
O O4 0.000000 0.264880 0.500000
O O5 0.672663 0.097542 0.751329
O O6 0.464701 0.106530 0.873737
O O7 0.583989 0.252380 0.767206
O O8 0.661765 0.500000 0.355323
O O9 0.666698 0.605588 0.564801
O O10 0.145037 0.751588 0.033856
O O11 0.024470 0.893663 0.180395
O O12 0.236413 0.895767 0.038281
O O13 0.132788 0.893412 0.872041
#
# Coordination Sequence:
#
# PCOD9219652 Si02
#       6
#     8   8   8   8   8   8
#     4   9  17  31  52  75  97 122 158 207 250 280
#     4   9  17  30  50  72  96 126 160 204 244 280
#     4  11  21  32  49  72 101 133 162 197 240 287
#     4   9  16  27  48  75  96 120 156 200 245 283
#     4   9  16  27  49  79  98 115 156 207 247 284
#     4   9  17  31  49  71  96 124 163 201 238 284
#
# _framework density 27.036840000000002
#
# number of rings (size 3 to 8) (size 9 to 14) (size 15 to 20)
#    0.000    2.667    0.000    5.000    0.000    0.333 
#    0.000    1.667    0.000   14.500    0.000   57.167 
#    0.000    0.000    0.000    0.000    0.000    0.000 
#
# Total GULP energy -134067.837726 kJ/mol
# GULP energy per Si atom -5586.159905 kJ/mol
# Density = 2.697530 g / cm^3
# Si number density = 27.036840 Si / 1000 Ang^3
#
#
#
# Elastic Constant Matrix: (Units=GPa)
#
#
# Indices 1 2 3 4 5 6 
#
# 1 176.7152 5.0155 35.1256 0.0000 -53.9989 0.0000
# 2 5.0155 98.7994 -9.6744 0.0000 -18.1487 0.0000
# 3 35.1256 -9.6744 109.7250 0.0000 -23.6555 0.0000
# 4 0.0000 0.0000 0.0000 27.1477 0.0000 -26.0757
# 5 -53.9989 -18.1487 -23.6555 0.0000 65.6903 0.0000
# 6 0.0000 0.0000 0.0000 -26.0757 0.0000 6.9092
#
#
#
# Elastic Compliance Matrix: (Units=1/GPa)
#
#
# Indices 1 2 3 4 5 6 
#
# 1 0.007734 0.000627 -0.001098 0.000000 0.006135 0.000000
# 2 0.000627 0.011017 0.001667 0.000000 0.004160 0.000000
# 3 -0.001098 0.001667 0.010318 0.000000 0.003274 0.000000
# 4 0.000000 0.000000 0.000000 -0.014032 0.000000 -0.052959
# 5 0.006135 0.004160 0.003274 0.000000 0.022595 0.000000
# 6 0.000000 0.000000 0.000000 -0.052959 0.000000 -0.055136
#
#
# Mechanical properties :
#
#
# Convention : Reuss Voigt Hill
#
# Bulk Modulus (GPa) = 31.78436 49.57478 40.67957
# Shear Modulus (GPa) = -531.31519 43.60096 -243.85712
#
# Velocity S-wave (km/s) = -14.03360 4.02014 -9.50738
# Velocity P-wave (km/s) = 15.83691 6.31858 10.26848
#
# Compressibility (1/GPa) = 0.03146201
#
# Stress axis : x y z
#
# Youngs Moduli (GPa) = 129.29829 90.76846 96.91857
#
# Poissons Ratio (x) = -0.05690 0.10640
# Poissons Ratio (y) = -0.08106 -0.16160
# Poissons Ratio (z) = 0.14195 -0.15135
#
# Static dielectric constant tensor:
#      x y z
#    x 2.168230 0.000000 0.046130 
#    y 0.000000 2.036750 0.000000 
#    z 0.046130 0.000000 2.167360 
# 
# From -- ./inp_files/157661.got.cif
#   From: 2010.05.17/outbox.cif.g08.bks.cpg/sg12_79_cif.got.tgz:157661.got - 2010.06.03 13:09:07.
