data_PCOD9219852
_publ_section_title
;
Structure prediction by ZEFSAII (Michael W. Deem and Ramdas Pophale) SiO2 
 PCOD9219852
Probable space group: C 2/M
;
_chemical_formula_sum "Si O2"
_cell_formula_units_Z 36
_cell_length_a 22.721265
_cell_length_b 9.666830
_cell_length_c 9.344418
_cell_angle_alpha 90.000000
_cell_angle_beta 68.028333
_cell_angle_gamma 90.000000
_cell_volume 1903.362081
_symmetry_space_group_name_H-M "C 2/M"
_symmetry_group_IT_number 12
_symmetry_cell_setting 'monoclinic'
loop_
_space_group_symop_operation_xyz
x,y,z
-x,y,-z
-x,-y,-z
x,-y,z
1/2+x,1/2+y,z
1/2-x,1/2+y,-z
1/2-x,1/2-y,-z
1/2+x,1/2-y,z
loop_
_atom_site_type_symbol
_atom_site_label
_atom_site_fract_x
_atom_site_fract_y
_atom_site_fract_z
Si Si1 0.422432 0.500000 0.075071
Si Si2 0.445286 0.000000 0.172053
Si Si3 0.070098 0.000000 0.604978
Si Si4 0.131993 0.233418 0.083912
Si Si5 0.499217 0.790178 0.339422
Si Si6 0.817326 0.500000 0.109902
Si Si7 0.675673 0.500000 0.261537
O O1 0.403299 0.500000 0.258064
O O2 0.500000 0.500000 0.000000
O O3 0.394670 0.634009 0.018455
O O4 0.455629 0.870413 0.266886
O O5 0.377116 0.000000 0.161618
O O6 0.500000 0.000000 0.000000
O O7 0.025765 0.133816 0.631059
O O8 0.124425 0.000000 0.435391
O O9 0.069668 0.297102 0.213569
O O10 0.163935 0.132977 0.170957
O O11 0.174460 0.359531 0.989731
O O12 0.500000 0.844509 0.500000
O O13 0.748428 0.500000 0.244336
#
# Coordination Sequence:
#
# PCOD9219852 Si02
#       7
#     4   4   4   8   8   4   4
#     4  11  21  35  65  99 131 159 212 267 321 378
#     4  12  25  41  63  95 131 165 209 272 329 369
#     4  12  22  37  66  98 129 164 210 267 323 369
#     4  11  22  41  68  95 125 173 219 264 314 381
#     4  12  22  39  66 100 128 159 213 275 329 369
#     4  12  25  43  67  92 133 174 221 254 316 393
#     4  11  25  45  63  93 134 179 212 255 315 392
#
# _framework density 18.913899000000001
#
# number of rings (size 3 to 8) (size 9 to 14) (size 15 to 20)
#    0.000    0.444    6.667    3.333    0.000    0.000 
#    0.000    4.444    4.889    0.000    0.000    0.000 
#    0.000    0.000    0.000    0.000    0.000    0.000 
#
# Total GULP energy -100646.905210 kJ/mol
# GULP energy per Si atom -5591.494734 kJ/mol
# Density = 1.887085 g / cm^3
# Si number density = 18.913899 Si / 1000 Ang^3
#
#
#
# Elastic Constant Matrix: (Units=GPa)
#
#
# Indices 1 2 3 4 5 6 
#
# 1 63.6807 -13.0363 7.4323 0.0000 1.4458 0.0000
# 2 -13.0363 85.5037 10.5503 0.0000 4.5161 0.0000
# 3 7.4323 10.5503 88.8230 0.0000 19.1796 0.0000
# 4 0.0000 0.0000 0.0000 -16.1059 0.0000 -20.8854
# 5 1.4458 4.5161 19.1796 0.0000 37.4332 0.0000
# 6 0.0000 0.0000 0.0000 -20.8854 0.0000 -3.4052
#
#
#
# Elastic Compliance Matrix: (Units=1/GPa)
#
#
# Indices 1 2 3 4 5 6 
#
# 1 0.016459 0.002722 -0.001678 0.000000 -0.000104 0.000000
# 2 0.002722 0.012341 -0.001517 0.000000 -0.000817 0.000000
# 3 -0.001678 -0.001517 0.012959 0.000000 -0.006392 0.000000
# 4 0.000000 0.000000 0.000000 0.008929 0.000000 -0.054766
# 5 -0.000104 -0.000817 -0.006392 0.000000 0.030092 0.000000
# 6 0.000000 0.000000 0.000000 -0.054766 0.000000 0.042233
#
#
# Mechanical properties :
#
#
# Convention : Reuss Voigt Hill
#
# Bulk Modulus (GPa) = 24.50250 27.54443 26.02347
# Shear Modulus (GPa) = 36.34670 19.12182 27.73426
#
# Velocity S-wave (km/s) = 4.38847 3.18306 3.83344
# Velocity P-wave (km/s) = 6.21780 5.30131 5.77776
#
# Compressibility (1/GPa) = 0.04081216
#
# Stress axis : x y z
#
# Youngs Moduli (GPa) = 60.75784 81.03237 77.16521
#
# Poissons Ratio (x) = -0.22057 0.12948
# Poissons Ratio (y) = -0.16538 0.11708
# Poissons Ratio (z) = 0.10195 0.12295
#
# Static dielectric constant tensor:
#      x y z
#    x 1.635790 0.000000 0.025270 
#    y 0.000000 1.675440 0.000000 
#    z 0.025270 0.000000 1.639710 
# 
# From -- ./inp_files/92688.got.cif
#   From: 2010.05.17/outbox.cif.g08.bks.cpg/sg12_47_cif.got.tgz:92688.got - 2010.06.03 13:09:07.
