data_PCOD9219766
_publ_section_title
;
Structure prediction by ZEFSAII (Michael W. Deem and Ramdas Pophale) SiO2 
 PCOD9219766
Probable space group: C 2/M
;
_chemical_formula_sum "Si O2"
_cell_formula_units_Z 56
_cell_length_a 17.152375
_cell_length_b 25.151879
_cell_length_c 8.678666
_cell_angle_alpha 90.000000
_cell_angle_beta 59.208597
_cell_angle_gamma 90.000000
_cell_volume 3216.321100
_symmetry_space_group_name_H-M "C 2/M"
_symmetry_group_IT_number 12
_symmetry_cell_setting 'monoclinic'
loop_
_space_group_symop_operation_xyz
x,y,z
-x,y,-z
-x,-y,-z
x,-y,z
1/2+x,1/2+y,z
1/2-x,1/2+y,-z
1/2-x,1/2-y,-z
1/2+x,1/2-y,z
loop_
_atom_site_type_symbol
_atom_site_label
_atom_site_fract_x
_atom_site_fract_y
_atom_site_fract_z
Si Si1 0.818748 0.611360 0.492461
Si Si2 0.497502 0.838955 0.178097
Si Si3 0.005807 0.212835 0.169681
Si Si4 0.806995 0.800681 0.508355
Si Si5 0.609055 0.000000 0.707408
Si Si6 0.106630 0.500000 0.079903
Si Si7 0.330196 0.890545 0.847121
Si Si8 0.799934 0.802783 0.883147
O O1 0.733262 0.643897 0.514684
O O2 0.841039 0.552847 0.404540
O O3 0.815569 0.608638 0.679671
O O4 0.902368 0.647422 0.350008
O O5 0.514067 0.776582 0.151878
O O6 0.574732 0.863249 0.205764
O O7 0.500000 0.861112 0.000000
O O8 0.096933 0.194086 0.161304
O O9 0.911721 0.202541 0.352067
O O10 0.000000 0.192261 0.000000
O O11 0.750000 0.750000 0.500000
O O12 0.797655 0.799208 0.701482
O O13 0.501664 0.000000 0.767716
O O14 0.610367 0.000000 0.891224
O O15 0.157375 0.448890 0.096008
O O16 0.254422 0.854313 0.004072
O O17 0.750000 0.750000 0.000000
#
# Coordination Sequence:
#
# PCOD9219766 Si02
#       8
#     8   8   8   8   4   4   8   8
#     4  12  24  38  59  87 121 158 200 245 295 354
#     4  11  21  34  56  85 121 159 197 242 292 351
#     4  11  23  39  60  87 121 158 200 246 296 352
#     4  12  24  39  60  87 120 159 200 244 298 354
#     4  11  23  39  61  86 120 159 198 244 298 353
#     4  11  23  39  61  86 120 159 198 244 298 353
#     4  12  24  38  59  87 121 158 200 245 295 354
#     4  12  24  39  60  87 120 159 200 244 298 354
#
# _framework density 17.411196
#
# number of rings (size 3 to 8) (size 9 to 14) (size 15 to 20)
#    0.000    0.429    4.286    6.429    0.000    1.714 
#    0.000    0.000    0.000    0.857    0.000    6.000 
#    0.000    0.000    0.000    0.000    0.000    0.000 
#
# Total GULP energy -156537.157062 kJ/mol
# GULP energy per Si atom -5590.612752 kJ/mol
# Density = 1.737157 g / cm^3
# Si number density = 17.411196 Si / 1000 Ang^3
#
#
#
# Elastic Constant Matrix: (Units=GPa)
#
#
# Indices 1 2 3 4 5 6 
#
# 1 105.4347 34.8573 41.1862 0.0000 14.6835 0.0000
# 2 34.8573 88.3061 23.4997 0.0000 10.7296 0.0000
# 3 41.1862 23.4997 110.4544 0.0000 28.4947 0.0000
# 4 0.0000 0.0000 0.0000 33.1385 0.0000 -11.4180
# 5 14.6835 10.7296 28.4947 0.0000 40.6941 0.0000
# 6 0.0000 0.0000 0.0000 -11.4180 0.0000 78.2010
#
#
#
# Elastic Compliance Matrix: (Units=1/GPa)
#
#
# Indices 1 2 3 4 5 6 
#
# 1 0.012240 -0.003780 -0.003512 0.000000 -0.000961 0.000000
# 2 -0.003780 0.013266 -0.001053 0.000000 -0.001397 0.000000
# 3 -0.003512 -0.001053 0.012435 0.000000 -0.007162 0.000000
# 4 0.000000 0.000000 0.000000 0.031775 0.000000 0.004639
# 5 -0.000961 -0.001397 -0.007162 0.000000 0.030304 0.000000
# 6 0.000000 0.000000 0.000000 0.004639 0.000000 0.013465
#
#
# Mechanical properties :
#
#
# Convention : Reuss Voigt Hill
#
# Bulk Modulus (GPa) = 47.05555 55.92017 51.48786
# Shear Modulus (GPa) = 36.42787 44.05020 40.23904
#
# Velocity S-wave (km/s) = 4.57903 5.03536 4.81261
# Velocity P-wave (km/s) = 7.41899 8.12364 7.77930
#
# Compressibility (1/GPa) = 0.02125148
#
# Stress axis : x y z
#
# Youngs Moduli (GPa) = 81.69961 75.37935 80.42028
#
# Poissons Ratio (x) = 0.28495 0.28243
# Poissons Ratio (y) = 0.30884 0.08465
# Poissons Ratio (z) = 0.28693 0.07934
#
# Static dielectric constant tensor:
#      x y z
#    x 1.580380 0.000000 0.012490 
#    y 0.000000 1.590600 0.000000 
#    z 0.012490 0.000000 1.582230 
# 
# From -- ./inp_files/65827.got.cif
#   From: 2010.05.17/outbox.cif.g08.bks.cpg/sg12_33_cif.got.tgz:65827.got - 2010.06.03 13:09:07.
