data_PCOD9219544
_publ_section_title
;
Structure prediction by ZEFSAII (Michael W. Deem and Ramdas Pophale) SiO2 
 PCOD9219544
Probable space group: C 2/M
;
_chemical_formula_sum "Si O2"
_cell_formula_units_Z 56
_cell_length_a 8.740250
_cell_length_b 15.580829
_cell_length_c 19.663075
_cell_angle_alpha 90.000000
_cell_angle_beta 79.881508
_cell_angle_gamma 90.000000
_cell_volume 2636.076348
_symmetry_space_group_name_H-M "C 2/M"
_symmetry_group_IT_number 12
_symmetry_cell_setting 'monoclinic'
loop_
_space_group_symop_operation_xyz
x,y,z
-x,y,-z
-x,-y,-z
x,-y,z
1/2+x,1/2+y,z
1/2-x,1/2+y,-z
1/2-x,1/2-y,-z
1/2+x,1/2-y,z
loop_
_atom_site_type_symbol
_atom_site_label
_atom_site_fract_x
_atom_site_fract_y
_atom_site_fract_z
Si Si1 0.711333 0.831782 0.881953
Si Si2 0.224691 0.402532 0.287438
Si Si3 0.677673 0.281868 0.356140
Si Si4 0.599669 0.213648 0.550072
Si Si5 0.591525 0.406021 0.244280
Si Si6 0.133940 0.648406 0.148620
Si Si7 0.824075 0.902067 0.007856
O O1 0.824651 0.897164 0.834109
O O2 0.781099 0.740031 0.856846
O O3 0.538203 0.842252 0.867891
O O4 0.727280 0.847872 0.960797
O O5 0.197020 0.500000 0.316291
O O6 0.197208 0.320256 0.338473
O O7 0.406546 0.396906 0.252925
O O8 0.131291 0.389219 0.224600
O O9 0.520455 0.285464 0.413121
O O10 0.822129 0.320760 0.387000
O O11 0.654608 0.332724 0.288872
O O12 0.500000 0.164187 0.500000
O O13 0.750000 0.250000 0.500000
O O14 0.623824 0.500000 0.271407
O O15 0.238732 0.597380 0.086697
O O16 0.834734 0.000000 0.982287
O O17 0.000000 0.867486 0.000000
#
# Coordination Sequence:
#
# PCOD9219544 Si02
#       7
#     8   8   8   8   8   8   8
#     4  12  25  41  63  91 127 169 222 275 330 390
#     4  11  24  41  64  97 134 173 219 274 332 387
#     4  11  20  40  68  95 131 174 214 261 323 384
#     4   9  20  38  68 100 129 171 216 256 315 383
#     4  11  24  41  64  97 133 174 220 272 330 391
#     4  12  25  41  63  91 127 169 221 276 330 390
#     4  11  24  43  64  87 123 171 218 274 336 391
#
# _framework density 21.243696
#
# number of rings (size 3 to 8) (size 9 to 14) (size 15 to 20)
#    0.000    1.000    2.857    4.286    2.000    5.143 
#    0.000    0.000    0.000   17.143    0.000    0.000 
#    0.000    0.000    0.000    0.000    0.000    0.000 
#
# Total GULP energy -156324.094190 kJ/mol
# GULP energy per Si atom -5583.003364 kJ/mol
# Density = 2.119534 g / cm^3
# Si number density = 21.243696 Si / 1000 Ang^3
#
#
#
# Elastic Constant Matrix: (Units=GPa)
#
#
# Indices 1 2 3 4 5 6 
#
# 1 113.3588 20.4335 21.7046 0.0000 11.4481 0.0000
# 2 20.4335 96.2604 17.0447 0.0000 5.7963 0.0000
# 3 21.7046 17.0447 84.7650 0.0000 12.6323 0.0000
# 4 0.0000 0.0000 0.0000 -1.9092 0.0000 -5.0942
# 5 11.4481 5.7963 12.6323 0.0000 46.0453 0.0000
# 6 0.0000 0.0000 0.0000 -5.0942 0.0000 14.7488
#
#
#
# Elastic Compliance Matrix: (Units=1/GPa)
#
#
# Indices 1 2 3 4 5 6 
#
# 1 0.009644 -0.001611 -0.001896 0.000000 -0.001675 0.000000
# 2 -0.001611 0.011069 -0.001736 0.000000 -0.000517 0.000000
# 3 -0.001896 -0.001736 0.013063 0.000000 -0.002894 0.000000
# 4 0.000000 0.000000 0.000000 -0.272574 0.000000 -0.094146
# 5 -0.001675 -0.000517 -0.002894 0.000000 0.022993 0.000000
# 6 0.000000 0.000000 0.000000 -0.094146 0.000000 0.035285
#
#
# Mechanical properties :
#
#
# Convention : Reuss Voigt Hill
#
# Bulk Modulus (GPa) = 42.93628 45.86109 44.39869
# Shear Modulus (GPa) = -30.81276 27.45705 -1.67785
#
# Velocity S-wave (km/s) = -3.81260 3.59901 -0.88968
# Velocity P-wave (km/s) = 0.93486 6.23742 4.45979
#
# Compressibility (1/GPa) = 0.02329032
#
# Stress axis : x y z
#
# Youngs Moduli (GPa) = 103.69109 90.34287 76.55090
#
# Poissons Ratio (x) = 0.14551 0.14514
# Poissons Ratio (y) = 0.16701 0.13292
# Poissons Ratio (z) = 0.19659 0.15687
#
# Static dielectric constant tensor:
#      x y z
#    x 1.771630 0.000000 0.022370 
#    y 0.000000 1.477650 0.000000 
#    z 0.022370 0.000000 1.809990 
# 
# From -- ./inp_files/300136.got.cif
#   From: 2010.05.17/outbox.cif.g08.bks.cpg/sg12_151_cif.got.tgz:300136.got - 2010.06.03 13:09:07.
