data_PCOD9219177
_publ_section_title
;
Structure prediction by ZEFSAII (Michael W. Deem and Ramdas Pophale) SiO2 
 PCOD9219177
Probable space group: C 2/M
;
_chemical_formula_sum "Si O2"
_cell_formula_units_Z 64
_cell_length_a 25.444683
_cell_length_b 8.367220
_cell_length_c 16.483103
_cell_angle_alpha 90.000000
_cell_angle_beta 81.893288
_cell_angle_gamma 90.000000
_cell_volume 3474.205745
_symmetry_space_group_name_H-M "C 2/M"
_symmetry_group_IT_number 12
_symmetry_cell_setting 'monoclinic'
loop_
_space_group_symop_operation_xyz
x,y,z
-x,y,-z
-x,-y,-z
x,-y,z
1/2+x,1/2+y,z
1/2-x,1/2+y,-z
1/2-x,1/2-y,-z
1/2+x,1/2-y,z
loop_
_atom_site_type_symbol
_atom_site_label
_atom_site_fract_x
_atom_site_fract_y
_atom_site_fract_z
Si Si1 0.104113 0.681030 0.979804
Si Si2 0.454028 0.692079 0.859848
Si Si3 0.012333 0.195116 0.406798
Si Si4 0.154108 0.189910 0.802423
Si Si5 0.886675 0.195454 0.717434
Si Si6 0.273267 0.316710 0.764228
Si Si7 0.446311 0.695077 0.266843
Si Si8 0.293121 0.182913 0.929538
O O1 0.090483 0.500000 0.960635
O O2 0.058151 0.754135 0.046149
O O3 0.152604 0.681135 0.033269
O O4 0.128004 0.763793 0.894777
O O5 0.452108 0.500000 0.859772
O O6 0.411525 0.746295 0.799488
O O7 0.511136 0.742252 0.811811
O O8 0.069862 0.241426 0.359059
O O9 0.000000 0.251018 0.500000
O O10 0.969475 0.246270 0.348444
O O11 0.011593 0.000000 0.407934
O O12 0.214200 0.246426 0.774793
O O13 0.112121 0.250375 0.744605
O O14 0.155363 0.000000 0.799218
O O15 0.826897 0.253932 0.712055
O O16 0.884633 0.000000 0.720197
O O17 0.268479 0.500000 0.740395
O O18 0.291043 0.299081 0.853892
O O19 0.446182 0.500000 0.267448
O O20 0.280866 0.000000 0.906315
O O21 0.250000 0.250000 0.000000
#
# Coordination Sequence:
#
# PCOD9219177 Si02
#       8
#     8   8   8   8   8   8   8   8
#     4  11  22  32  44  67  96 126 169 213 249 286
#     4   9  16  31  51  67  91 127 165 206 251 288
#     4   8  13  26  52  82 104 119 144 192 247 291
#     4  11  22  34  47  64  94 136 174 203 240 287
#     4   8  15  26  45  73  99 122 151 194 245 289
#     4  11  20  31  47  68  96 129 167 206 244 289
#     4   8  17  32  49  71  96 126 164 200 238 294
#     4  11  21  31  45  65  93 127 169 216 252 282
#
# _framework density 18.421476999999999
#
# number of rings (size 3 to 8) (size 9 to 14) (size 15 to 20)
#    0.000    2.375    2.500    3.000    0.000    1.500 
#    0.000    3.750    0.000    0.750    0.000    0.000 
#    0.000   31.000    0.000    0.000    0.000    0.250 
#
# Total GULP energy -178234.021910 kJ/mol
# GULP energy per Si atom -5569.813185 kJ/mol
# Density = 1.837955 g / cm^3
# Si number density = 18.421477 Si / 1000 Ang^3
#
#
#
# Elastic Constant Matrix: (Units=GPa)
#
#
# Indices 1 2 3 4 5 6 
#
# 1 139.0496 16.3670 69.4401 0.0000 -2.7708 0.0000
# 2 16.3670 17.3118 6.4018 0.0000 0.4011 0.0000
# 3 69.4401 6.4018 96.4405 0.0000 -15.7596 0.0000
# 4 0.0000 0.0000 0.0000 6.3260 0.0000 -1.5171
# 5 -2.7708 0.4011 -15.7596 0.0000 15.9048 0.0000
# 6 0.0000 0.0000 0.0000 -1.5171 0.0000 14.1210
#
#
#
# Elastic Compliance Matrix: (Units=1/GPa)
#
#
# Indices 1 2 3 4 5 6 
#
# 1 0.013067 -0.008456 -0.010072 0.000000 -0.007490 0.000000
# 2 -0.008456 0.065246 0.001489 0.000000 -0.001643 0.000000
# 3 -0.010072 0.001489 0.020558 0.000000 0.018578 0.000000
# 4 0.000000 0.000000 0.000000 0.162259 0.000000 0.017432
# 5 -0.007490 -0.001643 0.018578 0.000000 0.080019 0.000000
# 6 0.000000 0.000000 0.000000 0.017432 0.000000 0.072689
#
#
# Mechanical properties :
#
#
# Convention : Reuss Voigt Hill
#
# Bulk Modulus (GPa) = 15.43347 48.57998 32.00673
# Shear Modulus (GPa) = 10.64931 17.97657 14.31294
#
# Velocity S-wave (km/s) = 2.40696 3.12725 2.79044
# Velocity P-wave (km/s) = 4.01507 6.28237 5.27205
#
# Compressibility (1/GPa) = 0.06479423
#
# Stress axis : x y z
#
# Youngs Moduli (GPa) = 76.52613 15.32658 48.64295
#
# Poissons Ratio (x) = 0.12961 0.48991
# Poissons Ratio (y) = 0.64713 -0.07244
# Poissons Ratio (z) = 0.77074 -0.02282
#
# Static dielectric constant tensor:
#      x y z
#    x 1.692520 0.000000 -0.022750 
#    y 0.000000 1.660250 0.000000 
#    z -0.022750 0.000000 1.629050 
# 
# From -- ./inp_files/287575.got.cif
#   From: 2010.05.17/outbox.cif.g08.bks.cpg/sg12_144_cif.got.tgz:287575.got - 2010.06.03 13:09:07.
