data_PCOD9219041
_publ_section_title
;
Structure prediction by ZEFSAII (Michael W. Deem and Ramdas Pophale) SiO2 
 PCOD9219041
Probable space group: C 2/M
;
_chemical_formula_sum "Si O2"
_cell_formula_units_Z 38
_cell_length_a 8.131101
_cell_length_b 29.064627
_cell_length_c 13.130727
_cell_angle_alpha 90.000000
_cell_angle_beta 27.423449
_cell_angle_gamma 90.000000
_cell_volume 1429.196740
_symmetry_space_group_name_H-M "C 2/M"
_symmetry_group_IT_number 12
_symmetry_cell_setting 'monoclinic'
loop_
_space_group_symop_operation_xyz
x,y,z
-x,y,-z
-x,-y,-z
x,-y,z
1/2+x,1/2+y,z
1/2-x,1/2+y,-z
1/2-x,1/2-y,-z
1/2+x,1/2-y,z
loop_
_atom_site_type_symbol
_atom_site_label
_atom_site_fract_x
_atom_site_fract_y
_atom_site_fract_z
Si Si1 0.416524 0.675193 0.658692
Si Si2 0.224645 0.947346 0.010997
Si Si3 0.500000 0.500000 0.500000
Si Si4 0.000000 0.135194 0.000000
Si Si5 0.389785 0.300016 0.890991
Si Si6 0.025248 0.928916 0.639246
O O1 0.500000 0.693473 0.500000
O O2 0.566807 0.624029 0.589195
O O3 0.986699 0.672621 0.901881
O O4 0.531583 0.701874 0.697762
O O5 0.218897 0.903305 0.941291
O O6 0.622817 0.947047 0.837957
O O7 0.157399 0.000000 0.015509
O O8 0.943665 0.936640 0.257343
O O9 0.709564 0.460665 0.455400
O O10 0.125490 0.171863 0.843573
O O11 0.250000 0.250000 0.000000
#
# Coordination Sequence:
#
# PCOD9219041 Si02
#       6
#     8   8   2   4   8   8
#     4  11  22  42  70  88 122 169 215 264 310 385
#     4  11  20  35  58  86 121 170 211 255 315 387
#     4  12  20  30  68  86 116 174 216 274 288 350
#     4  12  21  36  64  88 130 162 197 274 344 370
#     4  11  24  44  66  96 125 163 215 274 333 388
#     4  11  19  36  59  88 122 160 222 258 296 373
#
# _framework density 26.588363000000001
#
# number of rings (size 3 to 8) (size 9 to 14) (size 15 to 20)
#    0.000    0.842    7.368    3.474    0.000    0.842 
#    0.000    1.053    4.632    1.263    0.000    0.000 
#    0.000    0.000    0.000    0.000    0.000    0.000 
#
# Total GULP energy -105782.421488 kJ/mol
# GULP energy per Si atom -5567.495868 kJ/mol
# Density = 2.652785 g / cm^3
# Si number density = 26.588363 Si / 1000 Ang^3
#
#
#
# Elastic Constant Matrix: (Units=GPa)
#
#
# Indices 1 2 3 4 5 6 
#
# 1 79.2968 64.8320 48.5715 0.0000 45.9918 0.0000
# 2 64.8320 239.9421 39.5293 0.0000 39.1235 0.0000
# 3 48.5715 39.5293 129.0443 0.0000 50.5863 0.0000
# 4 0.0000 0.0000 0.0000 14.0867 0.0000 -32.2893
# 5 45.9918 39.1235 50.5863 0.0000 44.2461 0.0000
# 6 0.0000 0.0000 0.0000 -32.2893 0.0000 -51.0421
#
#
#
# Elastic Compliance Matrix: (Units=1/GPa)
#
#
# Indices 1 2 3 4 5 6 
#
# 1 0.035107 -0.004089 0.001679 0.000000 -0.034796 0.000000
# 2 -0.004089 0.005355 0.000161 0.000000 -0.000669 0.000000
# 3 0.001679 0.000161 0.014149 0.000000 -0.018064 0.000000
# 4 0.000000 0.000000 0.000000 0.028975 0.000000 -0.018329
# 5 -0.034796 -0.000669 -0.018064 0.000000 0.080013 0.000000
# 6 0.000000 0.000000 0.000000 -0.018329 0.000000 -0.007996
#
#
# Mechanical properties :
#
#
# Convention : Reuss Voigt Hill
#
# Bulk Modulus (GPa) = 19.95496 83.79431 51.87463
# Shear Modulus (GPa) = 28.27953 21.14816 24.71384
#
# Velocity S-wave (km/s) = 3.26483 2.82333 3.05208
# Velocity P-wave (km/s) = 4.66193 6.49708 5.65445
#
# Compressibility (1/GPa) = 0.05011286
#
# Stress axis : x y z
#
# Youngs Moduli (GPa) = 28.48415 186.74078 70.67450
#
# Poissons Ratio (x) = 0.76355 -0.11864
# Poissons Ratio (y) = 0.11647 -0.01136
# Poissons Ratio (z) = -0.04782 -0.03002
#
# Static dielectric constant tensor:
#      x y z
#    x 2.255910 0.000000 0.147120 
#    y 0.000000 2.031800 0.000000 
#    z 0.147120 0.000000 3.403560 
# 
# From -- ./inp_files/125042.got.cif
#   From: 2010.05.17/outbox.cif.g08.bks.cpg/sg12_63_cif.got.tgz:125042.got - 2010.06.03 13:09:07.
