data_PCOD9219475
_publ_section_title
;
Structure prediction by ZEFSAII (Michael W. Deem and Ramdas Pophale) SiO2 
 PCOD9219475
Probable space group: C 2/M
;
_chemical_formula_sum "Si O2"
_cell_formula_units_Z 44
_cell_length_a 12.741186
_cell_length_b 19.570743
_cell_length_c 9.041469
_cell_angle_alpha 90.000000
_cell_angle_beta 107.197731
_cell_angle_gamma 90.000000
_cell_volume 2153.730863
_symmetry_space_group_name_H-M "C 2/M"
_symmetry_group_IT_number 12
_symmetry_cell_setting 'monoclinic'
loop_
_space_group_symop_operation_xyz
x,y,z
-x,y,-z
-x,-y,-z
x,-y,z
1/2+x,1/2+y,z
1/2-x,1/2+y,-z
1/2-x,1/2-y,-z
1/2+x,1/2-y,z
loop_
_atom_site_type_symbol
_atom_site_label
_atom_site_fract_x
_atom_site_fract_y
_atom_site_fract_z
Si Si1 0.078895 0.000000 0.386135
Si Si2 0.686225 0.127320 0.920449
Si Si3 0.386466 0.217618 0.864872
Si Si4 0.661661 0.000000 0.441065
Si Si5 0.035538 0.636546 0.367587
Si Si6 0.093065 0.122585 0.163026
Si Si7 0.128879 0.500000 0.082755
O O1 0.210029 0.000000 0.470781
O O2 0.063883 0.930344 0.282032
O O3 0.000000 0.000000 0.500000
O O4 0.576002 0.126959 0.774272
O O5 0.787816 0.109620 0.858089
O O6 0.695587 0.191869 0.038812
O O7 0.677055 0.066038 0.029541
O O8 0.383353 0.171936 0.716227
O O9 0.394960 0.295270 0.809600
O O10 0.500000 0.205115 0.000000
O O11 0.596973 0.930844 0.455821
O O12 0.650563 0.000000 0.261743
O O13 0.000000 0.677453 0.500000
O O14 0.000000 0.113453 0.000000
O O15 0.000000 0.500000 0.000000
#
# Coordination Sequence:
#
# PCOD9219475 Si02
#       7
#     4   8   8   4   8   8   4
#     4  12  30  47  61  89 128 171 220 261 309 370
#     4  11  20  38  65  98 125 158 211 256 311 379
#     4   9  20  39  64  95 125 161 208 257 310 372
#     4  12  23  41  63  93 130 161 199 252 319 372
#     4  11  21  36  63  98 134 160 193 253 324 382
#     4  11  25  45  66  88 122 171 222 263 302 363
#     4  12  19  36  68  97 121 158 197 252 316 382
#
# _framework density 20.429666000000001
#
# number of rings (size 3 to 8) (size 9 to 14) (size 15 to 20)
#    0.000    1.091    3.636    3.273    2.545    0.727 
#    0.000    3.636    0.000    0.000    0.000    0.000 
#    0.000    0.000    0.000    0.000    0.000    0.000 
#
# Total GULP energy -122511.098137 kJ/mol
# GULP energy per Si atom -5568.686279 kJ/mol
# Density = 2.038317 g / cm^3
# Si number density = 20.429666 Si / 1000 Ang^3
#
#
#
# Elastic Constant Matrix: (Units=GPa)
#
#
# Indices 1 2 3 4 5 6 
#
# 1 96.7349 36.4514 28.6175 0.0000 -12.2713 0.0000
# 2 36.4514 116.2979 49.2392 0.0000 -17.6658 0.0000
# 3 28.6175 49.2392 81.5326 0.0000 -22.2356 0.0000
# 4 0.0000 0.0000 0.0000 161.9981 0.0000 -165.1592
# 5 -12.2713 -17.6658 -22.2356 0.0000 40.4851 0.0000
# 6 0.0000 0.0000 0.0000 -165.1592 0.0000 196.1518
#
#
#
# Elastic Compliance Matrix: (Units=1/GPa)
#
#
# Indices 1 2 3 4 5 6 
#
# 1 0.012183 -0.002636 -0.002341 0.000000 0.001256 0.000000
# 2 -0.002636 0.012193 -0.006122 0.000000 0.001159 0.000000
# 3 -0.002341 -0.006122 0.018657 0.000000 0.006866 0.000000
# 4 0.000000 0.000000 0.000000 0.043602 0.000000 0.036713
# 5 0.001256 0.001159 0.006866 0.000000 0.029358 0.000000
# 6 0.000000 0.000000 0.000000 0.036713 0.000000 0.036010
#
#
# Mechanical properties :
#
#
# Convention : Reuss Voigt Hill
#
# Bulk Modulus (GPa) = 48.00151 58.13130 53.06640
# Shear Modulus (GPa) = 27.60193 91.74417 59.67305
#
# Velocity S-wave (km/s) = 3.67968 6.70856 5.41040
# Velocity P-wave (km/s) = 6.44984 9.40864 8.06607
#
# Compressibility (1/GPa) = 0.02083268
#
# Stress axis : x y z
#
# Youngs Moduli (GPa) = 82.08160 82.01390 53.60045
#
# Poissons Ratio (x) = 0.21622 0.12550
# Poissons Ratio (y) = 0.21640 0.32815
# Poissons Ratio (z) = 0.19218 0.50211
#
# Static dielectric constant tensor:
#      x y z
#    x 1.720600 0.000000 -0.030640 
#    y 0.000000 1.799110 0.000000 
#    z -0.030640 0.000000 1.695270 
# 
# From -- ./inp_files/49436.got.cif
#   From: 2010.05.17/outbox.cif.g08.bks.cpg/sg12_25_cif.got.tgz:49436.got - 2010.06.03 13:09:07.
