data_PCOD9219659
_publ_section_title
;
Structure prediction by ZEFSAII (Michael W. Deem and Ramdas Pophale) SiO2 
 PCOD9219659
Probable space group: C 2/M
;
_chemical_formula_sum "Si O2"
_cell_formula_units_Z 40
_cell_length_a 16.161526
_cell_length_b 27.586140
_cell_length_c 16.877321
_cell_angle_alpha 90.000000
_cell_angle_beta 162.270196
_cell_angle_gamma 90.000000
_cell_volume 2291.420845
_symmetry_space_group_name_H-M "C 2/M"
_symmetry_group_IT_number 12
_symmetry_cell_setting 'monoclinic'
loop_
_space_group_symop_operation_xyz
x,y,z
-x,y,-z
-x,-y,-z
x,-y,z
1/2+x,1/2+y,z
1/2-x,1/2+y,-z
1/2-x,1/2-y,-z
1/2+x,1/2-y,z
loop_
_atom_site_type_symbol
_atom_site_label
_atom_site_fract_x
_atom_site_fract_y
_atom_site_fract_z
Si Si1 0.357563 0.289951 0.456113
Si Si2 0.802362 0.194931 0.756996
Si Si3 0.127791 0.113702 0.971311
Si Si4 0.729101 0.803490 0.024611
Si Si5 0.917744 0.557186 0.517987
O O1 0.500000 0.297899 0.500000
O O2 0.273818 0.233090 0.380223
O O3 0.069795 0.313689 0.212580
O O4 0.563774 0.300877 0.713808
O O5 0.500000 0.176868 0.500000
O O6 0.991601 0.151230 0.907407
O O7 0.000000 0.222751 0.000000
O O8 0.887747 0.074691 0.741079
O O9 0.200796 0.150542 0.966953
O O10 0.382398 0.088041 0.244122
O O11 0.750000 0.750000 0.000000
O O12 0.947398 0.500000 0.560546
O O13 0.000000 0.564094 0.500000
#
# Coordination Sequence:
#
# PCOD9219659 Si02
#       5
#     8   8   8   8   8
#     4  11  23  38  55  75 116 163 197 229 280 341
#     4  11  21  32  52  79 111 153 204 234 268 338
#     4  12  23  36  59  83 116 154 198 246 293 342
#     4  12  24  38  54  86 121 152 197 250 286 338
#     4  11  24  42  60  85 119 157 201 248 293 343
#
# _framework density 17.456416999999998
#
# number of rings (size 3 to 8) (size 9 to 14) (size 15 to 20)
#    0.000    0.600    2.000    9.000    2.800    1.600 
#    0.000    0.000    0.000    0.000    0.000    0.000 
#    0.000   56.000    0.000    0.000    0.000    0.000 
#
# Total GULP energy -111521.878717 kJ/mol
# GULP energy per Si atom -5576.093936 kJ/mol
# Density = 1.741669 g / cm^3
# Si number density = 17.456417 Si / 1000 Ang^3
#
#
#
# Elastic Constant Matrix: (Units=GPa)
#
#
# Indices 1 2 3 4 5 6 
#
# 1 88.8037 50.0886 54.5639 0.0030 4.6582 0.0091
# 2 50.0886 94.3798 37.6276 0.0218 -13.5521 0.0356
# 3 54.5639 37.6276 160.9660 -0.0446 -8.6997 -0.0466
# 4 0.0030 0.0218 -0.0446 12.4744 -0.0108 -15.3553
# 5 4.6582 -13.5521 -8.6997 -0.0108 34.3714 -0.0081
# 6 0.0091 0.0356 -0.0466 -15.3553 -0.0081 -4.9634
#
#
#
# Elastic Compliance Matrix: (Units=1/GPa)
#
#
# Indices 1 2 3 4 5 6 
#
# 1 0.020371 -0.009957 -0.005008 0.000004 -0.007954 0.000013
# 2 -0.009957 0.017111 -0.000190 0.000019 0.008048 0.000033
# 3 -0.005008 -0.000190 0.008098 -0.000016 0.002653 -0.000040
# 4 0.000004 0.000019 -0.000016 0.016672 -0.000004 -0.051579
# 5 -0.007954 0.008048 0.002653 -0.000004 0.034017 -0.000025
# 6 0.000013 0.000033 -0.000040 -0.051579 -0.000025 -0.041902
#
#
# Mechanical properties :
#
#
# Convention : Reuss Voigt Hill
#
# Bulk Modulus (GPa) = 65.48289 69.85661 67.66975
# Shear Modulus (GPa) = 55.70075 21.83444 38.76760
#
# Velocity S-wave (km/s) = 5.65489 3.54050 4.71767
# Velocity P-wave (km/s) = 8.95716 7.53778 8.27794
#
# Compressibility (1/GPa) = 0.01527117
#
# Stress axis : x y z
#
# Youngs Moduli (GPa) = 49.08973 58.44215 123.49141
#
# Poissons Ratio (x) = 0.58189 0.61840
# Poissons Ratio (y) = 0.48877 0.02343
# Poissons Ratio (z) = 0.24582 0.01109
#
# Static dielectric constant tensor:
#      x y z
#    x 1.683240 0.000000 0.002380 
#    y 0.000000 1.602440 -0.000020 
#    z 0.002380 -0.000020 1.685680 
# 
# From -- ./inp_files/219007.got.cif
#   From: 2010.05.17/outbox.cif.g08.bks.cpg/sg12_110_cif.got.tgz:219007.got - 2010.06.03 13:09:07.
