data_PCOD9219531
_publ_section_title
;
Structure prediction by ZEFSAII (Michael W. Deem and Ramdas Pophale) SiO2 
 PCOD9219531
Probable space group: C 2/M
;
_chemical_formula_sum "Si O2"
_cell_formula_units_Z 56
_cell_length_a 8.246754
_cell_length_b 15.459408
_cell_length_c 22.892674
_cell_angle_alpha 90.000000
_cell_angle_beta 62.021793
_cell_angle_gamma 90.000000
_cell_volume 2577.479034
_symmetry_space_group_name_H-M "C 2/M"
_symmetry_group_IT_number 12
_symmetry_cell_setting 'monoclinic'
loop_
_space_group_symop_operation_xyz
x,y,z
-x,y,-z
-x,-y,-z
x,-y,z
1/2+x,1/2+y,z
1/2-x,1/2+y,-z
1/2-x,1/2-y,-z
1/2+x,1/2-y,z
loop_
_atom_site_type_symbol
_atom_site_label
_atom_site_fract_x
_atom_site_fract_y
_atom_site_fract_z
Si Si1 0.877312 0.401556 0.789550
Si Si2 0.049704 0.904484 0.752109
Si Si3 0.689787 0.282040 0.145342
Si Si4 0.104275 0.837321 0.623824
Si Si5 0.939099 0.794873 0.950758
Si Si6 0.688367 0.145380 0.648833
Si Si7 0.803278 0.900366 0.507914
O O1 0.861567 0.500000 0.816558
O O2 0.711020 0.387920 0.771510
O O3 0.868247 0.319080 0.834905
O O4 0.060081 0.395261 0.719657
O O5 0.136504 0.898885 0.673232
O O6 0.887428 0.834241 0.786725
O O7 0.973876 0.000000 0.774699
O O8 0.601765 0.334149 0.105386
O O9 0.902621 0.273709 0.093180
O O10 0.127150 0.743012 0.646890
O O11 0.233610 0.848707 0.545244
O O12 0.897387 0.855168 0.636504
O O13 0.750000 0.750000 0.000000
O O14 0.000000 0.842662 0.000000
O O15 0.675739 0.103991 0.586264
O O16 0.000000 0.869552 0.500000
O O17 0.825021 0.000000 0.486111
#
# Coordination Sequence:
#
# PCOD9219531 Si02
#       7
#     8   8   8   8   8   8   8
#     4  11  24  40  61  93 128 166 210 260 314 372
#     4  11  24  40  61  93 129 165 209 263 315 367
#     4  11  20  40  66  91 127 166 202 247 307 364
#     4  11  22  37  59  85 119 162 212 264 318 372
#     4   9  20  38  68  98 123 163 206 242 297 363
#     4  11  22  37  59  85 119 162 213 263 317 374
#     4   9  19  36  55  79 114 159 210 265 318 371
#
# _framework density 21.726655999999998
#
# number of rings (size 3 to 8) (size 9 to 14) (size 15 to 20)
#    0.000    1.571    2.857    2.143    2.000    1.714 
#    0.000    2.143    0.000   22.286    0.000    0.000 
#    0.000    0.000    0.000    0.000    0.000    0.000 
#
# Total GULP energy -156011.517639 kJ/mol
# GULP energy per Si atom -5571.839916 kJ/mol
# Density = 2.167721 g / cm^3
# Si number density = 21.726656 Si / 1000 Ang^3
#
#
#
# Elastic Constant Matrix: (Units=GPa)
#
#
# Indices 1 2 3 4 5 6 
#
# 1 35.6477 4.7913 27.1300 0.0000 -1.2680 0.0000
# 2 4.7913 83.6494 15.3442 0.0000 8.8215 0.0000
# 3 27.1300 15.3442 103.1208 0.0000 8.6930 0.0000
# 4 0.0000 0.0000 0.0000 8.4076 0.0000 9.6793
# 5 -1.2680 8.8215 8.6930 0.0000 33.2383 0.0000
# 6 0.0000 0.0000 0.0000 9.6793 0.0000 7.4091
#
#
#
# Elastic Compliance Matrix: (Units=1/GPa)
#
#
# Indices 1 2 3 4 5 6 
#
# 1 0.035600 -0.000705 -0.009603 0.000000 0.004057 0.000000
# 2 -0.000705 0.012573 -0.001433 0.000000 -0.002989 0.000000
# 3 -0.009603 -0.001433 0.012716 0.000000 -0.003312 0.000000
# 4 0.000000 0.000000 0.000000 -0.235987 0.000000 0.308294
# 5 0.004057 -0.002989 -0.003312 0.000000 0.031900 0.000000
# 6 0.000000 0.000000 0.000000 0.308294 0.000000 -0.267788
#
#
# Mechanical properties :
#
#
# Convention : Reuss Voigt Hill
#
# Bulk Modulus (GPa) = 26.73373 35.21652 30.97513
# Shear Modulus (GPa) = -13.33215 21.48782 4.07784
#
# Velocity S-wave (km/s) = -2.47984 3.14826 1.37148
# Velocity P-wave (km/s) = 2.03268 5.42766 4.09825
#
# Compressibility (1/GPa) = 0.03740592
#
# Stress axis : x y z
#
# Youngs Moduli (GPa) = 28.09003 79.53426 78.63958
#
# Poissons Ratio (x) = 0.05610 0.75517
# Poissons Ratio (y) = 0.01981 0.11272
# Poissons Ratio (z) = 0.26975 0.11400
#
# Static dielectric constant tensor:
#      x y z
#    x 1.846300 0.000000 0.020800 
#    y 0.000000 1.831680 0.000000 
#    z 0.020800 0.000000 1.841650 
# 
# From -- ./inp_files/300138.got.cif
#   From: 2010.05.17/outbox.cif.g08.bks.cpg/sg12_151_cif.got.tgz:300138.got - 2010.06.03 13:09:07.
