data_PCOD9219701
_publ_section_title
;
Structure prediction by ZEFSAII (Michael W. Deem and Ramdas Pophale) SiO2 
 PCOD9219701
Probable space group: C 2/M
;
_chemical_formula_sum "Si O2"
_cell_formula_units_Z 40
_cell_length_a 25.489062
_cell_length_b 8.730640
_cell_length_c 12.366500
_cell_angle_alpha 90.000000
_cell_angle_beta 37.886157
_cell_angle_gamma 90.000000
_cell_volume 1689.981571
_symmetry_space_group_name_H-M "C 2/M"
_symmetry_group_IT_number 12
_symmetry_cell_setting 'monoclinic'
loop_
_space_group_symop_operation_xyz
x,y,z
-x,y,-z
-x,-y,-z
x,-y,z
1/2+x,1/2+y,z
1/2-x,1/2+y,-z
1/2-x,1/2-y,-z
1/2+x,1/2-y,z
loop_
_atom_site_type_symbol
_atom_site_label
_atom_site_fract_x
_atom_site_fract_y
_atom_site_fract_z
Si Si1 0.753167 0.326267 0.666430
Si Si2 0.385543 0.176103 0.246436
Si Si3 0.841168 0.681802 0.879969
Si Si4 0.110205 0.180289 0.415345
Si Si5 0.517793 0.814280 0.198676
O O1 0.750555 0.500000 0.712545
O O2 0.662952 0.272983 0.764934
O O3 0.955954 0.246232 0.390730
O O4 0.818945 0.325938 0.456635
O O5 0.202999 0.216125 0.317529
O O6 0.474440 0.230353 0.155604
O O7 0.394260 0.000000 0.194421
O O8 0.834119 0.500000 0.894717
O O9 0.896943 0.733959 0.686466
O O10 0.888511 0.732845 0.912908
O O11 0.750000 0.750000 0.000000
O O12 0.099563 0.000000 0.417676
O O13 0.513003 0.000000 0.209419
#
# Coordination Sequence:
#
# PCOD9219701 Si02
#       5
#     8   8   8   8   8
#     4   9  16  27  45  72 105 137 167 205 255 304
#     4   8  14  26  45  72 103 133 166 204 250 304
#     4  11  23  39  56  75 103 138 175 215 262 312
#     4  11  21  33  53  80 107 137 175 216 256 302
#     4   9  19  35  55  78 106 139 172 211 259 308
#
# _framework density 23.668896
#
# number of rings (size 3 to 8) (size 9 to 14) (size 15 to 20)
#    0.000    2.400    0.000    4.800    0.000    8.800 
#    0.000    0.000    0.000    1.200    0.000    8.400 
#    0.000    0.000    0.000    0.000    0.000    0.000 
#
# Total GULP energy -111862.542606 kJ/mol
# GULP energy per Si atom -5593.127130 kJ/mol
# Density = 2.361502 g / cm^3
# Si number density = 23.668896 Si / 1000 Ang^3
#
#
#
# Elastic Constant Matrix: (Units=GPa)
#
#
# Indices 1 2 3 4 5 6 
#
# 1 166.7851 50.4319 60.3135 0.0000 -43.9525 0.0000
# 2 50.4319 25.5966 10.7541 -0.0001 -1.4785 0.0000
# 3 60.3135 10.7541 95.1548 0.0000 -25.7391 0.0000
# 4 0.0000 -0.0001 0.0000 17.3076 0.0000 -6.4112
# 5 -43.9525 -1.4785 -25.7391 0.0000 48.7593 0.0000
# 6 0.0000 0.0000 0.0000 -6.4112 0.0000 27.0191
#
#
#
# Elastic Compliance Matrix: (Units=1/GPa)
#
#
# Indices 1 2 3 4 5 6 
#
# 1 0.034877 -0.063873 -0.008058 0.000000 0.025248 0.000000
# 2 -0.063873 0.158072 0.009733 0.000001 -0.047645 0.000000
# 3 -0.008058 0.009733 0.014736 0.000000 0.000810 0.000000
# 4 0.000000 0.000001 0.000000 0.063346 0.000000 0.015031
# 5 0.025248 -0.047645 0.000810 0.000000 0.042251 0.000000
# 6 0.000000 0.000000 0.000000 0.015031 0.000000 0.040577
#
#
# Mechanical properties :
#
#
# Convention : Reuss Voigt Hill
#
# Bulk Modulus (GPa) = 12.00647 58.94839 35.47743
# Shear Modulus (GPa) = 9.88107 29.68634 19.78370
#
# Velocity S-wave (km/s) = 2.04543 3.54536 2.89425
# Velocity P-wave (km/s) = 3.26528 6.45902 5.11766
#
# Compressibility (1/GPa) = 0.08328839
#
# Stress axis : x y z
#
# Youngs Moduli (GPa) = 28.67219 6.32625 67.86030
#
# Poissons Ratio (x) = 0.40407 0.54685
# Poissons Ratio (y) = 1.83137 -0.66047
# Poissons Ratio (z) = 0.23105 -0.06157
#
# Static dielectric constant tensor:
#      x y z
#    x 2.007390 0.000000 0.079610 
#    y 0.000000 1.790620 0.000000 
#    z 0.079610 0.000000 2.093930 
# 
# From -- ./inp_files/287231.got.cif
#   From: 2010.05.17/outbox.cif.g08.bks.cpg/sg12_144_cif.got.tgz:287231.got - 2010.06.03 13:09:07.
