data_PCOD9219410
_publ_section_title
;
Structure prediction by ZEFSAII (Michael W. Deem and Ramdas Pophale) SiO2 
 PCOD9219410
Probable space group: C 2/M
;
_chemical_formula_sum "Si O2"
_cell_formula_units_Z 24
_cell_length_a 18.073107
_cell_length_b 15.233875
_cell_length_c 9.021630
_cell_angle_alpha 90.000000
_cell_angle_beta 159.288774
_cell_angle_gamma 90.000000
_cell_volume 878.439492
_symmetry_space_group_name_H-M "C 2/M"
_symmetry_group_IT_number 12
_symmetry_cell_setting 'monoclinic'
loop_
_space_group_symop_operation_xyz
x,y,z
-x,y,-z
-x,-y,-z
x,-y,z
1/2+x,1/2+y,z
1/2-x,1/2+y,-z
1/2-x,1/2-y,-z
1/2+x,1/2-y,z
loop_
_atom_site_type_symbol
_atom_site_label
_atom_site_fract_x
_atom_site_fract_y
_atom_site_fract_z
Si Si1 0.851450 0.674008 0.096387
Si Si2 0.264824 0.000000 0.272581
Si Si3 0.237910 0.000000 0.873463
Si Si4 0.845526 0.333175 0.592709
O O1 0.691397 0.600268 0.740023
O O2 0.000000 0.629929 0.500000
O O3 0.003856 0.705240 0.253415
O O4 0.750000 0.750000 0.000000
O O5 0.212567 0.910429 0.264701
O O6 0.185714 0.000000 0.953736
O O7 0.519041 0.000000 0.734735
O O8 0.750000 0.250000 0.500000
O O9 0.000000 0.378630 0.000000
#
# Coordination Sequence:
#
# PCOD9219410 Si02
#       4
#     8   4   4   8
#     4  11  20  37  61  83 109 148 191 228 271 334
#     4   9  17  36  58  77 110 153 190 217 266 349
#     4   9  16  36  60  80 102 154 196 216 264 342
#     4  11  22  36  56  87 116 143 184 234 282 326
#
# _framework density 27.321176000000001
#
# number of rings (size 3 to 8) (size 9 to 14) (size 15 to 20)
#    0.000    1.667    6.667    2.500    0.000    0.000 
#    0.000    3.333    0.000    0.000    0.000    0.000 
#    0.000    0.000    0.000    0.000    0.000    0.000 
#
# Total GULP energy -66956.752838 kJ/mol
# GULP energy per Si atom -5579.729403 kJ/mol
# Density = 2.725899 g / cm^3
# Si number density = 27.321176 Si / 1000 Ang^3
#
#
#
# Elastic Constant Matrix: (Units=GPa)
#
#
# Indices 1 2 3 4 5 6 
#
# 1 219.0968 100.4028 19.7596 0.0000 12.9253 0.0000
# 2 100.4028 247.2569 13.4939 0.0000 27.6221 0.0000
# 3 19.7596 13.4939 42.5903 0.0000 -10.1477 0.0000
# 4 0.0000 0.0000 0.0000 30.5683 0.0000 0.2735
# 5 12.9253 27.6221 -10.1477 0.0000 52.1012 0.0000
# 6 0.0000 0.0000 0.0000 0.2735 0.0000 65.8582
#
#
#
# Elastic Compliance Matrix: (Units=1/GPa)
#
#
# Indices 1 2 3 4 5 6 
#
# 1 0.005789 -0.002152 -0.002175 0.000000 -0.000719 0.000000
# 2 -0.002152 0.005267 -0.001268 0.000000 -0.002506 0.000000
# 3 -0.002175 -0.001268 0.026404 0.000000 0.006354 0.000000
# 4 0.000000 0.000000 0.000000 0.032715 0.000000 -0.000136
# 5 -0.000719 -0.002506 0.006354 0.000000 0.021938 0.000000
# 6 0.000000 0.000000 0.000000 -0.000136 0.000000 0.015185
#
#
# Mechanical properties :
#
#
# Convention : Reuss Voigt Hill
#
# Bulk Modulus (GPa) = 38.06426 86.25073 62.15750
# Shear Modulus (GPa) = 39.29469 54.72473 47.00971
#
# Velocity S-wave (km/s) = 3.79654 4.48036 4.15255
# Velocity P-wave (km/s) = 5.76027 7.64216 6.76695
#
# Compressibility (1/GPa) = 0.02627136
#
# Stress axis : x y z
#
# Youngs Moduli (GPa) = 172.74807 189.85630 37.87254
#
# Poissons Ratio (x) = 0.40849 0.08239
# Poissons Ratio (y) = 0.37168 0.04801
# Poissons Ratio (z) = 0.37578 0.24065
#
# Static dielectric constant tensor:
#      x y z
#    x 2.093390 0.000000 0.005370 
#    y 0.000000 2.202380 0.000000 
#    z 0.005370 0.000000 2.785390 
# 
# From -- ./inp_files/58842.got.cif
#   From: 2010.05.17/outbox.cif.g08.bks.cpg/sg12_30_cif.got.tgz:58842.got - 2010.06.03 13:09:07.
