data_PCOD9219920
_publ_section_title
;
Structure prediction by ZEFSAII (Michael W. Deem and Ramdas Pophale) SiO2 
 PCOD9219920
Probable space group: C 2/M
;
_chemical_formula_sum "Si O2"
_cell_formula_units_Z 32
_cell_length_a 14.748608
_cell_length_b 12.942586
_cell_length_c 9.501218
_cell_angle_alpha 90.000000
_cell_angle_beta 44.038327
_cell_angle_gamma 90.000000
_cell_volume 1260.733470
_symmetry_space_group_name_H-M "C 2/M"
_symmetry_group_IT_number 12
_symmetry_cell_setting 'monoclinic'
loop_
_space_group_symop_operation_xyz
x,y,z
-x,y,-z
-x,-y,-z
x,-y,z
1/2+x,1/2+y,z
1/2-x,1/2+y,-z
1/2-x,1/2-y,-z
1/2+x,1/2-y,z
loop_
_atom_site_type_symbol
_atom_site_label
_atom_site_fract_x
_atom_site_fract_y
_atom_site_fract_z
Si Si1 0.706091 0.889919 0.950796
Si Si2 0.137513 0.885011 0.628754
Si Si3 0.734785 0.663177 0.811731
Si Si4 0.076578 0.337987 0.626580
O O1 0.780165 0.883115 0.018059
O O2 0.553850 0.883734 0.165462
O O3 0.734460 0.000000 0.850735
O O4 0.735116 0.786292 0.833900
O O5 0.135724 0.870405 0.800859
O O6 0.065357 0.786690 0.644858
O O7 0.294043 0.868655 0.428149
O O8 0.096622 0.000000 0.635569
O O9 0.871916 0.632657 0.585846
#
# Coordination Sequence:
#
# PCOD9219920 Si02
#       4
#     8   8   8   8
#     4  11  21  36  61  84 110 150 186 230 279 325
#     4   9  18  37  58  78 113 152 181 228 283 323
#     4   9  21  37  53  87 117 134 190 236 269 334
#     4   9  20  36  56  87 111 141 191 231 268 337
#
# _framework density 25.382048999999999
#
# number of rings (size 3 to 8) (size 9 to 14) (size 15 to 20)
#    1.500    1.000    0.000    2.250    0.000    3.000 
#    0.000    8.750    0.000    7.500    0.000    0.000 
#    0.000    0.000    0.000    0.000    0.000    0.000 
#
# Total GULP energy -89346.757889 kJ/mol
# GULP energy per Si atom -5584.172368 kJ/mol
# Density = 2.532428 g / cm^3
# Si number density = 25.382049 Si / 1000 Ang^3
#
#
#
# Elastic Constant Matrix: (Units=GPa)
#
#
# Indices 1 2 3 4 5 6 
#
# 1 -12.0663 -15.3478 58.6853 0.0000 4.3948 0.0000
# 2 -15.3478 191.6350 -8.9666 0.0000 11.9614 0.0000
# 3 58.6853 -8.9666 51.2097 0.0000 0.8536 0.0000
# 4 0.0000 0.0000 0.0000 12.2235 0.0000 -2.7087
# 5 4.3948 11.9614 0.8536 0.0000 31.4808 0.0000
# 6 0.0000 0.0000 0.0000 -2.7087 0.0000 13.7333
#
#
#
# Elastic Compliance Matrix: (Units=1/GPa)
#
#
# Indices 1 2 3 4 5 6 
#
# 1 -0.012514 -0.000431 0.014240 0.000000 0.001525 0.000000
# 2 -0.000431 0.005379 0.001470 0.000000 -0.002023 0.000000
# 3 0.014240 0.001470 0.003510 0.000000 -0.002641 0.000000
# 4 0.000000 0.000000 0.000000 0.085549 0.000000 0.016873
# 5 0.001525 -0.002023 -0.002641 0.000000 0.032393 0.000000
# 6 0.000000 0.000000 0.000000 0.016873 0.000000 0.076143
#
#
# Mechanical properties :
#
#
# Convention : Reuss Voigt Hill
#
# Bulk Modulus (GPa) = 37.13087 33.28000 35.20544
# Shear Modulus (GPa) = 29.60685 24.58137 27.09411
#
# Velocity S-wave (km/s) = 3.41904 3.11538 3.27073
# Velocity P-wave (km/s) = 5.49972 5.10694 5.30697
#
# Compressibility (1/GPa) = 0.02693177
#
# Stress axis : x y z
#
# Youngs Moduli (GPa) = -79.90945 185.91570 284.89551
#
# Poissons Ratio (x) = 0.08015 -4.05694
# Poissons Ratio (y) = -0.03445 -0.41868
# Poissons Ratio (z) = 1.13792 -0.27322
#
# Static dielectric constant tensor:
#      x y z
#    x 2.067670 0.000000 -0.019380 
#    y 0.000000 1.964040 0.000000 
#    z -0.019380 0.000000 2.012180 
# 
# From -- ./inp_files/139965.got.cif
#   From: 2010.05.17/outbox.cif.g08.bks.cpg/sg12_70_cif.got.tgz:139965.got - 2010.06.03 13:09:07.
