data_PCOD9219710
_publ_section_title
;
Structure prediction by ZEFSAII (Michael W. Deem and Ramdas Pophale) SiO2 
 PCOD9219710
Probable space group: C 2/M
;
_chemical_formula_sum "Si O2"
_cell_formula_units_Z 32
_cell_length_a 7.368209
_cell_length_b 17.817599
_cell_length_c 12.314546
_cell_angle_alpha 90.000000
_cell_angle_beta 134.774646
_cell_angle_gamma 90.000000
_cell_volume 1147.667219
_symmetry_space_group_name_H-M "C 2/M"
_symmetry_group_IT_number 12
_symmetry_cell_setting 'monoclinic'
loop_
_space_group_symop_operation_xyz
x,y,z
-x,y,-z
-x,-y,-z
x,-y,z
1/2+x,1/2+y,z
1/2-x,1/2+y,-z
1/2-x,1/2-y,-z
1/2+x,1/2-y,z
loop_
_atom_site_type_symbol
_atom_site_label
_atom_site_fract_x
_atom_site_fract_y
_atom_site_fract_z
Si Si1 0.607041 0.915762 0.681036
Si Si2 0.159464 0.772424 0.171253
Si Si3 0.553098 0.104098 0.145099
Si Si4 0.436161 0.658633 0.598014
O O1 0.810994 0.849008 0.747050
O O2 0.582936 0.921502 0.802710
O O3 0.339679 0.880742 0.525566
O O4 0.661771 0.000000 0.666139
O O5 0.011482 0.694273 0.129696
O O6 0.448721 0.734801 0.295186
O O7 0.000000 0.799364 0.000000
O O8 0.854785 0.094896 0.289128
O O9 0.500000 0.079713 0.000000
O O10 0.500000 0.681963 0.500000
#
# Coordination Sequence:
#
# PCOD9219710 Si02
#       4
#     8   8   8   8
#     4  11  21  33  55  83 108 134 168 219 272 305
#     4   9  19  36  54  77 103 142 178 212 248 314
#     4   8  18  34  53  80 102 140 176 216 249 309
#     4   8  16  34  54  79  99 139 177 216 247 309
#
# _framework density 27.882645
#
# number of rings (size 3 to 8) (size 9 to 14) (size 15 to 20)
#    1.500    1.500    0.000    0.750    0.000    9.500 
#    0.000    0.000    0.000    1.500    0.000    0.000 
#    0.000    0.000    0.000    0.000    0.000    0.000 
#
# Total GULP energy -89126.749294 kJ/mol
# GULP energy per Si atom -5570.421831 kJ/mol
# Density = 2.781918 g / cm^3
# Si number density = 27.882645 Si / 1000 Ang^3
#
#
#
# Elastic Constant Matrix: (Units=GPa)
#
#
# Indices 1 2 3 4 5 6 
#
# 1 73.8901 25.5009 18.6126 0.0000 11.8378 0.0000
# 2 25.5009 229.4725 53.0541 0.0000 11.4769 0.0000
# 3 18.6126 53.0541 165.5224 0.0000 -24.5998 0.0000
# 4 0.0000 0.0000 0.0000 0.1101 0.0000 -1.7182
# 5 11.8378 11.4769 -24.5998 0.0000 47.2764 0.0000
# 6 0.0000 0.0000 0.0000 -1.7182 0.0000 45.7031
#
#
#
# Elastic Compliance Matrix: (Units=1/GPa)
#
#
# Indices 1 2 3 4 5 6 
#
# 1 0.015135 -0.000969 -0.002080 0.000001 -0.004637 0.000000
# 2 -0.000969 0.004967 -0.001763 0.000000 -0.001880 0.000000
# 3 -0.002080 -0.001763 0.007567 0.000001 0.004886 0.000000
# 4 0.000001 0.000000 0.000001 21.991771 0.000002 0.826769
# 5 -0.004637 -0.001880 0.004886 0.000002 0.025312 0.000000
# 6 0.000000 0.000000 0.000000 0.826769 0.000000 0.052962
#
#
# Mechanical properties :
#
#
# Convention : Reuss Voigt Hill
#
# Bulk Modulus (GPa) = 55.41846 73.69112 64.55479
# Shear Modulus (GPa) = 0.22611 43.39908 21.81260
#
# Velocity S-wave (km/s) = 0.28508 3.94952 2.80000
# Velocity P-wave (km/s) = 4.47517 6.87638 5.80137
#
# Compressibility (1/GPa) = 0.01804453
#
# Stress axis : x y z
#
# Youngs Moduli (GPa) = 66.07210 201.32682 132.16125
#
# Poissons Ratio (x) = 0.19509 0.27496
# Poissons Ratio (y) = 0.06402 0.23294
# Poissons Ratio (z) = 0.13746 0.35485
#
# Static dielectric constant tensor:
#      x y z
#    x 2.387630 0.000000 -0.088010 
#    y 0.000000 2.086070 0.000000 
#    z -0.088010 0.000000 2.166880 
# 
# From -- ./inp_files/58723.got.cif
#   From: 2010.05.17/outbox.cif.g08.bks.cpg/sg12_30_cif.got.tgz:58723.got - 2010.06.03 13:09:07.
