data_PCOD9219749
_publ_section_title
;
Structure prediction by ZEFSAII (Michael W. Deem and Ramdas Pophale) SiO2 
 PCOD9219749
Probable space group: C 2/M
;
_chemical_formula_sum "Si O2"
_cell_formula_units_Z 48
_cell_length_a 8.818701
_cell_length_b 25.382623
_cell_length_c 20.292279
_cell_angle_alpha 90.000000
_cell_angle_beta 30.879329
_cell_angle_gamma 90.000000
_cell_volume 2331.231333
_symmetry_space_group_name_H-M "C 2/M"
_symmetry_group_IT_number 12
_symmetry_cell_setting 'monoclinic'
loop_
_space_group_symop_operation_xyz
x,y,z
-x,y,-z
-x,-y,-z
x,-y,z
1/2+x,1/2+y,z
1/2-x,1/2+y,-z
1/2-x,1/2-y,-z
1/2+x,1/2-y,z
loop_
_atom_site_type_symbol
_atom_site_label
_atom_site_fract_x
_atom_site_fract_y
_atom_site_fract_z
Si Si1 0.654975 0.641678 0.136399
Si Si2 0.155475 0.103571 0.613990
Si Si3 0.485177 0.712474 0.615834
Si Si4 0.602039 0.244669 0.213406
Si Si5 0.784067 0.059871 0.641509
Si Si6 0.192094 0.871524 0.867603
O O1 0.508528 0.616462 0.256208
O O2 0.632786 0.705330 0.153860
O O3 0.475068 0.623475 0.139471
O O4 0.000000 0.628487 0.000000
O O5 0.500000 0.092681 0.500000
O O6 0.119187 0.155773 0.581804
O O7 0.976809 0.062252 0.636546
O O8 0.325126 0.730718 0.742950
O O9 0.750000 0.750000 0.500000
O O10 0.233030 0.722721 0.656809
O O11 0.771604 0.191294 0.135116
O O12 0.508988 0.099763 0.747975
O O13 0.000000 0.073453 0.500000
O O14 0.677202 0.000000 0.670753
O O15 0.000000 0.892808 0.000000
#
# Coordination Sequence:
#
# PCOD9219749 Si02
#       6
#     8   8   8   8   8   8
#     4  11  24  41  62  96 137 175 218 258 316 392
#     4  11  23  41  65  95 132 168 212 266 321 382
#     4  11  21  34  54  94 131 176 211 256 313 379
#     4  11  22  35  58  90 134 177 216 257 311 386
#     4  11  26  47  72  98 126 166 217 275 334 390
#     4  12  25  42  68  95 130 177 219 273 327 384
#
# _framework density 20.589977999999999
#
# number of rings (size 3 to 8) (size 9 to 14) (size 15 to 20)
#    0.000    0.833    3.333    5.000    4.667    2.000 
#    0.000    0.833    0.000    2.000    0.000    0.000 
#    0.000    0.000    0.000    0.000    0.000    0.000 
#
# Total GULP energy -134043.073618 kJ/mol
# GULP energy per Si atom -5585.128067 kJ/mol
# Density = 2.054311 g / cm^3
# Si number density = 20.589978 Si / 1000 Ang^3
#
#
#
# Elastic Constant Matrix: (Units=GPa)
#
#
# Indices 1 2 3 4 5 6 
#
# 1 126.2110 23.7474 45.4862 0.0005 -5.1358 -0.0002
# 2 23.7474 68.9929 31.2003 0.0000 9.4347 0.0006
# 3 45.4862 31.2003 107.6589 -0.0025 -2.0410 -0.0019
# 4 0.0005 0.0000 -0.0025 6.9375 0.0012 -5.1302
# 5 -5.1358 9.4347 -2.0410 0.0012 33.5919 0.0004
# 6 -0.0002 0.0006 -0.0019 -5.1302 0.0004 15.7803
#
#
#
# Elastic Compliance Matrix: (Units=1/GPa)
#
#
# Indices 1 2 3 4 5 6 
#
# 1 0.009617 -0.002000 -0.003449 -0.000003 0.001822 -0.000001
# 2 -0.002000 0.017974 -0.004471 -0.000002 -0.005625 -0.000002
# 3 -0.003449 -0.004471 0.012069 0.000007 0.001462 0.000004
# 4 -0.000003 -0.000002 0.000007 0.189765 -0.000007 0.061693
# 5 0.001822 -0.005625 0.001462 -0.000007 0.031717 -0.000003
# 6 -0.000001 -0.000002 0.000004 0.061693 -0.000003 0.083427
#
#
# Mechanical properties :
#
#
# Convention : Reuss Voigt Hill
#
# Bulk Modulus (GPa) = 50.45199 55.97008 53.21104
# Shear Modulus (GPa) = 13.47661 24.75718 19.11689
#
# Velocity S-wave (km/s) = 2.56114 3.47131 3.05036
# Velocity P-wave (km/s) = 5.77081 6.58095 6.18915
#
# Compressibility (1/GPa) = 0.01982083
#
# Stress axis : x y z
#
# Youngs Moduli (GPa) = 103.98640 55.63739 82.85568
#
# Poissons Ratio (x) = 0.11125 0.28577
# Poissons Ratio (y) = 0.20792 0.37042
# Poissons Ratio (z) = 0.35865 0.24874
#
# Static dielectric constant tensor:
#      x y z
#    x 1.775600 0.000000 0.025630 
#    y 0.000000 1.732030 0.000000 
#    z 0.025630 0.000000 1.733140 
# 
# From -- ./inp_files/302711.got.cif
#   From: 2010.05.17/outbox.cif.g08.bks.cpg/sg12_152_cif.got.tgz:302711.got - 2010.06.03 13:09:07.
