data_PCOD9219645
_publ_section_title
;
Structure prediction by ZEFSAII (Michael W. Deem and Ramdas Pophale) SiO2 
 PCOD9219645
Probable space group: C 2/M
;
_chemical_formula_sum "Si O2"
_cell_formula_units_Z 56
_cell_length_a 13.994136
_cell_length_b 9.302267
_cell_length_c 20.886591
_cell_angle_alpha 90.000000
_cell_angle_beta 112.702941
_cell_angle_gamma 90.000000
_cell_volume 2508.288193
_symmetry_space_group_name_H-M "C 2/M"
_symmetry_group_IT_number 12
_symmetry_cell_setting 'monoclinic'
loop_
_space_group_symop_operation_xyz
x,y,z
-x,y,-z
-x,-y,-z
x,-y,z
1/2+x,1/2+y,z
1/2-x,1/2+y,-z
1/2-x,1/2-y,-z
1/2+x,1/2-y,z
loop_
_atom_site_type_symbol
_atom_site_label
_atom_site_fract_x
_atom_site_fract_y
_atom_site_fract_z
Si Si1 0.108304 0.164537 0.987409
Si Si2 0.840008 0.834593 0.271252
Si Si3 0.717550 0.832055 0.123161
Si Si4 0.000426 0.666927 0.147048
Si Si5 0.267470 0.333459 0.569698
Si Si6 0.375398 0.166806 0.702245
Si Si7 0.916111 0.170639 0.420993
O O1 0.079320 0.237481 0.912753
O O2 0.138950 0.000000 0.987532
O O3 0.190925 0.248914 0.051665
O O4 0.000000 0.167160 0.000000
O O5 0.803981 0.767120 0.194133
O O6 0.732318 0.829754 0.284850
O O7 0.926080 0.796635 0.347188
O O8 0.861397 0.000000 0.260469
O O9 0.608774 0.830278 0.134985
O O10 0.738690 0.000000 0.115524
O O11 0.967736 0.500000 0.141076
O O12 0.034228 0.715963 0.226619
O O13 0.286235 0.500000 0.563594
O O14 0.250000 0.250000 0.500000
O O15 0.355519 0.263117 0.635830
O O16 0.162738 0.295554 0.579571
O O17 0.393210 0.000000 0.689818
O O18 0.000000 0.174948 0.500000
O O19 0.880007 0.000000 0.413412
#
# Coordination Sequence:
#
# PCOD9219645 Si02
#       7
#     8   8   8   8   8   8   8
#     4   9  15  19  24  39  64  91 123 163 201 237
#     4   7  11  21  37  55  73  98 133 169 205 250
#     4   8  12  19  30  42  61  92 129 162 193 237
#     4   8  13  21  33  46  63  92 127 162 200 246
#     4  11  21  32  47  66  90 118 150 186 223 265
#     4   8  14  26  41  56  75 100 135 174 212 256
#     4   9  17  31  50  69  90 116 147 184 226 270
#
# _framework density 22.325982
#
# number of rings (size 3 to 8) (size 9 to 14) (size 15 to 20)
#    0.000    3.429    0.000    4.286    0.000    2.571 
#    0.000    7.143    0.000    0.000    0.000    0.000 
#    0.000    0.000    0.000    1.286    0.000   15.429 
#
# Total GULP energy -156000.673025 kJ/mol
# GULP energy per Si atom -5571.452608 kJ/mol
# Density = 2.227517 g / cm^3
# Si number density = 22.325982 Si / 1000 Ang^3
#
#
#
# Elastic Constant Matrix: (Units=GPa)
#
#
# Indices 1 2 3 4 5 6 
#
# 1 56.5772 10.8897 23.9393 0.0000 17.4037 0.0000
# 2 10.8897 110.3257 119.0816 0.0000 13.3882 0.0000
# 3 23.9393 119.0816 297.0098 0.0000 32.3475 0.0000
# 4 0.0000 0.0000 0.0000 31.5787 0.0000 4.3727
# 5 17.4037 13.3882 32.3475 0.0000 25.7123 0.0000
# 6 0.0000 0.0000 0.0000 4.3727 0.0000 2.5571
#
#
#
# Elastic Compliance Matrix: (Units=1/GPa)
#
#
# Indices 1 2 3 4 5 6 
#
# 1 0.022339 -0.000361 -0.000034 0.000000 -0.014890 0.000000
# 2 -0.000361 0.015987 -0.006374 0.000000 -0.000061 0.000000
# 3 -0.000034 -0.006374 0.006444 0.000000 -0.004765 0.000000
# 4 0.000000 0.000000 0.000000 0.041491 0.000000 -0.070951
# 5 -0.014890 -0.000061 -0.004765 0.000000 0.054997 0.000000
# 6 0.000000 0.000000 0.000000 -0.070951 0.000000 0.512395
#
#
# Mechanical properties :
#
#
# Convention : Reuss Voigt Hill
#
# Bulk Modulus (GPa) = 32.01895 85.74818 58.88357
# Shear Modulus (GPa) = 7.37896 32.63643 20.00770
#
# Velocity S-wave (km/s) = 1.81997 3.82752 2.99684
# Velocity P-wave (km/s) = 4.33464 7.61734 6.19730
#
# Compressibility (1/GPa) = 0.03123151
#
# Stress axis : x y z
#
# Youngs Moduli (GPa) = 44.76455 62.55092 155.17920
#
# Poissons Ratio (x) = 0.02260 0.00528
# Poissons Ratio (y) = 0.01618 0.98911
# Poissons Ratio (z) = 0.00152 0.39870
#
# Static dielectric constant tensor:
#      x y z
#    x 2.091240 0.000000 -0.087700 
#    y 0.000000 1.749950 0.000000 
#    z -0.087700 0.000000 1.903150 
# 
# From -- ./inp_files/319315.got.cif
#   From: 2010.05.17/outbox.cif.g08.bks.cpg/sg12_160_cif.got.tgz:319315.got - 2010.06.03 13:09:07.
