data_PCOD9219029
_publ_section_title
;
Structure prediction by ZEFSAII (Michael W. Deem and Ramdas Pophale) SiO2 
 PCOD9219029
Probable space group: C 2/M
;
_chemical_formula_sum "Si O2"
_cell_formula_units_Z 56
_cell_length_a 9.051689
_cell_length_b 25.953259
_cell_length_c 16.959759
_cell_angle_alpha 90.000000
_cell_angle_beta 126.099247
_cell_angle_gamma 90.000000
_cell_volume 3219.224667
_symmetry_space_group_name_H-M "C 2/M"
_symmetry_group_IT_number 12
_symmetry_cell_setting 'monoclinic'
loop_
_space_group_symop_operation_xyz
x,y,z
-x,y,-z
-x,-y,-z
x,-y,z
1/2+x,1/2+y,z
1/2-x,1/2+y,-z
1/2-x,1/2-y,-z
1/2+x,1/2-y,z
loop_
_atom_site_type_symbol
_atom_site_label
_atom_site_fract_x
_atom_site_fract_y
_atom_site_fract_z
Si Si1 0.592673 0.127933 0.202241
Si Si2 0.885670 0.256528 0.615278
Si Si3 0.687633 0.212140 0.100372
Si Si4 0.861403 0.558524 0.029904
Si Si5 0.441059 0.351911 0.072724
Si Si6 0.108948 0.175314 0.616527
Si Si7 0.187650 0.315359 0.772785
O O1 0.647316 0.163627 0.144977
O O2 0.494244 0.076568 0.142383
O O3 0.773293 0.128010 0.313497
O O4 0.434952 0.156715 0.200798
O O5 0.750000 0.250000 0.500000
O O6 0.758539 0.279677 0.643727
O O7 0.981826 0.200630 0.644196
O O8 0.046414 0.299473 0.659177
O O9 0.825049 0.193934 0.075426
O O10 0.755223 0.260617 0.171514
O O11 0.500000 0.225901 0.000000
O O12 0.796336 0.500000 0.018674
O O13 0.692496 0.598289 0.966748
O O14 0.000000 0.561397 0.000000
O O15 0.631342 0.349401 0.181741
O O16 0.500000 0.345295 0.000000
O O17 0.000000 0.166066 0.500000
#
# Coordination Sequence:
#
# PCOD9219029 Si02
#       7
#     8   8   8   8   8   8   8
#     4  11  19  36  50  74 103 139 181 211 263 319
#     4   9  18  31  45  69 102 145 179 204 247 301
#     4  12  21  32  49  73 109 147 172 204 252 316
#     4  11  23  42  58  72 100 139 181 231 280 329
#     4  12  22  36  50  77 106 136 183 217 261 316
#     4   9  18  31  50  73 104 140 175 217 256 306
#     4  11  22  30  49  76 109 144 172 214 253 305
#
# _framework density 17.395492999999998
#
# number of rings (size 3 to 8) (size 9 to 14) (size 15 to 20)
#    0.000    1.286    5.714    1.286    2.000    2.000 
#    0.000    0.000    0.000    0.429    0.000    0.000 
#    0.000    0.000    0.000   17.857    0.000    0.000 
#
# Total GULP energy -155929.350364 kJ/mol
# GULP energy per Si atom -5568.905370 kJ/mol
# Density = 1.735590 g / cm^3
# Si number density = 17.395493 Si / 1000 Ang^3
#
#
#
# Elastic Constant Matrix: (Units=GPa)
#
#
# Indices 1 2 3 4 5 6 
#
# 1 72.6270 21.8831 24.4140 0.0000 15.6324 0.0000
# 2 21.8831 63.3020 35.0801 0.0000 7.1755 0.0000
# 3 24.4140 35.0801 104.0357 0.0000 25.1876 0.0000
# 4 0.0000 0.0000 0.0000 14.1145 0.0000 3.3230
# 5 15.6324 7.1755 25.1876 0.0000 25.0950 0.0000
# 6 0.0000 0.0000 0.0000 3.3230 0.0000 18.8020
#
#
#
# Elastic Compliance Matrix: (Units=1/GPa)
#
#
# Indices 1 2 3 4 5 6 
#
# 1 0.017263 -0.004813 -0.000209 0.000000 -0.009168 0.000000
# 2 -0.004813 0.020804 -0.006831 0.000000 0.003906 0.000000
# 3 -0.000209 -0.006831 0.015139 0.000000 -0.013111 0.000000
# 4 0.000000 0.000000 0.000000 0.073925 0.000000 -0.013065
# 5 -0.009168 0.003906 -0.013111 0.000000 0.057602 0.000000
# 6 0.000000 0.000000 0.000000 -0.013065 0.000000 0.055495
#
#
# Mechanical properties :
#
#
# Convention : Reuss Voigt Hill
#
# Bulk Modulus (GPa) = 33.89801 44.74658 39.32229
# Shear Modulus (GPa) = 18.26375 22.17479 20.21927
#
# Velocity S-wave (km/s) = 3.24375 3.57423 3.41299
# Velocity P-wave (km/s) = 5.79294 6.54312 6.17943
#
# Compressibility (1/GPa) = 0.02950026
#
# Stress axis : x y z
#
# Youngs Moduli (GPa) = 57.92896 48.06785 66.05540
#
# Poissons Ratio (x) = 0.23134 0.01378
# Poissons Ratio (y) = 0.27880 0.45123
# Poissons Ratio (z) = 0.01208 0.32836
#
# Static dielectric constant tensor:
#      x y z
#    x 1.655230 0.000000 0.007810 
#    y 0.000000 1.576580 0.000000 
#    z 0.007810 0.000000 1.676280 
# 
# From -- ./inp_files/259575.got.cif
#   From: 2010.05.17/outbox.cif.g08.bks.cpg/sg12_130_cif.got.tgz:259575.got - 2010.06.03 13:09:07.
