data_PCOD9219736
_publ_section_title
;
Structure prediction by ZEFSAII (Michael W. Deem and Ramdas Pophale) SiO2 
 PCOD9219736
Probable space group: C 2/M
;
_chemical_formula_sum "Si O2"
_cell_formula_units_Z 56
_cell_length_a 19.583592
_cell_length_b 8.849632
_cell_length_c 22.314833
_cell_angle_alpha 90.000000
_cell_angle_beta 56.877189
_cell_angle_gamma 90.000000
_cell_volume 3238.893439
_symmetry_space_group_name_H-M "C 2/M"
_symmetry_group_IT_number 12
_symmetry_cell_setting 'monoclinic'
loop_
_space_group_symop_operation_xyz
x,y,z
-x,y,-z
-x,-y,-z
x,-y,z
1/2+x,1/2+y,z
1/2-x,1/2+y,-z
1/2-x,1/2-y,-z
1/2+x,1/2-y,z
loop_
_atom_site_type_symbol
_atom_site_label
_atom_site_fract_x
_atom_site_fract_y
_atom_site_fract_z
Si Si1 0.046740 0.820576 0.694160
Si Si2 0.753104 0.318206 0.065519
Si Si3 0.365703 0.822494 0.560183
Si Si4 0.422911 0.682875 0.995296
Si Si5 0.572414 0.316838 0.146534
Si Si6 0.008090 0.322548 0.395883
Si Si7 0.218121 0.677021 0.577073
O O1 0.133295 0.744963 0.639747
O O2 0.000090 0.764524 0.775779
O O3 0.993153 0.779125 0.661825
O O4 0.057631 0.000000 0.693200
O O5 0.759711 0.500000 0.060371
O O6 0.661581 0.277744 0.131197
O O7 0.750000 0.250000 0.000000
O O8 0.834721 0.250662 0.056071
O O9 0.428448 0.793123 0.475338
O O10 0.415771 0.799041 0.596894
O O11 0.288070 0.718094 0.590837
O O12 0.342807 0.000000 0.567489
O O13 0.416745 0.500000 0.999618
O O14 0.435318 0.730327 0.919462
O O15 0.500000 0.725930 0.000000
O O16 0.569804 0.500000 0.146797
O O17 0.005322 0.500000 0.380590
O O18 0.209323 0.500000 0.572010
O O19 0.250000 0.750000 0.500000
#
# Coordination Sequence:
#
# PCOD9219736 Si02
#       7
#     8   8   8   8   8   8   8
#     4  11  21  34  53  75 104 141 174 211 263 316
#     4   9  16  30  52  76 103 134 170 210 249 299
#     4   9  18  34  54  74  98 127 163 214 265 305
#     4   9  17  32  55  81 108 139 176 214 251 300
#     4   8  17  33  51  74 105 139 173 212 260 308
#     4   9  18  33  53  75  99 127 164 212 260 306
#     4  12  23  35  52  76 103 134 176 221 262 311
#
# _framework density 17.289854999999999
#
# number of rings (size 3 to 8) (size 9 to 14) (size 15 to 20)
#    0.000    2.429    1.429    3.857    0.000    0.857 
#    0.000   10.000    0.000    5.143    0.000    0.000 
#    0.000    0.000    0.000    0.000    0.000    0.000 
#
# Total GULP energy -156025.968092 kJ/mol
# GULP energy per Si atom -5572.356003 kJ/mol
# Density = 1.725050 g / cm^3
# Si number density = 17.289855 Si / 1000 Ang^3
#
#
#
# Elastic Constant Matrix: (Units=GPa)
#
#
# Indices 1 2 3 4 5 6 
#
# 1 111.7253 40.5461 49.9876 0.0000 -19.6261 0.0003
# 2 40.5461 52.6588 39.0904 0.0000 -8.9036 0.0006
# 3 49.9876 39.0904 105.7581 0.0000 -18.8166 0.0000
# 4 0.0000 0.0000 0.0000 18.7376 0.0000 -4.6236
# 5 -19.6261 -8.9036 -18.8166 0.0000 22.0695 0.0000
# 6 0.0003 0.0006 0.0000 -4.6236 0.0000 30.3404
#
#
#
# Elastic Compliance Matrix: (Units=1/GPa)
#
#
# Indices 1 2 3 4 5 6 
#
# 1 0.014205 -0.007831 -0.002516 0.000000 0.007328 0.000000
# 2 -0.007831 0.030628 -0.007851 0.000000 -0.001301 0.000000
# 3 -0.002516 -0.007851 0.014835 0.000000 0.007244 0.000000
# 4 0.000000 0.000000 0.000000 0.055454 0.000000 0.008451
# 5 0.007328 -0.001301 0.007244 0.000000 0.057480 0.000000
# 6 0.000000 0.000000 0.000000 0.008451 0.000000 0.034247
#
#
# Mechanical properties :
#
#
# Convention : Reuss Voigt Hill
#
# Bulk Modulus (GPa) = 42.96828 58.82113 50.89471
# Shear Modulus (GPa) = 19.92010 23.59738 21.75874
#
# Velocity S-wave (km/s) = 3.39798 3.69834 3.55134
# Velocity P-wave (km/s) = 6.34828 7.23405 6.80559
#
# Compressibility (1/GPa) = 0.02327298
#
# Stress axis : x y z
#
# Youngs Moduli (GPa) = 70.39530 32.65011 67.40633
#
# Poissons Ratio (x) = 0.25569 0.16959
# Poissons Ratio (y) = 0.55128 0.52919
# Poissons Ratio (z) = 0.17711 0.25633
#
# Static dielectric constant tensor:
#      x y z
#    x 1.618680 0.000000 -0.012100 
#    y 0.000000 1.591130 0.000000 
#    z -0.012100 0.000000 1.591060 
# 
# From -- ./inp_files/342242.got.cif
#   From: 2010.05.17/outbox.cif.g08.bks.cpg/sg12_172_cif.got.tgz:342242.got - 2010.06.03 13:09:07.
