data_PCOD9219689
_publ_section_title
;
Structure prediction by ZEFSAII (Michael W. Deem and Ramdas Pophale) SiO2 
 PCOD9219689
Probable space group: C 2/M
;
_chemical_formula_sum "Si O2"
_cell_formula_units_Z 58
_cell_length_a 28.008759
_cell_length_b 17.185885
_cell_length_c 17.451740
_cell_angle_alpha 90.000000
_cell_angle_beta 155.196165
_cell_angle_gamma 90.000000
_cell_volume 3524.112486
_symmetry_space_group_name_H-M "C 2/M"
_symmetry_group_IT_number 12
_symmetry_cell_setting 'monoclinic'
loop_
_space_group_symop_operation_xyz
x,y,z
-x,y,-z
-x,-y,-z
x,-y,z
1/2+x,1/2+y,z
1/2-x,1/2+y,-z
1/2-x,1/2-y,-z
1/2+x,1/2-y,z
loop_
_atom_site_type_symbol
_atom_site_label
_atom_site_fract_x
_atom_site_fract_y
_atom_site_fract_z
Si Si1 0.505226 0.590389 0.134583
Si Si2 0.101504 0.624755 0.744594
Si Si3 0.168906 0.909630 0.834231
Si Si4 0.116517 0.690373 0.511172
Si Si5 0.689017 0.408915 0.278658
Si Si6 0.699619 0.739805 0.792949
Si Si7 0.500000 0.000000 0.500000
Si Si8 0.940984 0.188013 0.189254
O O1 0.514155 0.500000 0.169836
O O2 0.619884 0.611110 0.255148
O O3 0.476822 0.641094 0.166342
O O4 0.402755 0.596194 0.923945
O O5 0.127304 0.709981 0.749111
O O6 0.978522 0.626190 0.604517
O O7 0.091332 0.567198 0.658899
O O8 0.201900 0.597227 0.945578
O O9 0.166996 0.849889 0.759884
O O10 0.094588 0.871037 0.794317
O O11 0.141186 0.000000 0.779197
O O12 0.209906 0.648870 0.595009
O O13 0.171328 0.726979 0.668030
O O14 0.044017 0.757228 0.364625
O O15 0.724713 0.500000 0.334949
O O16 0.829658 0.760076 0.005548
#
# Coordination Sequence:
#
# PCOD9219689 Si02
#       8
#     8   8   8   8   8   8   2   8
#     4   9  18  38  56  81 112 135 169 223 273 333
#     4  11  21  33  51  79 114 134 179 229 274 317
#     4  11  22  37  53  76 108 155 191 217 264 319
#     4  12  21  34  56  79 107 144 181 221 266 325
#     4   9  20  34  58  84 108 135 169 221 286 327
#     4  11  21  38  51  76 115 151 175 227 268 311
#     4  12  20  28  52  84  98 144 168 238 272 326
#     4  11  21  35  56  79 109 144 183 217 275 317
#
# _framework density 16.458044000000001
#
# number of rings (size 3 to 8) (size 9 to 14) (size 15 to 20)
#    0.000    1.379    6.207    2.069    0.966    0.552 
#    2.483    2.069    0.000    0.000    0.000    0.000 
#    0.000    3.310    0.000    0.000    0.000    0.000 
#
# Total GULP energy -161514.262661 kJ/mol
# GULP energy per Si atom -5569.457333 kJ/mol
# Density = 1.642058 g / cm^3
# Si number density = 16.458044 Si / 1000 Ang^3
#
#
#
# Elastic Constant Matrix: (Units=GPa)
#
#
# Indices 1 2 3 4 5 6 
#
# 1 82.3050 47.3388 27.2833 0.0000 21.5452 0.0000
# 2 47.3388 111.0787 33.8234 0.0000 22.3847 0.0000
# 3 27.2833 33.8234 69.4390 0.0000 18.5001 0.0000
# 4 0.0000 0.0000 0.0000 24.6312 0.0000 -3.1129
# 5 21.5452 22.3847 18.5001 0.0000 23.5380 0.0000
# 6 0.0000 0.0000 0.0000 -3.1129 0.0000 65.2355
#
#
#
# Elastic Compliance Matrix: (Units=1/GPa)
#
#
# Indices 1 2 3 4 5 6 
#
# 1 0.018527 -0.005186 -0.001960 0.000000 -0.010487 0.000000
# 2 -0.005186 0.013217 -0.002930 0.000000 -0.005520 0.000000
# 3 -0.001960 -0.002930 0.019451 0.000000 -0.010708 0.000000
# 4 0.000000 0.000000 0.000000 0.040845 0.000000 0.001949
# 5 -0.010487 -0.005520 -0.010708 0.000000 0.065749 0.000000
# 6 0.000000 0.000000 0.000000 0.001949 0.000000 0.015422
#
#
# Mechanical properties :
#
#
# Convention : Reuss Voigt Hill
#
# Bulk Modulus (GPa) = 32.21138 53.30153 42.75646
# Shear Modulus (GPa) = 24.54460 32.97276 28.75868
#
# Velocity S-wave (km/s) = 3.86598 4.48084 4.18472
# Velocity P-wave (km/s) = 6.28825 7.69592 7.02742
#
# Compressibility (1/GPa) = 0.03104493
#
# Stress axis : x y z
#
# Youngs Moduli (GPa) = 53.97398 75.65885 51.41129
#
# Poissons Ratio (x) = 0.39236 0.10075
# Poissons Ratio (y) = 0.27990 0.15063
# Poissons Ratio (z) = 0.10577 0.22167
#
# Static dielectric constant tensor:
#      x y z
#    x 1.559240 0.000000 -0.005180 
#    y 0.000000 1.551790 0.000000 
#    z -0.005180 0.000000 1.567810 
# 
# From -- ./inp_files/330300.got.cif
#   From: 2010.05.17/outbox.cif.g08.bks.cpg/sg12_166_cif.got.tgz:330300.got - 2010.06.03 13:09:07.
