data_PCOD9219670
_publ_section_title
;
Structure prediction by ZEFSAII (Michael W. Deem and Ramdas Pophale) SiO2 
 PCOD9219670
Probable space group: C 2/M
;
_chemical_formula_sum "Si O2"
_cell_formula_units_Z 48
_cell_length_a 13.997061
_cell_length_b 7.663503
_cell_length_c 21.187962
_cell_angle_alpha 90.000000
_cell_angle_beta 52.489679
_cell_angle_gamma 90.000000
_cell_volume 1802.851628
_symmetry_space_group_name_H-M "C 2/M"
_symmetry_group_IT_number 12
_symmetry_cell_setting 'monoclinic'
loop_
_space_group_symop_operation_xyz
x,y,z
-x,y,-z
-x,-y,-z
x,-y,z
1/2+x,1/2+y,z
1/2-x,1/2+y,-z
1/2-x,1/2-y,-z
1/2+x,1/2-y,z
loop_
_atom_site_type_symbol
_atom_site_label
_atom_site_fract_x
_atom_site_fract_y
_atom_site_fract_z
Si Si1 0.305094 0.214063 0.758993
Si Si2 0.422480 0.195298 0.590039
Si Si3 0.328310 0.298684 0.069750
Si Si4 0.046324 0.707166 0.739991
Si Si5 0.911875 0.794471 0.908570
Si Si6 0.367259 0.698678 0.415947
O O1 0.322785 0.275115 0.679168
O O2 0.202149 0.277799 0.849279
O O3 0.425552 0.263762 0.750127
O O4 0.299469 0.000000 0.758569
O O5 0.500000 0.276406 0.500000
O O6 0.529540 0.180737 0.597977
O O7 0.384996 0.000000 0.584300
O O8 0.362223 0.500000 0.068031
O O9 0.199110 0.294780 0.084058
O O10 0.415247 0.228185 0.979344
O O11 0.050175 0.500000 0.741051
O O12 0.148148 0.775200 0.652208
O O13 0.028006 0.775453 0.817554
O O14 0.884305 0.000000 0.922954
O O15 0.400500 0.500000 0.415361
O O16 0.250000 0.750000 0.500000
#
# Coordination Sequence:
#
# PCOD9219670 Si02
#       6
#     8   8   8   8   8   8
#     4   7  11  21  36  53  76 109 144 176 212 254
#     4   9  17  30  48  69  94 124 156 189 227 270
#     4   8  13  20  30  46  73 108 142 175 211 256
#     4   9  16  27  40  55  79 110 142 177 221 269
#     4   9  14  19  30  50  74 103 140 177 214 257
#     4  11  21  33  49  68  91 119 153 191 230 272
#
# _framework density 26.624487999999999
#
# number of rings (size 3 to 8) (size 9 to 14) (size 15 to 20)
#    0.000    3.167    0.000    4.500    0.000    1.000 
#    0.000    0.000    0.000    0.000    0.000    0.000 
#    0.000    1.333    0.000   15.667    0.000   11.000 
#
# Total GULP energy -133850.599612 kJ/mol
# GULP energy per Si atom -5577.108317 kJ/mol
# Density = 2.656389 g / cm^3
# Si number density = 26.624488 Si / 1000 Ang^3
#
#
#
# Elastic Constant Matrix: (Units=GPa)
#
#
# Indices 1 2 3 4 5 6 
#
# 1 74.3445 2.8139 22.4527 0.0000 28.3223 0.0001
# 2 2.8139 99.4881 12.6555 0.0001 -3.0401 0.0003
# 3 22.4527 12.6555 360.4410 0.0000 6.5449 0.0000
# 4 0.0000 0.0001 0.0000 13.8004 0.0000 -0.8304
# 5 28.3223 -3.0401 6.5449 0.0000 34.3952 0.0000
# 6 0.0001 0.0003 0.0000 -0.8304 0.0000 4.2652
#
#
#
# Elastic Compliance Matrix: (Units=1/GPa)
#
#
# Indices 1 2 3 4 5 6 
#
# 1 0.020004 -0.000950 -0.000915 0.000000 -0.016382 0.000000
# 2 -0.000950 0.010174 -0.000330 0.000000 0.001744 -0.000001
# 3 -0.000915 -0.000330 0.002840 0.000000 0.000184 0.000000
# 4 0.000000 0.000000 0.000000 0.073321 0.000000 0.014275
# 5 -0.016382 0.001744 0.000184 0.000000 0.042682 0.000000
# 6 0.000000 -0.000001 0.000000 0.014275 0.000000 0.237232
#
#
# Mechanical properties :
#
#
# Convention : Reuss Voigt Hill
#
# Bulk Modulus (GPa) = 34.93152 67.79086 51.36119
# Shear Modulus (GPa) = 12.49422 43.58228 28.03825
#
# Velocity S-wave (km/s) = 2.16863 4.05028 3.24867
# Velocity P-wave (km/s) = 4.40672 6.88405 5.77968
#
# Compressibility (1/GPa) = 0.02862744
#
# Stress axis : x y z
#
# Youngs Moduli (GPa) = 49.98965 98.29402 352.15911
#
# Poissons Ratio (x) = 0.09338 0.32233
# Poissons Ratio (y) = 0.04749 0.11611
# Poissons Ratio (z) = 0.04575 0.03241
#
# Static dielectric constant tensor:
#      x y z
#    x 2.084970 0.000000 -0.179690 
#    y 0.000000 2.019340 0.000000 
#    z -0.179690 0.000000 2.270950 
# 
# From -- ./inp_files/318987.got.cif
#   From: 2010.05.17/outbox.cif.g08.bks.cpg/sg12_160_cif.got.tgz:318987.got - 2010.06.03 13:09:07.
