data_PCOD9219976
_publ_section_title
;
Structure prediction by ZEFSAII (Michael W. Deem and Ramdas Pophale) SiO2 
 PCOD9219976
Probable space group: C 2/M
;
_chemical_formula_sum "Si O2"
_cell_formula_units_Z 56
_cell_length_a 9.734761
_cell_length_b 16.376176
_cell_length_c 17.896699
_cell_angle_alpha 90.000000
_cell_angle_beta 107.189410
_cell_angle_gamma 90.000000
_cell_volume 2725.621241
_symmetry_space_group_name_H-M "C 2/M"
_symmetry_group_IT_number 12
_symmetry_cell_setting 'monoclinic'
loop_
_space_group_symop_operation_xyz
x,y,z
-x,y,-z
-x,-y,-z
x,-y,z
1/2+x,1/2+y,z
1/2-x,1/2+y,-z
1/2-x,1/2-y,-z
1/2+x,1/2-y,z
loop_
_atom_site_type_symbol
_atom_site_label
_atom_site_fract_x
_atom_site_fract_y
_atom_site_fract_z
Si Si1 0.738559 0.405601 0.851577
Si Si2 0.184874 0.181124 0.590256
Si Si3 0.319626 0.908022 0.178003
Si Si4 0.661800 0.400297 0.006449
Si Si5 0.143192 0.843250 0.423276
Si Si6 0.421182 0.621981 0.743613
Si Si7 0.597602 0.817398 0.247941
O O1 0.788310 0.500000 0.861241
O O2 0.583977 0.403000 0.785744
O O3 0.846165 0.349346 0.822525
O O4 0.711519 0.376529 0.931919
O O5 0.184347 0.128722 0.513495
O O6 0.247194 0.270081 0.578551
O O7 0.290322 0.150771 0.671880
O O8 0.021660 0.188252 0.593074
O O9 0.269108 0.875090 0.089566
O O10 0.439555 0.852478 0.234535
O O11 0.180778 0.911264 0.208292
O O12 0.376412 0.000000 0.177760
O O13 0.658791 0.500000 0.007075
O O14 0.500000 0.372887 0.000000
O O15 0.133267 0.899323 0.348485
O O16 0.409689 0.720169 0.748198
#
# Coordination Sequence:
#
# PCOD9219976 Si02
#       7
#     8   8   8   8   8   8   8
#     4  11  21  38  62  83 111 152 196 233 278 344
#     4   9  18  33  54  83 116 152 189 235 276 336
#     4  11  23  40  61  83 114 154 194 234 284 344
#     4   9  18  36  60  83 107 148 201 236 266 337
#     4   9  18  32  55  84 114 150 195 231 277 334
#     4  11  21  37  60  88 114 150 190 237 283 340
#     4  11  23  37  56  90 122 145 181 243 298 328
#
# _framework density 20.545774999999999
#
# number of rings (size 3 to 8) (size 9 to 14) (size 15 to 20)
#    0.000    1.857    2.857    1.714    6.000    0.571 
#    0.000    6.429    0.000    5.143    0.000    0.000 
#    0.000    0.000    0.000    0.000    0.000    0.000 
#
# Total GULP energy -156295.076288 kJ/mol
# GULP energy per Si atom -5581.967010 kJ/mol
# Density = 2.049901 g / cm^3
# Si number density = 20.545775 Si / 1000 Ang^3
#
#
#
# Elastic Constant Matrix: (Units=GPa)
#
#
# Indices 1 2 3 4 5 6 
#
# 1 45.6036 5.0413 -8.1273 0.0000 -1.7526 0.0000
# 2 5.0413 48.8612 13.3842 0.0000 0.9470 0.0000
# 3 -8.1273 13.3842 101.4801 0.0000 -8.2199 0.0000
# 4 0.0000 0.0000 0.0000 -1.9382 0.0000 0.7947
# 5 -1.7526 0.9470 -8.2199 0.0000 38.5011 0.0000
# 6 0.0000 0.0000 0.0000 0.7947 0.0000 40.4110
#
#
#
# Elastic Compliance Matrix: (Units=1/GPa)
#
#
# Indices 1 2 3 4 5 6 
#
# 1 0.022743 -0.003022 0.002350 0.000000 0.001611 0.000000
# 2 -0.003022 0.021684 -0.003212 0.000000 -0.001357 0.000000
# 3 0.002350 -0.003212 0.010665 0.000000 0.002463 0.000000
# 4 0.000000 0.000000 0.000000 -0.511814 0.000000 0.010065
# 5 0.001611 -0.001357 0.002463 0.000000 0.026606 0.000000
# 6 0.000000 0.000000 0.000000 0.010065 0.000000 0.024548
#
#
# Mechanical properties :
#
#
# Convention : Reuss Voigt Hill
#
# Bulk Modulus (GPa) = 21.12975 24.06013 22.59494
# Shear Modulus (GPa) = -13.08809 27.77124 7.34157
#
# Velocity S-wave (km/s) = -2.52667 3.68050 1.89236
# Velocity P-wave (km/s) = 1.33959 5.45870 3.97441
#
# Compressibility (1/GPa) = 0.04732664
#
# Stress axis : x y z
#
# Youngs Moduli (GPa) = 43.96968 46.11700 93.76027
#
# Poissons Ratio (x) = 0.13935 -0.22038
# Poissons Ratio (y) = 0.13286 0.30114
# Poissons Ratio (z) = -0.10335 0.14812
#
# Static dielectric constant tensor:
#      x y z
#    x 1.696720 0.000000 -0.010570 
#    y 0.000000 1.811870 0.000000 
#    z -0.010570 0.000000 1.777600 
# 
# From -- ./inp_files/257157.got.cif
#   From: 2010.05.17/outbox.cif.g08.bks.cpg/sg12_129_cif.got.tgz:257157.got - 2010.06.03 13:09:07.
