data_PCOD9219476
_publ_section_title
;
Structure prediction by ZEFSAII (Michael W. Deem and Ramdas Pophale) SiO2 
 PCOD9219476
Probable space group: C 2/M
;
_chemical_formula_sum "Si O2"
_cell_formula_units_Z 40
_cell_length_a 22.472058
_cell_length_b 14.849602
_cell_length_c 8.107733
_cell_angle_alpha 90.000000
_cell_angle_beta 35.169579
_cell_angle_gamma 90.000000
_cell_volume 1558.397910
_symmetry_space_group_name_H-M "C 2/M"
_symmetry_group_IT_number 12
_symmetry_cell_setting 'monoclinic'
loop_
_space_group_symop_operation_xyz
x,y,z
-x,y,-z
-x,-y,-z
x,-y,z
1/2+x,1/2+y,z
1/2-x,1/2+y,-z
1/2-x,1/2-y,-z
1/2+x,1/2-y,z
loop_
_atom_site_type_symbol
_atom_site_label
_atom_site_fract_x
_atom_site_fract_y
_atom_site_fract_z
Si Si1 0.240196 0.099619 0.071343
Si Si2 0.308699 0.134814 0.266607
Si Si3 0.600846 0.332316 0.887021
Si Si4 0.044120 0.221569 0.564390
Si Si5 0.898196 0.402199 0.413217
O O1 0.315507 0.105265 0.061302
O O2 0.155142 0.176708 0.291364
O O3 0.192570 0.000000 0.182341
O O4 0.300981 0.107178 0.760258
O O5 0.338542 0.240275 0.204927
O O6 0.189785 0.115191 0.590572
O O7 0.370510 0.096124 0.282654
O O8 0.500000 0.329079 0.000000
O O9 0.541311 0.353448 0.191008
O O10 0.046899 0.307317 0.679634
O O11 0.000000 0.263003 0.500000
O O12 0.945778 0.500000 0.347408
#
# Coordination Sequence:
#
# PCOD9219476 Si02
#       5
#     8   8   8   8   8
#     4  11  24  42  65  96 130 170 217 263 320 385
#     4  11  21  42  68  91 135 170 205 273 324 369
#     4  11  20  38  65  98 126 164 221 256 311 395
#     4  12  23  41  66  94 131 173 212 267 325 373
#     4  11  24  42  65  96 130 170 217 263 320 385
#
# _framework density 25.667384999999999
#
# number of rings (size 3 to 8) (size 9 to 14) (size 15 to 20)
#    0.000    0.800    4.000    4.800    0.000    0.800 
#    0.000    6.000    0.000    0.000    0.000    0.000 
#    0.000    0.000    0.000    0.000    0.000    0.000 
#
# Total GULP energy -111601.373183 kJ/mol
# GULP energy per Si atom -5580.068659 kJ/mol
# Density = 2.560896 g / cm^3
# Si number density = 25.667385 Si / 1000 Ang^3
#
#
#
# Elastic Constant Matrix: (Units=GPa)
#
#
# Indices 1 2 3 4 5 6 
#
# 1 116.7910 19.9418 14.3264 0.0000 6.1080 0.0000
# 2 19.9418 88.3396 11.2131 0.0000 -0.1909 0.0000
# 3 14.3264 11.2131 127.6988 0.0000 3.0811 0.0000
# 4 0.0000 0.0000 0.0000 -17.3456 0.0000 8.4927
# 5 6.1080 -0.1909 3.0811 0.0000 37.3484 0.0000
# 6 0.0000 0.0000 0.0000 8.4927 0.0000 8.7305
#
#
#
# Elastic Compliance Matrix: (Units=1/GPa)
#
#
# Indices 1 2 3 4 5 6 
#
# 1 0.009069 -0.001947 -0.000812 0.000000 -0.001426 0.000000
# 2 -0.001947 0.011866 -0.000834 0.000000 0.000448 0.000000
# 3 -0.000812 -0.000834 0.008008 0.000000 -0.000532 0.000000
# 4 0.000000 0.000000 0.000000 -0.039052 0.000000 0.037988
# 5 -0.001426 0.000448 -0.000532 0.000000 0.027054 0.000000
# 6 0.000000 0.000000 0.000000 0.037988 0.000000 0.077587
#
#
# Mechanical properties :
#
#
# Convention : Reuss Voigt Hill
#
# Bulk Modulus (GPa) = 45.96373 47.08800 46.52586
# Shear Modulus (GPa) = 45.88306 24.90322 35.39314
#
# Velocity S-wave (km/s) = 4.23259 3.11823 3.71740
# Velocity P-wave (km/s) = 6.46782 5.59908 6.04907
#
# Compressibility (1/GPa) = 0.02175628
#
# Stress axis : x y z
#
# Youngs Moduli (GPa) = 110.26593 84.27162 124.87315
#
# Poissons Ratio (x) = 0.16410 0.10140
# Poissons Ratio (y) = 0.21471 0.10418
# Poissons Ratio (z) = 0.08954 0.07031
#
# Static dielectric constant tensor:
#      x y z
#    x 2.175930 0.000000 0.045090 
#    y 0.000000 2.021880 0.000000 
#    z 0.045090 0.000000 2.151650 
# 
# From -- ./inp_files/98293.got.cif
#   From: 2010.05.17/outbox.cif.g08.bks.cpg/sg12_50_cif.got.tgz:98293.got - 2010.06.03 13:09:07.
