data_PCOD9219907
_publ_section_title
;
Structure prediction by ZEFSAII (Michael W. Deem and Ramdas Pophale) SiO2 
 PCOD9219907
Probable space group: C 2/M
;
_chemical_formula_sum "Si O2"
_cell_formula_units_Z 56
_cell_length_a 9.335419
_cell_length_b 27.026057
_cell_length_c 13.802689
_cell_angle_alpha 90.000000
_cell_angle_beta 61.388147
_cell_angle_gamma 90.000000
_cell_volume 3057.153915
_symmetry_space_group_name_H-M "C 2/M"
_symmetry_group_IT_number 12
_symmetry_cell_setting 'monoclinic'
loop_
_space_group_symop_operation_xyz
x,y,z
-x,y,-z
-x,-y,-z
x,-y,z
1/2+x,1/2+y,z
1/2-x,1/2+y,-z
1/2-x,1/2-y,-z
1/2+x,1/2-y,z
loop_
_atom_site_type_symbol
_atom_site_label
_atom_site_fract_x
_atom_site_fract_y
_atom_site_fract_z
Si Si1 0.750603 0.942739 0.015643
Si Si2 0.100836 0.056170 0.816282
Si Si3 0.692340 0.803706 0.553281
Si Si4 0.185680 0.824695 0.279130
Si Si5 0.470820 0.846851 0.904690
Si Si6 0.841504 0.288122 0.765454
Si Si7 0.332159 0.353724 0.327374
O O1 0.814251 0.941201 0.106036
O O2 0.620495 0.898941 0.049260
O O3 0.698078 0.000000 0.013796
O O4 0.909906 0.932002 0.898065
O O5 0.185793 0.093175 0.715263
O O6 0.109821 0.000000 0.779065
O O7 0.750000 0.750000 0.500000
O O8 0.802232 0.817766 0.609573
O O9 0.508946 0.798709 0.652014
O O10 0.718040 0.840239 0.455035
O O11 0.348200 0.853815 0.196775
O O12 0.190338 0.770266 0.228171
O O13 0.016746 0.848522 0.303747
O O14 0.370757 0.812839 0.860950
O O15 0.500000 0.822621 0.000000
O O16 0.702142 0.314886 0.748086
#
# Coordination Sequence:
#
# PCOD9219907 Si02
#       7
#     8   8   8   8   8   8   8
#     4   9  18  38  64  86 113 150 198 251 293 349
#     4   9  19  36  62  91 113 148 200 245 295 354
#     4  11  21  36  60  85 118 149 200 246 289 336
#     4  11  23  37  55  87 121 156 196 242 288 349
#     4  11  23  39  55  85 124 153 195 240 300 355
#     4  11  22  38  57  85 118 160 201 241 286 347
#     4  12  20  34  62  87 116 152 193 251 293 338
#
# _framework density 18.317691
#
# number of rings (size 3 to 8) (size 9 to 14) (size 15 to 20)
#    0.000    1.429    4.286    3.429    0.000    0.857 
#    0.000    2.143    0.000    6.857    0.000    0.000 
#    0.000    0.000    0.000    0.000    0.000    0.000 
#
# Total GULP energy -156314.239127 kJ/mol
# GULP energy per Si atom -5582.651397 kJ/mol
# Density = 1.827600 g / cm^3
# Si number density = 18.317691 Si / 1000 Ang^3
#
#
#
# Elastic Constant Matrix: (Units=GPa)
#
#
# Indices 1 2 3 4 5 6 
#
# 1 52.7749 -7.5246 1.2944 0.0000 10.7182 0.0000
# 2 -7.5246 71.3651 30.4639 0.0000 -3.1733 0.0000
# 3 1.2944 30.4639 79.8462 0.0000 17.6152 0.0000
# 4 0.0000 0.0000 0.0000 29.8278 0.0000 -8.3134
# 5 10.7182 -3.1733 17.6152 0.0000 28.2302 0.0000
# 6 0.0000 0.0000 0.0000 -8.3134 0.0000 16.9343
#
#
#
# Elastic Compliance Matrix: (Units=1/GPa)
#
#
# Indices 1 2 3 4 5 6 
#
# 1 0.020822 0.001412 0.000966 0.000000 -0.008349 0.000000
# 2 0.001412 0.018042 -0.008391 0.000000 0.006728 0.000000
# 3 0.000966 -0.008391 0.018553 0.000000 -0.012886 0.000000
# 4 0.000000 0.000000 0.000000 0.038840 0.000000 0.019067
# 5 -0.008349 0.006728 -0.012886 0.000000 0.047390 0.000000
# 6 0.000000 0.000000 0.000000 0.019067 0.000000 0.068412
#
#
# Mechanical properties :
#
#
# Convention : Reuss Voigt Hill
#
# Bulk Modulus (GPa) = 22.03114 28.05041 25.04078
# Shear Modulus (GPa) = 20.90159 26.98194 23.94176
#
# Velocity S-wave (km/s) = 3.38162 3.84213 3.61921
# Velocity P-wave (km/s) = 5.22499 5.91854 5.58255
#
# Compressibility (1/GPa) = 0.04539029
#
# Stress axis : x y z
#
# Youngs Moduli (GPa) = 48.02682 55.42522 53.90036
#
# Poissons Ratio (x) = -0.07825 -0.05205
# Poissons Ratio (y) = -0.06781 0.45227
# Poissons Ratio (z) = -0.04638 0.46507
#
# Static dielectric constant tensor:
#      x y z
#    x 1.656550 0.000000 0.002310 
#    y 0.000000 1.618510 0.000000 
#    z 0.002310 0.000000 1.643600 
# 
# From -- ./inp_files/198389.got.cif
#   From: 2010.05.17/outbox.cif.g08.bks.cpg/sg12_100_cif.got.tgz:198389.got - 2010.06.03 13:09:07.
