data_PCOD9219977
_publ_section_title
;
Structure prediction by ZEFSAII (Michael W. Deem and Ramdas Pophale) SiO2 
 PCOD9219977
Probable space group: C 2/M
;
_chemical_formula_sum "Si O2"
_cell_formula_units_Z 56
_cell_length_a 20.694764
_cell_length_b 8.263519
_cell_length_c 19.491632
_cell_angle_alpha 90.000000
_cell_angle_beta 120.386800
_cell_angle_gamma 90.000000
_cell_volume 2875.400765
_symmetry_space_group_name_H-M "C 2/M"
_symmetry_group_IT_number 12
_symmetry_cell_setting 'monoclinic'
loop_
_space_group_symop_operation_xyz
x,y,z
-x,y,-z
-x,-y,-z
x,-y,z
1/2+x,1/2+y,z
1/2-x,1/2+y,-z
1/2-x,1/2-y,-z
1/2+x,1/2-y,z
loop_
_atom_site_type_symbol
_atom_site_label
_atom_site_fract_x
_atom_site_fract_y
_atom_site_fract_z
Si Si1 0.555057 0.193738 0.854769
Si Si2 0.184966 0.807220 0.016965
Si Si3 0.832043 0.693641 0.566337
Si Si4 0.723031 0.302040 0.190881
Si Si5 0.385077 0.694080 0.744919
Si Si6 0.890621 0.302781 0.264624
Si Si7 0.022822 0.302039 0.436411
O O1 0.469369 0.248547 0.805014
O O2 0.595016 0.249129 0.805667
O O3 0.557055 0.000000 0.857192
O O4 0.604658 0.257481 0.943871
O O5 0.197857 0.747583 0.101538
O O6 0.189792 0.000000 0.021758
O O7 0.250000 0.750000 0.000000
O O8 0.832898 0.500000 0.565973
O O9 0.750000 0.750000 0.500000
O O10 0.856000 0.748396 0.655266
O O11 0.896320 0.751055 0.547760
O O12 0.721576 0.500000 0.190212
O O13 0.669494 0.247767 0.223429
O O14 0.809240 0.251790 0.246835
O O15 0.384486 0.500000 0.744361
O O16 0.891248 0.500000 0.264961
O O17 0.958957 0.249723 0.348779
O O18 0.023380 0.500000 0.437188
O O19 0.000000 0.248637 0.500000
#
# Coordination Sequence:
#
# PCOD9219977 Si02
#       7
#     8   8   8   8   8   8   8
#     4  11  21  38  62  86 119 159 196 243 301 356
#     4  11  21  37  60  89 120 153 201 252 301 354
#     4  11  23  40  61  88 121 157 194 242 300 356
#     4   9  20  36  58  86 117 156 200 245 292 356
#     4  11  23  40  62  88 118 157 202 243 292 357
#     4   9  16  32  57  83 111 149 196 240 283 343
#     4   9  18  32  57  88 113 145 195 240 280 344
#
# _framework density 19.475545
#
# number of rings (size 3 to 8) (size 9 to 14) (size 15 to 20)
#    0.000    1.857    2.857    1.714    2.000    0.571 
#    0.000    5.714    0.000    3.429    0.000    0.000 
#    0.000    0.000    0.000    0.000    0.000    0.000 
#
# Total GULP energy -156377.148557 kJ/mol
# GULP energy per Si atom -5584.898163 kJ/mol
# Density = 1.943122 g / cm^3
# Si number density = 19.475545 Si / 1000 Ang^3
#
#
#
# Elastic Constant Matrix: (Units=GPa)
#
#
# Indices 1 2 3 4 5 6 
#
# 1 170.9021 13.3686 74.7677 0.0000 -0.0836 0.0000
# 2 13.3686 27.3988 11.4461 0.0000 -1.9255 0.0000
# 3 74.7677 11.4461 122.9897 0.0000 8.9885 0.0000
# 4 0.0000 0.0000 0.0000 28.2823 0.0000 5.5494
# 5 -0.0836 -1.9255 8.9885 0.0000 39.2729 0.0000
# 6 0.0000 0.0000 0.0000 5.5494 0.0000 25.4040
#
#
#
# Elastic Compliance Matrix: (Units=1/GPa)
#
#
# Indices 1 2 3 4 5 6 
#
# 1 0.008112 -0.001867 -0.004833 0.000000 0.001032 0.000000
# 2 -0.001867 0.038691 -0.002649 0.000000 0.002499 0.000000
# 3 -0.004833 -0.002649 0.011518 0.000000 -0.002776 0.000000
# 4 0.000000 0.000000 0.000000 0.036941 0.000000 -0.008070
# 5 0.001032 0.002499 -0.002776 0.000000 0.026223 0.000000
# 6 0.000000 0.000000 0.000000 -0.008070 0.000000 0.041127
#
#
# Mechanical properties :
#
#
# Convention : Reuss Voigt Hill
#
# Bulk Modulus (GPa) = 25.23695 57.82837 41.53266
# Shear Modulus (GPa) = 25.70457 33.37240 29.53849
#
# Velocity S-wave (km/s) = 3.63690 4.14400 3.89870
# Velocity P-wave (km/s) = 5.53376 7.25633 6.45278
#
# Compressibility (1/GPa) = 0.03962444
#
# Stress axis : x y z
#
# Youngs Moduli (GPa) = 123.26886 25.84588 86.81711
#
# Poissons Ratio (x) = 0.04824 0.41962
# Poissons Ratio (y) = 0.23008 0.22996
# Poissons Ratio (z) = 0.59580 0.06846
#
# Static dielectric constant tensor:
#      x y z
#    x 1.665810 0.000000 -0.013370 
#    y 0.000000 1.691930 0.000000 
#    z -0.013370 0.000000 1.655560 
# 
# From -- ./inp_files/281628.got.cif
#   From: 2010.05.17/outbox.cif.g08.bks.cpg/sg12_141_cif.got.tgz:281628.got - 2010.06.03 13:09:07.
