data_PCOD9219938
_publ_section_title
;
Structure prediction by ZEFSAII (Michael W. Deem and Ramdas Pophale) SiO2 
 PCOD9219938
Probable space group: C 2/M
;
_chemical_formula_sum "Si O2"
_cell_formula_units_Z 64
_cell_length_a 8.985527
_cell_length_b 29.476494
_cell_length_c 24.143885
_cell_angle_alpha 90.000000
_cell_angle_beta 31.677285
_cell_angle_gamma 90.000000
_cell_volume 3358.125505
_symmetry_space_group_name_H-M "C 2/M"
_symmetry_group_IT_number 12
_symmetry_cell_setting 'monoclinic'
loop_
_space_group_symop_operation_xyz
x,y,z
-x,y,-z
-x,-y,-z
x,-y,z
1/2+x,1/2+y,z
1/2-x,1/2+y,-z
1/2-x,1/2-y,-z
1/2+x,1/2-y,z
loop_
_atom_site_type_symbol
_atom_site_label
_atom_site_fract_x
_atom_site_fract_y
_atom_site_fract_z
Si Si1 0.267330 0.786191 0.875577
Si Si2 0.107253 0.551756 0.793214
Si Si3 0.742273 0.450549 0.624913
Si Si4 0.799251 0.284184 0.433442
Si Si5 0.848015 0.353219 0.608851
Si Si6 0.655081 0.616261 0.890304
Si Si7 0.191127 0.552506 0.993180
Si Si8 0.848493 0.782952 0.755717
O O1 0.212828 0.831667 0.856818
O O2 0.553287 0.794363 0.819788
O O3 0.297241 0.741079 0.830353
O O4 0.000000 0.780904 0.000000
O O5 0.034213 0.500000 0.799648
O O6 0.445072 0.556350 0.687237
O O7 0.942126 0.588073 0.808834
O O8 0.996795 0.557104 0.891464
O O9 0.722797 0.500000 0.659555
O O10 0.793700 0.405115 0.642967
O O11 0.000000 0.452740 0.500000
O O12 0.500000 0.295274 0.500000
O O13 0.750000 0.250000 0.500000
O O14 0.959123 0.327052 0.408221
O O15 0.989155 0.255480 0.331058
O O16 0.555196 0.325754 0.695412
O O17 0.000000 0.352043 0.500000
O O18 0.445769 0.588084 0.917585
O O19 0.500000 0.617323 0.000000
O O20 0.292868 0.500000 0.959875
O O21 0.000000 0.560181 0.000000
#
# Coordination Sequence:
#
# PCOD9219938 Si02
#       8
#     8   8   8   8   8   8   8   8
#     4  11  24  39  54  77 115 158 195 233 276 339
#     4   9  16  31  56  81 108 144 186 231 276 329
#     4   9  19  35  56  85 115 148 191 229 272 340
#     4  12  20  37  60  90 118 142 185 240 296 345
#     4  11  21  36  63  90 115 148 184 240 297 335
#     4   9  18  34  52  78 108 144 189 232 277 329
#     4   9  17  31  54  83 113 142 179 234 288 331
#     4  12  21  38  59  82 114 153 192 239 285 339
#
# _framework density 19.058250999999998
#
# number of rings (size 3 to 8) (size 9 to 14) (size 15 to 20)
#    0.000    1.750    3.750    1.500    0.000    1.500 
#    2.250    3.125    0.000    0.375    0.000    0.000 
#    0.000    0.000    0.000    0.000    0.000    0.000 
#
# Total GULP energy -178637.122805 kJ/mol
# GULP energy per Si atom -5582.410088 kJ/mol
# Density = 1.901487 g / cm^3
# Si number density = 19.058251 Si / 1000 Ang^3
#
#
#
# Elastic Constant Matrix: (Units=GPa)
#
#
# Indices 1 2 3 4 5 6 
#
# 1 76.9752 42.3933 24.0553 0.0002 -25.5141 -0.0001
# 2 42.3933 140.7224 35.4004 0.0000 -16.6624 -0.0001
# 3 24.0553 35.4004 81.1251 -0.0025 -25.7974 0.0016
# 4 0.0002 0.0000 -0.0025 -23.8014 0.0008 12.4214
# 5 -25.5141 -16.6624 -25.7974 0.0008 30.1592 -0.0003
# 6 -0.0001 -0.0001 0.0016 12.4214 -0.0003 14.8267
#
#
#
# Elastic Compliance Matrix: (Units=1/GPa)
#
#
# Indices 1 2 3 4 5 6 
#
# 1 0.020323 -0.004509 0.000847 0.000001 0.015426 0.000000
# 2 -0.004509 0.009068 -0.003077 0.000000 -0.001436 0.000000
# 3 0.000847 -0.003077 0.018002 -0.000002 0.014415 0.000000
# 4 0.000001 0.000000 -0.000002 -0.029233 0.000000 0.024491
# 5 0.015426 -0.001436 0.014415 0.000000 0.057744 -0.000001
# 6 0.000000 0.000000 0.000000 0.024491 -0.000001 0.046928
#
#
# Mechanical properties :
#
#
# Convention : Reuss Voigt Hill
#
# Bulk Modulus (GPa) = 29.48511 55.83562 42.66036
# Shear Modulus (GPa) = 33.87173 17.36849 25.62011
#
# Velocity S-wave (km/s) = 4.22035 3.02211 3.67045
# Velocity P-wave (km/s) = 6.26523 6.44504 6.35577
#
# Compressibility (1/GPa) = 0.03391543
#
# Stress axis : x y z
#
# Youngs Moduli (GPa) = 49.20572 110.27205 55.54898
#
# Poissons Ratio (x) = 0.49720 -0.04704
# Poissons Ratio (y) = 0.22186 0.17092
# Poissons Ratio (z) = -0.04166 0.33930
#
# Static dielectric constant tensor:
#      x y z
#    x 1.645570 0.000000 0.017300 
#    y 0.000000 1.688080 0.000000 
#    z 0.017300 0.000000 1.678200 
# 
# From -- ./inp_files/334335.got.cif
#   From: 2010.05.17/outbox.cif.g08.bks.cpg/sg12_168_cif.got.tgz:334335.got - 2010.06.03 13:09:07.
