data_PCOD9219370
_publ_section_title
;
Structure prediction by ZEFSAII (Michael W. Deem and Ramdas Pophale) SiO2 
 PCOD9219370
Probable space group: C 2/M
;
_chemical_formula_sum "Si O2"
_cell_formula_units_Z 58
_cell_length_a 23.600187
_cell_length_b 7.486861
_cell_length_c 19.307018
_cell_angle_alpha 90.000000
_cell_angle_beta 52.972380
_cell_angle_gamma 90.000000
_cell_volume 2723.461198
_symmetry_space_group_name_H-M "C 2/M"
_symmetry_group_IT_number 12
_symmetry_cell_setting 'monoclinic'
loop_
_space_group_symop_operation_xyz
x,y,z
-x,y,-z
-x,-y,-z
x,-y,z
1/2+x,1/2+y,z
1/2-x,1/2+y,-z
1/2-x,1/2-y,-z
1/2+x,1/2-y,z
loop_
_atom_site_type_symbol
_atom_site_label
_atom_site_fract_x
_atom_site_fract_y
_atom_site_fract_z
Si Si1 0.203121 0.217951 0.298789
Si Si2 0.284829 0.286208 0.866999
Si Si3 0.832834 0.712211 0.429324
Si Si4 0.141412 0.713916 0.046735
Si Si5 0.084003 0.203867 0.495798
Si Si6 0.496849 0.781625 0.082183
Si Si7 0.000000 0.500000 0.500000
Si Si8 0.851185 0.281769 0.259806
O O1 0.197771 0.278353 0.223076
O O2 0.139109 0.274411 0.396179
O O3 0.278510 0.274301 0.275752
O O4 0.201859 0.000000 0.301039
O O5 0.278258 0.500000 0.866112
O O6 0.341903 0.250305 0.885134
O O7 0.209112 0.218156 0.952478
O O8 0.844056 0.500000 0.423691
O O9 0.750000 0.750000 0.500000
O O10 0.875746 0.793237 0.460999
O O11 0.852892 0.776281 0.338129
O O12 0.141110 0.500000 0.038793
O O13 0.066307 0.779186 0.073124
O O14 0.020224 0.341630 0.541081
O O15 0.065179 0.000000 0.494505
O O16 0.422376 0.723954 0.169233
O O17 0.497136 0.000000 0.083501
O O18 0.500000 0.727684 0.000000
O O19 0.849724 0.500000 0.260419
#
# Coordination Sequence:
#
# PCOD9219370 Si02
#       8
#     8   8   8   8   8   8   2   8
#     4   9  17  33  56  83 110 149 197 245 296 357
#     4   9  17  31  52  74 105 147 194 237 285 347
#     4  11  20  36  61  91 124 162 210 268 323 374
#     4   9  17  30  48  77 109 143 185 236 290 349
#     4  11  23  43  66  91 125 166 212 259 315 382
#     4   9  16  28  48  79 113 144 183 238 299 358
#     4  12  26  48  64  94 124 168 206 254 320 386
#     4   9  17  29  52  84 116 150 192 245 307 368
#
# _framework density 21.296429
#
# number of rings (size 3 to 8) (size 9 to 14) (size 15 to 20)
#    0.000    2.345    2.069    1.448    0.000    3.310 
#    3.724    0.000    0.000    1.241    0.000    0.000 
#    0.000    0.000    0.000    0.000    0.000    0.000 
#
# Total GULP energy -161737.057825 kJ/mol
# GULP energy per Si atom -5577.139925 kJ/mol
# Density = 2.124796 g / cm^3
# Si number density = 21.296429 Si / 1000 Ang^3
#
#
#
# Elastic Constant Matrix: (Units=GPa)
#
#
# Indices 1 2 3 4 5 6 
#
# 1 122.7471 9.4539 51.2762 0.0014 21.6826 -0.0035
# 2 9.4539 85.5298 4.0214 -0.0118 1.0577 -0.0074
# 3 51.2762 4.0214 151.6157 0.0006 23.6777 -0.0006
# 4 0.0014 -0.0118 0.0006 4.0465 0.0006 11.7221
# 5 21.6826 1.0577 23.6777 0.0006 32.2850 0.0008
# 6 -0.0035 -0.0074 -0.0006 11.7221 0.0008 14.7421
#
#
#
# Elastic Compliance Matrix: (Units=1/GPa)
#
#
# Indices 1 2 3 4 5 6 
#
# 1 0.010190 -0.000941 -0.002662 0.000009 -0.004860 -0.000005
# 2 -0.000941 0.011794 -0.000037 -0.000014 0.000273 0.000017
# 3 -0.002662 -0.000037 0.008151 0.000000 -0.004189 0.000000
# 4 0.000009 -0.000014 0.000000 -0.189599 -0.000006 0.150758
# 5 -0.004860 0.000273 -0.004189 -0.000006 0.037301 0.000001
# 6 -0.000005 0.000017 0.000000 0.150758 0.000001 -0.052042
#
#
# Mechanical properties :
#
#
# Convention : Reuss Voigt Hill
#
# Bulk Modulus (GPa) = 43.75530 54.37729 49.06630
# Shear Modulus (GPa) = -31.38642 29.89079 -0.74782
#
# Velocity S-wave (km/s) = -3.84316 3.75047 -0.59322
# Velocity P-wave (km/s) = 0.94725 6.65911 4.75610
#
# Compressibility (1/GPa) = 0.02285438
#
# Stress axis : x y z
#
# Youngs Moduli (GPa) = 98.13567 84.78731 122.68211
#
# Poissons Ratio (x) = 0.07979 0.32661
# Poissons Ratio (y) = 0.09235 0.00456
# Poissons Ratio (z) = 0.26126 0.00315
#
# Static dielectric constant tensor:
#      x y z
#    x 1.749800 0.000000 -0.058930 
#    y 0.000000 1.818050 0.000000 
#    z -0.058930 0.000000 1.609670 
# 
# From -- ./inp_files/281119.got.cif
#   From: 2010.05.17/outbox.cif.g08.bks.cpg/sg12_141_cif.got.tgz:281119.got - 2010.06.03 13:09:07.
