data_PCOD9219335
_publ_section_title
;
Structure prediction by ZEFSAII (Michael W. Deem and Ramdas Pophale) SiO2 
 PCOD9219335
Probable space group: C 2/M
;
_chemical_formula_sum "Si O2"
_cell_formula_units_Z 44
_cell_length_a 12.418288
_cell_length_b 20.432955
_cell_length_c 12.153960
_cell_angle_alpha 90.000000
_cell_angle_beta 134.267992
_cell_angle_gamma 90.000000
_cell_volume 2208.380705
_symmetry_space_group_name_H-M "C 2/M"
_symmetry_group_IT_number 12
_symmetry_cell_setting 'monoclinic'
loop_
_space_group_symop_operation_xyz
x,y,z
-x,y,-z
-x,-y,-z
x,-y,z
1/2+x,1/2+y,z
1/2-x,1/2+y,-z
1/2-x,1/2-y,-z
1/2+x,1/2-y,z
loop_
_atom_site_type_symbol
_atom_site_label
_atom_site_fract_x
_atom_site_fract_y
_atom_site_fract_z
Si Si1 0.034806 0.924138 0.282368
Si Si2 0.197952 0.851198 0.043466
Si Si3 0.327163 0.888665 0.361807
Si Si4 0.000000 0.138208 0.500000
Si Si5 0.745338 0.255754 0.626758
Si Si6 0.435394 0.790184 0.058425
O O1 0.208048 0.916106 0.365688
O O2 0.008420 0.899922 0.389204
O O3 0.993338 0.000000 0.245787
O O4 0.934673 0.883659 0.122684
O O5 0.253246 0.893672 0.186925
O O6 0.335185 0.836450 0.060291
O O7 0.149983 0.776339 0.040837
O O8 0.500000 0.911916 0.500000
O O9 0.325040 0.810698 0.378393
O O10 0.146571 0.184752 0.601994
O O11 0.750000 0.250000 0.500000
O O12 0.919570 0.264367 0.776537
O O13 0.500000 0.827309 0.000000
#
# Coordination Sequence:
#
# PCOD9219335 Si02
#       6
#     8   8   8   4   8   8
#     4  12  27  48  69  94 138 192 237 273 327 412
#     4  11  23  39  65  98 134 177 225 277 338 408
#     4  12  24  41  67 107 136 176 226 284 353 403
#     4  12  25  42  72 104 137 180 228 282 350 408
#     4  12  21  36  64 103 140 170 211 284 354 405
#     4  11  20  35  60  97 136 168 211 276 348 405
#
# _framework density 19.924099999999999
#
# number of rings (size 3 to 8) (size 9 to 14) (size 15 to 20)
#    0.000    0.364    6.364    3.000    2.545    1.818 
#    0.000    0.000    0.000    1.636    0.000    0.000 
#    0.000    0.000    0.000    0.000    0.000    0.000 
#
# Total GULP energy -122827.454173 kJ/mol
# GULP energy per Si atom -5583.066099 kJ/mol
# Density = 1.987875 g / cm^3
# Si number density = 19.924100 Si / 1000 Ang^3
#
#
#
# Elastic Constant Matrix: (Units=GPa)
#
#
# Indices 1 2 3 4 5 6 
#
# 1 158.4729 19.4457 49.7337 0.0000 -4.4770 0.0000
# 2 19.4457 67.5088 0.5837 0.0000 -4.4170 0.0000
# 3 49.7337 0.5837 99.0858 0.0000 -6.7658 0.0000
# 4 0.0000 0.0000 0.0000 9.5742 0.0000 -7.0471
# 5 -4.4770 -4.4170 -6.7658 0.0000 39.1213 0.0000
# 6 0.0000 0.0000 0.0000 -7.0471 0.0000 2.4035
#
#
#
# Elastic Compliance Matrix: (Units=1/GPa)
#
#
# Indices 1 2 3 4 5 6 
#
# 1 0.007808 -0.002217 -0.003908 0.000000 -0.000033 0.000000
# 2 -0.002217 0.015553 0.001137 0.000000 0.001699 0.000000
# 3 -0.003908 0.001137 0.012169 0.000000 0.001786 0.000000
# 4 0.000000 0.000000 0.000000 -0.090183 0.000000 -0.264424
# 5 -0.000033 0.001699 0.001786 0.000000 0.026058 0.000000
# 6 0.000000 0.000000 0.000000 -0.264424 0.000000 -0.359246
#
#
# Mechanical properties :
#
#
# Convention : Reuss Voigt Hill
#
# Bulk Modulus (GPa) = 39.13356 51.62153 45.37755
# Shear Modulus (GPa) = -13.53740 27.24009 6.85135
#
# Velocity S-wave (km/s) = -2.60945 3.70157 1.85639
# Velocity P-wave (km/s) = 3.25653 6.65088 5.23637
#
# Compressibility (1/GPa) = 0.02555352
#
# Stress axis : x y z
#
# Youngs Moduli (GPa) = 128.07563 64.29666 82.17536
#
# Poissons Ratio (x) = 0.14257 0.32115
# Poissons Ratio (y) = 0.28399 -0.09346
# Poissons Ratio (z) = 0.50054 -0.07313
#
# Static dielectric constant tensor:
#      x y z
#    x 1.731330 0.000000 -0.023790 
#    y 0.000000 1.685520 0.000000 
#    z -0.023790 0.000000 1.626170 
# 
# From -- ./inp_files/133484.got.cif
#   From: 2010.05.17/outbox.cif.g08.bks.cpg/sg12_67_cif.got.tgz:133484.got - 2010.06.03 13:09:07.
