data_PCOD9219628
_publ_section_title
;
Structure prediction by ZEFSAII (Michael W. Deem and Ramdas Pophale) SiO2 
 PCOD9219628
Probable space group: C 2/M
;
_chemical_formula_sum "Si O2"
_cell_formula_units_Z 64
_cell_length_a 32.276537
_cell_length_b 9.290409
_cell_length_c 14.588434
_cell_angle_alpha 90.000000
_cell_angle_beta 116.870960
_cell_angle_gamma 90.000000
_cell_volume 3902.189077
_symmetry_space_group_name_H-M "C 2/M"
_symmetry_group_IT_number 12
_symmetry_cell_setting 'monoclinic'
loop_
_space_group_symop_operation_xyz
x,y,z
-x,y,-z
-x,-y,-z
x,-y,z
1/2+x,1/2+y,z
1/2-x,1/2+y,-z
1/2-x,1/2-y,-z
1/2+x,1/2-y,z
loop_
_atom_site_type_symbol
_atom_site_label
_atom_site_fract_x
_atom_site_fract_y
_atom_site_fract_z
Si Si1 0.424515 0.671934 0.781223
Si Si2 0.298002 0.172454 0.941391
Si Si3 0.611460 0.827750 0.083953
Si Si4 0.032968 0.167841 0.892530
Si Si5 0.888540 0.672250 0.361034
Si Si6 0.467032 0.332159 0.326594
Si Si7 0.298002 0.827546 0.154613
Si Si8 0.924515 0.828066 0.567806
O O1 0.418397 0.500000 0.785622
O O2 0.393285 0.758034 0.820871
O O3 0.478938 0.702582 0.856516
O O4 0.416331 0.707430 0.666331
O O5 0.340962 0.213210 0.920060
O O6 0.250000 0.250000 0.868887
O O7 0.291931 0.000000 0.929888
O O8 0.308718 0.207982 0.058718
O O9 0.609049 0.000000 0.086311
O O10 0.568592 0.766497 0.982025
O O11 0.039909 0.180202 0.789909
O O12 0.040322 0.000000 0.925360
O O13 0.890951 0.500000 0.368213
O O14 0.931408 0.733503 0.344841
O O15 0.840962 0.713210 0.261864
O O16 0.893285 0.741966 0.465699
O O17 0.459678 0.500000 0.344716
O O18 0.521062 0.297418 0.398640
O O19 0.291931 0.000000 0.153974
O O20 0.918398 0.000000 0.551173
#
# Coordination Sequence:
#
# PCOD9219628 Si02
#       8
#     8   8   8   8   8   8   8   8
#     4   9  19  35  51  68  95 132 172 208 236 272
#     4   9  19  35  52  72  99 127 155 191 237 289
#     4  11  21  31  48  75 103 128 157 199 249 295
#     4   9  18  32  49  70  98 133 170 202 233 278
#     4  11  21  31  48  75 103 128 157 199 249 295
#     4   9  18  32  49  70  98 133 170 202 233 278
#     4   9  19  35  52  72  99 127 155 191 237 289
#     4   9  19  35  51  68  95 132 172 208 236 272
#
# _framework density 16.401050999999999
#
# number of rings (size 3 to 8) (size 9 to 14) (size 15 to 20)
#    0.000    2.500    0.000    3.750    0.000    8.000 
#    0.000    5.000    0.000    0.750    0.000    0.000 
#    0.000    0.000    0.000    0.000    0.000    0.000 
#
# Total GULP energy -178579.507973 kJ/mol
# GULP energy per Si atom -5580.609624 kJ/mol
# Density = 1.636372 g / cm^3
# Si number density = 16.401051 Si / 1000 Ang^3
#
#
#
# Elastic Constant Matrix: (Units=GPa)
#
#
# Indices 1 2 3 4 5 6 
#
# 1 126.6648 60.5621 76.0586 0.0000 -9.4620 0.0000
# 2 60.5621 45.3575 58.6424 0.0000 1.6625 0.0000
# 3 76.0586 58.6424 125.2756 0.0000 10.6653 0.0000
# 4 0.0000 0.0000 0.0000 30.1630 0.0000 -0.0766
# 5 -9.4620 1.6625 10.6653 0.0000 13.3353 0.0000
# 6 0.0000 0.0000 0.0000 -0.0766 0.0000 30.0745
#
#
#
# Elastic Compliance Matrix: (Units=1/GPa)
#
#
# Indices 1 2 3 4 5 6 
#
# 1 0.028658 -0.034846 -0.003422 0.000000 0.027415 0.000000
# 2 -0.034846 0.101144 -0.024693 0.000000 -0.017586 0.000000
# 3 -0.003422 -0.024693 0.023139 0.000000 -0.017855 0.000000
# 4 0.000000 0.000000 0.000000 0.033153 0.000000 0.000084
# 5 0.027415 -0.017586 -0.017855 0.000000 0.110914 0.000000
# 6 0.000000 0.000000 0.000000 0.000084 0.000000 0.033251
#
#
# Mechanical properties :
#
#
# Convention : Reuss Voigt Hill
#
# Bulk Modulus (GPa) = 37.00986 76.42489 56.71737
# Shear Modulus (GPa) = 10.74834 21.51689 16.13262
#
# Velocity S-wave (km/s) = 2.56275 3.62597 3.13969
# Velocity P-wave (km/s) = 5.60102 8.01430 6.91377
#
# Compressibility (1/GPa) = 0.02701983
#
# Stress axis : x y z
#
# Youngs Moduli (GPa) = 34.89386 9.88687 43.21750
#
# Poissons Ratio (x) = 0.34452 0.14787
# Poissons Ratio (y) = 1.21592 1.06717
# Poissons Ratio (z) = 0.11939 0.24414
#
# Static dielectric constant tensor:
#      x y z
#    x 1.532550 0.000000 -0.017910 
#    y 0.000000 1.539320 0.000000 
#    z -0.017910 0.000000 1.553230 
# 
# From -- ./inp_files/104513.got.cif
#   From: 2010.05.17/outbox.cif.g08.bks.cpg/sg12_53_cif.got.tgz:104513.got - 2010.06.03 13:09:07.
