data_PCOD9219478
_publ_section_title
;
Structure prediction by ZEFSAII (Michael W. Deem and Ramdas Pophale) SiO2 
 PCOD9219478
Probable space group: C 2/M
;
_chemical_formula_sum "Si O2"
_cell_formula_units_Z 44
_cell_length_a 20.771432
_cell_length_b 14.563192
_cell_length_c 11.174912
_cell_angle_alpha 90.000000
_cell_angle_beta 140.304007
_cell_angle_gamma 90.000000
_cell_volume 2159.104021
_symmetry_space_group_name_H-M "C 2/M"
_symmetry_group_IT_number 12
_symmetry_cell_setting 'monoclinic'
loop_
_space_group_symop_operation_xyz
x,y,z
-x,y,-z
-x,-y,-z
x,-y,z
1/2+x,1/2+y,z
1/2-x,1/2+y,-z
1/2-x,1/2-y,-z
1/2+x,1/2-y,z
loop_
_atom_site_type_symbol
_atom_site_label
_atom_site_fract_x
_atom_site_fract_y
_atom_site_fract_z
Si Si1 0.826126 0.367910 0.739563
Si Si2 0.324013 0.500000 0.160624
Si Si3 0.889543 0.830564 0.822783
Si Si4 0.303612 0.500000 0.844254
Si Si5 0.621894 0.000000 0.401871
Si Si6 0.000000 0.136161 0.500000
Si Si7 0.599073 0.602965 0.428912
Si Si8 0.396890 0.000000 0.031686
O O1 0.820922 0.258660 0.726274
O O2 0.850332 0.413841 0.645765
O O3 0.716364 0.399298 0.624582
O O4 0.897453 0.412345 0.942400
O O5 0.396711 0.583282 0.310448
O O6 0.309950 0.500000 0.996594
O O7 0.208821 0.500000 0.046546
O O8 0.858728 0.909042 0.871766
O O9 0.899286 0.875991 0.707624
O O10 0.000000 0.790692 0.000000
O O11 0.194111 0.500000 0.621143
O O12 0.502136 0.000000 0.253744
O O13 0.960549 0.173359 0.570959
O O14 0.556126 0.500000 0.386593
#
# Coordination Sequence:
#
# PCOD9219478 Si02
#       8
#     8   4   8   4   4   4   8   4
#     4  11  20  41  64  93 117 158 208 255 296 354
#     4  11  21  38  64  89 121 165 202 250 302 371
#     4  12  24  37  61  93 128 155 201 252 312 362
#     4  12  25  40  59  88 131 164 195 253 316 362
#     4  11  22  39  65  89 122 161 204 255 305 352
#     4  11  20  38  66  92 118 161 212 239 308 362
#     4  12  19  37  66  92 120 159 198 253 306 359
#     4  11  21  41  68  88 120 160 216 252 292 355
#
# _framework density 20.378823000000001
#
# number of rings (size 3 to 8) (size 9 to 14) (size 15 to 20)
#    0.000    0.545    8.182    4.091    0.000    0.364 
#    0.000    0.909    4.000    0.000    0.000    0.000 
#    0.000    0.000    0.000    0.000    0.000    0.000 
#
# Total GULP energy -122548.663560 kJ/mol
# GULP energy per Si atom -5570.393798 kJ/mol
# Density = 2.033244 g / cm^3
# Si number density = 20.378823 Si / 1000 Ang^3
#
#
#
# Elastic Constant Matrix: (Units=GPa)
#
#
# Indices 1 2 3 4 5 6 
#
# 1 140.8359 24.0796 48.9874 0.0000 -8.6719 0.0000
# 2 24.0796 86.5768 0.0264 0.0000 -8.7317 0.0000
# 3 48.9874 0.0264 96.1103 0.0000 0.8409 0.0000
# 4 0.0000 0.0000 0.0000 -80.5823 0.0000 -58.7052
# 5 -8.6719 -8.7317 0.8409 0.0000 49.1828 0.0000
# 6 0.0000 0.0000 0.0000 -58.7052 0.0000 -48.3331
#
#
#
# Elastic Compliance Matrix: (Units=1/GPa)
#
#
# Indices 1 2 3 4 5 6 
#
# 1 0.009237 -0.002439 -0.004719 0.000000 0.001276 0.000000
# 2 -0.002439 0.012405 0.001224 0.000000 0.001751 0.000000
# 3 -0.004719 0.001224 0.012817 0.000000 -0.000834 0.000000
# 4 0.000000 0.000000 0.000000 -0.107769 0.000000 0.130895
# 5 0.001276 0.001751 -0.000834 0.000000 0.020883 0.000000
# 6 0.000000 0.000000 0.000000 0.130895 0.000000 -0.179675
#
#
# Mechanical properties :
#
#
# Convention : Reuss Voigt Hill
#
# Bulk Modulus (GPa) = 44.26241 52.18999 48.22620
# Shear Modulus (GPa) = -23.50684 0.74878 -11.37903
#
# Velocity S-wave (km/s) = -3.40000 0.60682 -2.36556
# Velocity P-wave (km/s) = 2.52065 5.11434 4.03176
#
# Compressibility (1/GPa) = 0.02259254
#
# Stress axis : x y z
#
# Youngs Moduli (GPa) = 108.25509 80.61217 78.02223
#
# Poissons Ratio (x) = 0.19662 0.36817
# Poissons Ratio (y) = 0.26404 -0.09553
# Poissons Ratio (z) = 0.51084 -0.09870
#
# Static dielectric constant tensor:
#      x y z
#    x 1.725890 0.000000 -0.007820 
#    y 0.000000 1.733050 0.000000 
#    z -0.007820 0.000000 1.821070 
# 
# From -- ./inp_files/167472.got.cif
#   From: 2010.05.17/outbox.cif.g08.bks.cpg/sg12_84_cif.got.tgz:167472.got - 2010.06.03 13:09:07.
