data_PCOD9219032
_publ_section_title
;
Structure prediction by ZEFSAII (Michael W. Deem and Ramdas Pophale) SiO2 
 PCOD9219032
Probable space group: C 2/M
;
_chemical_formula_sum "Si O2"
_cell_formula_units_Z 56
_cell_length_a 22.999256
_cell_length_b 20.593605
_cell_length_c 19.703064
_cell_angle_alpha 90.000000
_cell_angle_beta 162.184418
_cell_angle_gamma 90.000000
_cell_volume 2855.199104
_symmetry_space_group_name_H-M "C 2/M"
_symmetry_group_IT_number 12
_symmetry_cell_setting 'monoclinic'
loop_
_space_group_symop_operation_xyz
x,y,z
-x,y,-z
-x,-y,-z
x,-y,z
1/2+x,1/2+y,z
1/2-x,1/2+y,-z
1/2-x,1/2-y,-z
1/2+x,1/2-y,z
loop_
_atom_site_type_symbol
_atom_site_label
_atom_site_fract_x
_atom_site_fract_y
_atom_site_fract_z
Si Si1 0.706580 0.929013 0.371361
Si Si2 0.062590 0.127371 0.813338
Si Si3 0.152001 0.253442 0.486213
Si Si4 0.792943 0.927108 0.307080
Si Si5 0.915640 0.344578 0.132444
Si Si6 0.087987 0.222438 0.950299
Si Si7 0.214028 0.217358 0.710702
O O1 0.780089 0.921429 0.375133
O O2 0.554699 0.879113 0.233586
O O3 0.896801 0.924550 0.627979
O O4 0.619306 0.000000 0.279263
O O5 0.127824 0.154390 0.958661
O O6 0.953876 0.189674 0.659335
O O7 0.244685 0.111714 0.970117
O O8 0.364085 0.264134 0.694237
O O9 0.189792 0.240644 0.607068
O O10 0.031638 0.314630 0.325069
O O11 0.707095 0.856690 0.191723
O O12 0.000000 0.927428 0.500000
O O13 0.712953 0.000000 0.202633
O O14 0.821121 0.281752 0.991317
O O15 0.159986 0.233409 0.105759
O O16 0.000000 0.216384 0.500000
#
# Coordination Sequence:
#
# PCOD9219032 Si02
#       7
#     8   8   8   8   8   8   8
#     4  11  22  39  59  82 112 153 201 238 276 338
#     4  11  20  37  58  83 113 150 188 242 291 339
#     4  11  19  36  55  81 115 151 186 240 294 342
#     4   9  19  35  55  76 113 161 195 228 272 322
#     4  11  21  36  58  81 114 149 190 239 295 338
#     4  11  20  33  56  83 114 152 188 236 296 340
#     4  11  20  31  52  85 118 149 195 232 276 349
#
# _framework density 19.613343
#
# number of rings (size 3 to 8) (size 9 to 14) (size 15 to 20)
#    0.000    1.286    4.286    4.714    2.000    0.571 
#    0.000    0.714    0.000    2.571    0.000    2.000 
#    0.000    3.429    0.000    0.000    0.000    0.000 
#
# Total GULP energy -156124.608579 kJ/mol
# GULP energy per Si atom -5575.878878 kJ/mol
# Density = 1.956870 g / cm^3
# Si number density = 19.613343 Si / 1000 Ang^3
#
#
#
# Elastic Constant Matrix: (Units=GPa)
#
#
# Indices 1 2 3 4 5 6 
#
# 1 107.7398 34.0137 33.4878 0.0017 -1.3452 0.0011
# 2 34.0137 53.0260 17.6514 0.0000 -3.3241 -0.0004
# 3 33.4878 17.6514 69.4937 0.0060 -3.8191 0.0019
# 4 0.0017 0.0000 0.0060 7.2817 0.0032 -0.3780
# 5 -1.3452 -3.3241 -3.8191 0.0032 46.9262 0.0012
# 6 0.0011 -0.0004 0.0019 -0.3780 0.0012 21.9528
#
#
#
# Elastic Compliance Matrix: (Units=1/GPa)
#
#
# Indices 1 2 3 4 5 6 
#
# 1 0.012798 -0.006748 -0.004479 0.000001 -0.000476 0.000000
# 2 -0.006748 0.024209 -0.002826 0.000003 0.001291 0.000001
# 3 -0.004479 -0.002826 0.017326 -0.000014 0.001081 -0.000002
# 4 0.000001 0.000003 -0.000014 0.137453 -0.000010 0.002367
# 5 -0.000476 0.001291 0.001081 -0.000010 0.021476 -0.000001
# 6 0.000000 0.000001 -0.000002 0.002367 -0.000001 0.045593
#
#
# Mechanical properties :
#
#
# Convention : Reuss Voigt Hill
#
# Bulk Modulus (GPa) = 38.13114 44.50724 41.31919
# Shear Modulus (GPa) = 16.90878 24.90594 20.90736
#
# Velocity S-wave (km/s) = 2.93935 3.56736 3.26847
# Velocity P-wave (km/s) = 5.56806 6.30156 5.94613
#
# Compressibility (1/GPa) = 0.02622528
#
# Stress axis : x y z
#
# Youngs Moduli (GPa) = 78.13463 41.30668 57.71790
#
# Poissons Ratio (x) = 0.27875 0.25854
# Poissons Ratio (y) = 0.52727 0.16313
# Poissons Ratio (z) = 0.35000 0.11674
#
# Static dielectric constant tensor:
#      x y z
#    x 1.753050 0.000000 0.017630 
#    y 0.000000 1.705400 0.000000 
#    z 0.017630 0.000000 1.741640 
# 
# From -- ./inp_files/286344.got.cif
#   From: 2010.05.17/outbox.cif.g08.bks.cpg/sg12_144_cif.got.tgz:286344.got - 2010.06.03 13:09:07.
