data_PCOD9219932
_publ_section_title
;
Structure prediction by ZEFSAII (Michael W. Deem and Ramdas Pophale) SiO2 
 PCOD9219932
Probable space group: C 2/M
;
_chemical_formula_sum "Si O2"
_cell_formula_units_Z 48
_cell_length_a 13.418762
_cell_length_b 16.795343
_cell_length_c 8.921397
_cell_angle_alpha 90.000000
_cell_angle_beta 96.033524
_cell_angle_gamma 90.000000
_cell_volume 1999.501616
_symmetry_space_group_name_H-M "C 2/M"
_symmetry_group_IT_number 12
_symmetry_cell_setting 'monoclinic'
loop_
_space_group_symop_operation_xyz
x,y,z
-x,y,-z
-x,-y,-z
x,-y,z
1/2+x,1/2+y,z
1/2-x,1/2+y,-z
1/2-x,1/2-y,-z
1/2+x,1/2-y,z
loop_
_atom_site_type_symbol
_atom_site_label
_atom_site_fract_x
_atom_site_fract_y
_atom_site_fract_z
Si Si1 0.944899 0.212745 0.261927
Si Si2 0.997634 0.500000 0.742492
Si Si3 0.934545 0.345210 0.828352
Si Si4 0.831649 0.681914 0.489984
Si Si5 0.331564 0.000000 0.477576
Si Si6 0.232117 0.158885 0.957505
Si Si7 0.577685 0.408827 0.155386
O O1 0.904877 0.275441 0.379659
O O2 0.849382 0.162583 0.189095
O O3 0.992977 0.269823 0.143815
O O4 0.034131 0.146781 0.281846
O O5 0.005880 0.420367 0.834057
O O6 0.886961 0.500000 0.648118
O O7 0.078824 0.500000 0.626830
O O8 0.889860 0.328148 0.655322
O O9 0.838978 0.366976 0.912997
O O10 0.750000 0.750000 0.500000
O O11 0.789754 0.591367 0.451066
O O12 0.250000 0.250000 0.000000
O O13 0.181688 0.118175 0.093960
O O14 0.584463 0.500000 0.205271
O O15 0.500000 0.405108 0.000000
#
# Coordination Sequence:
#
# PCOD9219932 Si02
#       7
#     8   4   8   8   4   8   8
#     4  11  21  38  63  83 116 161 194 251 300 354
#     4   9  18  32  56  88 112 153 195 244 295 349
#     4  11  21  36  62  89 121 153 202 245 299 362
#     4  11  21  38  60  92 124 160 203 247 302 360
#     4   9  18  34  56  87 121 156 197 246 291 363
#     4  11  22  37  60  87 112 155 202 244 300 360
#     4   9  20  38  58  85 116 154 206 254 291 350
#
# _framework density 24.005984999999999
#
# number of rings (size 3 to 8) (size 9 to 14) (size 15 to 20)
#    0.000    1.667    5.000    0.500    1.167    0.000 
#    1.500    0.000    9.167    2.000    0.000    0.000 
#    0.000    0.000    0.000    0.000    0.000    0.000 
#
# Total GULP energy -133786.515661 kJ/mol
# GULP energy per Si atom -5574.438153 kJ/mol
# Density = 2.395135 g / cm^3
# Si number density = 24.005985 Si / 1000 Ang^3
#
#
#
# Elastic Constant Matrix: (Units=GPa)
#
#
# Indices 1 2 3 4 5 6 
#
# 1 99.3539 43.3209 40.9332 0.0000 -33.0222 0.0000
# 2 43.3209 210.0804 33.3227 0.0000 -29.3337 0.0000
# 3 40.9332 33.3227 101.7938 0.0000 -14.3525 0.0000
# 4 0.0000 0.0000 0.0000 23.3917 0.0000 -20.2896
# 5 -33.0222 -29.3337 -14.3525 0.0000 38.9216 0.0000
# 6 0.0000 0.0000 0.0000 -20.2896 0.0000 31.3720
#
#
#
# Elastic Compliance Matrix: (Units=1/GPa)
#
#
# Indices 1 2 3 4 5 6 
#
# 1 0.016125 -0.001035 -0.004564 0.000000 0.011218 0.000000
# 2 -0.001035 0.005539 -0.000983 0.000000 0.002934 0.000000
# 3 -0.004564 -0.000983 0.011952 0.000000 -0.000206 0.000000
# 4 0.000000 0.000000 0.000000 0.097375 0.000000 0.062977
# 5 0.011218 0.002934 -0.000206 0.000000 0.037346 0.000000
# 6 0.000000 0.000000 0.000000 0.062977 0.000000 0.072605
#
#
# Mechanical properties :
#
#
# Convention : Reuss Voigt Hill
#
# Bulk Modulus (GPa) = 48.89507 71.82020 60.35764
# Shear Modulus (GPa) = 19.16271 38.31382 28.73826
#
# Velocity S-wave (km/s) = 2.82839 3.99934 3.46371
# Velocity P-wave (km/s) = 5.57481 7.16302 6.41823
#
# Compressibility (1/GPa) = 0.02045196
#
# Stress axis : x y z
#
# Youngs Moduli (GPa) = 62.01536 180.53309 83.66905
#
# Poissons Ratio (x) = 0.18683 0.38184
# Poissons Ratio (y) = 0.06418 0.08228
# Poissons Ratio (z) = 0.28302 0.17754
#
# Static dielectric constant tensor:
#      x y z
#    x 1.852540 0.000000 0.075870 
#    y 0.000000 1.917460 0.000000 
#    z 0.075870 0.000000 2.095080 
# 
# From -- ./inp_files/142929.got.cif
#   From: 2010.05.17/outbox.cif.g08.bks.cpg/sg12_72_cif.got.tgz:142929.got - 2010.06.03 13:09:07.
