data_PCOD9219650
_publ_section_title
;
Structure prediction by ZEFSAII (Michael W. Deem and Ramdas Pophale) SiO2 
 PCOD9219650
Probable space group: C 2/M
;
_chemical_formula_sum "Si O2"
_cell_formula_units_Z 48
_cell_length_a 23.338607
_cell_length_b 8.698755
_cell_length_c 16.571162
_cell_angle_alpha 90.000000
_cell_angle_beta 122.328927
_cell_angle_gamma 90.000000
_cell_volume 2842.742764
_symmetry_space_group_name_H-M "C 2/M"
_symmetry_group_IT_number 12
_symmetry_cell_setting 'monoclinic'
loop_
_space_group_symop_operation_xyz
x,y,z
-x,y,-z
-x,-y,-z
x,-y,z
1/2+x,1/2+y,z
1/2-x,1/2+y,-z
1/2-x,1/2-y,-z
1/2+x,1/2-y,z
loop_
_atom_site_type_symbol
_atom_site_label
_atom_site_fract_x
_atom_site_fract_y
_atom_site_fract_z
Si Si1 0.376807 0.817895 0.277359
Si Si2 0.972969 0.813570 0.854479
Si Si3 0.578403 0.322572 0.528879
Si Si4 0.891651 0.186299 0.949125
Si Si5 0.480721 0.313151 0.678412
Si Si6 0.747509 0.183124 0.088306
O O1 0.380779 0.774512 0.375140
O O2 0.445367 0.751027 0.288847
O O3 0.311999 0.743719 0.186379
O O4 0.375433 0.000000 0.266356
O O5 0.918311 0.766364 0.880492
O O6 0.961974 0.763263 0.754546
O O7 0.971995 0.000000 0.853746
O O8 0.047544 0.770534 0.943567
O O9 0.500000 0.321597 0.500000
O O10 0.601517 0.500000 0.548657
O O11 0.571970 0.267550 0.431756
O O12 0.821541 0.260323 0.921951
O O13 0.885437 0.000000 0.946174
O O14 0.484673 0.500000 0.678647
O O15 0.749363 0.000000 0.085923
O O16 0.750000 0.250000 0.000000
#
# Coordination Sequence:
#
# PCOD9219650 Si02
#       6
#     8   8   8   8   8   8
#     4  11  21  32  48  72 101 132 164 203 249 291
#     4   8  15  29  52  76  99 129 162 198 238 286
#     4   8  15  28  46  69  98 131 165 202 245 291
#     4   9  17  32  52  75 101 130 164 197 236 287
#     4   9  16  29  50  75 102 133 167 201 243 293
#     4  12  24  37  52  72  99 130 163 199 241 290
#
# _framework density 16.885100999999999
#
# number of rings (size 3 to 8) (size 9 to 14) (size 15 to 20)
#    0.000    2.500    0.000    6.000    0.000    4.333 
#    0.000    2.500    0.000    1.000    0.000    0.000 
#    0.000    0.000    0.000    0.000    0.000    0.000 
#
# Total GULP energy -133818.379922 kJ/mol
# GULP energy per Si atom -5575.765830 kJ/mol
# Density = 1.684667 g / cm^3
# Si number density = 16.885101 Si / 1000 Ang^3
#
#
#
# Elastic Constant Matrix: (Units=GPa)
#
#
# Indices 1 2 3 4 5 6 
#
# 1 88.3277 32.9239 75.7200 0.0000 -11.6837 0.0000
# 2 32.9239 65.7397 49.3286 0.0000 0.6625 0.0000
# 3 75.7200 49.3286 148.5274 0.0000 -23.2862 0.0000
# 4 0.0000 0.0000 0.0000 22.5329 0.0000 3.4214
# 5 -11.6837 0.6625 -23.2862 0.0000 31.6746 0.0000
# 6 0.0000 0.0000 0.0000 3.4214 0.0000 22.1843
#
#
#
# Elastic Compliance Matrix: (Units=1/GPa)
#
#
# Indices 1 2 3 4 5 6 
#
# 1 0.020639 -0.003401 -0.009254 0.000000 0.000881 0.000000
# 2 -0.003401 0.021909 -0.006568 0.000000 -0.006541 0.000000
# 3 -0.009254 -0.006568 0.014827 0.000000 0.007624 0.000000
# 4 0.000000 0.000000 0.000000 0.045444 0.000000 -0.007009
# 5 0.000881 -0.006541 0.007624 0.000000 0.037638 0.000000
# 6 0.000000 0.000000 0.000000 -0.007009 0.000000 0.046158
#
#
# Mechanical properties :
#
#
# Convention : Reuss Voigt Hill
#
# Bulk Modulus (GPa) = 52.83021 68.72664 60.77843
# Shear Modulus (GPa) = 21.61025 24.91986 23.26506
#
# Velocity S-wave (km/s) = 3.58137 3.84585 3.71596
# Velocity P-wave (km/s) = 6.96115 7.77892 7.38137
#
# Compressibility (1/GPa) = 0.01892856
#
# Stress axis : x y z
#
# Youngs Moduli (GPa) = 48.45173 45.64270 67.44338
#
# Poissons Ratio (x) = 0.15525 0.62413
# Poissons Ratio (y) = 0.16481 0.44297
# Poissons Ratio (z) = 0.44838 0.29978
#
# Static dielectric constant tensor:
#      x y z
#    x 1.555200 0.000000 -0.035220 
#    y 0.000000 1.567270 0.000000 
#    z -0.035220 0.000000 1.584470 
# 
# From -- ./inp_files/287954.got.cif
#   From: 2010.05.17/outbox.cif.g08.bks.cpg/sg12_144_cif.got.tgz:287954.got - 2010.06.03 13:09:07.
