data_PCOD9219132
_publ_section_title
;
Structure prediction by ZEFSAII (Michael W. Deem and Ramdas Pophale) SiO2 
 PCOD9219132
Probable space group: C 2/M
;
_chemical_formula_sum "Si O2"
_cell_formula_units_Z 48
_cell_length_a 24.836528
_cell_length_b 7.475482
_cell_length_c 14.392214
_cell_angle_alpha 90.000000
_cell_angle_beta 109.650883
_cell_angle_gamma 90.000000
_cell_volume 2516.503576
_symmetry_space_group_name_H-M "C 2/M"
_symmetry_group_IT_number 12
_symmetry_cell_setting 'monoclinic'
loop_
_space_group_symop_operation_xyz
x,y,z
-x,y,-z
-x,-y,-z
x,-y,z
1/2+x,1/2+y,z
1/2-x,1/2+y,-z
1/2-x,1/2-y,-z
1/2+x,1/2-y,z
loop_
_atom_site_type_symbol
_atom_site_label
_atom_site_fract_x
_atom_site_fract_y
_atom_site_fract_z
Si Si1 0.367138 0.219216 0.856633
Si Si2 0.254915 0.793068 0.893059
Si Si3 0.937185 0.717324 0.073381
Si Si4 0.449333 0.218010 0.754799
Si Si5 0.984698 0.718738 0.387855
Si Si6 0.371886 0.214934 0.217126
O O1 0.307039 0.286888 0.863253
O O2 0.390599 0.276321 0.769463
O O3 0.366224 0.000000 0.853037
O O4 0.414471 0.272639 0.960694
O O5 0.193690 0.765926 0.809272
O O6 0.268403 0.000000 0.902132
O O7 0.250000 0.750000 0.000000
O O8 0.938383 0.500000 0.072467
O O9 0.892126 0.773181 0.126308
O O10 0.998749 0.772540 0.146707
O O11 0.469300 0.275109 0.663846
O O12 0.449116 0.000000 0.752071
O O13 0.984517 0.500000 0.387954
O O14 0.921488 0.775318 0.316453
O O15 0.000000 0.778263 0.500000
O O16 0.373681 0.000000 0.218565
#
# Coordination Sequence:
#
# PCOD9219132 Si02
#       6
#     8   8   8   8   8   8
#     4   9  15  22  34  55  83 112 141 173 207 246
#     4  11  20  29  42  61  89 121 152 179 205 247
#     4   8  12  20  35  56  81 106 135 171 207 246
#     4   8  13  20  34  58  85 108 133 174 222 254
#     4   8  14  25  44  68  88 106 136 183 230 262
#     4   9  16  28  44  64  89 115 144 177 213 256
#
# _framework density 19.074083999999999
#
# number of rings (size 3 to 8) (size 9 to 14) (size 15 to 20)
#    0.000    3.167    1.667    3.000    0.000    2.000 
#    0.000    0.000    0.000    1.500    0.000   14.000 
#    0.000    0.000    0.000    0.000    0.000    0.167 
#
# Total GULP energy -133672.787412 kJ/mol
# GULP energy per Si atom -5569.699476 kJ/mol
# Density = 1.903067 g / cm^3
# Si number density = 19.074084 Si / 1000 Ang^3
#
#
#
# Elastic Constant Matrix: (Units=GPa)
#
#
# Indices 1 2 3 4 5 6 
#
# 1 172.6033 3.5838 83.0258 0.0000 -30.4982 0.0000
# 2 3.5838 48.7058 0.2605 0.0000 -3.7165 0.0000
# 3 83.0258 0.2605 117.1249 0.0000 -22.3364 0.0000
# 4 0.0000 0.0000 0.0000 0.2778 0.0000 3.7992
# 5 -30.4982 -3.7165 -22.3364 0.0000 14.9934 0.0000
# 6 0.0000 0.0000 0.0000 3.7992 0.0000 10.0352
#
#
#
# Elastic Compliance Matrix: (Units=1/GPa)
#
#
# Indices 1 2 3 4 5 6 
#
# 1 0.010677 0.000362 -0.004764 0.000000 0.014711 0.000000
# 2 0.000362 0.021086 0.001164 0.000000 0.007699 0.000000
# 3 -0.004764 0.001164 0.014135 0.000000 0.011656 0.000000
# 4 0.000000 0.000000 0.000000 -0.861684 0.000000 0.326218
# 5 0.014711 0.007699 0.011656 0.000000 0.115894 0.000000
# 6 0.000000 0.000000 0.000000 0.326218 0.000000 -0.023851
#
#
# Mechanical properties :
#
#
# Convention : Reuss Voigt Hill
#
# Bulk Modulus (GPa) = 25.36529 56.90823 41.13676
# Shear Modulus (GPa) = -7.10098 21.83220 7.36561
#
# Velocity S-wave (km/s) = -1.93156 3.38686 1.96722
# Velocity P-wave (km/s) = 2.89009 6.72269 5.17432
#
# Compressibility (1/GPa) = 0.03942396
#
# Stress axis : x y z
#
# Youngs Moduli (GPa) = 93.65911 47.42490 70.74541
#
# Poissons Ratio (x) = -0.01719 0.33702
# Poissons Ratio (y) = -0.03394 -0.08237
# Poissons Ratio (z) = 0.44618 -0.05522
#
# Static dielectric constant tensor:
#      x y z
#    x 1.725810 0.000000 -0.014770 
#    y 0.000000 1.745240 0.000000 
#    z -0.014770 0.000000 1.595120 
# 
# From -- ./inp_files/236628.got.cif
#   From: 2010.05.17/outbox.cif.g08.bks.cpg/sg12_119_cif.got.tgz:236628.got - 2010.06.03 13:09:07.
