data_PCOD9219412
_publ_section_title
;
Structure prediction by ZEFSAII (Michael W. Deem and Ramdas Pophale) SiO2 
 PCOD9219412
Probable space group: C 2/M
;
_chemical_formula_sum "Si O2"
_cell_formula_units_Z 52
_cell_length_a 9.096911
_cell_length_b 20.361200
_cell_length_c 25.095068
_cell_angle_alpha 90.000000
_cell_angle_beta 36.249159
_cell_angle_gamma 90.000000
_cell_volume 2748.476093
_symmetry_space_group_name_H-M "C 2/M"
_symmetry_group_IT_number 12
_symmetry_cell_setting 'monoclinic'
loop_
_space_group_symop_operation_xyz
x,y,z
-x,y,-z
-x,-y,-z
x,-y,z
1/2+x,1/2+y,z
1/2-x,1/2+y,-z
1/2-x,1/2-y,-z
1/2+x,1/2-y,z
loop_
_atom_site_type_symbol
_atom_site_label
_atom_site_fract_x
_atom_site_fract_y
_atom_site_fract_z
Si Si1 0.652563 0.190716 0.169501
Si Si2 0.292131 0.300584 0.317799
Si Si3 0.861707 0.573288 0.908735
Si Si4 0.924514 0.880599 0.910356
Si Si5 0.235363 0.724126 0.564750
Si Si6 0.400790 0.429094 0.802274
Si Si7 0.000000 0.716676 0.000000
O O1 0.425832 0.236203 0.253284
O O2 0.598547 0.132644 0.143825
O O3 0.810066 0.155074 0.169163
O O4 0.853295 0.238675 0.084052
O O5 0.271933 0.279705 0.386385
O O6 0.459098 0.365268 0.261268
O O7 0.031604 0.311148 0.362607
O O8 0.840756 0.500000 0.891114
O O9 0.112695 0.573798 0.870341
O O10 0.632963 0.586318 0.016081
O O11 0.908599 0.925904 0.863835
O O12 0.706435 0.827313 0.967815
O O13 0.500000 0.688506 0.500000
O O14 0.250000 0.750000 0.500000
O O15 0.500918 0.500000 0.754391
#
# Coordination Sequence:
#
# PCOD9219412 Si02
#       7
#     8   8   8   8   8   8   4
#     4  12  24  34  57  84 114 155 200 248 292 328
#     4  11  20  37  61  89 119 142 188 237 290 345
#     4  11  23  38  51  73 113 164 210 248 285 328
#     4  12  21  36  54  74 109 160 210 252 284 321
#     4   9  20  38  64  92 114 138 170 230 298 358
#     4  11  23  36  55  81 115 156 197 238 287 339
#     4  12  22  34  54  78 118 152 206 246 280 328
#
# _framework density 18.919574000000001
#
# number of rings (size 3 to 8) (size 9 to 14) (size 15 to 20)
#    0.000    0.923    4.615    2.769    2.154    3.077 
#    0.000    0.000    0.000    4.615    0.000    4.308 
#    0.000    0.000    0.000    0.000    0.000    0.000 
#
# Total GULP energy -145033.861259 kJ/mol
# GULP energy per Si atom -5578.225433 kJ/mol
# Density = 1.887651 g / cm^3
# Si number density = 18.919574 Si / 1000 Ang^3
#
#
#
# Elastic Constant Matrix: (Units=GPa)
#
#
# Indices 1 2 3 4 5 6 
#
# 1 89.1494 24.2788 23.3388 0.0031 -6.7432 0.0014
# 2 24.2788 104.7640 27.3825 0.0766 3.1144 -0.0151
# 3 23.3388 27.3825 74.3499 0.0077 1.0716 -0.0010
# 4 0.0031 0.0766 0.0077 10.7995 -0.0005 -0.8925
# 5 -6.7432 3.1144 1.0716 -0.0005 40.6205 -0.0007
# 6 0.0014 -0.0151 -0.0010 -0.8925 -0.0007 29.3819
#
#
#
# Elastic Compliance Matrix: (Units=1/GPa)
#
#
# Indices 1 2 3 4 5 6 
#
# 1 0.012849 -0.002197 -0.003259 0.000014 0.002387 -0.000001
# 2 -0.002197 0.010958 -0.003330 -0.000074 -0.001117 0.000003
# 3 -0.003259 -0.003330 0.015709 0.000013 -0.000700 -0.000001
# 4 0.000014 -0.000074 0.000013 0.092830 0.000009 0.002820
# 5 0.002387 -0.001117 -0.000700 0.000009 0.025119 0.000000
# 6 -0.000001 0.000003 -0.000001 0.002820 0.000000 0.034120
#
#
# Mechanical properties :
#
#
# Convention : Reuss Voigt Hill
#
# Bulk Modulus (GPa) = 45.56815 46.47370 46.02093
# Shear Modulus (GPa) = 23.09769 29.04461 26.07115
#
# Velocity S-wave (km/s) = 3.49784 3.92237 3.71617
# Velocity P-wave (km/s) = 6.36008 6.71792 6.54145
#
# Compressibility (1/GPa) = 0.02194515
#
# Stress axis : x y z
#
# Youngs Moduli (GPa) = 77.82627 91.25712 63.65641
#
# Poissons Ratio (x) = 0.20049 0.20744
# Poissons Ratio (y) = 0.17098 0.21198
# Poissons Ratio (z) = 0.25361 0.30389
#
# Static dielectric constant tensor:
#      x y z
#    x 1.729530 0.000020 -0.009090 
#    y 0.000020 1.681520 -0.000020 
#    z -0.009090 -0.000020 1.693110 
# 
# From -- ./inp_files/356831.got.cif
#   From: 2010.05.17/outbox.cif.g08.bks.cpg/sg12_179_cif.got.tgz:356831.got - 2010.06.03 13:09:07.
