data_PCOD9219693
_publ_section_title
;
Structure prediction by ZEFSAII (Michael W. Deem and Ramdas Pophale) SiO2 
 PCOD9219693
Probable space group: C 2/M
;
_chemical_formula_sum "Si O2"
_cell_formula_units_Z 56
_cell_length_a 19.546199
_cell_length_b 7.934093
_cell_length_c 25.638552
_cell_angle_alpha 90.000000
_cell_angle_beta 42.183638
_cell_angle_gamma 90.000000
_cell_volume 2669.961141
_symmetry_space_group_name_H-M "C 2/M"
_symmetry_group_IT_number 12
_symmetry_cell_setting 'monoclinic'
loop_
_space_group_symop_operation_xyz
x,y,z
-x,y,-z
-x,-y,-z
x,-y,z
1/2+x,1/2+y,z
1/2-x,1/2+y,-z
1/2-x,1/2-y,-z
1/2+x,1/2-y,z
loop_
_atom_site_type_symbol
_atom_site_label
_atom_site_fract_x
_atom_site_fract_y
_atom_site_fract_z
Si Si1 0.692799 0.703074 0.084815
Si Si2 0.209305 0.697623 0.748676
Si Si3 0.831515 0.201986 0.498043
Si Si4 0.230128 0.794441 0.177097
Si Si5 0.963391 0.799120 0.233640
Si Si6 0.995939 0.795331 0.328170
Si Si7 0.887108 0.696657 0.576742
O O1 0.689966 0.500000 0.088790
O O2 0.746883 0.761773 0.108109
O O3 0.575176 0.763965 0.152799
O O4 0.750000 0.750000 0.000000
O O5 0.190630 0.500000 0.762606
O O6 0.205910 0.767934 0.809558
O O7 0.124905 0.766491 0.757306
O O8 0.320873 0.722643 0.660087
O O9 0.750000 0.250000 0.500000
O O10 0.937971 0.262679 0.412169
O O11 0.822592 0.282710 0.559761
O O12 0.830946 0.000000 0.505027
O O13 0.113325 0.749531 0.256421
O O14 0.236105 0.000000 0.173636
O O15 0.943209 0.736299 0.304027
O O16 0.973084 0.000000 0.233064
O O17 0.990915 0.000000 0.332868
O O18 0.898402 0.500000 0.582673
O O19 0.000000 0.767811 0.500000
#
# Coordination Sequence:
#
# PCOD9219693 Si02
#       7
#     8   8   8   8   8   8   8
#     4   9  18  35  59  83 108 139 173 212 257 312
#     4  11  21  34  55  80 105 136 178 226 271 321
#     4  11  21  33  52  77 104 136 179 231 282 329
#     4   8  16  32  53  76 100 130 170 212 258 309
#     4   9  18  34  55  78 107 141 172 211 269 324
#     4   8  15  30  51  70  92 129 174 216 258 309
#     4  11  24  39  53  73 107 149 188 230 280 328
#
# _framework density 20.974087999999998
#
# number of rings (size 3 to 8) (size 9 to 14) (size 15 to 20)
#    0.000    2.429    0.000    4.714    0.000    4.000 
#    0.000    2.857    0.000    7.714    0.000    0.000 
#    0.000    0.000    0.000    0.000    0.000    0.000 
#
# Total GULP energy -156236.740705 kJ/mol
# GULP energy per Si atom -5579.883597 kJ/mol
# Density = 2.092635 g / cm^3
# Si number density = 20.974088 Si / 1000 Ang^3
#
#
#
# Elastic Constant Matrix: (Units=GPa)
#
#
# Indices 1 2 3 4 5 6 
#
# 1 102.5137 -5.9632 24.7901 0.0001 28.0568 -0.0001
# 2 -5.9632 20.7075 -1.6522 0.0000 0.7998 -0.0008
# 3 24.7901 -1.6522 91.2132 0.0001 30.5896 0.0001
# 4 0.0001 0.0000 0.0001 21.4340 0.0000 -1.8757
# 5 28.0568 0.7998 30.5896 0.0000 33.6367 0.0000
# 6 -0.0001 -0.0008 0.0001 -1.8757 0.0000 14.5110
#
#
#
# Elastic Compliance Matrix: (Units=1/GPa)
#
#
# Indices 1 2 3 4 5 6 
#
# 1 0.012995 0.004200 0.000306 0.000000 -0.011218 0.000000
# 2 0.004200 0.049903 0.001921 0.000000 -0.006437 0.000003
# 3 0.000306 0.001921 0.015850 0.000000 -0.014715 0.000000
# 4 0.000000 0.000000 0.000000 0.047189 0.000000 0.006100
# 5 -0.011218 -0.006437 -0.014715 0.000000 0.052622 0.000000
# 6 0.000000 0.000003 0.000000 0.006100 0.000000 0.069701
#
#
# Mechanical properties :
#
#
# Convention : Reuss Voigt Hill
#
# Bulk Modulus (GPa) = 10.91666 27.64264 19.27965
# Shear Modulus (GPa) = 18.80129 27.06700 22.93415
#
# Velocity S-wave (km/s) = 2.99725 3.59625 3.31033
# Velocity P-wave (km/s) = 4.14658 5.51833 4.88089
#
# Compressibility (1/GPa) = 0.09160309
#
# Stress axis : x y z
#
# Youngs Moduli (GPa) = 76.95122 20.03887 63.09227
#
# Poissons Ratio (x) = -0.08416 -0.01932
# Poissons Ratio (y) = -0.32320 -0.12121
# Poissons Ratio (z) = -0.02357 -0.03850
#
# Static dielectric constant tensor:
#      x y z
#    x 1.818220 0.000000 0.004300 
#    y 0.000000 1.756810 0.000000 
#    z 0.004300 0.000000 1.752990 
# 
# From -- ./inp_files/342314.got.cif
#   From: 2010.05.17/outbox.cif.g08.bks.cpg/sg12_172_cif.got.tgz:342314.got - 2010.06.03 13:09:07.
