data_PCOD9219727
_publ_section_title
;
Structure prediction by ZEFSAII (Michael W. Deem and Ramdas Pophale) SiO2 
 PCOD9219727
Probable space group: C 2/M
;
_chemical_formula_sum "Si O2"
_cell_formula_units_Z 40
_cell_length_a 25.202868
_cell_length_b 8.521159
_cell_length_c 21.586077
_cell_angle_alpha 90.000000
_cell_angle_beta 148.711104
_cell_angle_gamma 90.000000
_cell_volume 2407.606040
_symmetry_space_group_name_H-M "C 2/M"
_symmetry_group_IT_number 12
_symmetry_cell_setting 'monoclinic'
loop_
_space_group_symop_operation_xyz
x,y,z
-x,y,-z
-x,-y,-z
x,-y,z
1/2+x,1/2+y,z
1/2-x,1/2+y,-z
1/2-x,1/2-y,-z
1/2+x,1/2-y,z
loop_
_atom_site_type_symbol
_atom_site_label
_atom_site_fract_x
_atom_site_fract_y
_atom_site_fract_z
Si Si1 0.920172 0.689780 0.508670
Si Si2 0.141108 0.688939 0.088793
Si Si3 0.078664 0.691091 0.165586
Si Si4 0.248453 0.812170 0.567925
Si Si5 0.141277 0.688635 0.691809
O O1 0.916255 0.500000 0.507600
O O2 0.851592 0.758639 0.494385
O O3 0.875368 0.737920 0.396644
O O4 0.039314 0.737884 0.626769
O O5 0.143352 0.500000 0.090312
O O6 0.122071 0.738256 0.141443
O O7 0.250507 0.750256 0.176904
O O8 0.039927 0.740491 0.950623
O O9 0.079026 0.500000 0.166382
O O10 0.153467 0.745252 0.294382
O O11 0.250000 0.750000 0.500000
O O12 0.251639 0.000000 0.569971
O O13 0.142768 0.500000 0.693474
#
# Coordination Sequence:
#
# PCOD9219727 Si02
#       5
#     8   8   8   8   8
#     4   9  18  32  47  68 100 132 159 191 238 289
#     4   9  15  28  49  71  96 125 156 194 237 290
#     4   8  16  29  46  69  97 126 157 193 239 285
#     4  11  21  34  51  71  96 129 165 200 234 279
#     4   9  17  29  47  72 102 128 152 194 246 285
#
# _framework density 16.614013
#
# number of rings (size 3 to 8) (size 9 to 14) (size 15 to 20)
#    0.000    2.800    2.000    3.000    0.000    0.800 
#    0.000    6.000    0.000    1.200    0.000    0.000 
#    0.000    0.000    0.000    0.000    0.000    0.000 
#
# Total GULP energy -111422.657797 kJ/mol
# GULP energy per Si atom -5571.132890 kJ/mol
# Density = 1.657620 g / cm^3
# Si number density = 16.614013 Si / 1000 Ang^3
#
#
#
# Elastic Constant Matrix: (Units=GPa)
#
#
# Indices 1 2 3 4 5 6 
#
# 1 114.8928 25.3792 84.7308 0.0000 14.4422 0.0000
# 2 25.3792 14.8085 23.3931 0.0000 3.9830 0.0000
# 3 84.7308 23.3931 152.4150 0.0000 27.4682 0.0000
# 4 0.0000 0.0000 0.0000 -73.5709 0.0000 3.7261
# 5 14.4422 3.9830 27.4682 0.0000 30.3803 0.0000
# 6 0.0000 0.0000 0.0000 3.7261 0.0000 24.9807
#
#
#
# Elastic Compliance Matrix: (Units=1/GPa)
#
#
# Indices 1 2 3 4 5 6 
#
# 1 0.018475 -0.020371 -0.007219 0.000000 0.000415 0.000000
# 2 -0.020371 0.111621 -0.005872 0.000000 0.000359 0.000000
# 3 -0.007219 -0.005872 0.012805 0.000000 -0.007376 0.000000
# 4 0.000000 0.000000 0.000000 -0.013490 0.000000 0.002012
# 5 0.000415 0.000359 -0.007376 0.000000 0.039340 0.000000
# 6 0.000000 0.000000 0.000000 0.002012 0.000000 0.039731
#
#
# Mechanical properties :
#
#
# Convention : Reuss Voigt Hill
#
# Bulk Modulus (GPa) = 13.16190 61.01360 37.08775
# Shear Modulus (GPa) = 16.62615 6.26558 11.44587
#
# Velocity S-wave (km/s) = 3.16686 1.94408 2.62759
# Velocity P-wave (km/s) = 4.61643 6.46863 5.61937
#
# Compressibility (1/GPa) = 0.07597686
#
# Stress axis : x y z
#
# Youngs Moduli (GPa) = 54.12622 8.95891 78.09645
#
# Poissons Ratio (x) = 0.18250 0.56378
# Poissons Ratio (y) = 1.10262 0.45856
# Poissons Ratio (z) = 0.39074 0.05260
#
# Static dielectric constant tensor:
#      x y z
#    x 1.530880 0.000000 0.018740 
#    y 0.000000 1.572730 0.000000 
#    z 0.018740 0.000000 1.585360 
# 
# From -- ./inp_files/162377.got.cif
#   From: 2010.05.17/outbox.cif.g08.bks.cpg/sg12_82_cif.got.tgz:162377.got - 2010.06.03 13:09:07.
