data_PCOD9219611
_publ_section_title
;
Structure prediction by ZEFSAII (Michael W. Deem and Ramdas Pophale) SiO2 
 PCOD9219611
Probable space group: C 2/M
;
_chemical_formula_sum "Si O2"
_cell_formula_units_Z 48
_cell_length_a 13.302320
_cell_length_b 24.377398
_cell_length_c 7.452353
_cell_angle_alpha 90.000000
_cell_angle_beta 94.067921
_cell_angle_gamma 90.000000
_cell_volume 2410.530549
_symmetry_space_group_name_H-M "C 2/M"
_symmetry_group_IT_number 12
_symmetry_cell_setting 'monoclinic'
loop_
_space_group_symop_operation_xyz
x,y,z
-x,y,-z
-x,-y,-z
x,-y,z
1/2+x,1/2+y,z
1/2-x,1/2+y,-z
1/2-x,1/2-y,-z
1/2+x,1/2-y,z
loop_
_atom_site_type_symbol
_atom_site_label
_atom_site_fract_x
_atom_site_fract_y
_atom_site_fract_z
Si Si1 0.398530 0.678540 0.373006
Si Si2 0.474924 0.219394 0.203641
Si Si3 0.848355 0.939310 0.839528
Si Si4 0.804590 0.715679 0.741089
Si Si5 0.272519 0.170282 0.133720
Si Si6 0.071413 0.939986 0.741201
O O1 0.500000 0.684931 0.500000
O O2 0.430462 0.718998 0.214232
O O3 0.287117 0.700885 0.403527
O O4 0.386093 0.614287 0.341103
O O5 0.581412 0.210232 0.315329
O O6 0.382317 0.179693 0.234883
O O7 0.500000 0.210528 0.000000
O O8 0.777135 0.886855 0.817759
O O9 0.950383 0.933440 0.736830
O O10 0.804394 0.000000 0.797089
O O11 0.887906 0.940041 0.050023
O O12 0.793999 0.777966 0.811018
O O13 0.786085 0.678174 0.918664
O O14 0.094988 0.000000 0.666003
#
# Coordination Sequence:
#
# PCOD9219611 Si02
#       6
#     8   8   8   8   8   8
#     4  11  21  30  46  70  96 124 153 186 226 271
#     4   9  19  31  49  68  89 124 155 186 225 277
#     4   9  16  27  48  72  91 114 152 195 225 262
#     4   9  17  29  45  66  94 123 149 185 226 274
#     4   9  15  27  48  70  89 117 153 186 231 269
#     4   9  18  29  44  67  94 122 150 186 229 268
#
# _framework density 19.912628000000002
#
# number of rings (size 3 to 8) (size 9 to 14) (size 15 to 20)
#    0.000    2.667    1.667    3.000    2.333    1.000 
#    0.000    0.000    0.000    5.500    0.000    0.000 
#    0.000   13.333    0.000    0.000    0.000    0.000 
#
# Total GULP energy -133829.121516 kJ/mol
# GULP energy per Si atom -5576.213396 kJ/mol
# Density = 1.986731 g / cm^3
# Si number density = 19.912628 Si / 1000 Ang^3
#
#
#
# Elastic Constant Matrix: (Units=GPa)
#
#
# Indices 1 2 3 4 5 6 
#
# 1 131.3545 72.1194 12.8218 0.0000 35.5531 0.0000
# 2 72.1194 179.3741 11.3457 0.0000 7.9609 0.0000
# 3 12.8218 11.3457 36.2823 0.0000 16.3236 0.0000
# 4 0.0000 0.0000 0.0000 13.0527 0.0000 3.6832
# 5 35.5531 7.9609 16.3236 0.0000 27.3862 0.0000
# 6 0.0000 0.0000 0.0000 3.6832 0.0000 33.1146
#
#
#
# Elastic Compliance Matrix: (Units=1/GPa)
#
#
# Indices 1 2 3 4 5 6 
#
# 1 0.016861 -0.006139 0.006841 0.000000 -0.024182 0.000000
# 2 -0.006139 0.007935 -0.003908 0.000000 0.007991 0.000000
# 3 0.006841 -0.003908 0.040789 0.000000 -0.032057 0.000000
# 4 0.000000 0.000000 0.000000 0.079095 0.000000 -0.008797
# 5 -0.024182 0.007991 -0.032057 0.000000 0.084693 0.000000
# 6 0.000000 0.000000 0.000000 -0.008797 0.000000 0.031177
#
#
# Mechanical properties :
#
#
# Convention : Reuss Voigt Hill
#
# Bulk Modulus (GPa) = 16.89926 59.95386 38.42656
# Shear Modulus (GPa) = 17.44076 31.42564 24.43320
#
# Velocity S-wave (km/s) = 2.96271 3.97694 3.50668
# Velocity P-wave (km/s) = 4.49541 7.15974 5.97790
#
# Compressibility (1/GPa) = 0.05917419
#
# Stress axis : x y z
#
# Youngs Moduli (GPa) = 59.30935 126.01626 24.51655
#
# Poissons Ratio (x) = 0.77355 -0.16771
# Poissons Ratio (y) = 0.36407 0.09580
# Poissons Ratio (z) = -0.40572 0.49242
#
# Static dielectric constant tensor:
#      x y z
#    x 1.727990 0.000000 0.026300 
#    y 0.000000 1.681490 0.000000 
#    z 0.026300 0.000000 1.831800 
# 
# From -- ./inp_files/63608.got.cif
#   From: 2010.05.17/outbox.cif.g08.bks.cpg/sg12_32_cif.got.tgz:63608.got - 2010.06.03 13:09:07.
