data_PCOD9219695
_publ_section_title
;
Structure prediction by ZEFSAII (Michael W. Deem and Ramdas Pophale) SiO2 
 PCOD9219695
Probable space group: C 2/M
;
_chemical_formula_sum "Si O2"
_cell_formula_units_Z 56
_cell_length_a 27.606367
_cell_length_b 14.832459
_cell_length_c 27.493088
_cell_angle_alpha 90.000000
_cell_angle_beta 163.562824
_cell_angle_gamma 90.000000
_cell_volume 3185.494647
_symmetry_space_group_name_H-M "C 2/M"
_symmetry_group_IT_number 12
_symmetry_cell_setting 'monoclinic'
loop_
_space_group_symop_operation_xyz
x,y,z
-x,y,-z
-x,-y,-z
x,-y,z
1/2+x,1/2+y,z
1/2-x,1/2+y,-z
1/2-x,1/2-y,-z
1/2+x,1/2-y,z
loop_
_atom_site_type_symbol
_atom_site_label
_atom_site_fract_x
_atom_site_fract_y
_atom_site_fract_z
Si Si1 0.645862 0.103459 0.832547
Si Si2 0.220577 0.643711 0.474655
Si Si3 0.927534 0.605193 0.770842
Si Si4 0.753860 0.788517 0.104471
Si Si5 0.188404 0.107919 0.741599
Si Si6 0.911132 0.899959 0.176119
Si Si7 0.282609 0.392467 0.337013
O O1 0.448068 0.118976 0.657124
O O2 0.712200 0.182344 0.861197
O O3 0.666494 0.000000 0.835897
O O4 0.764627 0.114953 0.994991
O O5 0.250000 0.750000 0.500000
O O6 0.186573 0.608187 0.387297
O O7 0.401293 0.605034 0.666701
O O8 0.984570 0.500000 0.831766
O O9 0.826089 0.635767 0.721267
O O10 0.080803 0.676002 0.912290
O O11 0.751470 0.836795 0.154163
O O12 0.897683 0.829736 0.207132
O O13 0.263047 0.139222 0.761343
O O14 0.983654 0.121857 0.540167
O O15 0.219656 0.000000 0.777940
O O16 0.885009 0.000000 0.171754
O O17 0.261084 0.500000 0.313677
#
# Coordination Sequence:
#
# PCOD9219695 Si02
#       7
#     8   8   8   8   8   8   8
#     4  11  24  41  53  74 111 145 187 236 267 305
#     4  12  22  36  55  78 110 147 186 219 263 315
#     4  11  21  33  52  82 116 142 174 221 269 327
#     4  12  21  33  52  78 104 143 182 219 266 320
#     4   9  17  32  52  77 109 140 173 212 262 327
#     4  11  21  35  55  76 105 144 180 217 268 323
#     4   8  17  32  50  76 110 142 169 208 264 328
#
# _framework density 17.579688000000001
#
# number of rings (size 3 to 8) (size 9 to 14) (size 15 to 20)
#    0.000    1.429    2.857    5.571    0.000    1.714 
#    0.000    2.143    0.000    0.000    0.000    4.000 
#    0.000    0.000    0.000    0.000    0.000    0.000 
#
# Total GULP energy -156216.563920 kJ/mol
# GULP energy per Si atom -5579.162997 kJ/mol
# Density = 1.753968 g / cm^3
# Si number density = 17.579688 Si / 1000 Ang^3
#
#
#
# Elastic Constant Matrix: (Units=GPa)
#
#
# Indices 1 2 3 4 5 6 
#
# 1 46.8489 17.2238 7.7501 0.0048 7.5591 -0.0066
# 2 17.2238 86.7451 2.1480 0.0112 -0.7852 -0.0024
# 3 7.7501 2.1480 56.3464 0.0062 11.8834 0.0061
# 4 0.0048 0.0112 0.0062 22.4819 0.0047 3.4233
# 5 7.5591 -0.7852 11.8834 0.0047 24.2967 0.0011
# 6 -0.0066 -0.0024 0.0061 3.4233 0.0011 -1.7452
#
#
#
# Elastic Compliance Matrix: (Units=1/GPa)
#
#
# Indices 1 2 3 4 5 6 
#
# 1 0.024552 -0.004895 -0.001724 0.000011 -0.006954 -0.000075
# 2 -0.004895 0.012524 -0.000235 -0.000005 0.002043 -0.000007
# 3 -0.001724 -0.000235 0.019939 -0.000011 -0.009223 0.000050
# 4 0.000011 -0.000005 -0.000011 0.034251 -0.000008 0.067182
# 5 -0.006954 0.002043 -0.009223 -0.000008 0.047898 0.000005
# 6 -0.000075 -0.000007 0.000050 0.067182 0.000005 -0.441209
#
#
# Mechanical properties :
#
#
# Convention : Reuss Voigt Hill
#
# Bulk Modulus (GPa) = 23.09099 27.13158 25.11128
# Shear Modulus (GPa) = -18.25475 19.86123 0.80324
#
# Velocity S-wave (km/s) = -3.22592 3.36487 0.67669
# Velocity P-wave (km/s) = 0.84370 5.52842 3.86339
#
# Compressibility (1/GPa) = 0.04330694
#
# Stress axis : x y z
#
# Youngs Moduli (GPa) = 40.72973 79.84466 50.15400
#
# Poissons Ratio (x) = 0.39086 0.08646
# Poissons Ratio (y) = 0.19938 0.01178
# Poissons Ratio (z) = 0.07021 0.01876
#
# Static dielectric constant tensor:
#      x y z
#    x 1.622210 0.000000 0.019320 
#    y 0.000000 1.624660 0.000000 
#    z 0.019320 0.000000 1.681400 
# 
# From -- ./inp_files/349791.got.cif
#   From: 2010.05.17/outbox.cif.g08.bks.cpg/sg12_175_cif.got.tgz:349791.got - 2010.06.03 13:09:07.
