data_PCOD9219745
_publ_section_title
;
Structure prediction by ZEFSAII (Michael W. Deem and Ramdas Pophale) SiO2 
 PCOD9219745
Probable space group: C 2/M
;
_chemical_formula_sum "Si O2"
_cell_formula_units_Z 56
_cell_length_a 19.614770
_cell_length_b 8.612015
_cell_length_c 21.342009
_cell_angle_alpha 90.000000
_cell_angle_beta 57.925700
_cell_angle_gamma 90.000000
_cell_volume 3054.860305
_symmetry_space_group_name_H-M "C 2/M"
_symmetry_group_IT_number 12
_symmetry_cell_setting 'monoclinic'
loop_
_space_group_symop_operation_xyz
x,y,z
-x,y,-z
-x,-y,-z
x,-y,z
1/2+x,1/2+y,z
1/2-x,1/2+y,-z
1/2-x,1/2-y,-z
1/2+x,1/2-y,z
loop_
_atom_site_type_symbol
_atom_site_label
_atom_site_fract_x
_atom_site_fract_y
_atom_site_fract_z
Si Si1 0.209162 0.687627 0.789469
Si Si2 0.495374 0.184927 0.429945
Si Si3 0.464427 0.176455 0.821936
Si Si4 0.837237 0.178415 0.448163
Si Si5 0.386420 0.313995 0.736087
Si Si6 0.031700 0.309685 0.916451
Si Si7 0.851752 0.324531 0.313255
O O1 0.208024 0.500000 0.796928
O O2 0.294177 0.743411 0.774367
O O3 0.124177 0.742692 0.859963
O O4 0.204785 0.717327 0.717184
O O5 0.500000 0.240436 0.500000
O O6 0.406722 0.227462 0.448994
O O7 0.558444 0.253177 0.348420
O O8 0.506654 0.000000 0.424248
O O9 0.420613 0.264541 0.787129
O O10 0.472685 0.241807 0.888535
O O11 0.558081 0.166694 0.756799
O O12 0.432209 0.000000 0.840181
O O13 0.750000 0.250000 0.500000
O O14 0.851941 0.200157 0.367386
O O15 0.840742 0.000000 0.465664
O O16 0.387020 0.500000 0.731766
O O17 0.032040 0.500000 0.912930
O O18 0.000000 0.264594 0.000000
O O19 0.831179 0.500000 0.346234
#
# Coordination Sequence:
#
# PCOD9219745 Si02
#       7
#     8   8   8   8   8   8   8
#     4   8  17  31  50  79 109 142 184 226 270 320
#     4  11  25  43  59  79 110 146 187 238 289 333
#     4   9  17  31  54  79 106 140 181 227 273 323
#     4  12  25  39  57  81 109 142 185 230 280 335
#     4  11  21  34  54  80 112 147 184 227 278 339
#     4   8  14  29  55  83 109 142 187 231 268 319
#     4   9  17  34  55  74 101 140 183 230 274 318
#
# _framework density 18.331443
#
# number of rings (size 3 to 8) (size 9 to 14) (size 15 to 20)
#    0.000    2.286    1.429    3.857    2.000    1.143 
#    0.000    1.429    0.000    2.143    0.000    0.000 
#    0.000    0.000    0.000    0.000    0.000    0.000 
#
# Total GULP energy -156028.604105 kJ/mol
# GULP energy per Si atom -5572.450147 kJ/mol
# Density = 1.828972 g / cm^3
# Si number density = 18.331443 Si / 1000 Ang^3
#
#
#
# Elastic Constant Matrix: (Units=GPa)
#
#
# Indices 1 2 3 4 5 6 
#
# 1 143.8320 15.4680 63.1204 0.0001 20.4492 0.0003
# 2 15.4680 27.8479 17.9621 0.0002 7.9783 0.0005
# 3 63.1204 17.9621 105.3944 0.0000 20.6519 0.0000
# 4 0.0001 0.0002 0.0000 6.0402 0.0000 -7.9732
# 5 20.4492 7.9783 20.6519 0.0000 21.1128 0.0001
# 6 0.0003 0.0005 0.0000 -7.9732 0.0001 4.8776
#
#
#
# Elastic Compliance Matrix: (Units=1/GPa)
#
#
# Indices 1 2 3 4 5 6 
#
# 1 0.009812 -0.001080 -0.004837 0.000001 -0.004364 0.000001
# 2 -0.001080 0.042453 -0.004515 0.000006 -0.010580 0.000006
# 3 -0.004837 -0.004515 0.014725 -0.000001 -0.008012 -0.000001
# 4 0.000001 0.000006 -0.000001 -0.142996 -0.000001 -0.233748
# 5 -0.004364 -0.010580 -0.008012 -0.000001 0.063426 -0.000002
# 6 0.000001 0.000006 -0.000001 -0.233748 -0.000002 -0.177078
#
#
# Mechanical properties :
#
#
# Convention : Reuss Voigt Hill
#
# Bulk Modulus (GPa) = 21.68037 52.24169 36.96103
# Shear Modulus (GPa) = -32.59055 18.44104 -7.07475
#
# Velocity S-wave (km/s) = -4.22103 3.17516 -1.96666
# Velocity P-wave (km/s) = 3.45016 6.48093 3.87936
#
# Compressibility (1/GPa) = 0.04612467
#
# Stress axis : x y z
#
# Youngs Moduli (GPa) = 101.91707 23.55564 67.91371
#
# Poissons Ratio (x) = 0.02543 0.32851
# Poissons Ratio (y) = 0.11004 0.30665
# Poissons Ratio (z) = 0.49299 0.10636
#
# Static dielectric constant tensor:
#      x y z
#    x 1.586460 0.000000 0.085720 
#    y 0.000000 1.537160 0.000000 
#    z 0.085720 0.000000 1.541780 
# 
# From -- ./inp_files/275279.got.cif
#   From: 2010.05.17/outbox.cif.g08.bks.cpg/sg12_138_cif.got.tgz:275279.got - 2010.06.03 13:09:07.
