data_PCOD9219528
_publ_section_title
;
Structure prediction by ZEFSAII (Michael W. Deem and Ramdas Pophale) SiO2 
 PCOD9219528
Probable space group: C 2/M
;
_chemical_formula_sum "Si O2"
_cell_formula_units_Z 48
_cell_length_a 13.342062
_cell_length_b 19.904020
_cell_length_c 12.535829
_cell_angle_alpha 90.000000
_cell_angle_beta 134.209042
_cell_angle_gamma 90.000000
_cell_volume 2386.245704
_symmetry_space_group_name_H-M "C 2/M"
_symmetry_group_IT_number 12
_symmetry_cell_setting 'monoclinic'
loop_
_space_group_symop_operation_xyz
x,y,z
-x,y,-z
-x,-y,-z
x,-y,z
1/2+x,1/2+y,z
1/2-x,1/2+y,-z
1/2-x,1/2-y,-z
1/2+x,1/2-y,z
loop_
_atom_site_type_symbol
_atom_site_label
_atom_site_fract_x
_atom_site_fract_y
_atom_site_fract_z
Si Si1 0.278648 0.574762 0.864444
Si Si2 0.918796 0.078454 0.334206
Si Si3 0.391990 0.753591 0.670783
Si Si4 0.552999 0.392886 0.208432
Si Si5 0.693199 0.778426 0.844308
Si Si6 0.851058 0.331574 0.839819
O O1 0.222292 0.500000 0.844978
O O2 0.321327 0.578933 0.770934
O O3 0.195328 0.641452 0.834365
O O4 0.418073 0.585670 0.039337
O O5 0.773371 0.118614 0.219697
O O6 0.000000 0.102746 0.500000
O O7 0.016281 0.085320 0.301763
O O8 0.886900 0.000000 0.324503
O O9 0.250000 0.750000 0.500000
O O10 0.420513 0.686440 0.760789
O O11 0.533366 0.757471 0.707229
O O12 0.378113 0.818716 0.735535
O O13 0.796427 0.740473 0.841464
O O14 0.750000 0.750000 0.000000
O O15 0.000000 0.349598 0.000000
#
# Coordination Sequence:
#
# PCOD9219528 Si02
#       6
#     8   8   8   8   8   8
#     4  11  22  38  68 103 133 168 216 279 338 389
#     4  11  24  42  65  94 134 181 224 271 332 402
#     4  12  25  40  66  98 130 171 217 275 334 391
#     4  11  20  40  65  97 131 166 226 270 322 396
#     4  12  22  41  66  97 131 169 219 274 320 394
#     4  12  23  40  64  95 128 166 220 274 326 385
#
# _framework density 20.115279999999998
#
# number of rings (size 3 to 8) (size 9 to 14) (size 15 to 20)
#    0.000    0.500    6.667    3.000    0.000    0.333 
#    0.000    0.833    0.000    4.000    0.000    0.000 
#    0.000    0.000    0.000    0.000    0.000    0.000 
#
# Total GULP energy -133889.074691 kJ/mol
# GULP energy per Si atom -5578.711445 kJ/mol
# Density = 2.006950 g / cm^3
# Si number density = 20.115280 Si / 1000 Ang^3
#
#
#
# Elastic Constant Matrix: (Units=GPa)
#
#
# Indices 1 2 3 4 5 6 
#
# 1 81.3444 28.1959 52.9235 0.0000 -4.0945 0.0000
# 2 28.1959 131.3594 21.6124 0.0000 11.9583 0.0000
# 3 52.9235 21.6124 102.5582 0.0000 7.1433 0.0000
# 4 0.0000 0.0000 0.0000 224.5776 0.0000 -136.6053
# 5 -4.0945 11.9583 7.1433 0.0000 33.8864 0.0000
# 6 0.0000 0.0000 0.0000 -136.6053 0.0000 113.2216
#
#
#
# Elastic Compliance Matrix: (Units=1/GPa)
#
#
# Indices 1 2 3 4 5 6 
#
# 1 0.020346 -0.003208 -0.010223 0.000000 0.005746 0.000000
# 2 -0.003208 0.008601 0.000083 0.000000 -0.003440 0.000000
# 3 -0.010223 0.000083 0.015322 0.000000 -0.004494 0.000000
# 4 0.000000 0.000000 0.000000 0.016734 0.000000 0.020190
# 5 0.005746 -0.003440 -0.004494 0.000000 0.032366 0.000000
# 6 0.000000 0.000000 0.000000 0.020190 0.000000 0.033192
#
#
# Mechanical properties :
#
#
# Convention : Reuss Voigt Hill
#
# Bulk Modulus (GPa) = 56.91220 57.85838 57.38529
# Shear Modulus (GPa) = 31.42368 88.50580 59.96474
#
# Velocity S-wave (km/s) = 3.95673 6.64039 5.46583
# Velocity P-wave (km/s) = 7.01632 9.36050 8.27187
#
# Compressibility (1/GPa) = 0.01757092
#
# Stress axis : x y z
#
# Youngs Moduli (GPa) = 49.14945 116.26654 65.26651
#
# Poissons Ratio (x) = 0.37301 0.66725
# Poissons Ratio (y) = 0.15768 -0.00540
# Poissons Ratio (z) = 0.50247 -0.00961
#
# Static dielectric constant tensor:
#      x y z
#    x 1.699830 0.000000 -0.022050 
#    y 0.000000 1.741310 0.000000 
#    z -0.022050 0.000000 1.718190 
# 
# From -- ./inp_files/134085.got.cif
#   From: 2010.05.17/outbox.cif.g08.bks.cpg/sg12_68_cif.got.tgz:134085.got - 2010.06.03 13:09:07.
