data_PCOD9219436
_publ_section_title
;
Structure prediction by ZEFSAII (Michael W. Deem and Ramdas Pophale) SiO2 
 PCOD9219436
Probable space group: C 2/M
;
_chemical_formula_sum "Si O2"
_cell_formula_units_Z 44
_cell_length_a 24.686317
_cell_length_b 18.117243
_cell_length_c 12.640594
_cell_angle_alpha 90.000000
_cell_angle_beta 158.474150
_cell_angle_gamma 90.000000
_cell_volume 2074.380489
_symmetry_space_group_name_H-M "C 2/M"
_symmetry_group_IT_number 12
_symmetry_cell_setting 'monoclinic'
loop_
_space_group_symop_operation_xyz
x,y,z
-x,y,-z
-x,-y,-z
x,-y,z
1/2+x,1/2+y,z
1/2-x,1/2+y,-z
1/2-x,1/2-y,-z
1/2+x,1/2-y,z
loop_
_atom_site_type_symbol
_atom_site_label
_atom_site_fract_x
_atom_site_fract_y
_atom_site_fract_z
Si Si1 0.500000 0.647370 0.500000
Si Si2 0.590539 0.324577 0.269021
Si Si3 0.103407 0.311779 0.450634
Si Si4 0.359397 0.084612 0.667047
Si Si5 0.224321 0.292006 0.101264
Si Si6 0.404664 0.584496 0.535558
O O1 0.651655 0.693525 0.763143
O O2 0.505061 0.598427 0.614908
O O3 0.601293 0.250158 0.354869
O O4 0.741620 0.360819 0.505177
O O5 0.523173 0.385459 0.226497
O O6 0.500000 0.310274 0.000000
O O7 0.112543 0.387037 0.401769
O O8 0.233710 0.284397 0.764418
O O9 0.948480 0.301218 0.231259
O O10 0.306272 0.000000 0.569134
O O11 0.500000 0.087457 0.000000
O O12 0.269203 0.359224 0.264186
O O13 0.359769 0.500000 0.462415
#
# Coordination Sequence:
#
# PCOD9219436 Si02
#       6
#     4   8   8   8   8   8
#     4   8  19  38  56  88 107 148 192 242 279 326
#     4  11  22  36  57  86 118 153 185 224 283 343
#     4  11  20  38  56  84 114 152 185 233 279 338
#     4  11  23  37  56  83 115 154 191 231 277 333
#     4   9  21  34  60  84 109 146 191 232 287 324
#     4   9  18  35  56  84 114 145 188 234 279 327
#
# _framework density 21.211152999999999
#
# number of rings (size 3 to 8) (size 9 to 14) (size 15 to 20)
#    1.091    0.909    0.000    5.182    0.000    4.364 
#    0.000    0.000    0.000    0.000    0.000    0.636 
#    0.000    0.000    0.000    0.000    0.000    0.000 
#
# Total GULP energy -122699.576240 kJ/mol
# GULP energy per Si atom -5577.253465 kJ/mol
# Density = 2.116288 g / cm^3
# Si number density = 21.211153 Si / 1000 Ang^3
#
#
#
# Elastic Constant Matrix: (Units=GPa)
#
#
# Indices 1 2 3 4 5 6 
#
# 1 73.0708 -3.7802 -4.9513 0.0000 14.2339 0.0000
# 2 -3.7802 71.9483 2.8728 0.0000 9.4096 0.0000
# 3 -4.9513 2.8728 35.1408 0.0000 20.9024 0.0000
# 4 0.0000 0.0000 0.0000 1.3074 0.0000 5.9332
# 5 14.2339 9.4096 20.9024 0.0000 30.4857 0.0000
# 6 0.0000 0.0000 0.0000 5.9332 0.0000 -98.8048
#
#
#
# Elastic Compliance Matrix: (Units=1/GPa)
#
#
# Indices 1 2 3 4 5 6 
#
# 1 0.018399 0.002878 0.013502 0.000000 -0.018736 0.000000
# 2 0.002878 0.015064 0.004625 0.000000 -0.009165 0.000000
# 3 0.013502 0.004625 0.058396 0.000000 -0.047770 0.000000
# 4 0.000000 0.000000 0.000000 0.601080 0.000000 0.036094
# 5 -0.018736 -0.009165 -0.047770 0.000000 0.077133 0.000000
# 6 0.000000 0.000000 0.000000 0.036094 0.000000 -0.007954
#
#
# Mechanical properties :
#
#
# Convention : Reuss Voigt Hill
#
# Bulk Modulus (GPa) = 7.47000 18.71582 13.09291
# Shear Modulus (GPa) = 6.53825 -1.00110 2.76857
#
# Velocity S-wave (km/s) = 1.75760 -0.68775 1.14371
# Velocity P-wave (km/s) = 2.76555 2.86567 2.81605
#
# Compressibility (1/GPa) = 0.13386873
#
# Stress axis : x y z
#
# Youngs Moduli (GPa) = 54.35120 66.38350 17.12449
#
# Poissons Ratio (x) = -0.19105 -0.23121
# Poissons Ratio (y) = -0.15642 -0.07921
# Poissons Ratio (z) = -0.73383 -0.30704
#
# Static dielectric constant tensor:
#      x y z
#    x 1.831450 0.000000 0.007650 
#    y 0.000000 1.762730 0.000000 
#    z 0.007650 0.000000 1.796630 
# 
# From -- ./inp_files/247126.got.cif
#   From: 2010.05.17/outbox.cif.g08.bks.cpg/sg12_124_cif.got.tgz:247126.got - 2010.06.03 13:09:07.
