data_PCOD9219437
_publ_section_title
;
Structure prediction by ZEFSAII (Michael W. Deem and Ramdas Pophale) SiO2 
 PCOD9219437
Probable space group: C 2/M
;
_chemical_formula_sum "Si O2"
_cell_formula_units_Z 64
_cell_length_a 14.650088
_cell_length_b 18.255564
_cell_length_c 15.447234
_cell_angle_alpha 90.000000
_cell_angle_beta 61.909650
_cell_angle_gamma 90.000000
_cell_volume 3644.654047
_symmetry_space_group_name_H-M "C 2/M"
_symmetry_group_IT_number 12
_symmetry_cell_setting 'monoclinic'
loop_
_space_group_symop_operation_xyz
x,y,z
-x,y,-z
-x,-y,-z
x,-y,z
1/2+x,1/2+y,z
1/2-x,1/2+y,-z
1/2-x,1/2-y,-z
1/2+x,1/2-y,z
loop_
_atom_site_type_symbol
_atom_site_label
_atom_site_fract_x
_atom_site_fract_y
_atom_site_fract_z
Si Si1 0.334220 0.411497 0.108066
Si Si2 0.737002 0.325883 0.320255
Si Si3 0.823154 0.587135 0.546437
Si Si4 0.422040 0.587199 0.705222
Si Si5 0.077890 0.319570 0.649065
Si Si6 0.042136 0.911377 0.115000
Si Si7 0.342413 0.171518 0.716103
Si Si8 0.873493 0.159653 0.444592
O O1 0.322175 0.500000 0.116196
O O2 0.428754 0.391401 0.130416
O O3 0.232732 0.371541 0.185981
O O4 0.373813 0.389921 0.994759
O O5 0.688228 0.387427 0.281079
O O6 0.856580 0.334361 0.293440
O O7 0.708793 0.248090 0.290441
O O8 0.675028 0.332834 0.438812
O O9 0.832163 0.500000 0.546279
O O10 0.889542 0.621479 0.438511
O O11 0.854202 0.624144 0.622908
O O12 0.705238 0.611178 0.577299
O O13 0.432436 0.500000 0.697183
O O14 0.437398 0.613721 0.797113
O O15 0.513767 0.623645 0.608698
O O16 0.117813 0.240767 0.597987
O O17 0.954692 0.316621 0.707804
O O18 0.043796 0.000000 0.115428
#
# Coordination Sequence:
#
# PCOD9219437 Si02
#       8
#     8   8   8   8   8   8   8   8
#     4   9  18  34  59  88 118 145 181 237 289 334
#     4  11  23  37  54  78 116 156 186 227 279 338
#     4  11  22  35  55  82 113 148 194 242 274 322
#     4  11  22  35  60  87 108 143 195 241 281 334
#     4  11  23  38  54  76 116 159 188 222 285 337
#     4   8  17  36  59  88 117 140 177 241 302 326
#     4  12  21  34  58  83 110 151 191 225 279 346
#     4  11  20  38  58  80 112 152 194 230 285 329
#
# _framework density 17.559964999999998
#
# number of rings (size 3 to 8) (size 9 to 14) (size 15 to 20)
#    0.000    1.500    3.750    3.750    0.000    5.500 
#    0.000    0.625    0.000    0.750    0.000    2.625 
#    0.000    0.000    0.000    0.000    0.000    0.000 
#
# Total GULP energy -178700.691564 kJ/mol
# GULP energy per Si atom -5584.396611 kJ/mol
# Density = 1.752000 g / cm^3
# Si number density = 17.559965 Si / 1000 Ang^3
#
#
#
# Elastic Constant Matrix: (Units=GPa)
#
#
# Indices 1 2 3 4 5 6 
#
# 1 108.9996 11.3837 36.6785 0.0000 -7.8345 0.0000
# 2 11.3837 59.9613 8.0602 0.0000 0.1388 0.0000
# 3 36.6785 8.0602 53.6121 0.0000 -6.6684 0.0000
# 4 0.0000 0.0000 0.0000 4.2404 0.0000 4.7638
# 5 -7.8345 0.1388 -6.6684 0.0000 14.6062 0.0000
# 6 0.0000 0.0000 0.0000 4.7638 0.0000 26.7421
#
#
#
# Elastic Compliance Matrix: (Units=1/GPa)
#
#
# Indices 1 2 3 4 5 6 
#
# 1 0.012123 -0.001269 -0.007732 0.000000 0.002985 0.000000
# 2 -0.001269 0.017182 -0.001929 0.000000 -0.001725 0.000000
# 3 -0.007732 -0.001929 0.025147 0.000000 0.007352 0.000000
# 4 0.000000 0.000000 0.000000 0.294829 0.000000 -0.052521
# 5 0.002985 -0.001725 0.007352 0.000000 0.073438 0.000000
# 6 0.000000 0.000000 0.000000 -0.052521 0.000000 0.046750
#
#
# Mechanical properties :
#
#
# Convention : Reuss Voigt Hill
#
# Bulk Modulus (GPa) = 30.68366 37.20195 33.94281
# Shear Modulus (GPa) = 9.95632 20.21447 15.08540
#
# Velocity S-wave (km/s) = 2.38374 3.39657 2.93418
# Velocity P-wave (km/s) = 5.00878 6.05094 5.55436
#
# Compressibility (1/GPa) = 0.03259064
#
# Stress axis : x y z
#
# Youngs Moduli (GPa) = 82.48609 58.20138 39.76650
#
# Poissons Ratio (x) = 0.07387 0.30747
# Poissons Ratio (y) = 0.10469 0.07673
# Poissons Ratio (z) = 0.63778 0.11229
#
# Static dielectric constant tensor:
#      x y z
#    x 1.627110 0.000000 0.006950 
#    y 0.000000 1.585060 0.000000 
#    z 0.006950 0.000000 1.583600 
# 
# From -- ./inp_files/216358.got.cif
#   From: 2010.05.17/outbox.cif.g08.bks.cpg/sg12_109_cif.got.tgz:216358.got - 2010.06.03 13:09:07.
