data_PCOD9219293
_publ_section_title
;
Structure prediction by ZEFSAII (Michael W. Deem and Ramdas Pophale) SiO2 
 PCOD9219293
Probable space group: C 2/M
;
_chemical_formula_sum "Si O2"
_cell_formula_units_Z 52
_cell_length_a 12.248673
_cell_length_b 19.914106
_cell_length_c 21.475752
_cell_angle_alpha 90.000000
_cell_angle_beta 150.647699
_cell_angle_gamma 90.000000
_cell_volume 2567.747477
_symmetry_space_group_name_H-M "C 2/M"
_symmetry_group_IT_number 12
_symmetry_cell_setting 'monoclinic'
loop_
_space_group_symop_operation_xyz
x,y,z
-x,y,-z
-x,-y,-z
x,-y,z
1/2+x,1/2+y,z
1/2-x,1/2+y,-z
1/2-x,1/2-y,-z
1/2+x,1/2-y,z
loop_
_atom_site_type_symbol
_atom_site_label
_atom_site_fract_x
_atom_site_fract_y
_atom_site_fract_z
Si Si1 0.298911 0.123494 0.757828
Si Si2 0.979332 0.639340 0.254313
Si Si3 0.962706 0.768717 0.651040
Si Si4 0.345348 0.426851 0.509374
Si Si5 0.472159 0.000000 0.059447
Si Si6 0.724504 0.500000 0.152024
Si Si7 0.741311 0.611209 0.389693
Si Si8 0.951792 0.000000 0.797285
O O1 0.473744 0.150597 0.794795
O O2 0.148795 0.182925 0.712355
O O3 0.415793 0.068592 0.859805
O O4 0.106583 0.079547 0.629214
O O5 0.216103 0.626802 0.405300
O O6 0.906981 0.705001 0.256055
O O7 0.844509 0.570528 0.195627
O O8 0.750000 0.750000 0.500000
O O9 0.853346 0.813529 0.651747
O O10 0.264704 0.500000 0.451367
O O11 0.292169 0.416801 0.556486
O O12 0.500000 0.000000 0.000000
O O13 0.210450 0.000000 0.943802
O O14 0.684219 0.500000 0.206238
O O15 0.500000 0.500000 0.000000
O O16 0.610956 0.564182 0.276522
O O17 0.000000 0.610384 0.500000
#
# Coordination Sequence:
#
# PCOD9219293 Si02
#       8
#     8   8   8   8   4   4   8   4
#     4  11  24  40  65  97 131 173 220 264 338 392
#     4  12  24  41  67  94 136 175 212 275 330 398
#     4  11  25  39  63 101 140 172 213 263 330 409
#     4  11  20  34  58  98 131 160 210 266 329 396
#     4  12  24  46  72  94 133 174 230 286 320 388
#     4  12  28  48  66  94 127 174 236 282 330 380
#     4  11  23  38  65  98 138 171 215 265 335 398
#     4  12  25  42  72  98 129 178 224 282 329 380
#
# _framework density 20.251211999999999
#
# number of rings (size 3 to 8) (size 9 to 14) (size 15 to 20)
#    0.000    0.615    5.385    4.846    2.154    0.615 
#    0.000    2.308    0.000    6.462    0.000    0.000 
#    0.000    0.000    0.000    0.000    0.000    0.000 
#
# Total GULP energy -145088.532626 kJ/mol
# GULP energy per Si atom -5580.328178 kJ/mol
# Density = 2.020512 g / cm^3
# Si number density = 20.251212 Si / 1000 Ang^3
#
#
#
# Elastic Constant Matrix: (Units=GPa)
#
#
# Indices 1 2 3 4 5 6 
#
# 1 114.7946 47.6446 26.4077 -0.0030 -2.3073 -0.0005
# 2 47.6446 151.2168 48.4415 -0.0047 0.7972 -0.0007
# 3 26.4077 48.4415 92.7140 -0.0077 0.8329 -0.0008
# 4 -0.0030 -0.0047 -0.0077 18.9443 -0.0021 -2.5128
# 5 -2.3073 0.7972 0.8329 -0.0021 32.1727 -0.0003
# 6 -0.0005 -0.0007 -0.0008 -2.5128 -0.0003 22.9512
#
#
#
# Elastic Compliance Matrix: (Units=1/GPa)
#
#
# Indices 1 2 3 4 5 6 
#
# 1 0.010209 -0.002747 -0.001480 0.000000 0.000838 0.000000
# 2 -0.002747 0.008682 -0.003751 0.000000 -0.000315 0.000000
# 3 -0.001480 -0.003751 0.013170 0.000004 -0.000354 0.000001
# 4 0.000000 0.000000 0.000004 0.053564 0.000004 0.005864
# 5 0.000838 -0.000315 -0.000354 0.000004 0.031159 0.000001
# 6 0.000000 0.000000 0.000001 0.005864 0.000001 0.044213
#
#
# Mechanical properties :
#
#
# Convention : Reuss Voigt Hill
#
# Bulk Modulus (GPa) = 62.09168 67.07924 64.58546
# Shear Modulus (GPa) = 27.42418 30.56240 28.99329
#
# Velocity S-wave (km/s) = 3.68394 3.88901 3.78786
# Velocity P-wave (km/s) = 6.98731 7.30489 7.14786
#
# Compressibility (1/GPa) = 0.01610522
#
# Stress axis : x y z
#
# Youngs Moduli (GPa) = 97.95699 115.18521 75.92798
#
# Poissons Ratio (x) = 0.31638 0.11238
# Poissons Ratio (y) = 0.26906 0.28479
# Poissons Ratio (z) = 0.14499 0.43204
#
# Static dielectric constant tensor:
#      x y z
#    x 1.804540 -0.000010 0.027550 
#    y -0.000010 1.809120 -0.000010 
#    z 0.027550 -0.000010 1.719270 
# 
# From -- ./inp_files/306954.got.cif
#   From: 2010.05.17/outbox.cif.g08.bks.cpg/sg12_154_cif.got.tgz:306954.got - 2010.06.03 13:09:07.
