data_PCOD9219691
_publ_section_title
;
Structure prediction by ZEFSAII (Michael W. Deem and Ramdas Pophale) SiO2 
 PCOD9219691
Probable space group: C 2/M
;
_chemical_formula_sum "Si O2"
_cell_formula_units_Z 64
_cell_length_a 9.054389
_cell_length_b 29.859678
_cell_length_c 14.430057
_cell_angle_alpha 90.000000
_cell_angle_beta 78.658699
_cell_angle_gamma 90.000000
_cell_volume 3825.146073
_symmetry_space_group_name_H-M "C 2/M"
_symmetry_group_IT_number 12
_symmetry_cell_setting 'monoclinic'
loop_
_space_group_symop_operation_xyz
x,y,z
-x,y,-z
-x,-y,-z
x,-y,z
1/2+x,1/2+y,z
1/2-x,1/2+y,-z
1/2-x,1/2-y,-z
1/2+x,1/2-y,z
loop_
_atom_site_type_symbol
_atom_site_label
_atom_site_fract_x
_atom_site_fract_y
_atom_site_fract_z
Si Si1 0.681738 0.051823 0.871091
Si Si2 0.999034 0.813407 0.391831
Si Si3 0.606738 0.626722 0.905452
Si Si4 0.644860 0.364347 0.214299
Si Si5 0.739032 0.250974 0.613241
Si Si6 0.274514 0.217872 0.908326
Si Si7 0.829744 0.552036 0.905062
Si Si8 0.117275 0.288076 0.801295
O O1 0.789142 0.086424 0.806916
O O2 0.507097 0.059195 0.865420
O O3 0.718746 0.000000 0.848482
O O4 0.691003 0.058645 0.981285
O O5 0.081485 0.850683 0.321894
O O6 0.098196 0.767308 0.375331
O O7 0.000000 0.825469 0.500000
O O8 0.838693 0.799628 0.367012
O O9 0.494319 0.641212 0.838314
O O10 0.695197 0.670204 0.931261
O O11 0.724962 0.587822 0.867153
O O12 0.500000 0.608773 0.000000
O O13 0.781376 0.329727 0.177954
O O14 0.750000 0.250000 0.500000
O O15 0.635415 0.217505 0.688155
O O16 0.195301 0.243895 0.833819
O O17 0.448754 0.210571 0.860671
O O18 0.250000 0.250000 0.000000
O O19 0.793791 0.500000 0.889089
#
# Coordination Sequence:
#
# PCOD9219691 Si02
#       8
#     8   8   8   8   8   8   8   8
#     4   9  18  35  55  75  98 129 167 206 254 304
#     4   9  18  32  51  74 100 130 169 212 255 298
#     4  12  22  33  47  72 104 135 170 202 248 296
#     4  11  21  33  52  75 101 133 167 210 255 305
#     4   9  17  31  51  71  91 121 161 212 260 289
#     4  12  24  35  46  64  98 143 178 203 232 290
#     4   9  19  35  55  75  99 128 166 215 256 295
#     4  11  21  35  50  68  97 132 176 210 247 295
#
# _framework density 16.731387999999999
#
# number of rings (size 3 to 8) (size 9 to 14) (size 15 to 20)
#    0.000    1.750    1.250    6.375    0.000    0.750 
#    0.000    0.000    0.000    0.375    0.000    0.000 
#    0.000    2.000    0.000    0.000    0.000    0.000 
#
# Total GULP energy -178279.269131 kJ/mol
# GULP energy per Si atom -5571.227160 kJ/mol
# Density = 1.669331 g / cm^3
# Si number density = 16.731388 Si / 1000 Ang^3
#
#
#
# Elastic Constant Matrix: (Units=GPa)
#
#
# Indices 1 2 3 4 5 6 
#
# 1 93.6840 47.6225 37.2335 0.0000 -4.7492 0.0000
# 2 47.6225 82.1190 27.2705 0.0000 -5.2697 0.0000
# 3 37.2335 27.2705 74.0339 0.0000 -8.6554 0.0000
# 4 0.0000 0.0000 0.0000 19.7120 0.0000 -6.6240
# 5 -4.7492 -5.2697 -8.6554 0.0000 21.0113 0.0000
# 6 0.0000 0.0000 0.0000 -6.6240 0.0000 34.2172
#
#
#
# Elastic Compliance Matrix: (Units=1/GPa)
#
#
# Indices 1 2 3 4 5 6 
#
# 1 0.016952 -0.007990 -0.005641 0.000000 -0.000496 0.000000
# 2 -0.007990 0.017682 -0.002298 0.000000 0.001682 0.000000
# 3 -0.005641 -0.002298 0.017833 0.000000 0.005495 0.000000
# 4 0.000000 0.000000 0.000000 0.054260 0.000000 0.010504
# 5 -0.000496 0.001682 0.005495 0.000000 0.050167 0.000000
# 6 0.000000 0.000000 0.000000 0.010504 0.000000 0.031259
#
#
# Mechanical properties :
#
#
# Convention : Reuss Voigt Hill
#
# Bulk Modulus (GPa) = 48.51988 52.67665 50.59826
# Shear Modulus (GPa) = 22.03804 24.16877 23.10341
#
# Velocity S-wave (km/s) = 3.63322 3.80480 3.72000
# Velocity P-wave (km/s) = 6.83101 7.13121 6.98272
#
# Compressibility (1/GPa) = 0.02061011
#
# Stress axis : x y z
#
# Youngs Moduli (GPa) = 58.98941 56.55483 56.07526
#
# Poissons Ratio (x) = 0.45185 0.31630
# Poissons Ratio (y) = 0.47130 0.12888
# Poissons Ratio (z) = 0.33274 0.12999
#
# Static dielectric constant tensor:
#      x y z
#    x 1.618050 0.000000 0.004190 
#    y 0.000000 1.551890 0.000000 
#    z 0.004190 0.000000 1.598020 
# 
# From -- ./inp_files/199823.got.cif
#   From: 2010.05.17/outbox.cif.g08.bks.cpg/sg12_100_cif.got.tgz:199823.got - 2010.06.03 13:09:07.
