data_PCOD9219510
_publ_section_title
;
Structure prediction by ZEFSAII (Michael W. Deem and Ramdas Pophale) SiO2 
 PCOD9219510
Probable space group: C 2/M
;
_chemical_formula_sum "Si O2"
_cell_formula_units_Z 64
_cell_length_a 14.681956
_cell_length_b 19.962240
_cell_length_c 32.071439
_cell_angle_alpha 90.000000
_cell_angle_beta 159.527388
_cell_angle_gamma 90.000000
_cell_volume 3287.617499
_symmetry_space_group_name_H-M "C 2/M"
_symmetry_group_IT_number 12
_symmetry_cell_setting 'monoclinic'
loop_
_space_group_symop_operation_xyz
x,y,z
-x,y,-z
-x,-y,-z
x,-y,z
1/2+x,1/2+y,z
1/2-x,1/2+y,-z
1/2-x,1/2-y,-z
1/2+x,1/2-y,z
loop_
_atom_site_type_symbol
_atom_site_label
_atom_site_fract_x
_atom_site_fract_y
_atom_site_fract_z
Si Si1 0.180823 0.686914 0.538034
Si Si2 0.353123 0.618504 0.814267
Si Si3 0.514534 0.196355 0.818498
Si Si4 0.661327 0.078954 0.456634
Si Si5 0.246457 0.269357 0.208369
Si Si6 0.670277 0.172931 0.035599
Si Si7 0.963509 0.168945 0.435590
Si Si8 0.858270 0.070889 0.983761
O O1 0.160150 0.626058 0.496992
O O2 0.472057 0.700274 0.679188
O O3 0.086482 0.757875 0.477893
O O4 0.000000 0.674014 0.500000
O O5 0.267962 0.689207 0.798481
O O6 0.598843 0.632066 0.888392
O O7 0.449287 0.575356 0.894532
O O8 0.110415 0.589799 0.684582
O O9 0.318551 0.214947 0.771479
O O10 0.690920 0.260962 0.885551
O O11 0.340553 0.173306 0.705562
O O12 0.682685 0.136105 0.908518
O O13 0.890896 0.111076 0.527151
O O14 0.698689 0.000000 0.480887
O O15 0.025853 0.300734 0.084270
O O16 0.500000 0.140954 0.000000
O O17 0.000000 0.158781 0.500000
O O18 0.711434 0.000000 0.923571
O O19 0.000000 0.072332 0.000000
#
# Coordination Sequence:
#
# PCOD9219510 Si02
#       8
#     8   8   8   8   8   8   8   8
#     4  11  24  42  69  95 128 165 217 270 319 379
#     4  11  22  42  62  91 129 160 212 261 316 385
#     4  11  21  40  60  91 128 158 202 263 315 376
#     4  12  26  44  65  91 132 179 218 260 319 390
#     4  11  20  39  67  94 122 161 206 265 323 369
#     4  11  23  35  66 100 124 157 203 266 326 375
#     4  11  25  41  67  99 127 167 213 270 327 379
#     4  11  24  39  59  86 121 169 210 246 308 383
#
# _framework density 19.466985000000001
#
# number of rings (size 3 to 8) (size 9 to 14) (size 15 to 20)
#    0.000    0.875    5.000    3.375    7.000    1.000 
#    0.000    0.000    0.000    1.500    0.000    0.000 
#    0.000    0.000    0.000    0.000    0.000    0.000 
#
# Total GULP energy -178819.527596 kJ/mol
# GULP energy per Si atom -5588.110237 kJ/mol
# Density = 1.942268 g / cm^3
# Si number density = 19.466985 Si / 1000 Ang^3
#
#
#
# Elastic Constant Matrix: (Units=GPa)
#
#
# Indices 1 2 3 4 5 6 
#
# 1 94.2495 25.7157 26.2390 0.0019 3.8995 -0.0012
# 2 25.7157 101.0189 11.4661 0.0004 3.8850 -0.0021
# 3 26.2390 11.4661 109.5400 0.0074 0.2573 -0.0084
# 4 0.0019 0.0004 0.0074 14.1759 -0.0006 -12.0839
# 5 3.8995 3.8850 0.2573 -0.0006 25.8462 0.0077
# 6 -0.0012 -0.0021 -0.0084 -12.0839 0.0077 29.7519
#
#
#
# Elastic Compliance Matrix: (Units=1/GPa)
#
#
# Indices 1 2 3 4 5 6 
#
# 1 0.012145 -0.002741 -0.002619 0.000000 -0.001394 0.000000
# 2 -0.002741 0.010695 -0.000460 0.000002 -0.001189 0.000001
# 3 -0.002619 -0.000460 0.009804 -0.000004 0.000367 0.000001
# 4 0.000000 0.000002 -0.000004 0.107898 -0.000011 0.043823
# 5 -0.001394 -0.001189 0.000367 -0.000011 0.039076 -0.000015
# 6 0.000000 0.000001 0.000001 0.043823 -0.000015 0.051410
#
#
# Mechanical properties :
#
#
# Convention : Reuss Voigt Hill
#
# Bulk Modulus (GPa) = 47.61100 47.96111 47.78606
# Shear Modulus (GPa) = 20.02656 30.04733 25.03694
#
# Velocity S-wave (km/s) = 3.21088 3.93300 3.59015
# Velocity P-wave (km/s) = 6.18521 6.73167 6.46421
#
# Compressibility (1/GPa) = 0.02100355
#
# Stress axis : x y z
#
# Youngs Moduli (GPa) = 82.34021 93.50342 102.00197
#
# Poissons Ratio (x) = 0.25627 0.26714
# Poissons Ratio (y) = 0.22567 0.04694
# Poissons Ratio (z) = 0.21565 0.04303
#
# Static dielectric constant tensor:
#      x y z
#    x 1.685350 -0.000010 0.010560 
#    y -0.000010 1.683430 0.000000 
#    z 0.010560 0.000000 1.687880 
# 
# From -- ./inp_files/271737.got.cif
#   From: 2010.05.17/outbox.cif.g08.bks.cpg/sg12_136_cif.got.tgz:271737.got - 2010.06.03 13:09:07.
