data_PCOD9219624
_publ_section_title
;
Structure prediction by ZEFSAII (Michael W. Deem and Ramdas Pophale) SiO2 
 PCOD9219624
Probable space group: C 2/M
;
_chemical_formula_sum "Si O2"
_cell_formula_units_Z 48
_cell_length_a 28.659625
_cell_length_b 8.754005
_cell_length_c 11.639732
_cell_angle_alpha 90.000000
_cell_angle_beta 78.291385
_cell_angle_gamma 90.000000
_cell_volume 2859.487934
_symmetry_space_group_name_H-M "C 2/M"
_symmetry_group_IT_number 12
_symmetry_cell_setting 'monoclinic'
loop_
_space_group_symop_operation_xyz
x,y,z
-x,y,-z
-x,-y,-z
x,-y,z
1/2+x,1/2+y,z
1/2-x,1/2+y,-z
1/2-x,1/2-y,-z
1/2+x,1/2-y,z
loop_
_atom_site_type_symbol
_atom_site_label
_atom_site_fract_x
_atom_site_fract_y
_atom_site_fract_z
Si Si1 0.588767 0.185251 0.282255
Si Si2 0.110904 0.181078 0.522098
Si Si3 0.820862 0.315901 0.903765
Si Si4 0.771975 0.315863 0.162075
Si Si5 0.795069 0.316317 0.409463
Si Si6 0.014550 0.676201 0.627890
O O1 0.605215 0.252774 0.396077
O O2 0.627236 0.230014 0.167396
O O3 0.533901 0.230769 0.286722
O O4 0.588352 0.000000 0.293126
O O5 0.156580 0.254213 0.559438
O O6 0.062315 0.226671 0.612699
O O7 0.115939 0.000000 0.513938
O O8 0.818744 0.500000 0.900630
O O9 0.779861 0.251244 0.841147
O O10 0.806505 0.268054 0.039898
O O11 0.768538 0.500000 0.161610
O O12 0.790053 0.270542 0.278326
O O13 0.794507 0.500000 0.416537
O O14 0.750000 0.250000 0.500000
O O15 0.024657 0.500000 0.654353
O O16 0.000000 0.676889 0.500000
#
# Coordination Sequence:
#
# PCOD9219624 Si02
#       6
#     8   8   8   8   8   8
#     4   9  17  30  50  73  96 123 155 193 237 282
#     4  11  21  31  46  70  99 128 158 192 232 278
#     4   9  17  31  51  72  94 120 152 191 233 278
#     4   9  19  33  48  69  95 123 155 191 231 275
#     4  11  22  35  50  69  96 127 159 193 230 276
#     4   8  15  29  47  68  94 123 155 192 236 279
#
# _framework density 16.786221999999999
#
# number of rings (size 3 to 8) (size 9 to 14) (size 15 to 20)
#    0.000    2.500    0.000    4.000    0.000    7.667 
#    0.000    0.000    0.000    1.000    0.000    7.000 
#    0.000    0.000    0.000    0.000    0.000    0.000 
#
# Total GULP energy -133809.058501 kJ/mol
# GULP energy per Si atom -5575.377438 kJ/mol
# Density = 1.674802 g / cm^3
# Si number density = 16.786222 Si / 1000 Ang^3
#
#
#
# Elastic Constant Matrix: (Units=GPa)
#
#
# Indices 1 2 3 4 5 6 
#
# 1 137.9978 37.8826 64.3070 0.0000 -21.4135 0.0000
# 2 37.8826 36.0308 25.5464 0.0000 -1.1440 0.0000
# 3 64.3070 25.5464 71.3561 0.0000 -12.3784 0.0000
# 4 0.0000 0.0000 0.0000 16.1021 0.0000 -2.1228
# 5 -21.4135 -1.1440 -12.3784 0.0000 32.3067 0.0000
# 6 0.0000 0.0000 0.0000 -2.1228 0.0000 27.5428
#
#
#
# Elastic Compliance Matrix: (Units=1/GPa)
#
#
# Indices 1 2 3 4 5 6 
#
# 1 0.014941 -0.009000 -0.009191 0.000000 0.006063 0.000000
# 2 -0.009000 0.043119 -0.008673 0.000000 -0.007761 0.000000
# 3 -0.009191 -0.008673 0.026022 0.000000 0.003571 0.000000
# 4 0.000000 0.000000 0.000000 0.062741 0.000000 0.004836
# 5 0.006063 -0.007761 0.003571 0.000000 0.036065 0.000000
# 6 0.000000 0.000000 0.000000 0.004836 0.000000 0.036680
#
#
# Mechanical properties :
#
#
# Convention : Reuss Voigt Hill
#
# Bulk Modulus (GPa) = 32.94425 55.65074 44.29749
# Shear Modulus (GPa) = 17.64203 23.03355 20.33779
#
# Velocity S-wave (km/s) = 3.24540 3.70830 3.48455
# Velocity P-wave (km/s) = 5.80619 7.18052 6.52962
#
# Compressibility (1/GPa) = 0.03035431
#
# Stress axis : x y z
#
# Youngs Moduli (GPa) = 66.93023 23.19165 38.42900
#
# Poissons Ratio (x) = 0.20872 0.35321
# Poissons Ratio (y) = 0.60234 0.33329
# Poissons Ratio (z) = 0.61517 0.20114
#
# Static dielectric constant tensor:
#      x y z
#    x 1.561070 0.000000 -0.035140 
#    y 0.000000 1.565200 0.000000 
#    z -0.035140 0.000000 1.572940 
# 
# From -- ./inp_files/179177.got.cif
#   From: 2010.05.17/outbox.cif.g08.bks.cpg/sg12_90_cif.got.tgz:179177.got - 2010.06.03 13:09:07.
