data_PCOD9219017
_publ_section_title
;
Structure prediction by ZEFSAII (Michael W. Deem and Ramdas Pophale) SiO2 
 PCOD9219017
Probable space group: C 2/M
;
_chemical_formula_sum "Si O2"
_cell_formula_units_Z 56
_cell_length_a 16.107359
_cell_length_b 27.784641
_cell_length_c 19.039955
_cell_angle_alpha 90.000000
_cell_angle_beta 158.510091
_cell_angle_gamma 90.000000
_cell_volume 3121.592804
_symmetry_space_group_name_H-M "C 2/M"
_symmetry_group_IT_number 12
_symmetry_cell_setting 'monoclinic'
loop_
_space_group_symop_operation_xyz
x,y,z
-x,y,-z
-x,-y,-z
x,-y,z
1/2+x,1/2+y,z
1/2-x,1/2+y,-z
1/2-x,1/2-y,-z
1/2+x,1/2-y,z
loop_
_atom_site_type_symbol
_atom_site_label
_atom_site_fract_x
_atom_site_fract_y
_atom_site_fract_z
Si Si1 0.419783 0.127483 0.756902
Si Si2 0.292584 0.812215 0.112536
Si Si3 0.881466 0.556164 0.983140
Si Si4 0.928700 0.780853 0.720267
Si Si5 0.241003 0.806528 0.728691
Si Si6 0.422295 0.206300 0.364526
Si Si7 0.036890 0.862045 0.690518
O O1 0.614893 0.141591 0.856227
O O2 0.415139 0.170639 0.811283
O O3 0.186031 0.127009 0.530505
O O4 0.457977 0.079429 0.831226
O O5 0.456983 0.767246 0.220695
O O6 0.313613 0.820277 0.212398
O O7 0.056217 0.796686 0.891909
O O8 0.837544 0.500000 0.960294
O O9 0.657530 0.589247 0.809770
O O10 0.000000 0.560962 0.000000
O O11 0.663767 0.772933 0.526283
O O12 0.967272 0.824487 0.696053
O O13 0.244105 0.750732 0.749749
O O14 0.217696 0.835930 0.781787
O O15 0.000000 0.812675 0.500000
O O16 0.500000 0.182713 0.500000
#
# Coordination Sequence:
#
# PCOD9219017 Si02
#       7
#     8   8   8   8   8   8   8
#     4  11  21  36  57  79 107 153 195 220 269 328
#     4  11  21  32  52  79 108 146 188 228 264 325
#     4  11  24  39  55  81 114 144 187 240 279 319
#     4  11  21  33  52  79 109 146 188 227 270 319
#     4   9  18  30  49  74 105 148 187 216 251 318
#     4  11  21  35  49  73 115 149 182 228 269 317
#     4  11  19  35  56  77 106 147 188 222 271 327
#
# _framework density 17.939558999999999
#
# number of rings (size 3 to 8) (size 9 to 14) (size 15 to 20)
#    0.000    1.286    5.714    3.000    0.000    1.143 
#    0.000    1.429    0.000    0.000    0.000    0.000 
#    0.000    3.429    0.000    0.000    0.000    0.000 
#
# Total GULP energy -156360.845408 kJ/mol
# GULP energy per Si atom -5584.315907 kJ/mol
# Density = 1.789873 g / cm^3
# Si number density = 17.939559 Si / 1000 Ang^3
#
#
#
# Elastic Constant Matrix: (Units=GPa)
#
#
# Indices 1 2 3 4 5 6 
#
# 1 89.0658 43.8186 26.0675 -0.0002 -25.8376 -0.0002
# 2 43.8186 87.5901 12.8649 0.0004 -4.1794 -0.0002
# 3 26.0675 12.8649 76.8333 0.0000 -23.7563 -0.0008
# 4 -0.0002 0.0004 0.0000 18.2013 0.0000 -0.1683
# 5 -25.8376 -4.1794 -23.7563 0.0000 34.8828 -0.0001
# 6 -0.0002 -0.0002 -0.0008 -0.1683 -0.0001 16.7440
#
#
#
# Elastic Compliance Matrix: (Units=1/GPa)
#
#
# Indices 1 2 3 4 5 6 
#
# 1 0.019745 -0.009088 -0.001257 0.000000 0.012681 0.000000
# 2 -0.009088 0.015888 -0.001355 0.000000 -0.005751 0.000000
# 3 -0.001257 -0.001355 0.016886 0.000000 0.010407 0.000001
# 4 0.000000 0.000000 0.000000 0.054946 0.000000 0.000552
# 5 0.012681 -0.005751 0.010407 0.000000 0.044458 0.000001
# 6 0.000000 0.000000 0.000001 0.000552 0.000001 0.059729
#
#
# Mechanical properties :
#
#
# Convention : Reuss Voigt Hill
#
# Bulk Modulus (GPa) = 34.34099 46.55458 40.44779
# Shear Modulus (GPa) = 20.42826 25.34817 22.88821
#
# Velocity S-wave (km/s) = 3.37816 3.76304 3.57578
# Velocity P-wave (km/s) = 5.86516 6.69983 6.29634
#
# Compressibility (1/GPa) = 0.02911972
#
# Stress axis : x y z
#
# Youngs Moduli (GPa) = 50.64501 62.94043 59.22022
#
# Poissons Ratio (x) = 0.57202 0.07441
# Poissons Ratio (y) = 0.46028 0.08024
# Poissons Ratio (z) = 0.06364 0.08528
#
# Static dielectric constant tensor:
#      x y z
#    x 1.668570 0.000000 -0.019490 
#    y 0.000000 1.576060 0.000000 
#    z -0.019490 0.000000 1.676430 
# 
# From -- ./inp_files/219370.got.cif
#   From: 2010.05.17/outbox.cif.g08.bks.cpg/sg12_110_cif.got.tgz:219370.got - 2010.06.03 13:09:07.
