data_PCOD9219807
_publ_section_title
;
Structure prediction by ZEFSAII (Michael W. Deem and Ramdas Pophale) SiO2 
 PCOD9219807
Probable space group: C 2/M
;
_chemical_formula_sum "Si O2"
_cell_formula_units_Z 48
_cell_length_a 11.088963
_cell_length_b 17.630764
_cell_length_c 23.396303
_cell_angle_alpha 90.000000
_cell_angle_beta 149.715879
_cell_angle_gamma 90.000000
_cell_volume 2306.684594
_symmetry_space_group_name_H-M "C 2/M"
_symmetry_group_IT_number 12
_symmetry_cell_setting 'monoclinic'
loop_
_space_group_symop_operation_xyz
x,y,z
-x,y,-z
-x,-y,-z
x,-y,z
1/2+x,1/2+y,z
1/2-x,1/2+y,-z
1/2-x,1/2-y,-z
1/2+x,1/2-y,z
loop_
_atom_site_type_symbol
_atom_site_label
_atom_site_fract_x
_atom_site_fract_y
_atom_site_fract_z
Si Si1 0.391809 0.675439 0.571155
Si Si2 0.944223 0.679125 0.768660
Si Si3 0.473199 0.908388 0.079971
Si Si4 0.624271 0.650593 0.845325
Si Si5 0.716069 0.914035 0.400257
Si Si6 0.222098 0.914744 0.370993
O O1 0.250000 0.750000 0.500000
O O2 0.660418 0.690214 0.661546
O O3 0.242445 0.611371 0.476156
O O4 0.391569 0.649277 0.635659
O O5 0.015659 0.625509 0.851400
O O6 0.942934 0.638404 0.706083
O O7 0.082569 0.758885 0.826943
O O8 0.689843 0.878005 0.127924
O O9 0.480646 0.000000 0.083868
O O10 0.239385 0.877419 0.951506
O O11 0.371680 0.609153 0.729384
O O12 0.000000 0.909889 0.500000
O O13 0.637090 0.000000 0.361535
O O14 0.500000 0.912775 0.500000
O O15 0.134702 0.000000 0.347913
#
# Coordination Sequence:
#
# PCOD9219807 Si02
#       6
#     8   8   8   8   8   8
#     4  11  21  35  56  84 124 164 201 247 307 367
#     4  11  22  37  61  90 119 157 206 254 306 362
#     4  11  23  41  67  92 121 165 211 255 307 369
#     4  11  22  39  60  94 124 155 205 261 306 361
#     4   9  19  34  54  82 117 155 200 245 296 360
#     4  11  22  37  59  88 124 163 203 251 310 370
#
# _framework density 20.809087000000002
#
# number of rings (size 3 to 8) (size 9 to 14) (size 15 to 20)
#    0.000    1.333    1.667    5.500    0.000    2.667 
#    0.000    0.000    0.000    0.000    0.000    5.833 
#    0.000    0.000    0.000    0.000    0.000    0.000 
#
# Total GULP energy -133916.275451 kJ/mol
# GULP energy per Si atom -5579.844810 kJ/mol
# Density = 2.076172 g / cm^3
# Si number density = 20.809087 Si / 1000 Ang^3
#
#
#
# Elastic Constant Matrix: (Units=GPa)
#
#
# Indices 1 2 3 4 5 6 
#
# 1 20.1585 13.5132 19.7528 0.0000 -9.2677 0.0000
# 2 13.5132 165.0973 62.3538 -0.0005 -4.6176 -0.0002
# 3 19.7528 62.3538 159.9665 0.0001 -24.6938 -0.0005
# 4 0.0000 -0.0005 0.0001 41.6465 -0.0001 1.6140
# 5 -9.2677 -4.6176 -24.6938 -0.0001 25.7652 0.0001
# 6 0.0000 -0.0002 -0.0005 1.6140 0.0001 15.1664
#
#
#
# Elastic Compliance Matrix: (Units=1/GPa)
#
#
# Indices 1 2 3 4 5 6 
#
# 1 0.064171 -0.003323 -0.003705 0.000000 0.018935 0.000000
# 2 -0.003323 0.007333 -0.002851 0.000000 -0.002614 0.000000
# 3 -0.003705 -0.002851 0.008844 0.000000 0.006633 0.000000
# 4 0.000000 0.000000 0.000000 0.024111 0.000000 -0.002566
# 5 0.018935 -0.002614 0.006633 0.000000 0.051511 0.000000
# 6 0.000000 0.000000 0.000000 -0.002566 0.000000 0.066208
#
#
# Mechanical properties :
#
#
# Convention : Reuss Voigt Hill
#
# Bulk Modulus (GPa) = 16.50509 59.60690 38.05600
# Shear Modulus (GPa) = 19.07418 33.15581 26.11499
#
# Velocity S-wave (km/s) = 3.03087 3.99599 3.54641
# Velocity P-wave (km/s) = 4.49412 7.07088 5.92429
#
# Compressibility (1/GPa) = 0.06058736
#
# Stress axis : x y z
#
# Youngs Moduli (GPa) = 15.58342 136.37222 113.06842
#
# Poissons Ratio (x) = 0.45320 0.41897
# Poissons Ratio (y) = 0.05179 0.32241
# Poissons Ratio (z) = 0.05774 0.38886
#
# Static dielectric constant tensor:
#      x y z
#    x 1.758080 0.000000 0.056260 
#    y 0.000000 1.703150 0.000000 
#    z 0.056260 0.000000 1.719950 
# 
# From -- ./inp_files/215013.got.cif
#   From: 2010.05.17/outbox.cif.g08.bks.cpg/sg12_108_cif.got.tgz:215013.got - 2010.06.03 13:09:07.
