data_PCOD9219664
_publ_section_title
;
Structure prediction by ZEFSAII (Michael W. Deem and Ramdas Pophale) SiO2 
 PCOD9219664
Probable space group: C 2/M
;
_chemical_formula_sum "Si O2"
_cell_formula_units_Z 48
_cell_length_a 9.275128
_cell_length_b 19.552667
_cell_length_c 17.778745
_cell_angle_alpha 90.000000
_cell_angle_beta 125.423286
_cell_angle_gamma 90.000000
_cell_volume 2627.406257
_symmetry_space_group_name_H-M "C 2/M"
_symmetry_group_IT_number 12
_symmetry_cell_setting 'monoclinic'
loop_
_space_group_symop_operation_xyz
x,y,z
-x,y,-z
-x,-y,-z
x,-y,z
1/2+x,1/2+y,z
1/2-x,1/2+y,-z
1/2-x,1/2-y,-z
1/2+x,1/2-y,z
loop_
_atom_site_type_symbol
_atom_site_label
_atom_site_fract_x
_atom_site_fract_y
_atom_site_fract_z
Si Si1 0.771699 0.294873 0.261956
Si Si2 0.706160 0.687917 0.075706
Si Si3 0.912162 0.918657 0.553996
Si Si4 0.209574 0.344279 0.053462
Si Si5 0.387511 0.812910 0.540228
Si Si6 0.569666 0.656850 0.745338
O O1 0.738840 0.330776 0.171647
O O2 0.611674 0.311743 0.271513
O O3 0.798038 0.214656 0.249314
O O4 0.964994 0.314205 0.350813
O O5 0.779708 0.765063 0.084294
O O6 0.500000 0.695509 0.000000
O O7 0.765225 0.638804 0.026467
O O8 0.723112 0.882005 0.496313
O O9 0.000000 0.900331 0.500000
O O10 0.013582 0.889044 0.657536
O O11 0.901280 0.000000 0.555631
O O12 0.322362 0.379197 0.153738
O O13 0.000000 0.347287 0.000000
O O14 0.500000 0.802898 0.500000
O O15 0.250000 0.750000 0.500000
#
# Coordination Sequence:
#
# PCOD9219664 Si02
#       6
#     8   8   8   8   8   8
#     4  11  21  32  55  88 119 158 187 241 294 356
#     4   9  16  28  44  74 119 149 181 223 289 351
#     4  11  26  44  61  82 117 159 203 254 302 357
#     4   9  18  29  48  78 117 155 184 234 291 357
#     4  12  22  38  60  90 121 154 196 248 298 353
#     4  11  22  36  56  85 119 155 195 237 306 355
#
# _framework density 18.268965999999999
#
# number of rings (size 3 to 8) (size 9 to 14) (size 15 to 20)
#    0.000    1.500    5.000    0.500    9.333    0.333 
#    0.000    0.000    0.000    0.500    0.000    3.500 
#    0.000    0.000    0.000    0.000    0.000    0.000 
#
# Total GULP energy -133659.529507 kJ/mol
# GULP energy per Si atom -5569.147063 kJ/mol
# Density = 1.822739 g / cm^3
# Si number density = 18.268966 Si / 1000 Ang^3
#
#
#
# Elastic Constant Matrix: (Units=GPa)
#
#
# Indices 1 2 3 4 5 6 
#
# 1 121.7469 36.4389 51.9983 0.0000 -14.4922 0.0000
# 2 36.4389 33.8619 31.0565 0.0000 -9.1359 0.0000
# 3 51.9983 31.0565 182.3457 0.0000 -7.7797 0.0000
# 4 0.0000 0.0000 0.0000 9.1579 0.0000 -2.3830
# 5 -14.4922 -9.1359 -7.7797 0.0000 36.1475 0.0000
# 6 0.0000 0.0000 0.0000 -2.3830 0.0000 14.9855
#
#
#
# Elastic Compliance Matrix: (Units=1/GPa)
#
#
# Indices 1 2 3 4 5 6 
#
# 1 0.012559 -0.011641 -0.001523 0.000000 0.001765 0.000000
# 2 -0.011641 0.048008 -0.004581 0.000000 0.006481 0.000000
# 3 -0.001523 -0.004581 0.006685 0.000000 -0.000330 0.000000
# 4 0.000000 0.000000 0.000000 0.113908 0.000000 0.018114
# 5 0.001765 0.006481 -0.000330 0.000000 0.029939 0.000000
# 6 0.000000 0.000000 0.000000 0.018114 0.000000 0.069612
#
#
# Mechanical properties :
#
#
# Convention : Reuss Voigt Hill
#
# Bulk Modulus (GPa) = 31.48450 64.10466 47.79458
# Shear Modulus (GPa) = 15.30046 26.62224 20.96135
#
# Velocity S-wave (km/s) = 2.89712 3.82152 3.39097
# Velocity P-wave (km/s) = 5.33501 7.39172 6.44593
#
# Compressibility (1/GPa) = 0.03176166
#
# Stress axis : x y z
#
# Youngs Moduli (GPa) = 79.62635 20.82971 149.59891
#
# Poissons Ratio (x) = 0.24248 0.22788
# Poissons Ratio (y) = 0.92694 0.68524
# Poissons Ratio (z) = 0.12129 0.09541
#
# Static dielectric constant tensor:
#      x y z
#    x 1.426060 0.000000 -0.122330 
#    y 0.000000 1.619370 0.000000 
#    z -0.122330 0.000000 1.664090 
# 
# From -- ./inp_files/257743.got.cif
#   From: 2010.05.17/outbox.cif.g08.bks.cpg/sg12_129_cif.got.tgz:257743.got - 2010.06.03 13:09:07.
