data_PCOD9219185
_publ_section_title
;
Structure prediction by ZEFSAII (Michael W. Deem and Ramdas Pophale) SiO2 
 PCOD9219185
Probable space group: C 2/M
;
_chemical_formula_sum "Si O2"
_cell_formula_units_Z 56
_cell_length_a 21.505107
_cell_length_b 14.528121
_cell_length_c 17.067040
_cell_angle_alpha 90.000000
_cell_angle_beta 142.526026
_cell_angle_gamma 90.000000
_cell_volume 3244.136933
_symmetry_space_group_name_H-M "C 2/M"
_symmetry_group_IT_number 12
_symmetry_cell_setting 'monoclinic'
loop_
_space_group_symop_operation_xyz
x,y,z
-x,y,-z
-x,-y,-z
x,-y,z
1/2+x,1/2+y,z
1/2-x,1/2+y,-z
1/2-x,1/2-y,-z
1/2+x,1/2-y,z
loop_
_atom_site_type_symbol
_atom_site_label
_atom_site_fract_x
_atom_site_fract_y
_atom_site_fract_z
Si Si1 0.791605 0.294097 0.701302
Si Si2 0.500000 0.106367 0.095105
Si Si3 0.617474 0.393424 0.433784
Si Si4 0.882525 0.893424 0.198835
Si Si5 0.880886 0.104532 0.753456
Si Si6 0.880884 0.104533 0.008314
Si Si7 0.791605 0.294097 0.881907
O O1 0.698051 0.327608 0.555487
O O2 0.812213 0.185338 0.718399
O O3 0.775062 0.322172 0.775062
O O4 0.896670 0.342053 0.776894
O O5 0.500000 0.000000 0.119911
O O6 0.500000 0.108676 0.000000
O O7 0.396670 0.157947 0.016445
O O8 0.638423 0.500000 0.476968
O O9 0.500000 0.372371 0.337664
O O10 0.624309 0.388777 0.346307
O O11 0.875690 0.888775 0.097688
O O12 0.801949 0.827608 0.159386
O O13 0.861577 0.000000 0.200121
O O14 0.000001 0.119119 0.895307
O O15 0.853315 0.000000 0.748125
O O16 0.853313 0.000000 0.958505
O O17 0.812211 0.185338 0.906025
#
# Coordination Sequence:
#
# PCOD9219185 Si02
#       7
#     8   8   8   8   8   8   8
#     4  11  20  31  50  76 106 136 164 206 258 304
#     4   9  18  30  43  67 103 135 159 192 248 306
#     4   9  19  35  54  75  99 133 174 211 249 296
#     4   9  19  35  54  75  99 133 174 211 249 296
#     4   9  18  34  54  75 101 133 172 214 251 295
#     4   9  18  34  54  75 101 133 172 214 251 295
#     4  11  20  31  50  76 106 136 164 206 258 304
#
# _framework density 17.261911000000001
#
# number of rings (size 3 to 8) (size 9 to 14) (size 15 to 20)
#    0.000    2.429    1.429    3.429    0.000    2.857 
#    0.000    2.857    0.000    0.857    0.000    2.000 
#    0.000    0.000    0.000    0.000    0.000    0.000 
#
# Total GULP energy -156213.867312 kJ/mol
# GULP energy per Si atom -5579.066690 kJ/mol
# Density = 1.722262 g / cm^3
# Si number density = 17.261911 Si / 1000 Ang^3
#
#
#
# Elastic Constant Matrix: (Units=GPa)
#
#
# Indices 1 2 3 4 5 6 
#
# 1 42.0254 22.8301 26.7301 0.0000 9.3568 0.0000
# 2 22.8301 90.9622 39.1945 0.0000 14.6903 0.0000
# 3 26.7301 39.1945 65.0984 0.0000 11.3569 0.0000
# 4 0.0000 0.0000 0.0000 27.2501 0.0000 8.2348
# 5 9.3568 14.6903 11.3569 0.0000 14.6543 0.0000
# 6 0.0000 0.0000 0.0000 8.2348 0.0000 18.0755
#
#
#
# Elastic Compliance Matrix: (Units=1/GPa)
#
#
# Indices 1 2 3 4 5 6 
#
# 1 0.034391 -0.002107 -0.010859 0.000000 -0.011432 0.000000
# 2 -0.002107 0.016129 -0.007239 0.000000 -0.009214 0.000000
# 3 -0.010859 -0.007239 0.025096 0.000000 -0.005259 0.000000
# 4 0.000000 0.000000 0.000000 0.042556 0.000000 -0.019387
# 5 -0.011432 -0.009214 -0.005259 0.000000 0.088851 0.000000
# 6 0.000000 0.000000 0.000000 -0.019387 0.000000 0.064156
#
#
# Mechanical properties :
#
#
# Convention : Reuss Voigt Hill
#
# Bulk Modulus (GPa) = 28.40227 41.73282 35.06754
# Shear Modulus (GPa) = 15.46438 19.28476 17.37457
#
# Velocity S-wave (km/s) = 2.99635 3.34606 3.17602
# Velocity P-wave (km/s) = 5.33482 6.25755 5.81451
#
# Compressibility (1/GPa) = 0.03520845
#
# Stress axis : x y z
#
# Youngs Moduli (GPa) = 29.07699 61.99829 39.84711
#
# Poissons Ratio (x) = 0.13060 0.43269
# Poissons Ratio (y) = 0.06125 0.28845
# Poissons Ratio (z) = 0.31574 0.44879
#
# Static dielectric constant tensor:
#      x y z
#    x 1.579200 0.000000 -0.013310 
#    y 0.000000 1.596620 0.000000 
#    z -0.013310 0.000000 1.564370 
# 
# From -- ./inp_files/156725.got.cif
#   From: 2010.05.17/outbox.cif.g08.bks.cpg/sg12_79_cif.got.tgz:156725.got - 2010.06.03 13:09:07.
