data_PCOD9219099
_publ_section_title
;
Structure prediction by ZEFSAII (Michael W. Deem and Ramdas Pophale) SiO2 
 PCOD9219099
Probable space group: C 2/M
;
_chemical_formula_sum "Si O2"
_cell_formula_units_Z 48
_cell_length_a 17.517704
_cell_length_b 19.215196
_cell_length_c 8.448451
_cell_angle_alpha 90.000000
_cell_angle_beta 128.889301
_cell_angle_gamma 90.000000
_cell_volume 2213.501510
_symmetry_space_group_name_H-M "C 2/M"
_symmetry_group_IT_number 12
_symmetry_cell_setting 'monoclinic'
loop_
_space_group_symop_operation_xyz
x,y,z
-x,y,-z
-x,-y,-z
x,-y,z
1/2+x,1/2+y,z
1/2-x,1/2+y,-z
1/2-x,1/2-y,-z
1/2+x,1/2-y,z
loop_
_atom_site_type_symbol
_atom_site_label
_atom_site_fract_x
_atom_site_fract_y
_atom_site_fract_z
Si Si1 0.221115 0.346069 0.285251
Si Si2 0.239127 0.208017 0.145386
Si Si3 0.901796 0.337626 0.554555
Si Si4 0.442153 0.922883 0.093521
Si Si5 0.573738 0.581929 0.447343
Si Si6 0.986912 0.205742 0.160292
O O1 0.246087 0.265712 0.292948
O O2 0.171294 0.351618 0.391693
O O3 0.314835 0.394427 0.377029
O O4 0.142282 0.367587 0.050409
O O5 0.331922 0.160957 0.310515
O O6 0.250000 0.250000 0.000000
O O7 0.127348 0.183831 0.984317
O O8 0.982902 0.397107 0.677135
O O9 0.964630 0.265497 0.664357
O O10 0.403347 0.000000 0.073114
O O11 0.500000 0.925013 0.000000
O O12 0.500000 0.595579 0.500000
O O13 0.568356 0.500000 0.404262
O O14 0.543071 0.634384 0.268233
O O15 0.000000 0.234054 0.000000
#
# Coordination Sequence:
#
# PCOD9219099 Si02
#       6
#     8   8   8   8   8   8
#     4  11  19  39  65  91 121 160 209 257 304 368
#     4  12  24  36  60  94 121 162 209 257 313 372
#     4  11  21  39  64  94 128 159 204 263 315 371
#     4   9  18  34  61  95 125 154 196 249 309 371
#     4  11  25  42  61  88 129 175 212 253 311 378
#     4  12  22  40  64  93 127 162 210 267 313 372
#
# _framework density 21.685099000000001
#
# number of rings (size 3 to 8) (size 9 to 14) (size 15 to 20)
#    0.000    1.000    5.000    3.500    0.000    1.000 
#    0.000    0.833    0.000    3.000    0.000    0.000 
#    0.000    0.000    0.000    0.000    0.000    0.000 
#
# Total GULP energy -133951.240829 kJ/mol
# GULP energy per Si atom -5581.301701 kJ/mol
# Density = 2.163574 g / cm^3
# Si number density = 21.685099 Si / 1000 Ang^3
#
#
#
# Elastic Constant Matrix: (Units=GPa)
#
#
# Indices 1 2 3 4 5 6 
#
# 1 61.3383 3.8382 34.3414 0.0000 10.9544 0.0000
# 2 3.8382 53.6264 -8.2753 0.0000 21.4179 0.0000
# 3 34.3414 -8.2753 121.6316 0.0000 30.1444 0.0000
# 4 0.0000 0.0000 0.0000 14.6933 0.0000 -2.3552
# 5 10.9544 21.4179 30.1444 0.0000 31.2200 0.0000
# 6 0.0000 0.0000 0.0000 -2.3552 0.0000 12.9095
#
#
#
# Elastic Compliance Matrix: (Units=1/GPa)
#
#
# Indices 1 2 3 4 5 6 
#
# 1 0.019640 -0.002472 -0.005818 0.000000 0.000422 0.000000
# 2 -0.002472 0.033788 0.011209 0.000000 -0.033134 0.000000
# 3 -0.005818 0.011209 0.015810 0.000000 -0.020913 0.000000
# 4 0.000000 0.000000 0.000000 0.070108 0.000000 0.012791
# 5 0.000422 -0.033134 -0.020913 0.000000 0.074806 0.000000
# 6 0.000000 0.000000 0.000000 0.012791 0.000000 0.079796
#
#
# Mechanical properties :
#
#
# Convention : Reuss Voigt Hill
#
# Bulk Modulus (GPa) = 13.32021 32.93390 23.12706
# Shear Modulus (GPa) = 15.96758 25.54404 20.75581
#
# Velocity S-wave (km/s) = 2.71650 3.43586 3.09713
# Velocity P-wave (km/s) = 3.99938 5.56421 4.84539
#
# Compressibility (1/GPa) = 0.07507387
#
# Stress axis : x y z
#
# Youngs Moduli (GPa) = 50.91768 29.59668 63.25239
#
# Poissons Ratio (x) = 0.07317 0.36799
# Poissons Ratio (y) = 0.12587 -0.70896
# Poissons Ratio (z) = 0.29623 -0.33173
#
# Static dielectric constant tensor:
#      x y z
#    x 1.867000 0.000000 0.004980 
#    y 0.000000 1.749760 0.000000 
#    z 0.004980 0.000000 1.777930 
# 
# From -- ./inp_files/77678.got.cif
#   From: 2010.05.17/outbox.cif.g08.bks.cpg/sg12_39_cif.got.tgz:77678.got - 2010.06.03 13:09:07.
