data_PCOD9219560
_publ_section_title
;
Structure prediction by ZEFSAII (Michael W. Deem and Ramdas Pophale) SiO2 
 PCOD9219560
Probable space group: C 2/M
;
_chemical_formula_sum "Si O2"
_cell_formula_units_Z 56
_cell_length_a 25.504423
_cell_length_b 14.645577
_cell_length_c 8.606420
_cell_angle_alpha 90.000000
_cell_angle_beta 59.486079
_cell_angle_gamma 90.000000
_cell_volume 2769.508746
_symmetry_space_group_name_H-M "C 2/M"
_symmetry_group_IT_number 12
_symmetry_cell_setting 'monoclinic'
loop_
_space_group_symop_operation_xyz
x,y,z
-x,y,-z
-x,-y,-z
x,-y,z
1/2+x,1/2+y,z
1/2-x,1/2+y,-z
1/2-x,1/2-y,-z
1/2+x,1/2-y,z
loop_
_atom_site_type_symbol
_atom_site_label
_atom_site_fract_x
_atom_site_fract_y
_atom_site_fract_z
Si Si1 0.361306 0.753923 0.816654
Si Si2 0.567775 0.599339 0.464653
Si Si3 0.686979 0.894252 0.354560
Si Si4 0.943974 0.400072 0.863268
Si Si5 0.422147 0.853844 0.246778
Si Si6 0.564675 0.638254 0.826276
Si Si7 0.822234 0.103510 0.121194
O O1 0.393053 0.683605 0.651955
O O2 0.321924 0.824837 0.775502
O O3 0.411578 0.816840 0.825675
O O4 0.329683 0.686609 0.988403
O O5 0.500000 0.610915 0.500000
O O6 0.590092 0.500000 0.375354
O O7 0.566795 0.599086 0.651086
O O8 0.637306 0.872557 0.561596
O O9 0.756993 0.885058 0.302893
O O10 0.677954 0.000000 0.321085
O O11 0.929637 0.500000 0.817715
O O12 0.016806 0.386905 0.757902
O O13 0.922200 0.397871 0.075678
O O14 0.430636 0.747025 0.201607
O O15 0.620634 0.608537 0.849181
O O16 0.500000 0.615628 0.000000
O O17 0.821394 0.000000 0.054564
#
# Coordination Sequence:
#
# PCOD9219560 Si02
#       7
#     8   8   8   8   8   8   8
#     4  12  23  42  64  92 133 169 215 264 324 379
#     4  11  24  40  63  97 131 165 209 267 328 382
#     4  11  25  43  65  93 130 173 218 267 322 384
#     4  11  22  38  66  98 131 168 211 263 323 384
#     4  11  20  41  64  94 131 165 212 267 318 377
#     4  12  22  43  71  97 126 167 213 267 324 385
#     4  11  25  45  66  93 127 171 221 267 320 383
#
# _framework density 20.220192999999998
#
# number of rings (size 3 to 8) (size 9 to 14) (size 15 to 20)
#    0.000    0.714    4.286    5.143    0.000    2.857 
#    0.000    1.429    0.000    5.143    0.000    0.000 
#    0.000    0.000    0.000    0.000    0.000    0.000 
#
# Total GULP energy -156487.744859 kJ/mol
# GULP energy per Si atom -5588.848031 kJ/mol
# Density = 2.017417 g / cm^3
# Si number density = 20.220193 Si / 1000 Ang^3
#
#
#
# Elastic Constant Matrix: (Units=GPa)
#
#
# Indices 1 2 3 4 5 6 
#
# 1 118.5861 27.5358 66.7580 0.0000 -22.9477 0.0000
# 2 27.5358 145.3936 31.0220 0.0000 -13.2959 0.0000
# 3 66.7580 31.0220 121.8197 0.0000 -25.1577 0.0000
# 4 0.0000 0.0000 0.0000 31.9130 0.0000 8.6730
# 5 -22.9477 -13.2959 -25.1577 0.0000 23.3425 0.0000
# 6 0.0000 0.0000 0.0000 8.6730 0.0000 40.3708
#
#
#
# Elastic Compliance Matrix: (Units=1/GPa)
#
#
# Indices 1 2 3 4 5 6 
#
# 1 0.012986 -0.000679 -0.005643 0.000000 0.006298 0.000000
# 2 -0.000679 0.007450 -0.001012 0.000000 0.002485 0.000000
# 3 -0.005643 -0.001012 0.013241 0.000000 0.008148 0.000000
# 4 0.000000 0.000000 0.000000 0.033278 0.000000 -0.007149
# 5 0.006298 0.002485 0.008148 0.000000 0.059228 0.000000
# 6 0.000000 0.000000 0.000000 -0.007149 0.000000 0.026306
#
#
# Mechanical properties :
#
#
# Convention : Reuss Voigt Hill
#
# Bulk Modulus (GPa) = 52.60597 70.71457 61.66027
# Shear Modulus (GPa) = 28.81967 36.49082 32.65524
#
# Velocity S-wave (km/s) = 3.77940 4.25275 4.02304
# Velocity P-wave (km/s) = 6.71701 7.69173 7.22083
#
# Compressibility (1/GPa) = 0.01900925
#
# Stress axis : x y z
#
# Youngs Moduli (GPa) = 77.00815 134.23454 75.52157
#
# Poissons Ratio (x) = 0.09121 0.42614
# Poissons Ratio (y) = 0.05233 0.07639
# Poissons Ratio (z) = 0.43453 0.13578
#
# Static dielectric constant tensor:
#      x y z
#    x 1.688500 0.000000 0.003460 
#    y 0.000000 1.767630 0.000000 
#    z 0.003460 0.000000 1.718600 
# 
# From -- ./inp_files/96789.got.cif
#   From: 2010.05.17/outbox.cif.g08.bks.cpg/sg12_49_cif.got.tgz:96789.got - 2010.06.03 13:09:07.
