data_PCOD9219578
_publ_section_title
;
Structure prediction by ZEFSAII (Michael W. Deem and Ramdas Pophale) SiO2 
 PCOD9219578
Probable space group: C 2/M
;
_chemical_formula_sum "Si O2"
_cell_formula_units_Z 40
_cell_length_a 15.429043
_cell_length_b 12.451104
_cell_length_c 11.294684
_cell_angle_alpha 90.000000
_cell_angle_beta 65.195714
_cell_angle_gamma 90.000000
_cell_volume 1969.633064
_symmetry_space_group_name_H-M "C 2/M"
_symmetry_group_IT_number 12
_symmetry_cell_setting 'monoclinic'
loop_
_space_group_symop_operation_xyz
x,y,z
-x,y,-z
-x,-y,-z
x,-y,z
1/2+x,1/2+y,z
1/2-x,1/2+y,-z
1/2-x,1/2-y,-z
1/2+x,1/2-y,z
loop_
_atom_site_type_symbol
_atom_site_label
_atom_site_fract_x
_atom_site_fract_y
_atom_site_fract_z
Si Si1 0.269699 0.803613 0.362838
Si Si2 0.353181 0.378906 0.149021
Si Si3 0.612529 0.000000 0.330738
Si Si4 0.106755 0.500000 0.618438
Si Si5 0.086931 0.741940 0.356599
Si Si6 0.062210 0.119674 0.144619
O O1 0.250000 0.750000 0.500000
O O2 0.311977 0.718096 0.247435
O O3 0.343222 0.898991 0.346957
O O4 0.163815 0.822717 0.371501
O O5 0.309387 0.500000 0.188725
O O6 0.460088 0.387159 0.139696
O O7 0.362863 0.355432 0.003555
O O8 0.634802 0.126788 0.296602
O O9 0.626909 0.000000 0.465950
O O10 0.507792 0.000000 0.323620
O O11 0.054953 0.796310 0.253835
O O12 0.000000 0.723016 0.500000
O O13 0.085188 0.000000 0.177206
#
# Coordination Sequence:
#
# PCOD9219578 Si02
#       6
#     8   8   4   4   8   8
#     4  12  24  37  62  91 123 157 212 255 302 362
#     4   9  20  40  65  87 118 161 205 251 307 377
#     4  11  20  42  61  82 129 166 202 242 312 374
#     4  11  22  40  58  88 128 158 196 262 306 355
#     4  12  23  39  62  91 124 168 206 255 308 365
#     4   9  20  40  62  89 122 158 201 254 315 364
#
# _framework density 20.308350000000001
#
# number of rings (size 3 to 8) (size 9 to 14) (size 15 to 20)
#    0.000    1.400    4.000    3.600    4.200    1.200 
#    0.000    1.000    0.000    3.600    0.000    0.000 
#    0.000    0.000    0.000    0.000    0.000    0.000 
#
# Total GULP energy -111348.858706 kJ/mol
# GULP energy per Si atom -5567.442935 kJ/mol
# Density = 2.026213 g / cm^3
# Si number density = 20.308350 Si / 1000 Ang^3
#
#
#
# Elastic Constant Matrix: (Units=GPa)
#
#
# Indices 1 2 3 4 5 6 
#
# 1 75.8771 37.1800 3.4150 0.0000 16.1812 0.0000
# 2 37.1800 139.4085 66.4536 0.0000 9.6061 0.0000
# 3 3.4150 66.4536 89.0319 0.0000 9.2609 0.0000
# 4 0.0000 0.0000 0.0000 25.0196 0.0000 10.2355
# 5 16.1812 9.6061 9.2609 0.0000 24.2234 0.0000
# 6 0.0000 0.0000 0.0000 10.2355 0.0000 18.3470
#
#
#
# Elastic Compliance Matrix: (Units=1/GPa)
#
#
# Indices 1 2 3 4 5 6 
#
# 1 0.018883 -0.006920 0.005694 0.000000 -0.012046 0.000000
# 2 -0.006920 0.013710 -0.010292 0.000000 0.003121 0.000000
# 3 0.005694 -0.010292 0.019440 0.000000 -0.007154 0.000000
# 4 0.000000 0.000000 0.000000 0.051788 0.000000 -0.028892
# 5 -0.012046 0.003121 -0.007154 0.000000 0.050827 0.000000
# 6 0.000000 0.000000 0.000000 -0.028892 0.000000 0.070623
#
#
# Mechanical properties :
#
#
# Convention : Reuss Voigt Hill
#
# Bulk Modulus (GPa) = 34.48799 57.60164 46.04481
# Shear Modulus (GPa) = 19.38188 26.66926 23.02557
#
# Velocity S-wave (km/s) = 3.09266 3.62776 3.37084
# Velocity P-wave (km/s) = 5.45635 6.78031 6.15404
#
# Compressibility (1/GPa) = 0.02899560
#
# Stress axis : x y z
#
# Youngs Moduli (GPa) = 52.95829 72.94013 51.44074
#
# Poissons Ratio (x) = 0.50476 -0.29290
# Poissons Ratio (y) = 0.36648 0.52944
# Poissons Ratio (z) = -0.30154 0.75072
#
# Static dielectric constant tensor:
#      x y z
#    x 1.726570 0.000000 -0.093100 
#    y 0.000000 1.720550 0.000000 
#    z -0.093100 0.000000 1.744660 
# 
# From -- ./inp_files/140856.got.cif
#   From: 2010.05.17/outbox.cif.g08.bks.cpg/sg12_71_cif.got.tgz:140856.got - 2010.06.03 13:09:07.
