data_PCOD9219750
_publ_section_title
;
Structure prediction by ZEFSAII (Michael W. Deem and Ramdas Pophale) SiO2 
 PCOD9219750
Probable space group: C 2/M
;
_chemical_formula_sum "Si O2"
_cell_formula_units_Z 48
_cell_length_a 19.945280
_cell_length_b 8.643719
_cell_length_c 22.861960
_cell_angle_alpha 90.000000
_cell_angle_beta 136.500752
_cell_angle_gamma 90.000000
_cell_volume 2713.066475
_symmetry_space_group_name_H-M "C 2/M"
_symmetry_group_IT_number 12
_symmetry_cell_setting 'monoclinic'
loop_
_space_group_symop_operation_xyz
x,y,z
-x,y,-z
-x,-y,-z
x,-y,z
1/2+x,1/2+y,z
1/2-x,1/2+y,-z
1/2-x,1/2-y,-z
1/2+x,1/2-y,z
loop_
_atom_site_type_symbol
_atom_site_label
_atom_site_fract_x
_atom_site_fract_y
_atom_site_fract_z
Si Si1 0.281764 0.685168 0.719241
Si Si2 0.601129 0.684806 0.532205
Si Si3 0.457708 0.813622 0.757906
Si Si4 0.536161 0.186593 0.371119
Si Si5 0.817224 0.686874 0.093632
Si Si6 0.309161 0.187866 0.219556
O O1 0.284223 0.500000 0.721418
O O2 0.191778 0.739515 0.622363
O O3 0.380869 0.747274 0.754454
O O4 0.259003 0.741196 0.770852
O O5 0.500000 0.731876 0.500000
O O6 0.609686 0.500000 0.541320
O O7 0.593971 0.736666 0.460415
O O8 0.433101 0.768602 0.675190
O O9 0.569332 0.766815 0.840941
O O10 0.454496 0.000000 0.757618
O O11 0.421615 0.229717 0.303894
O O12 0.542782 0.000000 0.380179
O O13 0.814383 0.500000 0.090867
O O14 0.785030 0.738765 0.138439
O O15 0.750000 0.750000 0.000000
O O16 0.307107 0.000000 0.217632
#
# Coordination Sequence:
#
# PCOD9219750 Si02
#       6
#     8   8   8   8   8   8
#     4  11  21  34  55  78 104 141 180 218 258 308
#     4  11  22  33  49  77 110 139 174 223 267 303
#     4   9  20  37  55  77 109 140 169 216 271 308
#     4   9  17  34  56  73  97 141 186 219 252 304
#     4   9  18  36  60  82 104 133 170 213 259 314
#     4   8  16  32  54  77 101 134 176 215 255 303
#
# _framework density 17.692157999999999
#
# number of rings (size 3 to 8) (size 9 to 14) (size 15 to 20)
#    0.000    2.500    1.667    3.000    0.000    2.667 
#    0.000    5.000    0.000    5.000    0.000    0.000 
#    0.000    0.000    0.000    0.000    0.000    0.000 
#
# Total GULP energy -133871.586956 kJ/mol
# GULP energy per Si atom -5577.982790 kJ/mol
# Density = 1.765189 g / cm^3
# Si number density = 17.692158 Si / 1000 Ang^3
#
#
#
# Elastic Constant Matrix: (Units=GPa)
#
#
# Indices 1 2 3 4 5 6 
#
# 1 168.9680 31.5003 80.3038 0.0000 -18.9769 0.0000
# 2 31.5003 15.2440 21.5797 0.0000 -1.1465 0.0000
# 3 80.3038 21.5797 133.3785 0.0000 -21.7455 0.0000
# 4 0.0000 0.0000 0.0000 28.5523 0.0000 0.9333
# 5 -18.9769 -1.1465 -21.7455 0.0000 19.9016 0.0000
# 6 0.0000 0.0000 0.0000 0.9333 0.0000 26.9801
#
#
#
# Elastic Compliance Matrix: (Units=1/GPa)
#
#
# Indices 1 2 3 4 5 6 
#
# 1 0.011676 -0.019815 -0.002671 0.000000 0.007074 0.000000
# 2 -0.019815 0.121279 -0.011722 0.000000 -0.024715 0.000000
# 3 -0.002671 -0.011722 0.012747 0.000000 0.010707 0.000000
# 4 0.000000 0.000000 0.000000 0.035063 0.000000 -0.001213
# 5 0.007074 -0.024715 0.010707 0.000000 0.067267 0.000000
# 6 0.000000 0.000000 0.000000 -0.001213 0.000000 0.037106
#
#
# Mechanical properties :
#
#
# Convention : Reuss Voigt Hill
#
# Bulk Modulus (GPa) = 12.93854 64.92869 38.93361
# Shear Modulus (GPa) = 13.18163 27.36723 20.27443
#
# Velocity S-wave (km/s) = 2.73253 3.93728 3.38887
# Velocity P-wave (km/s) = 4.15748 7.57947 6.11281
#
# Compressibility (1/GPa) = 0.07728850
#
# Stress axis : x y z
#
# Youngs Moduli (GPa) = 85.64582 8.24546 78.44708
#
# Poissons Ratio (x) = 0.16338 0.20950
# Poissons Ratio (y) = 1.69704 0.91953
# Poissons Ratio (z) = 0.22873 0.09665
#
# Static dielectric constant tensor:
#      x y z
#    x 1.617420 0.000000 -0.018030 
#    y 0.000000 1.601490 0.000000 
#    z -0.018030 0.000000 1.575110 
# 
# From -- ./inp_files/230433.got.cif
#   From: 2010.05.17/outbox.cif.g08.bks.cpg/sg12_116_cif.got.tgz:230433.got - 2010.06.03 13:09:07.
