data_PCOD9219666
_publ_section_title
;
Structure prediction by ZEFSAII (Michael W. Deem and Ramdas Pophale) SiO2 
 PCOD9219666
Probable space group: C 2/M
;
_chemical_formula_sum "Si O2"
_cell_formula_units_Z 48
_cell_length_a 20.271557
_cell_length_b 22.165009
_cell_length_c 9.929167
_cell_angle_alpha 90.000000
_cell_angle_beta 140.075700
_cell_angle_gamma 90.000000
_cell_volume 2863.192771
_symmetry_space_group_name_H-M "C 2/M"
_symmetry_group_IT_number 12
_symmetry_cell_setting 'monoclinic'
loop_
_space_group_symop_operation_xyz
x,y,z
-x,y,-z
-x,-y,-z
x,-y,z
1/2+x,1/2+y,z
1/2-x,1/2+y,-z
1/2-x,1/2-y,-z
1/2+x,1/2-y,z
loop_
_atom_site_type_symbol
_atom_site_label
_atom_site_fract_x
_atom_site_fract_y
_atom_site_fract_z
Si Si1 0.498159 0.230145 0.154660
Si Si2 0.286190 0.192169 0.464117
Si Si3 0.266688 0.230796 0.871459
Si Si4 0.982101 0.932557 0.199817
Si Si5 0.061788 0.824176 0.473497
Si Si6 0.832839 0.930405 0.726563
O O1 0.591501 0.184511 0.327033
O O2 0.535136 0.287546 0.297553
O O3 0.500000 0.244767 0.000000
O O4 0.384283 0.212841 0.024688
O O5 0.250000 0.250000 0.500000
O O6 0.258473 0.213979 0.269829
O O7 0.234993 0.127964 0.414279
O O8 0.181651 0.180866 0.696589
O O9 0.250000 0.250000 0.000000
O O10 0.011801 0.888130 0.364881
O O11 0.076467 0.931474 0.241689
O O12 0.968544 0.000000 0.229354
O O13 0.883947 0.917856 0.952905
O O14 0.000000 0.794563 0.500000
O O15 0.790827 0.000000 0.662997
#
# Coordination Sequence:
#
# PCOD9219666 Si02
#       6
#     8   8   8   8   8   8
#     4  11  22  35  53  81 110 143 183 226 268 331
#     4  11  21  32  57  86 105 146 188 231 271 327
#     4  11  22  36  51  79 117 143 172 223 291 328
#     4   9  19  32  52  78 109 142 180 227 275 327
#     4  11  22  33  54  79 111 147 176 221 281 338
#     4   9  18  34  54  80 110 145 185 230 276 329
#
# _framework density 16.764502
#
# number of rings (size 3 to 8) (size 9 to 14) (size 15 to 20)
#    0.000    1.667    3.333    4.000    2.333    0.333 
#    0.000    0.000    0.000    1.500    0.000    1.167 
#    0.000    0.000    0.000    0.000    0.000    0.000 
#
# Total GULP energy -133701.113103 kJ/mol
# GULP energy per Si atom -5570.879713 kJ/mol
# Density = 1.672635 g / cm^3
# Si number density = 16.764502 Si / 1000 Ang^3
#
#
#
# Elastic Constant Matrix: (Units=GPa)
#
#
# Indices 1 2 3 4 5 6 
#
# 1 81.3133 23.4041 37.2396 0.0000 8.0786 0.0000
# 2 23.4041 84.0280 46.5778 0.0000 4.1715 0.0000
# 3 37.2396 46.5778 83.2481 0.0000 14.4398 0.0000
# 4 0.0000 0.0000 0.0000 23.3708 0.0000 3.8470
# 5 8.0786 4.1715 14.4398 0.0000 42.2500 0.0000
# 6 0.0000 0.0000 0.0000 3.8470 0.0000 10.0133
#
#
#
# Elastic Compliance Matrix: (Units=1/GPa)
#
#
# Indices 1 2 3 4 5 6 
#
# 1 0.015514 -0.000735 -0.006406 0.000000 -0.000704 0.000000
# 2 -0.000735 0.017401 -0.009709 0.000000 0.001741 0.000000
# 3 -0.006406 -0.009709 0.021188 0.000000 -0.005058 0.000000
# 4 0.000000 0.000000 0.000000 0.045677 0.000000 -0.017549
# 5 -0.000704 0.001741 -0.005058 0.000000 0.025360 0.000000
# 6 0.000000 0.000000 0.000000 -0.017549 0.000000 0.106609
#
#
# Mechanical properties :
#
#
# Convention : Reuss Voigt Hill
#
# Bulk Modulus (GPa) = 49.01624 51.44804 50.23214
# Shear Modulus (GPa) = 18.36548 24.55137 21.45843
#
# Velocity S-wave (km/s) = 3.31342 3.83101 3.58158
# Velocity P-wave (km/s) = 6.62872 7.09395 6.86528
#
# Compressibility (1/GPa) = 0.02040140
#
# Stress axis : x y z
#
# Youngs Moduli (GPa) = 64.45969 57.46817 47.19724
#
# Poissons Ratio (x) = 0.04223 0.30237
# Poissons Ratio (y) = 0.04737 0.45824
# Poissons Ratio (z) = 0.41296 0.55797
#
# Static dielectric constant tensor:
#      x y z
#    x 1.617120 0.000000 -0.003320 
#    y 0.000000 1.590570 0.000000 
#    z -0.003320 0.000000 1.608610 
# 
# From -- ./inp_files/89726.got.cif
#   From: 2010.05.17/outbox.cif.g08.bks.cpg/sg12_45_cif.got.tgz:89726.got - 2010.06.03 13:09:07.
