data_PCOD9219714
_publ_section_title
;
Structure prediction by ZEFSAII (Michael W. Deem and Ramdas Pophale) SiO2 
 PCOD9219714
Probable space group: C 2/M
;
_chemical_formula_sum "Si O2"
_cell_formula_units_Z 64
_cell_length_a 15.525997
_cell_length_b 28.592926
_cell_length_c 12.685963
_cell_angle_alpha 90.000000
_cell_angle_beta 139.045797
_cell_angle_gamma 90.000000
_cell_volume 3691.346381
_symmetry_space_group_name_H-M "C 2/M"
_symmetry_group_IT_number 12
_symmetry_cell_setting 'monoclinic'
loop_
_space_group_symop_operation_xyz
x,y,z
-x,y,-z
-x,-y,-z
x,-y,z
1/2+x,1/2+y,z
1/2-x,1/2+y,-z
1/2-x,1/2-y,-z
1/2+x,1/2-y,z
loop_
_atom_site_type_symbol
_atom_site_label
_atom_site_fract_x
_atom_site_fract_y
_atom_site_fract_z
Si Si1 0.482995 0.702328 0.278726
Si Si2 0.865471 0.670579 0.893371
Si Si3 0.173834 0.552523 0.272106
Si Si4 0.133640 0.446604 0.981399
Si Si5 0.779312 0.651727 0.028047
Si Si6 0.113003 0.230322 0.184125
Si Si7 0.879314 0.292990 0.313906
Si Si8 0.125747 0.127318 0.557170
O O1 0.573757 0.720316 0.267231
O O2 0.418274 0.745185 0.285593
O O3 0.568126 0.668958 0.433353
O O4 0.368357 0.670926 0.119944
O O5 0.882224 0.714423 0.833579
O O6 0.726736 0.648729 0.735186
O O7 0.856021 0.680629 0.007670
O O8 0.000000 0.641861 0.000000
O O9 0.213665 0.500000 0.336974
O O10 0.280369 0.589566 0.411226
O O11 0.024521 0.559293 0.173122
O O12 0.169102 0.554890 0.139166
O O13 0.165613 0.500000 0.975557
O O14 0.201155 0.402801 0.984730
O O15 0.841308 0.667440 0.194769
O O16 0.253648 0.213879 0.272860
O O17 0.000000 0.211788 0.000000
O O18 0.000000 0.305117 0.500000
O O19 0.000000 0.105577 0.500000
#
# Coordination Sequence:
#
# PCOD9219714 Si02
#       8
#     8   8   8   8   8   8   8   8
#     4  12  24  39  58  83 122 162 199 240 294 350
#     4  11  21  33  56  80 110 153 197 234 277 348
#     4   9  18  33  53  83 120 150 184 238 296 358
#     4   9  18  34  59  87 115 149 194 243 293 354
#     4  12  21  38  61  82 115 160 195 240 297 351
#     4  11  22  38  57  78 113 160 196 237 294 336
#     4  12  25  40  57  86 119 152 206 256 282 340
#     4  12  21  34  53  84 118 154 192 238 288 350
#
# _framework density 17.337848000000001
#
# number of rings (size 3 to 8) (size 9 to 14) (size 15 to 20)
#    0.000    1.000    5.000    4.500    0.000    4.250 
#    0.000    0.625    0.000    0.375    0.000    2.625 
#    0.000    0.000    0.000    0.000    0.000    0.000 
#
# Total GULP energy -178440.358773 kJ/mol
# GULP energy per Si atom -5576.261212 kJ/mol
# Density = 1.729839 g / cm^3
# Si number density = 17.337848 Si / 1000 Ang^3
#
#
#
# Elastic Constant Matrix: (Units=GPa)
#
#
# Indices 1 2 3 4 5 6 
#
# 1 99.2666 31.3258 28.2246 0.0000 10.5228 0.0000
# 2 31.3258 98.3144 20.5808 0.0000 -1.0893 0.0000
# 3 28.2246 20.5808 93.7202 0.0000 15.0855 0.0000
# 4 0.0000 0.0000 0.0000 19.0610 0.0000 -1.5448
# 5 10.5228 -1.0893 15.0855 0.0000 25.6317 0.0000
# 6 0.0000 0.0000 0.0000 -1.5448 0.0000 19.5894
#
#
#
# Elastic Compliance Matrix: (Units=1/GPa)
#
#
# Indices 1 2 3 4 5 6 
#
# 1 0.012224 -0.003453 -0.002310 0.000000 -0.003805 0.000000
# 2 -0.003453 0.011733 -0.002038 0.000000 0.003116 0.000000
# 3 -0.002310 -0.002038 0.012896 0.000000 -0.006728 0.000000
# 4 0.000000 0.000000 0.000000 0.052800 0.000000 0.004164
# 5 -0.003805 0.003116 -0.006728 0.000000 0.044669 0.000000
# 6 0.000000 0.000000 0.000000 0.004164 0.000000 0.051376
#
#
# Mechanical properties :
#
#
# Convention : Reuss Voigt Hill
#
# Bulk Modulus (GPa) = 47.05988 50.17372 48.61680
# Shear Modulus (GPa) = 23.99394 26.93444 25.46419
#
# Velocity S-wave (km/s) = 3.72412 3.94573 3.83653
# Velocity P-wave (km/s) = 6.75973 7.05408 6.90847
#
# Compressibility (1/GPa) = 0.02124952
#
# Stress axis : x y z
#
# Youngs Moduli (GPa) = 81.80625 85.22995 77.54076
#
# Poissons Ratio (x) = 0.29433 0.17916
# Poissons Ratio (y) = 0.28251 0.15803
# Poissons Ratio (z) = 0.18901 0.17370
#
# Static dielectric constant tensor:
#      x y z
#    x 1.628090 0.000000 0.038950 
#    y 0.000000 1.646410 0.000000 
#    z 0.038950 0.000000 1.609950 
# 
# From -- ./inp_files/150299.got.cif
#   From: 2010.05.17/outbox.cif.g08.bks.cpg/sg12_76_cif.got.tgz:150299.got - 2010.06.03 13:09:07.
