data_PCOD9219026
_publ_section_title
;
Structure prediction by ZEFSAII (Michael W. Deem and Ramdas Pophale) SiO2 
 PCOD9219026
Probable space group: C 2/M
;
_chemical_formula_sum "Si O2"
_cell_formula_units_Z 56
_cell_length_a 11.943752
_cell_length_b 19.537336
_cell_length_c 18.814171
_cell_angle_alpha 90.000000
_cell_angle_beta 141.975209
_cell_angle_gamma 90.000000
_cell_volume 2704.416632
_symmetry_space_group_name_H-M "C 2/M"
_symmetry_group_IT_number 12
_symmetry_cell_setting 'monoclinic'
loop_
_space_group_symop_operation_xyz
x,y,z
-x,y,-z
-x,-y,-z
x,-y,z
1/2+x,1/2+y,z
1/2-x,1/2+y,-z
1/2-x,1/2-y,-z
1/2+x,1/2-y,z
loop_
_atom_site_type_symbol
_atom_site_label
_atom_site_fract_x
_atom_site_fract_y
_atom_site_fract_z
Si Si1 0.332658 0.335612 0.221394
Si Si2 0.694650 0.247732 0.590065
Si Si3 0.213219 0.191535 0.209640
Si Si4 0.820041 0.827813 0.049157
Si Si5 0.500801 0.923941 0.694136
Si Si6 0.768469 0.848864 0.513191
Si Si7 0.528050 0.919300 0.154827
O O1 0.263859 0.257320 0.188571
O O2 0.361854 0.346599 0.152414
O O3 0.520712 0.344878 0.359282
O O4 0.180041 0.382579 0.182230
O O5 0.500000 0.282627 0.500000
O O6 0.774473 0.226274 0.704970
O O7 0.667121 0.178723 0.531890
O O8 0.789518 0.297033 0.580293
O O9 0.354141 0.131348 0.262186
O O10 0.007516 0.166161 0.099858
O O11 0.750000 0.750000 0.000000
O O12 0.660727 0.879537 0.949160
O O13 0.319311 0.918498 0.555758
O O14 0.436909 0.912120 0.743405
O O15 0.580362 0.000000 0.730803
O O16 0.517171 0.000000 0.132220
#
# Coordination Sequence:
#
# PCOD9219026 Si02
#       7
#     8   8   8   8   8   8   8
#     4  12  24  40  70 102 132 171 216 274 330 388
#     4  11  19  35  63  98 129 167 203 270 334 383
#     4  12  23  40  68 100 134 164 223 276 328 384
#     4  12  26  42  68 101 131 169 224 277 325 385
#     4  11  26  45  66  94 132 178 220 267 328 398
#     4  11  22  37  64  97 134 165 209 265 331 395
#     4  11  27  48  66  92 134 178 221 269 329 393
#
# _framework density 20.706868
#
# number of rings (size 3 to 8) (size 9 to 14) (size 15 to 20)
#    0.000    0.571    5.714    3.000    0.000    4.000 
#    0.000    4.286    0.000    0.000    0.000    0.000 
#    0.000    0.000    0.000    0.000    0.000    0.000 
#
# Total GULP energy -156238.982847 kJ/mol
# GULP energy per Si atom -5579.963673 kJ/mol
# Density = 2.065974 g / cm^3
# Si number density = 20.706868 Si / 1000 Ang^3
#
#
#
# Elastic Constant Matrix: (Units=GPa)
#
#
# Indices 1 2 3 4 5 6 
#
# 1 81.1304 23.8161 28.5988 -0.0009 26.4392 -0.0002
# 2 23.8161 102.1011 30.2204 -0.0013 16.1695 -0.0004
# 3 28.5988 30.2204 66.5668 -0.0013 13.2457 -0.0005
# 4 -0.0009 -0.0013 -0.0013 22.3542 -0.0001 3.2055
# 5 26.4392 16.1695 13.2457 -0.0001 41.4379 0.0000
# 6 -0.0002 -0.0004 -0.0005 3.2055 0.0000 26.4943
#
#
#
# Elastic Compliance Matrix: (Units=1/GPa)
#
#
# Indices 1 2 3 4 5 6 
#
# 1 0.017419 -0.001098 -0.005189 0.000000 -0.009027 0.000000
# 2 -0.001098 0.011735 -0.004361 0.000000 -0.002484 0.000000
# 3 -0.005189 -0.004361 0.019473 0.000001 -0.001212 0.000000
# 4 0.000000 0.000000 0.000001 0.045524 0.000000 -0.005508
# 5 -0.009027 -0.002484 -0.001212 0.000000 0.031249 0.000000
# 6 0.000000 0.000000 0.000000 -0.005508 0.000000 0.038410
#
#
# Mechanical properties :
#
#
# Convention : Reuss Voigt Hill
#
# Bulk Modulus (GPa) = 36.58934 46.11877 41.35405
# Shear Modulus (GPa) = 25.74443 29.20147 27.47295
#
# Velocity S-wave (km/s) = 3.52984 3.75938 3.64642
# Velocity P-wave (km/s) = 5.85846 6.41595 6.14353
#
# Compressibility (1/GPa) = 0.02733037
#
# Stress axis : x y z
#
# Youngs Moduli (GPa) = 57.40844 85.21787 51.35307
#
# Poissons Ratio (x) = 0.09354 0.26648
# Poissons Ratio (y) = 0.06302 0.22397
# Poissons Ratio (z) = 0.29790 0.37167
#
# Static dielectric constant tensor:
#      x y z
#    x 1.770510 0.000000 -0.004290 
#    y 0.000000 1.745400 0.000000 
#    z -0.004290 0.000000 1.794220 
# 
# From -- ./inp_files/264297.got.cif
#   From: 2010.05.17/outbox.cif.g08.bks.cpg/sg12_133_cif.got.tgz:264297.got - 2010.06.03 13:09:07.
