data_PCOD9219196
_publ_section_title
;
Structure prediction by ZEFSAII (Michael W. Deem and Ramdas Pophale) SiO2 
 PCOD9219196
Probable space group: C 2/M
;
_chemical_formula_sum "Si O2"
_cell_formula_units_Z 50
_cell_length_a 19.739759
_cell_length_b 7.402244
_cell_length_c 23.543129
_cell_angle_alpha 90.000000
_cell_angle_beta 143.144110
_cell_angle_gamma 90.000000
_cell_volume 2063.379309
_symmetry_space_group_name_H-M "C 2/M"
_symmetry_group_IT_number 12
_symmetry_cell_setting 'monoclinic'
loop_
_space_group_symop_operation_xyz
x,y,z
-x,y,-z
-x,-y,-z
x,-y,z
1/2+x,1/2+y,z
1/2-x,1/2+y,-z
1/2-x,1/2-y,-z
1/2+x,1/2-y,z
loop_
_atom_site_type_symbol
_atom_site_label
_atom_site_fract_x
_atom_site_fract_y
_atom_site_fract_z
Si Si1 0.414562 0.296123 0.763282
Si Si2 0.239174 0.707843 0.236686
Si Si3 0.649090 0.782307 0.056174
Si Si4 0.223767 0.214320 0.547863
Si Si5 0.024796 0.780277 0.632812
Si Si6 0.500000 0.500000 0.000000
Si Si7 0.107194 0.219151 0.814942
O O1 0.440477 0.500000 0.796890
O O2 0.345757 0.213360 0.768787
O O3 0.322562 0.298084 0.651075
O O4 0.528089 0.213170 0.812777
O O5 0.254688 0.500000 0.230604
O O6 0.191097 0.788467 0.146720
O O7 0.366629 0.774972 0.331731
O O8 0.759467 0.739780 0.092455
O O9 0.627227 0.000000 0.039640
O O10 0.539697 0.659971 0.979804
O O11 0.250000 0.250000 0.500000
O O12 0.096014 0.283003 0.470443
O O13 0.227356 0.000000 0.562171
O O14 0.055147 0.725786 0.718390
O O15 0.014773 0.000000 0.626651
O O16 0.100349 0.000000 0.810012
#
# Coordination Sequence:
#
# PCOD9219196 Si02
#       7
#     8   8   8   8   8   2   8
#     4  11  21  33  53  79 112 150 192 233 285 336
#     4   9  19  37  56  79 107 149 191 229 281 337
#     4   9  20  39  63  90 119 147 183 230 279 342
#     4  11  20  32  49  75 107 146 195 247 289 324
#     4   8  15  31  53  69 102 147 193 235 279 332
#     4  12  22  36  68 102 116 138 182 228 292 342
#     4   8  15  33  55  78 106 149 190 224 273 334
#
# _framework density 24.232094
#
# number of rings (size 3 to 8) (size 9 to 14) (size 15 to 20)
#    0.000    2.560    1.600    3.120    1.120    0.640 
#    2.880    4.800    0.000    0.960    0.000    0.000 
#    0.000    0.000    0.000    0.000    0.000    0.000 
#
# Total GULP energy -139278.677822 kJ/mol
# GULP energy per Si atom -5571.147113 kJ/mol
# Density = 2.417694 g / cm^3
# Si number density = 24.232094 Si / 1000 Ang^3
#
#
#
# Elastic Constant Matrix: (Units=GPa)
#
#
# Indices 1 2 3 4 5 6 
#
# 1 135.1530 7.1772 37.0670 -0.0001 49.4069 0.0001
# 2 7.1772 105.6898 9.4688 -0.0002 15.0666 0.0003
# 3 37.0670 9.4688 76.7163 0.0000 35.6020 0.0001
# 4 -0.0001 -0.0002 0.0000 -22.1412 0.0000 9.2846
# 5 49.4069 15.0666 35.6020 0.0000 50.5329 0.0000
# 6 0.0001 0.0003 0.0001 9.2846 0.0000 17.0456
#
#
#
# Elastic Compliance Matrix: (Units=1/GPa)
#
#
# Indices 1 2 3 4 5 6 
#
# 1 0.011602 0.000860 -0.000488 0.000000 -0.011256 0.000000
# 2 0.000860 0.009948 0.000183 0.000000 -0.003936 0.000000
# 3 -0.000488 0.000183 0.019393 0.000000 -0.013240 0.000000
# 4 0.000000 0.000000 0.000000 -0.036767 0.000000 0.020027
# 5 -0.011256 -0.003936 -0.013240 0.000000 0.041296 0.000000
# 6 0.000000 0.000000 0.000000 0.020027 0.000000 0.047758
#
#
# Mechanical properties :
#
#
# Convention : Reuss Voigt Hill
#
# Bulk Modulus (GPa) = 23.77935 47.22057 35.49996
# Shear Modulus (GPa) = 47.10910 26.67720 36.89315
#
# Velocity S-wave (km/s) = 4.41395 3.32159 3.90614
# Velocity P-wave (km/s) = 5.98430 5.85147 5.91825
#
# Compressibility (1/GPa) = 0.04205330
#
# Stress axis : x y z
#
# Youngs Moduli (GPa) = 86.19171 100.52312 51.56590
#
# Poissons Ratio (x) = -0.08650 0.02518
# Poissons Ratio (y) = -0.07417 -0.00945
# Poissons Ratio (z) = 0.04209 -0.01841
#
# Static dielectric constant tensor:
#      x y z
#    x 1.960740 0.000000 0.058090 
#    y 0.000000 1.925280 0.000000 
#    z 0.058090 0.000000 2.115490 
# 
# From -- ./inp_files/362822.got.cif
#   From: 2010.05.17/outbox.cif.g08.bks.cpg/sg12_182_cif.got.tgz:362822.got - 2010.06.03 13:09:07.
