data_PCOD9219754
_publ_section_title
;
Structure prediction by ZEFSAII (Michael W. Deem and Ramdas Pophale) SiO2 
 PCOD9219754
Probable space group: C 2/M
;
_chemical_formula_sum "Si O2"
_cell_formula_units_Z 56
_cell_length_a 23.332030
_cell_length_b 8.303551
_cell_length_c 18.886591
_cell_angle_alpha 90.000000
_cell_angle_beta 123.915565
_cell_angle_gamma 90.000000
_cell_volume 3036.513223
_symmetry_space_group_name_H-M "C 2/M"
_symmetry_group_IT_number 12
_symmetry_cell_setting 'monoclinic'
loop_
_space_group_symop_operation_xyz
x,y,z
-x,y,-z
-x,-y,-z
x,-y,z
1/2+x,1/2+y,z
1/2-x,1/2+y,-z
1/2-x,1/2-y,-z
1/2+x,1/2-y,z
loop_
_atom_site_type_symbol
_atom_site_label
_atom_site_fract_x
_atom_site_fract_y
_atom_site_fract_z
Si Si1 0.958862 0.190492 0.401084
Si Si2 0.945469 0.804018 0.795483
Si Si3 0.194296 0.690173 0.680641
Si Si4 0.203372 0.187146 0.532075
Si Si5 0.664093 0.697121 0.159132
Si Si6 0.066536 0.686829 0.372164
Si Si7 0.557588 0.312603 0.977068
O O1 0.878247 0.225143 0.354852
O O2 0.000000 0.244159 0.500000
O O3 0.993513 0.278821 0.358785
O O4 0.969867 0.000000 0.400463
O O5 0.883675 0.758665 0.806496
O O6 0.934606 0.736280 0.710343
O O7 0.946855 0.000000 0.793438
O O8 0.017111 0.745832 0.881387
O O9 0.184941 0.500000 0.685154
O O10 0.214916 0.719653 0.613139
O O11 0.257832 0.748201 0.772859
O O12 0.250000 0.250000 0.500000
O O13 0.124312 0.212084 0.453660
O O14 0.217471 0.000000 0.554091
O O15 0.663255 0.500000 0.156337
O O16 0.625680 0.756649 0.061517
O O17 0.085078 0.500000 0.392138
O O18 0.572281 0.500000 0.970997
O O19 0.500000 0.311818 0.000000
#
# Coordination Sequence:
#
# PCOD9219754 Si02
#       7
#     8   8   8   8   8   8   8
#     4  11  23  40  59  75  97 136 184 231 269 315
#     4   9  16  30  54  81 111 144 177 213 256 313
#     4  11  21  34  55  81 109 140 175 221 269 318
#     4  12  24  38  54  77 109 143 177 214 261 316
#     4   8  15  28  50  82 113 140 173 212 258 312
#     4  12  24  37  55  78 106 139 177 223 270 320
#     4   7  11  23  47  78 108 140 176 210 248 305
#
# _framework density 18.442205999999999
#
# number of rings (size 3 to 8) (size 9 to 14) (size 15 to 20)
#    0.000    2.000    1.429    6.000    0.000    1.714 
#    0.000    0.714    0.000    6.429    0.000    0.000 
#    0.000    0.000    0.000    0.000    0.000    0.000 
#
# Total GULP energy -156244.004947 kJ/mol
# GULP energy per Si atom -5580.143034 kJ/mol
# Density = 1.840023 g / cm^3
# Si number density = 18.442206 Si / 1000 Ang^3
#
#
#
# Elastic Constant Matrix: (Units=GPa)
#
#
# Indices 1 2 3 4 5 6 
#
# 1 54.5271 -0.2016 2.8801 0.0000 21.1083 0.0000
# 2 -0.2016 27.8103 -1.6443 0.0000 -1.1164 0.0000
# 3 2.8801 -1.6443 74.8324 0.0000 33.2624 0.0000
# 4 0.0000 0.0000 0.0000 11.9617 0.0000 -4.6565
# 5 21.1083 -1.1164 33.2624 0.0000 27.7955 0.0000
# 6 0.0000 0.0000 0.0000 -4.6565 0.0000 21.1369
#
#
#
# Elastic Compliance Matrix: (Units=1/GPa)
#
#
# Indices 1 2 3 4 5 6 
#
# 1 0.041338 -0.000669 0.026405 0.000000 -0.063018 0.000000
# 2 -0.000669 0.036030 -0.000110 0.000000 0.002087 0.000000
# 3 0.026405 -0.000110 0.045419 0.000000 -0.074409 0.000000
# 4 0.000000 0.000000 0.000000 0.091442 0.000000 0.020145
# 5 -0.063018 0.002087 -0.074409 0.000000 0.172961 0.000000
# 6 0.000000 0.000000 0.000000 0.020145 0.000000 0.051748
#
#
# Mechanical properties :
#
#
# Convention : Reuss Voigt Hill
#
# Bulk Modulus (GPa) = 5.74583 17.69314 11.71948
# Shear Modulus (GPa) = 11.21835 22.58786 16.90310
#
# Velocity S-wave (km/s) = 2.46904 3.50350 3.03073
# Velocity P-wave (km/s) = 3.35419 5.09712 4.31458
#
# Compressibility (1/GPa) = 0.17403935
#
# Stress axis : x y z
#
# Youngs Moduli (GPa) = 24.19105 27.75446 22.01744
#
# Poissons Ratio (x) = 0.01856 -0.58138
# Poissons Ratio (y) = 0.01618 0.00242
# Poissons Ratio (z) = -0.63877 0.00306
#
# Static dielectric constant tensor:
#      x y z
#    x 1.621520 0.000000 0.029960 
#    y 0.000000 1.629010 0.000000 
#    z 0.029960 0.000000 1.657070 
# 
# From -- ./inp_files/281683.got.cif
#   From: 2010.05.17/outbox.cif.g08.bks.cpg/sg12_141_cif.got.tgz:281683.got - 2010.06.03 13:09:07.
