data_PCOD9219149
_publ_section_title
;
Structure prediction by ZEFSAII (Michael W. Deem and Ramdas Pophale) SiO2 
 PCOD9219149
Probable space group: C 2/M
;
_chemical_formula_sum "Si O2"
_cell_formula_units_Z 48
_cell_length_a 14.839326
_cell_length_b 28.656908
_cell_length_c 16.495693
_cell_angle_alpha 90.000000
_cell_angle_beta 154.081945
_cell_angle_gamma 90.000000
_cell_volume 3066.056872
_symmetry_space_group_name_H-M "C 2/M"
_symmetry_group_IT_number 12
_symmetry_cell_setting 'monoclinic'
loop_
_space_group_symop_operation_xyz
x,y,z
-x,y,-z
-x,-y,-z
x,-y,z
1/2+x,1/2+y,z
1/2-x,1/2+y,-z
1/2-x,1/2-y,-z
1/2+x,1/2-y,z
loop_
_atom_site_type_symbol
_atom_site_label
_atom_site_fract_x
_atom_site_fract_y
_atom_site_fract_z
Si Si1 0.730390 0.148038 0.999769
Si Si2 0.175548 0.299285 0.280884
Si Si3 0.885715 0.799321 0.280498
Si Si4 0.205230 0.943776 0.705237
Si Si5 0.347210 0.944698 0.000146
Si Si6 0.396471 0.284485 0.000165
O O1 0.496466 0.166189 0.823638
O O2 0.732774 0.092167 0.999694
O O3 0.848419 0.166113 0.175813
O O4 0.825359 0.174177 0.000049
O O5 0.248759 0.312805 0.248833
O O6 0.379671 0.296534 0.500226
O O7 0.059818 0.249550 0.177470
O O8 0.794569 0.749608 0.176954
O O9 0.413144 0.933539 0.824710
O O10 0.000000 0.922844 0.500000
O O11 0.190491 0.000000 0.690270
O O12 0.235770 0.933697 0.824423
O O13 0.326503 0.000000 0.000510
O O14 0.500000 0.299991 0.000000
#
# Coordination Sequence:
#
# PCOD9219149 Si02
#       6
#     8   8   8   8   8   8
#     4  11  20  29  47  69  91 122 158 189 223 270
#     4   9  18  31  48  71  98 121 143 180 227 278
#     4   9  18  31  48  71  98 121 143 180 227 278
#     4   8  15  29  46  61  85 122 151 175 216 269
#     4   9  19  31  43  64  93 121 152 188 224 265
#     4   9  19  34  48  64  90 121 156 194 229 268
#
# _framework density 15.655287
#
# number of rings (size 3 to 8) (size 9 to 14) (size 15 to 20)
#    0.000    2.833    0.000    4.500    4.667    4.000 
#    0.000    0.000    0.000    0.500    0.000    0.000 
#    0.000    0.000    0.000   19.667    0.000    0.000 
#
# Total GULP energy -133788.035523 kJ/mol
# GULP energy per Si atom -5574.501480 kJ/mol
# Density = 1.561965 g / cm^3
# Si number density = 15.655287 Si / 1000 Ang^3
#
#
#
# Elastic Constant Matrix: (Units=GPa)
#
#
# Indices 1 2 3 4 5 6 
#
# 1 64.6392 63.6145 30.8410 -0.0001 -3.2481 -0.0001
# 2 63.6145 101.3591 24.3422 0.0000 -5.1260 0.0000
# 3 30.8410 24.3422 115.0107 -0.0001 10.9489 -0.0001
# 4 -0.0001 0.0000 -0.0001 3.4937 -0.0001 -3.1868
# 5 -3.2481 -5.1260 10.9489 -0.0001 5.7560 -0.0001
# 6 -0.0001 0.0000 -0.0001 -3.1868 -0.0001 26.5336
#
#
#
# Elastic Compliance Matrix: (Units=1/GPa)
#
#
# Indices 1 2 3 4 5 6 
#
# 1 0.045998 -0.025774 -0.008750 0.000002 0.019647 0.000000
# 2 -0.025774 0.026283 0.000617 0.000000 0.007689 0.000000
# 3 -0.008750 0.000617 0.013834 -0.000001 -0.030702 0.000000
# 4 0.000002 0.000000 -0.000001 0.321445 0.000011 0.038607
# 5 0.019647 0.007689 -0.030702 0.000011 0.250066 0.000002
# 6 0.000000 0.000000 0.000000 0.038607 0.000002 0.042325
#
#
# Mechanical properties :
#
#
# Convention : Reuss Voigt Hill
#
# Bulk Modulus (GPa) = 54.64572 57.62273 56.13422
# Shear Modulus (GPa) = 6.46107 17.97074 12.21591
#
# Velocity S-wave (km/s) = 2.03373 3.39175 2.79643
# Velocity P-wave (km/s) = 6.36366 7.22674 6.80888
#
# Compressibility (1/GPa) = 0.01829969
#
# Stress axis : x y z
#
# Youngs Moduli (GPa) = 21.74006 38.04764 72.28825
#
# Poissons Ratio (x) = 0.98064 0.63252
# Poissons Ratio (y) = 0.56033 -0.04458
# Poissons Ratio (z) = 0.19023 -0.02346
#
# Static dielectric constant tensor:
#      x y z
#    x 1.504340 0.000000 0.006290 
#    y 0.000000 1.536490 0.000000 
#    z 0.006290 0.000000 1.549140 
# 
# From -- ./inp_files/218969.got.cif
#   From: 2010.05.17/outbox.cif.g08.bks.cpg/sg12_110_cif.got.tgz:218969.got - 2010.06.03 13:09:07.
