data_PCOD9219047
_publ_section_title
;
Structure prediction by ZEFSAII (Michael W. Deem and Ramdas Pophale) SiO2 
 PCOD9219047
Probable space group: C 2/M
;
_chemical_formula_sum "Si O2"
_cell_formula_units_Z 40
_cell_length_a 14.539222
_cell_length_b 25.935032
_cell_length_c 9.312155
_cell_angle_alpha 90.000000
_cell_angle_beta 30.375178
_cell_angle_gamma 90.000000
_cell_volume 1775.565912
_symmetry_space_group_name_H-M "C 2/M"
_symmetry_group_IT_number 12
_symmetry_cell_setting 'monoclinic'
loop_
_space_group_symop_operation_xyz
x,y,z
-x,y,-z
-x,-y,-z
x,-y,z
1/2+x,1/2+y,z
1/2-x,1/2+y,-z
1/2-x,1/2-y,-z
1/2+x,1/2-y,z
loop_
_atom_site_type_symbol
_atom_site_label
_atom_site_fract_x
_atom_site_fract_y
_atom_site_fract_z
Si Si1 0.696269 0.358801 0.741566
Si Si2 0.945031 0.555450 0.326493
Si Si3 0.781153 0.334388 0.309556
Si Si4 0.721598 0.442844 0.324762
Si Si5 0.291009 0.765655 0.784464
O O1 0.859695 0.399350 0.534830
O O2 0.740632 0.329713 0.532560
O O3 0.681559 0.315390 0.881113
O O4 0.500000 0.386184 0.000000
O O5 0.920243 0.500000 0.430279
O O6 0.148325 0.559109 0.990676
O O7 0.830955 0.555360 0.329553
O O8 0.742263 0.282870 0.274424
O O9 0.659127 0.383177 0.418892
O O10 0.000000 0.345576 0.000000
O O11 0.629136 0.500000 0.445814
O O12 0.500000 0.781245 0.500000
O O13 0.250000 0.750000 0.000000
#
# Coordination Sequence:
#
# PCOD9219047 Si02
#       5
#     8   8   8   8   8
#     4  11  21  36  57  83 112 143 184 229 270 324
#     4   8  14  27  51  84 113 135 169 225 278 317
#     4  11  19  36  62  83 103 142 193 229 263 322
#     4   8  13  26  53  87 110 130 175 229 270 316
#     4  12  26  40  54  77 114 151 184 230 281 324
#
# _framework density 22.528030000000001
#
# number of rings (size 3 to 8) (size 9 to 14) (size 15 to 20)
#    0.000    2.000    4.000    4.800    0.000    0.400 
#    0.000    0.000    0.000    2.400    0.000    0.000 
#    0.000    0.000    0.000    0.000    0.000    0.000 
#
# Total GULP energy -111442.051237 kJ/mol
# GULP energy per Si atom -5572.102562 kJ/mol
# Density = 2.247676 g / cm^3
# Si number density = 22.528030 Si / 1000 Ang^3
#
#
#
# Elastic Constant Matrix: (Units=GPa)
#
#
# Indices 1 2 3 4 5 6 
#
# 1 35.4255 10.3104 4.1204 0.0015 4.0728 -0.0027
# 2 10.3104 144.6646 -11.7348 -0.0002 17.8322 0.0004
# 3 4.1204 -11.7348 67.1838 0.0008 15.1708 -0.0015
# 4 0.0015 -0.0002 0.0008 -2.2878 -0.0012 39.4980
# 5 4.0728 17.8322 15.1708 -0.0012 21.4185 0.0022
# 6 -0.0027 0.0004 -0.0015 39.4980 0.0022 -81.8378
#
#
#
# Elastic Compliance Matrix: (Units=1/GPa)
#
#
# Indices 1 2 3 4 5 6 
#
# 1 0.029275 -0.001829 -0.001430 0.000000 -0.003031 -0.000001
# 2 -0.001829 0.008497 0.003708 0.000000 -0.009353 0.000000
# 3 -0.001430 0.003708 0.019351 0.000000 -0.016521 -0.000001
# 4 0.000000 0.000000 0.000000 0.059611 0.000001 0.028771
# 5 -0.003031 -0.009353 -0.016521 0.000001 0.066754 0.000003
# 6 -0.000001 0.000000 -0.000001 0.028771 0.000003 0.001666
#
#
# Mechanical properties :
#
#
# Convention : Reuss Voigt Hill
#
# Bulk Modulus (GPa) = 17.23541 28.07400 22.65470
# Shear Modulus (GPa) = 24.55841 3.76378 14.16110
#
# Velocity S-wave (km/s) = 3.30529 1.29396 2.50991
# Velocity P-wave (km/s) = 4.71528 3.83684 4.29856
#
# Compressibility (1/GPa) = 0.05802009
#
# Stress axis : x y z
#
# Youngs Moduli (GPa) = 34.15840 117.69496 51.67780
#
# Poissons Ratio (x) = 0.21525 0.07392
# Poissons Ratio (y) = 0.06247 -0.19163
# Poissons Ratio (z) = 0.04886 -0.43643
#
# Static dielectric constant tensor:
#      x y z
#    x 1.901460 0.000000 -0.053970 
#    y 0.000000 1.913190 0.000000 
#    z -0.053970 0.000000 1.819820 
# 
# From -- ./inp_files/79770.got.cif
#   From: 2010.05.17/outbox.cif.g08.bks.cpg/sg12_40_cif.got.tgz:79770.got - 2010.06.03 13:09:07.
