data_PCOD9219676
_publ_section_title
;
Structure prediction by ZEFSAII (Michael W. Deem and Ramdas Pophale) SiO2 
 PCOD9219676
Probable space group: C 2/M
;
_chemical_formula_sum "Si O2"
_cell_formula_units_Z 48
_cell_length_a 34.079266
_cell_length_b 8.580891
_cell_length_c 22.734660
_cell_angle_alpha 90.000000
_cell_angle_beta 155.937717
_cell_angle_gamma 90.000000
_cell_volume 2710.710761
_symmetry_space_group_name_H-M "C 2/M"
_symmetry_group_IT_number 12
_symmetry_cell_setting 'monoclinic'
loop_
_space_group_symop_operation_xyz
x,y,z
-x,y,-z
-x,-y,-z
x,-y,z
1/2+x,1/2+y,z
1/2-x,1/2+y,-z
1/2-x,1/2-y,-z
1/2+x,1/2-y,z
loop_
_atom_site_type_symbol
_atom_site_label
_atom_site_fract_x
_atom_site_fract_y
_atom_site_fract_z
Si Si1 0.558959 0.812728 0.896348
Si Si2 0.784592 0.812374 0.197795
Si Si3 0.653114 0.815234 0.837408
Si Si4 0.472510 0.686445 0.662377
Si Si5 0.571098 0.190372 0.046097
Si Si6 0.709185 0.689831 0.659751
O O1 0.491356 0.741569 0.754424
O O2 0.551897 0.000000 0.884124
O O3 0.670856 0.774024 0.035745
O O4 0.540041 0.763126 0.937659
O O5 0.842630 0.733427 0.224981
O O6 0.812932 0.766027 0.302876
O O7 0.793676 0.000000 0.205128
O O8 0.560845 0.746579 0.743916
O O9 0.652730 0.000000 0.843260
O O10 0.750000 0.750000 0.000000
O O11 0.472859 0.500000 0.661458
O O12 0.372685 0.742851 0.497022
O O13 0.682070 0.239930 0.206251
O O14 0.571039 0.000000 0.046531
O O15 0.500000 0.243850 0.000000
O O16 0.710293 0.500000 0.660785
#
# Coordination Sequence:
#
# PCOD9219676 Si02
#       6
#     8   8   8   8   8   8
#     4   9  17  30  51  76 101 131 171 214 254 299
#     4   9  17  33  53  71  97 135 178 215 247 291
#     4  12  23  34  50  74 102 133 176 216 253 300
#     4  11  21  33  50  73 105 140 172 209 255 303
#     4   8  14  29  55  81 101 128 172 216 249 297
#     4   8  17  32  50  74 103 137 173 209 253 303
#
# _framework density 17.707533000000002
#
# number of rings (size 3 to 8) (size 9 to 14) (size 15 to 20)
#    0.000    2.500    1.667    4.000    0.000    0.667 
#    0.000    5.833    0.000    2.500    0.000    0.000 
#    0.000    0.000    0.000    0.000    0.000    0.000 
#
# Total GULP energy -133871.489607 kJ/mol
# GULP energy per Si atom -5577.978734 kJ/mol
# Density = 1.766723 g / cm^3
# Si number density = 17.707533 Si / 1000 Ang^3
#
#
#
# Elastic Constant Matrix: (Units=GPa)
#
#
# Indices 1 2 3 4 5 6 
#
# 1 150.6597 22.0655 84.3280 0.0000 -11.0634 0.0000
# 2 22.0655 21.0686 28.8312 0.0000 -5.8868 0.0000
# 3 84.3280 28.8312 163.1151 0.0000 -20.3524 0.0000
# 4 0.0000 0.0000 0.0000 21.7743 0.0000 -6.7670
# 5 -11.0634 -5.8868 -20.3524 0.0000 18.3217 0.0000
# 6 0.0000 0.0000 0.0000 -6.7670 0.0000 16.6567
#
#
#
# Elastic Compliance Matrix: (Units=1/GPa)
#
#
# Indices 1 2 3 4 5 6 
#
# 1 0.009630 -0.004360 -0.004246 0.000000 -0.000302 0.000000
# 2 -0.004360 0.065911 -0.008221 0.000000 0.009412 0.000000
# 3 -0.004246 -0.008221 0.010598 0.000000 0.006568 0.000000
# 4 0.000000 0.000000 0.000000 0.052562 0.000000 0.021354
# 5 -0.000302 0.009412 0.006568 0.000000 0.064717 0.000000
# 6 0.000000 0.000000 0.000000 0.021354 0.000000 0.068711
#
#
# Mechanical properties :
#
#
# Convention : Reuss Voigt Hill
#
# Bulk Modulus (GPa) = 19.05320 67.25474 43.15397
# Shear Modulus (GPa) = 15.46647 24.65847 20.06247
#
# Velocity S-wave (km/s) = 2.95861 3.73572 3.36964
# Velocity P-wave (km/s) = 4.73861 7.52800 6.28988
#
# Compressibility (1/GPa) = 0.05248461
#
# Stress axis : x y z
#
# Youngs Moduli (GPa) = 103.83843 15.17194 94.35546
#
# Poissons Ratio (x) = 0.06616 0.40061
# Poissons Ratio (y) = 0.45278 0.77573
# Poissons Ratio (z) = 0.44087 0.12473
#
# Static dielectric constant tensor:
#      x y z
#    x 1.597630 0.000000 -0.013540 
#    y 0.000000 1.607300 0.000000 
#    z -0.013540 0.000000 1.608700 
# 
# From -- ./inp_files/295903.got.cif
#   From: 2010.05.17/outbox.cif.g08.bks.cpg/sg12_148_cif.got.tgz:295903.got - 2010.06.03 13:09:07.
