data_PCOD9219795
_publ_section_title
;
Structure prediction by ZEFSAII (Michael W. Deem and Ramdas Pophale) SiO2 
 PCOD9219795
Probable space group: C 2/M
;
_chemical_formula_sum "Si O2"
_cell_formula_units_Z 56
_cell_length_a 20.541484
_cell_length_b 7.965288
_cell_length_c 22.239080
_cell_angle_alpha 90.000000
_cell_angle_beta 141.764735
_cell_angle_gamma 90.000000
_cell_volume 2251.982237
_symmetry_space_group_name_H-M "C 2/M"
_symmetry_group_IT_number 12
_symmetry_cell_setting 'monoclinic'
loop_
_space_group_symop_operation_xyz
x,y,z
-x,y,-z
-x,-y,-z
x,-y,z
1/2+x,1/2+y,z
1/2-x,1/2+y,-z
1/2-x,1/2-y,-z
1/2+x,1/2-y,z
loop_
_atom_site_type_symbol
_atom_site_label
_atom_site_fract_x
_atom_site_fract_y
_atom_site_fract_z
Si Si1 0.412883 0.798908 0.581908
Si Si2 0.269777 0.692082 0.376542
Si Si3 0.559254 0.694231 0.166044
Si Si4 0.840564 0.795207 0.878462
Si Si5 0.968733 0.200163 0.220893
Si Si6 0.244189 0.805909 0.064186
Si Si7 0.616457 0.798151 0.653653
O O1 0.312048 0.733203 0.473169
O O2 0.434589 0.738678 0.665140
O O3 0.515215 0.741257 0.617466
O O4 0.410075 0.000000 0.579761
O O5 0.234919 0.500000 0.347858
O O6 0.173957 0.801829 0.281584
O O7 0.365395 0.722781 0.399137
O O8 0.528172 0.500000 0.135316
O O9 0.577884 0.766858 0.112977
O O10 0.486687 0.766754 0.166116
O O11 0.833676 0.731262 0.941932
O O12 0.724964 0.759732 0.767311
O O13 0.851820 0.000000 0.887853
O O14 0.864417 0.281452 0.172611
O O15 0.953799 0.000000 0.207077
O O16 0.218905 0.000000 0.043976
O O17 0.250000 0.750000 0.000000
O O18 0.608930 0.000000 0.641767
#
# Coordination Sequence:
#
# PCOD9219795 Si02
#       7
#     8   8   8   8   8   8   8
#     4  11  21  35  55  78 113 160 201 238 286 349
#     4  11  22  33  50  82 117 152 197 251 294 329
#     4   9  20  40  61  81 113 159 202 235 281 351
#     4   8  15  34  61  84 108 148 197 231 272 342
#     4  11  23  39  61  89 118 148 190 247 298 342
#     4  11  22  40  65  93 120 149 187 234 289 353
#     4   9  17  33  54  77 108 153 200 236 283 348
#
# _framework density 24.866980000000002
#
# number of rings (size 3 to 8) (size 9 to 14) (size 15 to 20)
#    0.000    2.000    1.429    3.857    0.000    4.571 
#    0.000    1.429    0.000    4.286    0.000    0.000 
#    0.000    0.000    0.000    0.000    0.000    0.000 
#
# Total GULP energy -156568.238794 kJ/mol
# GULP energy per Si atom -5591.722814 kJ/mol
# Density = 2.481038 g / cm^3
# Si number density = 24.866980 Si / 1000 Ang^3
#
#
#
# Elastic Constant Matrix: (Units=GPa)
#
#
# Indices 1 2 3 4 5 6 
#
# 1 175.0214 4.8460 52.9296 0.0000 -26.6039 0.0000
# 2 4.8460 42.3015 7.7204 0.0000 -2.3218 0.0000
# 3 52.9296 7.7204 121.4925 0.0000 -28.2128 0.0000
# 4 0.0000 0.0000 0.0000 20.0930 0.0000 -9.4141
# 5 -26.6039 -2.3218 -28.2128 0.0000 55.0801 0.0000
# 6 0.0000 0.0000 0.0000 -9.4141 0.0000 14.4511
#
#
#
# Elastic Compliance Matrix: (Units=1/GPa)
#
#
# Indices 1 2 3 4 5 6 
#
# 1 0.006771 -0.000215 -0.002473 0.000000 0.001995 0.000000
# 2 -0.000215 0.023927 -0.001381 0.000000 0.000197 0.000000
# 3 -0.002473 -0.001381 0.010334 0.000000 0.004041 0.000000
# 4 0.000000 0.000000 0.000000 0.071632 0.000000 0.046665
# 5 0.001995 0.000197 0.004041 0.000000 0.021197 0.000000
# 6 0.000000 0.000000 0.000000 0.046665 0.000000 0.099598
#
#
# Mechanical properties :
#
#
# Convention : Reuss Voigt Hill
#
# Bulk Modulus (GPa) = 30.39990 52.20081 41.30035
# Shear Modulus (GPa) = 19.79713 36.14614 27.97163
#
# Velocity S-wave (km/s) = 2.82462 3.81672 3.35752
# Velocity P-wave (km/s) = 4.78430 6.36087 5.62807
#
# Compressibility (1/GPa) = 0.03289484
#
# Stress axis : x y z
#
# Youngs Moduli (GPa) = 147.69864 41.79319 96.76424
#
# Poissons Ratio (x) = 0.00898 0.23928
# Poissons Ratio (y) = 0.03173 0.13364
# Poissons Ratio (z) = 0.36524 0.05772
#
# Static dielectric constant tensor:
#      x y z
#    x 2.058040 0.000000 0.015610 
#    y 0.000000 1.892050 0.000000 
#    z 0.015610 0.000000 2.025800 
# 
# From -- ./inp_files/320223.got.cif
#   From: 2010.05.17/outbox.cif.g08.bks.cpg/sg12_161_cif.got.tgz:320223.got - 2010.06.03 13:09:07.
