data_PCOD9219255
_publ_section_title
;
Structure prediction by ZEFSAII (Michael W. Deem and Ramdas Pophale) SiO2 
 PCOD9219255
Probable space group: C 2/M
;
_chemical_formula_sum "Si O2"
_cell_formula_units_Z 44
_cell_length_a 20.673245
_cell_length_b 9.960978
_cell_length_c 13.254554
_cell_angle_alpha 90.000000
_cell_angle_beta 56.458463
_cell_angle_gamma 90.000000
_cell_volume 2274.960108
_symmetry_space_group_name_H-M "C 2/M"
_symmetry_group_IT_number 12
_symmetry_cell_setting 'monoclinic'
loop_
_space_group_symop_operation_xyz
x,y,z
-x,y,-z
-x,-y,-z
x,-y,z
1/2+x,1/2+y,z
1/2-x,1/2+y,-z
1/2-x,1/2-y,-z
1/2+x,1/2-y,z
loop_
_atom_site_type_symbol
_atom_site_label
_atom_site_fract_x
_atom_site_fract_y
_atom_site_fract_z
Si Si1 0.744858 0.263158 0.835539
Si Si2 0.794416 0.500000 0.665920
Si Si3 0.568832 0.500000 0.523801
Si Si4 0.855789 0.500000 0.382990
Si Si5 0.528173 0.759277 0.694144
Si Si6 0.952064 0.500000 0.641594
Si Si7 0.743690 0.500000 0.295781
Si Si8 0.368540 0.341284 0.887295
O O1 0.750180 0.368021 0.739066
O O2 0.730045 0.124955 0.792899
O O3 0.822405 0.236654 0.837134
O O4 0.679746 0.308950 0.970513
O O5 0.826677 0.500000 0.524725
O O6 0.864399 0.500000 0.685474
O O7 0.500000 0.500000 0.500000
O O8 0.560794 0.635282 0.599106
O O9 0.651137 0.500000 0.395624
O O10 0.905523 0.361984 0.323021
O O11 0.784410 0.500000 0.368912
O O12 0.478468 0.865825 0.672947
O O13 0.459086 0.697651 0.821601
O O14 0.000000 0.500000 0.500000
O O15 0.363900 0.500000 0.868485
#
# Coordination Sequence:
#
# PCOD9219255 Si02
#       8
#     8   4   4   4   8   4   4   8
#     4  11  24  38  67  96 133 171 205 271 331 392
#     4  12  21  38  62  96 131 176 217 258 323 388
#     4  12  24  36  68 101 130 166 204 273 335 383
#     4  11  28  45  64  90 128 186 224 256 311 393
#     4  11  22  38  63  95 131 169 216 267 323 381
#     4  11  20  33  56  95 138 166 210 268 324 380
#     4  12  27  47  63  93 135 173 219 263 322 388
#     4  11  21  40  65 102 132 161 209 272 340 387
#
# _framework density 19.340999
#
# number of rings (size 3 to 8) (size 9 to 14) (size 15 to 20)
#    0.000    0.727    6.364    2.727    0.000    4.364 
#    0.000    1.818    0.000    1.091    0.000    0.000 
#    0.000    0.000    0.000    0.000    0.000    0.000 
#
# Total GULP energy -122650.907128 kJ/mol
# GULP energy per Si atom -5575.041233 kJ/mol
# Density = 1.929698 g / cm^3
# Si number density = 19.340999 Si / 1000 Ang^3
#
#
#
# Elastic Constant Matrix: (Units=GPa)
#
#
# Indices 1 2 3 4 5 6 
#
# 1 67.0927 5.9792 16.0731 0.0000 -0.3422 0.0000
# 2 5.9792 119.1462 27.1934 0.0000 -9.2125 0.0000
# 3 16.0731 27.1934 63.5634 0.0000 -18.3692 0.0000
# 4 0.0000 0.0000 0.0000 33.5677 0.0000 -13.8251
# 5 -0.3422 -9.2125 -18.3692 0.0000 16.3870 0.0000
# 6 0.0000 0.0000 0.0000 -13.8251 0.0000 -72.2110
#
#
#
# Elastic Compliance Matrix: (Units=1/GPa)
#
#
# Indices 1 2 3 4 5 6 
#
# 1 0.016298 0.000056 -0.005973 0.000000 -0.006323 0.000000
# 2 0.000056 0.009316 -0.003677 0.000000 0.001117 0.000000
# 3 -0.005973 -0.003677 0.026895 0.000000 0.027956 0.000000
# 4 0.000000 0.000000 0.000000 0.027613 0.000000 -0.005287
# 5 -0.006323 0.001117 0.027956 0.000000 0.092858 0.000000
# 6 0.000000 0.000000 0.000000 -0.005287 0.000000 -0.012836
#
#
# Mechanical properties :
#
#
# Convention : Reuss Voigt Hill
#
# Bulk Modulus (GPa) = 30.01014 38.69931 34.35473
# Shear Modulus (GPa) = 26.25522 8.91918 17.58720
#
# Velocity S-wave (km/s) = 3.68841 2.14978 3.01877
# Velocity P-wave (km/s) = 5.80424 5.12001 5.47283
#
# Compressibility (1/GPa) = 0.03332207
#
# Stress axis : x y z
#
# Youngs Moduli (GPa) = 61.35580 107.34476 37.18174
#
# Poissons Ratio (x) = -0.00605 0.22208
# Poissons Ratio (y) = -0.00346 0.13672
# Poissons Ratio (z) = 0.36647 0.39471
#
# Static dielectric constant tensor:
#      x y z
#    x 1.678690 0.000000 -0.034240 
#    y 0.000000 1.656480 0.000000 
#    z -0.034240 0.000000 1.686340 
# 
# From -- ./inp_files/237207.got.cif
#   From: 2010.05.17/outbox.cif.g08.bks.cpg/sg12_119_cif.got.tgz:237207.got - 2010.06.03 13:09:07.
