data_PCOD9219955
_publ_section_title
;
Structure prediction by ZEFSAII (Michael W. Deem and Ramdas Pophale) SiO2 
 PCOD9219955
Probable space group: C 2/M
;
_chemical_formula_sum "Si O2"
_cell_formula_units_Z 40
_cell_length_a 9.799016
_cell_length_b 20.785831
_cell_length_c 10.175421
_cell_angle_alpha 90.000000
_cell_angle_beta 70.437970
_cell_angle_gamma 90.000000
_cell_volume 1952.909021
_symmetry_space_group_name_H-M "C 2/M"
_symmetry_group_IT_number 12
_symmetry_cell_setting 'monoclinic'
loop_
_space_group_symop_operation_xyz
x,y,z
-x,y,-z
-x,-y,-z
x,-y,z
1/2+x,1/2+y,z
1/2-x,1/2+y,-z
1/2-x,1/2-y,-z
1/2+x,1/2-y,z
loop_
_atom_site_type_symbol
_atom_site_label
_atom_site_fract_x
_atom_site_fract_y
_atom_site_fract_z
Si Si1 0.648219 0.654435 0.515960
Si Si2 0.352783 0.795179 0.881343
Si Si3 0.779094 0.074960 0.997509
Si Si4 0.434471 0.427425 0.230569
Si Si5 0.168894 0.263006 0.711021
O O1 0.500000 0.631751 0.500000
O O2 0.667640 0.606880 0.631404
O O3 0.763682 0.670893 0.366863
O O4 0.623531 0.722045 0.597784
O O5 0.334368 0.867975 0.940815
O O6 0.284800 0.778374 0.758362
O O7 0.519711 0.775188 0.833909
O O8 0.250000 0.750000 0.000000
O O9 0.858664 0.072379 0.113395
O O10 0.735648 0.000000 0.982452
O O11 0.902582 0.097859 0.852971
O O12 0.455797 0.500000 0.267987
#
# Coordination Sequence:
#
# PCOD9219955 Si02
#       5
#     8   8   8   8   8
#     4  11  21  37  57  82 127 160 197 242 303 364
#     4  12  23  39  65  92 122 154 206 258 309 363
#     4   9  19  36  62  89 118 155 204 258 303 355
#     4   9  18  35  60  87 115 157 205 249 297 359
#     4  11  24  38  57  91 121 159 198 248 305 364
#
# _framework density 20.482265000000002
#
# number of rings (size 3 to 8) (size 9 to 14) (size 15 to 20)
#    0.000    1.600    4.000    3.000    2.800    0.400 
#    0.000    1.000    0.000    4.800    0.000    0.000 
#    0.000    0.000    0.000    0.000    0.000    0.000 
#
# Total GULP energy -111368.071164 kJ/mol
# GULP energy per Si atom -5568.403558 kJ/mol
# Density = 2.043565 g / cm^3
# Si number density = 20.482265 Si / 1000 Ang^3
#
#
#
# Elastic Constant Matrix: (Units=GPa)
#
#
# Indices 1 2 3 4 5 6 
#
# 1 42.1668 4.9316 11.2101 0.0000 -7.6886 0.0000
# 2 4.9316 66.8352 28.1368 0.0000 -12.9540 0.0000
# 3 11.2101 28.1368 89.2237 0.0000 -13.0479 0.0000
# 4 0.0000 0.0000 0.0000 34.3203 0.0000 -1.0632
# 5 -7.6886 -12.9540 -13.0479 0.0000 33.3095 0.0000
# 6 0.0000 0.0000 0.0000 -1.0632 0.0000 15.3446
#
#
#
# Elastic Compliance Matrix: (Units=1/GPa)
#
#
# Indices 1 2 3 4 5 6 
#
# 1 0.025258 0.000140 -0.002500 0.000000 0.004905 0.000000
# 2 0.000140 0.018027 -0.004956 0.000000 0.005101 0.000000
# 3 -0.002500 -0.004956 0.013491 0.000000 0.002780 0.000000
# 4 0.000000 0.000000 0.000000 0.029200 0.000000 0.002023
# 5 0.004905 0.005101 0.002780 0.000000 0.034227 0.000000
# 6 0.000000 0.000000 0.000000 0.002023 0.000000 0.065310
#
#
# Mechanical properties :
#
#
# Convention : Reuss Voigt Hill
#
# Bulk Modulus (GPa) = 23.72889 31.86474 27.79681
# Shear Modulus (GPa) = 23.34322 26.85801 25.10062
#
# Velocity S-wave (km/s) = 3.37958 3.62509 3.50448
# Velocity P-wave (km/s) = 5.18063 5.75436 5.47502
#
# Compressibility (1/GPa) = 0.04214273
#
# Stress axis : x y z
#
# Youngs Moduli (GPa) = 39.59129 55.47165 74.12077
#
# Poissons Ratio (x) = -0.00774 0.18531
# Poissons Ratio (y) = -0.00552 0.36737
# Poissons Ratio (z) = 0.09898 0.27494
#
# Static dielectric constant tensor:
#      x y z
#    x 1.778830 0.000000 0.048360 
#    y 0.000000 1.773770 0.000000 
#    z 0.048360 0.000000 1.817890 
# 
# From -- ./inp_files/132322.got.cif
#   From: 2010.05.17/outbox.cif.g08.bks.cpg/sg12_67_cif.got.tgz:132322.got - 2010.06.03 13:09:07.
