data_PCOD9219382
_publ_section_title
;
Structure prediction by ZEFSAII (Michael W. Deem and Ramdas Pophale) SiO2 
 PCOD9219382
Probable space group: C 2/M
;
_chemical_formula_sum "Si O2"
_cell_formula_units_Z 44
_cell_length_a 9.257223
_cell_length_b 17.607711
_cell_length_c 14.227539
_cell_angle_alpha 90.000000
_cell_angle_beta 105.997929
_cell_angle_gamma 90.000000
_cell_volume 2229.253976
_symmetry_space_group_name_H-M "C 2/M"
_symmetry_group_IT_number 12
_symmetry_cell_setting 'monoclinic'
loop_
_space_group_symop_operation_xyz
x,y,z
-x,y,-z
-x,-y,-z
x,-y,z
1/2+x,1/2+y,z
1/2-x,1/2+y,-z
1/2-x,1/2-y,-z
1/2+x,1/2-y,z
loop_
_atom_site_type_symbol
_atom_site_label
_atom_site_fract_x
_atom_site_fract_y
_atom_site_fract_z
Si Si1 0.780877 0.087571 0.995358
Si Si2 0.591148 0.217828 0.432991
Si Si3 0.978037 0.083202 0.217022
Si Si4 0.353926 0.704499 0.841924
Si Si5 0.688502 0.683457 0.687142
Si Si6 0.500000 0.817669 0.000000
O O1 0.812504 0.145344 0.916313
O O2 0.758469 0.000000 0.960558
O O3 0.905512 0.085216 0.099566
O O4 0.639468 0.126726 0.018325
O O5 0.500000 0.173143 0.500000
O O6 0.750000 0.250000 0.500000
O O7 0.462673 0.280956 0.386781
O O8 0.661918 0.179321 0.351622
O O9 0.855538 0.104136 0.273122
O O10 0.094373 0.151922 0.234620
O O11 0.042434 0.000000 0.243991
O O12 0.226321 0.758951 0.779085
O O13 0.478040 0.761107 0.908062
#
# Coordination Sequence:
#
# PCOD9219382 Si02
#       6
#     8   8   8   8   8   4
#     4  11  23  36  50  76 123 169 199 235 284 328
#     4   9  20  38  63  94 115 138 183 248 308 360
#     4  11  22  36  54  84 122 162 200 237 281 337
#     4  12  21  34  57  83 114 158 208 242 275 328
#     4  11  20  36  63  93 114 149 198 247 286 348
#     4  12  21  34  51  80 114 156 204 250 281 314
#
# _framework density 19.737545000000001
#
# number of rings (size 3 to 8) (size 9 to 14) (size 15 to 20)
#    0.000    1.091    5.455    2.455    0.000    1.455 
#    0.000    0.000    0.000    5.455    0.000    0.000 
#    0.000    0.000    0.000    0.000    0.000    0.000 
#
# Total GULP energy -122480.839095 kJ/mol
# GULP energy per Si atom -5567.310868 kJ/mol
# Density = 1.969262 g / cm^3
# Si number density = 19.737545 Si / 1000 Ang^3
#
#
#
# Elastic Constant Matrix: (Units=GPa)
#
#
# Indices 1 2 3 4 5 6 
#
# 1 75.0349 -2.5487 6.3125 0.0000 -8.4039 0.0000
# 2 -2.5487 43.3166 -6.2198 0.0000 25.9795 0.0000
# 3 6.3125 -6.2198 51.8462 0.0000 -2.2924 0.0000
# 4 0.0000 0.0000 0.0000 479.2144 0.0000 -285.0733
# 5 -8.4039 25.9795 -2.2924 0.0000 35.8437 0.0000
# 6 0.0000 0.0000 0.0000 -285.0733 0.0000 192.6536
#
#
#
# Elastic Compliance Matrix: (Units=1/GPa)
#
#
# Indices 1 2 3 4 5 6 
#
# 1 0.013940 -0.002345 -0.001764 0.000000 0.004855 0.000000
# 2 -0.002345 0.041915 0.003957 0.000000 -0.030676 0.000000
# 3 -0.001764 0.003957 0.019888 0.000000 -0.002010 0.000000
# 4 0.000000 0.000000 0.000000 0.017426 0.000000 0.025785
# 5 0.004855 -0.030676 -0.002010 0.000000 0.051143 0.000000
# 6 0.000000 0.000000 0.000000 0.025785 0.000000 0.043346
#
#
# Mechanical properties :
#
#
# Convention : Reuss Voigt Hill
#
# Bulk Modulus (GPa) = 13.25557 18.36507 15.81032
# Shear Modulus (GPa) = 23.46241 153.05260 88.25751
#
# Velocity S-wave (km/s) = 3.45152 8.81545 6.69422
# Velocity P-wave (km/s) = 4.75547 10.62738 8.23273
#
# Compressibility (1/GPa) = 0.07543996
#
# Stress axis : x y z
#
# Youngs Moduli (GPa) = 71.73789 23.85805 50.28043
#
# Poissons Ratio (x) = 0.05595 0.08869
# Poissons Ratio (y) = 0.16823 -0.19898
# Poissons Ratio (z) = 0.12653 -0.09442
#
# Static dielectric constant tensor:
#      x y z
#    x 1.807260 0.000000 -0.066950 
#    y 0.000000 1.680700 0.000000 
#    z -0.066950 0.000000 1.793240 
# 
# From -- ./inp_files/195425.got.cif
#   From: 2010.05.17/outbox.cif.g08.bks.cpg/sg12_98_cif.got.tgz:195425.got - 2010.06.03 13:09:07.
