data_PCOD9219989
_publ_section_title
;
Structure prediction by ZEFSAII (Michael W. Deem and Ramdas Pophale) SiO2 
 PCOD9219989
Probable space group: C 2/M
;
_chemical_formula_sum "Si O2"
_cell_formula_units_Z 48
_cell_length_a 19.808662
_cell_length_b 29.307604
_cell_length_c 8.943522
_cell_angle_alpha 90.000000
_cell_angle_beta 152.583804
_cell_angle_gamma 90.000000
_cell_volume 2390.711663
_symmetry_space_group_name_H-M "C 2/M"
_symmetry_group_IT_number 12
_symmetry_cell_setting 'monoclinic'
loop_
_space_group_symop_operation_xyz
x,y,z
-x,y,-z
-x,-y,-z
x,-y,z
1/2+x,1/2+y,z
1/2-x,1/2+y,-z
1/2-x,1/2-y,-z
1/2+x,1/2-y,z
loop_
_atom_site_type_symbol
_atom_site_label
_atom_site_fract_x
_atom_site_fract_y
_atom_site_fract_z
Si Si1 0.524595 0.389208 0.376590
Si Si2 0.162220 0.052699 0.397999
Si Si3 0.831193 0.705532 0.720800
Si Si4 0.323234 0.293924 0.288098
Si Si5 0.759150 0.374827 0.381140
Si Si6 0.620959 0.192253 0.620365
O O1 0.500000 0.403843 0.500000
O O2 0.636464 0.421072 0.503870
O O3 0.579987 0.337365 0.485773
O O4 0.374495 0.387464 0.989203
O O5 0.276413 0.079669 0.515310
O O6 0.201501 0.000000 0.495255
O O7 0.000000 0.054174 0.000000
O O8 0.750000 0.750000 0.500000
O O9 0.811479 0.704921 0.860041
O O10 0.740092 0.663470 0.471601
O O11 0.000000 0.704053 0.000000
O O12 0.401111 0.245324 0.468366
O O13 0.268678 0.301208 0.011216
O O14 0.865144 0.346304 0.478337
O O15 0.500000 0.177623 0.500000
#
# Coordination Sequence:
#
# PCOD9219989 Si02
#       6
#     8   8   8   8   8   8
#     4  11  21  37  61  91 121 158 200 250 307 366
#     4   9  20  38  62  91 119 151 198 259 321 369
#     4  12  26  38  58  89 123 167 211 250 296 359
#     4  11  23  36  55  83 126 158 205 245 290 360
#     4  11  22  38  61  84 120 162 201 253 304 363
#     4  11  23  36  53  82 118 169 201 244 291 352
#
# _framework density 20.077703
#
# number of rings (size 3 to 8) (size 9 to 14) (size 15 to 20)
#    0.000    1.167    5.000    1.500    4.667    0.333 
#    0.000    0.000    0.000    1.000    0.000    0.000 
#    0.000    0.000    0.000    0.000    0.000    0.000 
#
# Total GULP energy -133815.350422 kJ/mol
# GULP energy per Si atom -5575.639601 kJ/mol
# Density = 2.003201 g / cm^3
# Si number density = 20.077703 Si / 1000 Ang^3
#
#
#
# Elastic Constant Matrix: (Units=GPa)
#
#
# Indices 1 2 3 4 5 6 
#
# 1 150.3838 82.4761 20.9875 0.0000 -16.1705 0.0000
# 2 82.4761 150.6496 11.1432 0.0000 -8.3433 0.0000
# 3 20.9875 11.1432 38.9092 0.0000 -16.5411 0.0000
# 4 0.0000 0.0000 0.0000 16.8588 0.0000 -1.0820
# 5 -16.1705 -8.3433 -16.5411 0.0000 23.3716 0.0000
# 6 0.0000 0.0000 0.0000 -1.0820 0.0000 28.1746
#
#
#
# Elastic Compliance Matrix: (Units=1/GPa)
#
#
# Indices 1 2 3 4 5 6 
#
# 1 0.010243 -0.005228 -0.002586 0.000000 0.003390 0.000000
# 2 -0.005228 0.009487 0.000007 0.000000 -0.000226 0.000000
# 3 -0.002586 0.000007 0.037668 0.000000 0.024872 0.000000
# 4 0.000000 0.000000 0.000000 0.059463 0.000000 0.002284
# 5 0.003390 -0.000226 0.024872 0.000000 0.062655 0.000000
# 6 0.000000 0.000000 0.000000 0.002284 0.000000 0.035581
#
#
# Mechanical properties :
#
#
# Convention : Reuss Voigt Hill
#
# Bulk Modulus (GPa) = 23.93361 63.23957 43.58659
# Shear Modulus (GPa) = 20.43833 28.70338 24.57086
#
# Velocity S-wave (km/s) = 3.19401 3.78513 3.50206
# Velocity P-wave (km/s) = 5.05457 7.11820 6.17322
#
# Compressibility (1/GPa) = 0.04178224
#
# Stress axis : x y z
#
# Youngs Moduli (GPa) = 97.63160 105.40388 26.54806
#
# Poissons Ratio (x) = 0.55110 0.06866
# Poissons Ratio (y) = 0.51046 -0.00019
# Poissons Ratio (z) = 0.25251 -0.00077
#
# Static dielectric constant tensor:
#      x y z
#    x 1.781120 0.000000 -0.001060 
#    y 0.000000 1.683070 0.000000 
#    z -0.001060 0.000000 1.784380 
# 
# From -- ./inp_files/52035.got.cif
#   From: 2010.05.17/outbox.cif.g08.bks.cpg/sg12_27_cif.got.tgz:52035.got - 2010.06.03 13:09:07.
