data_PCOD9219535
_publ_section_title
;
Structure prediction by ZEFSAII (Michael W. Deem and Ramdas Pophale) SiO2 
 PCOD9219535
Probable space group: C 2/M
;
_chemical_formula_sum "Si O2"
_cell_formula_units_Z 56
_cell_length_a 9.156576
_cell_length_b 14.883544
_cell_length_c 20.353321
_cell_angle_alpha 90.000000
_cell_angle_beta 88.754357
_cell_angle_gamma 90.000000
_cell_volume 2773.141940
_symmetry_space_group_name_H-M "C 2/M"
_symmetry_group_IT_number 12
_symmetry_cell_setting 'monoclinic'
loop_
_space_group_symop_operation_xyz
x,y,z
-x,y,-z
-x,-y,-z
x,-y,z
1/2+x,1/2+y,z
1/2-x,1/2+y,-z
1/2-x,1/2-y,-z
1/2+x,1/2-y,z
loop_
_atom_site_type_symbol
_atom_site_label
_atom_site_fract_x
_atom_site_fract_y
_atom_site_fract_z
Si Si1 0.998878 0.901580 0.241027
Si Si2 0.161549 0.393036 0.785901
Si Si3 0.666212 0.347139 0.631453
Si Si4 0.161389 0.000000 0.524056
Si Si5 0.368417 0.280122 0.132331
Si Si6 0.883138 0.712925 0.954008
Si Si7 0.581727 0.000000 0.568465
Si Si8 0.499149 0.168446 0.657198
O O1 0.926989 0.899227 0.312917
O O2 0.917452 0.830203 0.196989
O O3 0.171727 0.884093 0.241268
O O4 0.979177 0.000000 0.211110
O O5 0.134562 0.500000 0.798476
O O6 0.150009 0.325480 0.848165
O O7 0.057173 0.355419 0.729408
O O8 0.687487 0.411612 0.568607
O O9 0.576031 0.255424 0.625189
O O10 0.825108 0.322466 0.658008
O O11 0.000000 0.000000 0.500000
O O12 0.253635 0.000000 0.456695
O O13 0.217471 0.321217 0.105316
O O14 0.504968 0.284067 0.080348
O O15 0.750000 0.750000 0.000000
O O16 0.000000 0.660946 0.000000
O O17 0.500000 0.000000 0.500000
O O18 0.540846 0.914746 0.611344
#
# Coordination Sequence:
#
# PCOD9219535 Si02
#       8
#     8   8   8   4   8   8   4   8
#     4  11  24  40  65  98 137 168 217 274 339 392
#     4  11  24  40  65 100 134 172 213 277 339 390
#     4  12  26  45  66 100 131 172 218 276 336 391
#     4  12  30  48  72  94 132 180 226 268 328 411
#     4  11  20  40  66  98 129 172 223 264 327 392
#     4   9  20  38  66  94 131 180 220 259 316 384
#     4  12  26  52  68  92 132 180 222 268 328 404
#     4  12  26  43  70  95 134 171 217 277 337 388
#
# _framework density 20.193702999999999
#
# number of rings (size 3 to 8) (size 9 to 14) (size 15 to 20)
#    0.000    0.857    5.714    0.857    6.000    1.143 
#    0.000    0.000    0.000   17.143    0.000    0.000 
#    0.000    0.000    0.000    0.000    0.000    0.000 
#
# Total GULP energy -156158.003522 kJ/mol
# GULP energy per Si atom -5577.071554 kJ/mol
# Density = 2.014774 g / cm^3
# Si number density = 20.193703 Si / 1000 Ang^3
#
#
#
# Elastic Constant Matrix: (Units=GPa)
#
#
# Indices 1 2 3 4 5 6 
#
# 1 139.7580 27.5500 15.4879 0.0000 5.5654 0.0000
# 2 27.5500 114.2639 17.8935 0.0000 4.0329 0.0000
# 3 15.4879 17.8935 58.8627 0.0000 0.3208 0.0000
# 4 0.0000 0.0000 0.0000 -6.3393 0.0000 -3.7885
# 5 5.5654 4.0329 0.3208 0.0000 47.0392 0.0000
# 6 0.0000 0.0000 0.0000 -3.7885 0.0000 19.9132
#
#
#
# Elastic Compliance Matrix: (Units=1/GPa)
#
#
# Indices 1 2 3 4 5 6 
#
# 1 0.007667 -0.001582 -0.001532 0.000000 -0.000761 0.000000
# 2 -0.001582 0.009543 -0.002481 0.000000 -0.000614 0.000000
# 3 -0.001532 -0.002481 0.018145 0.000000 0.000270 0.000000
# 4 0.000000 0.000000 0.000000 -0.141642 0.000000 -0.026948
# 5 -0.000761 -0.000614 0.000270 0.000000 0.021400 0.000000
# 6 0.000000 0.000000 0.000000 -0.026948 0.000000 0.045091
#
#
# Mechanical properties :
#
#
# Convention : Reuss Voigt Hill
#
# Bulk Modulus (GPa) = 41.38406 48.30527 44.84467
# Shear Modulus (GPa) = -243.31204 28.91950 -107.19627
#
# Velocity S-wave (km/s) = -10.98866 3.78842 -7.29378
# Velocity P-wave (km/s) = 11.85170 6.56575 6.97688
#
# Compressibility (1/GPa) = 0.02416389
#
# Stress axis : x y z
#
# Youngs Moduli (GPa) = 130.42635 104.78526 55.11238
#
# Poissons Ratio (x) = 0.16575 0.08445
# Poissons Ratio (y) = 0.20631 0.13676
# Poissons Ratio (z) = 0.19986 0.26002
#
# Static dielectric constant tensor:
#      x y z
#    x 1.644430 0.000000 0.071800 
#    y 0.000000 1.731650 0.000000 
#    z 0.071800 0.000000 1.727920 
# 
# From -- ./inp_files/300182.got.cif
#   From: 2010.05.17/outbox.cif.g08.bks.cpg/sg12_151_cif.got.tgz:300182.got - 2010.06.03 13:09:07.
