data_PCOD9219816
_publ_section_title
;
Structure prediction by ZEFSAII (Michael W. Deem and Ramdas Pophale) SiO2 
 PCOD9219816
Probable space group: C 2/M
;
_chemical_formula_sum "Si O2"
_cell_formula_units_Z 36
_cell_length_a 8.172590
_cell_length_b 14.247600
_cell_length_c 20.513937
_cell_angle_alpha 90.000000
_cell_angle_beta 136.563851
_cell_angle_gamma 90.000000
_cell_volume 1642.298387
_symmetry_space_group_name_H-M "C 2/M"
_symmetry_group_IT_number 12
_symmetry_cell_setting 'monoclinic'
loop_
_space_group_symop_operation_xyz
x,y,z
-x,y,-z
-x,-y,-z
x,-y,z
1/2+x,1/2+y,z
1/2-x,1/2+y,-z
1/2-x,1/2-y,-z
1/2+x,1/2-y,z
loop_
_atom_site_type_symbol
_atom_site_label
_atom_site_fract_x
_atom_site_fract_y
_atom_site_fract_z
Si Si1 0.030924 0.500000 0.404431
Si Si2 0.524035 0.688971 0.866078
Si Si3 0.431387 0.675324 0.263859
Si Si4 0.916132 0.000000 0.628093
Si Si5 0.500000 0.315547 0.000000
Si Si6 0.734115 0.811738 0.429010
O O1 0.261782 0.500000 0.518668
O O2 0.057719 0.400322 0.376987
O O3 0.793103 0.500000 0.378088
O O4 0.533292 0.637373 0.799332
O O5 0.304407 0.761868 0.800742
O O6 0.767011 0.749636 0.935393
O O7 0.501860 0.635793 0.929185
O O8 0.428448 0.591564 0.314656
O O9 0.652648 0.740710 0.349046
O O10 0.750000 0.750000 0.500000
O O11 0.000000 0.848591 0.500000
#
# Coordination Sequence:
#
# PCOD9219816 Si02
#       6
#     4   8   8   4   4   8
#     4  11  23  38  54  80 114 167 204 242 284 326
#     4   9  18  34  59  88 109 140 189 240 292 349
#     4  11  21  35  57  85 114 153 198 239 280 342
#     4  11  22  36  56  79 118 160 200 241 286 336
#     4   8  16  34  62  84 110 140 182 236 300 358
#     4  12  23  38  57  82 118 159 203 241 283 333
#
# _framework density 21.920497999999998
#
# number of rings (size 3 to 8) (size 9 to 14) (size 15 to 20)
#    0.000    1.556    2.222    4.333    0.000    0.000 
#    0.000    0.000    0.000   25.333    0.000    0.000 
#    0.000    0.000    0.000    0.000    0.000    0.000 
#
# Total GULP energy -100422.565538 kJ/mol
# GULP energy per Si atom -5579.031419 kJ/mol
# Density = 2.187061 g / cm^3
# Si number density = 21.920498 Si / 1000 Ang^3
#
#
#
# Elastic Constant Matrix: (Units=GPa)
#
#
# Indices 1 2 3 4 5 6 
#
# 1 63.7436 -10.9368 16.0661 0.0000 -0.3734 0.0000
# 2 -10.9368 62.8320 1.5253 0.0000 -2.8488 0.0000
# 3 16.0661 1.5253 96.7750 0.0000 -6.2923 0.0000
# 4 0.0000 0.0000 0.0000 5.4608 0.0000 -1.4312
# 5 -0.3734 -2.8488 -6.2923 0.0000 55.3953 0.0000
# 6 0.0000 0.0000 0.0000 -1.4312 0.0000 20.0447
#
#
#
# Elastic Compliance Matrix: (Units=1/GPa)
#
#
# Indices 1 2 3 4 5 6 
#
# 1 0.016926 0.003013 -0.002861 0.000000 -0.000056 0.000000
# 2 0.003013 0.016493 -0.000709 0.000000 0.000788 0.000000
# 3 -0.002861 -0.000709 0.010896 0.000000 0.001182 0.000000
# 4 0.000000 0.000000 0.000000 0.186614 0.000000 0.013324
# 5 -0.000056 0.000788 0.001182 0.000000 0.018226 0.000000
# 6 0.000000 0.000000 0.000000 0.013324 0.000000 0.050840
#
#
# Mechanical properties :
#
#
# Convention : Reuss Voigt Hill
#
# Bulk Modulus (GPa) = 23.14768 26.29554 24.72161
# Shear Modulus (GPa) = 15.84739 30.62655 23.23697
#
# Velocity S-wave (km/s) = 2.69169 3.74192 3.25938
# Velocity P-wave (km/s) = 4.49922 5.53997 5.04649
#
# Compressibility (1/GPa) = 0.04320088
#
# Stress axis : x y z
#
# Youngs Moduli (GPa) = 59.08218 60.63226 91.77469
#
# Poissons Ratio (x) = -0.18269 0.26257
# Poissons Ratio (y) = -0.17802 0.06506
# Poissons Ratio (z) = 0.16904 0.04298
#
# Static dielectric constant tensor:
#      x y z
#    x 1.849880 0.000000 -0.065130 
#    y 0.000000 1.782700 0.000000 
#    z -0.065130 0.000000 1.825360 
# 
# From -- ./inp_files/194073.got.cif
#   From: 2010.05.17/outbox.cif.g08.bks.cpg/sg12_98_cif.got.tgz:194073.got - 2010.06.03 13:09:07.
