data_PCOD9219299
_publ_section_title
;
Structure prediction by ZEFSAII (Michael W. Deem and Ramdas Pophale) SiO2 
 PCOD9219299
Probable space group: C 2/M
;
_chemical_formula_sum "Si O2"
_cell_formula_units_Z 44
_cell_length_a 13.176465
_cell_length_b 21.100123
_cell_length_c 7.625457
_cell_angle_alpha 90.000000
_cell_angle_beta 74.612055
_cell_angle_gamma 90.000000
_cell_volume 2044.066155
_symmetry_space_group_name_H-M "C 2/M"
_symmetry_group_IT_number 12
_symmetry_cell_setting 'monoclinic'
loop_
_space_group_symop_operation_xyz
x,y,z
-x,y,-z
-x,-y,-z
x,-y,z
1/2+x,1/2+y,z
1/2-x,1/2+y,-z
1/2-x,1/2-y,-z
1/2+x,1/2-y,z
loop_
_atom_site_type_symbol
_atom_site_label
_atom_site_fract_x
_atom_site_fract_y
_atom_site_fract_z
Si Si1 0.647483 0.362447 0.396024
Si Si2 0.000000 0.388469 0.500000
Si Si3 0.876764 0.691973 0.275888
Si Si4 0.330180 0.000000 0.600862
Si Si5 0.025253 0.170612 0.785244
Si Si6 0.377599 0.000000 0.930855
Si Si7 0.500000 0.109216 0.000000
Si Si8 0.212442 0.000000 0.305456
O O1 0.758282 0.326991 0.377369
O O2 0.580745 0.322008 0.284147
O O3 0.592136 0.370434 0.612053
O O4 0.658524 0.432150 0.303923
O O5 0.038433 0.339745 0.632540
O O6 0.098350 0.437380 0.450920
O O7 0.907715 0.764438 0.237012
O O8 0.902663 0.653464 0.087775
O O9 0.292438 0.000000 0.818051
O O10 0.244379 0.000000 0.493250
O O11 0.000000 0.151411 0.000000
O O12 0.454770 0.940327 0.880242
O O13 0.319284 0.000000 0.142041
#
# Coordination Sequence:
#
# PCOD9219299 Si02
#       8
#     8   4   8   4   8   4   4   4
#     4  11  26  48  71 103 136 182 232 291 349 402
#     4  11  20  34  62 102 142 173 214 266 350 423
#     4  12  22  44  70 102 144 180 219 288 352 416
#     4  11  21  34  59  99 139 177 213 270 341 416
#     4  11  27  49  71  98 135 187 240 283 334 409
#     4  11  21  36  61 103 149 171 215 280 351 428
#     4  11  20  36  64 104 142 177 212 278 362 417
#     4  12  24  45  70 100 138 186 228 283 354 402
#
# _framework density 21.525722999999999
#
# number of rings (size 3 to 8) (size 9 to 14) (size 15 to 20)
#    0.000    0.727    6.364    1.636    2.545    3.636 
#    3.273    0.909    0.000    0.000    0.000    0.000 
#    0.000    0.000    0.000    0.000    0.000    0.000 
#
# Total GULP energy -122512.509995 kJ/mol
# GULP energy per Si atom -5568.750454 kJ/mol
# Density = 2.147673 g / cm^3
# Si number density = 21.525723 Si / 1000 Ang^3
#
#
#
# Elastic Constant Matrix: (Units=GPa)
#
#
# Indices 1 2 3 4 5 6 
#
# 1 70.3654 9.3930 26.9416 0.0000 -3.7907 0.0000
# 2 9.3930 66.1484 12.3921 0.0000 -9.2940 0.0000
# 3 26.9416 12.3921 100.0586 0.0000 -3.4806 0.0000
# 4 0.0000 0.0000 0.0000 20.3256 0.0000 -0.2326
# 5 -3.7907 -9.2940 -3.4806 0.0000 33.6532 0.0000
# 6 0.0000 0.0000 0.0000 -0.2326 0.0000 16.1159
#
#
#
# Elastic Compliance Matrix: (Units=1/GPa)
#
#
# Indices 1 2 3 4 5 6 
#
# 1 0.016021 -0.001364 -0.004110 0.000000 0.001003 0.000000
# 2 -0.001364 0.016175 -0.001491 0.000000 0.004159 0.000000
# 3 -0.004110 -0.001491 0.011296 0.000000 0.000293 0.000000
# 4 0.000000 0.000000 0.000000 0.049207 0.000000 0.000710
# 5 0.001003 0.004159 0.000293 0.000000 0.031007 0.000000
# 6 0.000000 0.000000 0.000000 0.000710 0.000000 0.062061
#
#
# Mechanical properties :
#
#
# Convention : Reuss Voigt Hill
#
# Bulk Modulus (GPa) = 33.82824 37.11397 35.47110
# Shear Modulus (GPa) = 23.86051 26.54200 25.20125
#
# Velocity S-wave (km/s) = 3.33297 3.51527 3.42534
# Velocity P-wave (km/s) = 5.52820 5.80993 5.67081
#
# Compressibility (1/GPa) = 0.02956110
#
# Stress axis : x y z
#
# Youngs Moduli (GPa) = 62.41691 61.82394 88.52921
#
# Poissons Ratio (x) = 0.08434 0.36386
# Poissons Ratio (y) = 0.08515 0.13202
# Poissons Ratio (z) = 0.25654 0.09220
#
# Static dielectric constant tensor:
#      x y z
#    x 1.780820 0.000000 0.009990 
#    y 0.000000 1.791880 0.000000 
#    z 0.009990 0.000000 1.907690 
# 
# From -- ./inp_files/63309.got.cif
#   From: 2010.05.17/outbox.cif.g08.bks.cpg/sg12_32_cif.got.tgz:63309.got - 2010.06.03 13:09:07.
