data_PCOD9219474
_publ_section_title
;
Structure prediction by ZEFSAII (Michael W. Deem and Ramdas Pophale) SiO2 
 PCOD9219474
Probable space group: C 2/M
;
_chemical_formula_sum "Si O2"
_cell_formula_units_Z 40
_cell_length_a 10.203323
_cell_length_b 22.285848
_cell_length_c 9.621769
_cell_angle_alpha 90.000000
_cell_angle_beta 107.681379
_cell_angle_gamma 90.000000
_cell_volume 2084.535765
_symmetry_space_group_name_H-M "C 2/M"
_symmetry_group_IT_number 12
_symmetry_cell_setting 'monoclinic'
loop_
_space_group_symop_operation_xyz
x,y,z
-x,y,-z
-x,-y,-z
x,-y,z
1/2+x,1/2+y,z
1/2-x,1/2+y,-z
1/2-x,1/2-y,-z
1/2+x,1/2-y,z
loop_
_atom_site_type_symbol
_atom_site_label
_atom_site_fract_x
_atom_site_fract_y
_atom_site_fract_z
Si Si1 0.905566 0.746223 0.101136
Si Si2 0.936529 0.148577 0.330516
Si Si3 0.387748 0.892822 0.137702
Si Si4 0.099441 0.071623 0.164262
Si Si5 0.679704 0.931531 0.201377
O O1 0.925698 0.791941 0.233415
O O2 0.928248 0.677029 0.147822
O O3 0.750000 0.750000 0.000000
O O4 0.000000 0.762328 0.000000
O O5 0.789371 0.115402 0.295133
O O6 0.000000 0.161476 0.500000
O O7 0.032731 0.103092 0.275146
O O8 0.253169 0.904882 0.185202
O O9 0.528361 0.926913 0.219807
O O10 0.343794 0.913870 0.968184
O O11 0.103330 0.000000 0.180427
O O12 0.000000 0.085190 0.000000
O O13 0.730415 0.000000 0.224913
#
# Coordination Sequence:
#
# PCOD9219474 Si02
#       5
#     8   8   8   8   8
#     4  12  21  41  67  90 126 167 217 268 312 371
#     4  12  26  42  62  94 133 172 212 262 326 383
#     4  11  20  38  65  97 123 156 217 273 313 364
#     4  11  21  38  65  96 127 164 216 268 313 373
#     4  11  21  38  64  94 128 163 205 260 323 381
#
# _framework density 19.188925000000001
#
# number of rings (size 3 to 8) (size 9 to 14) (size 15 to 20)
#    0.000    0.600    6.000    4.800    0.000    1.600 
#    0.000   10.000    0.000    2.400    0.000    0.000 
#    0.000    0.000    0.000    0.000    0.000    0.000 
#
# Total GULP energy -111835.867361 kJ/mol
# GULP energy per Si atom -5591.793368 kJ/mol
# Density = 1.914525 g / cm^3
# Si number density = 19.188925 Si / 1000 Ang^3
#
#
#
# Elastic Constant Matrix: (Units=GPa)
#
#
# Indices 1 2 3 4 5 6 
#
# 1 137.6986 17.5367 49.9321 0.0000 -1.8172 0.0000
# 2 17.5367 135.2492 52.5499 0.0000 5.0149 0.0000
# 3 49.9321 52.5499 112.6791 0.0000 4.0949 0.0000
# 4 0.0000 0.0000 0.0000 -5.6563 0.0000 -0.2429
# 5 -1.8172 5.0149 4.0949 0.0000 12.2980 0.0000
# 6 0.0000 0.0000 0.0000 -0.2429 0.0000 29.7091
#
#
#
# Elastic Compliance Matrix: (Units=1/GPa)
#
#
# Indices 1 2 3 4 5 6 
#
# 1 0.008751 0.000384 -0.004148 0.000000 0.002518 0.000000
# 2 0.000384 0.009112 -0.004339 0.000000 -0.002214 0.000000
# 3 -0.004148 -0.004339 0.012850 0.000000 -0.003122 0.000000
# 4 0.000000 0.000000 0.000000 -0.176731 0.000000 -0.001445
# 5 0.002518 -0.002214 -0.003122 0.000000 0.083629 0.000000
# 6 0.000000 0.000000 0.000000 -0.001445 0.000000 0.033648
#
#
# Mechanical properties :
#
#
# Convention : Reuss Voigt Hill
#
# Bulk Modulus (GPa) = 68.93863 69.51826 69.22845
# Shear Modulus (GPa) = -649.40066 24.97738 -312.21164
#
# Velocity S-wave (km/s) = -18.41628 3.61176 -12.76939
# Velocity P-wave (km/s) = 20.40118 7.32803 13.46306
#
# Compressibility (1/GPa) = 0.01450565
#
# Stress axis : x y z
#
# Youngs Moduli (GPa) = 114.27484 109.74495 77.82030
#
# Poissons Ratio (x) = -0.04212 0.32282
# Poissons Ratio (y) = -0.04385 0.33767
# Poissons Ratio (z) = 0.47404 0.47620
#
# Static dielectric constant tensor:
#      x y z
#    x 1.692870 0.000000 -0.009220 
#    y 0.000000 1.705030 0.000000 
#    z -0.009220 0.000000 1.631760 
# 
# From -- ./inp_files/48480.got.cif
#   From: 2010.05.17/outbox.cif.g08.bks.cpg/sg12_25_cif.got.tgz:48480.got - 2010.06.03 13:09:07.
