data_PCOD9219813
_publ_section_title
;
Structure prediction by ZEFSAII (Michael W. Deem and Ramdas Pophale) SiO2 
 PCOD9219813
Probable space group: C 2/M
;
_chemical_formula_sum "Si O2"
_cell_formula_units_Z 48
_cell_length_a 7.911408
_cell_length_b 22.395854
_cell_length_c 23.363578
_cell_angle_alpha 90.000000
_cell_angle_beta 36.101873
_cell_angle_gamma 90.000000
_cell_volume 2439.159973
_symmetry_space_group_name_H-M "C 2/M"
_symmetry_group_IT_number 12
_symmetry_cell_setting 'monoclinic'
loop_
_space_group_symop_operation_xyz
x,y,z
-x,y,-z
-x,-y,-z
x,-y,z
1/2+x,1/2+y,z
1/2-x,1/2+y,-z
1/2-x,1/2-y,-z
1/2+x,1/2-y,z
loop_
_atom_site_type_symbol
_atom_site_label
_atom_site_fract_x
_atom_site_fract_y
_atom_site_fract_z
Si Si1 0.069470 0.229059 0.420350
Si Si2 0.286204 0.324692 0.108525
Si Si3 0.334237 0.932998 0.391811
Si Si4 0.741790 0.381781 0.296631
Si Si5 0.318909 0.685812 0.888926
Si Si6 0.330185 0.644505 0.315343
O O1 0.181866 0.180651 0.346008
O O2 0.254096 0.289691 0.362408
O O3 0.000000 0.198929 0.500000
O O4 0.750000 0.250000 0.500000
O O5 0.452858 0.324891 0.123083
O O6 0.191304 0.256646 0.121548
O O7 0.018112 0.368202 0.183204
O O8 0.500000 0.342121 0.000000
O O9 0.325167 0.924908 0.325530
O O10 0.549325 0.886515 0.364337
O O11 0.000000 0.928319 0.500000
O O12 0.432907 0.000000 0.379523
O O13 0.472904 0.392493 0.328415
O O14 0.439474 0.654384 0.798819
O O15 0.000000 0.669784 0.000000
#
# Coordination Sequence:
#
# PCOD9219813 Si02
#       6
#     8   8   8   8   8   8
#     4  12  23  35  55  92 134 165 204 253 320 386
#     4  11  21  35  56  93 135 171 209 252 313 392
#     4  11  27  48  67  90 124 172 226 269 310 373
#     4  12  23  40  65  94 130 170 211 258 325 381
#     4  11  21  36  57  92 136 172 209 252 317 391
#     4  12  24  40  64  96 128 169 211 264 322 381
#
# _framework density 19.678906000000001
#
# number of rings (size 3 to 8) (size 9 to 14) (size 15 to 20)
#    0.000    0.500    5.000    6.500    0.000    0.667 
#    0.000    1.667    0.000    1.000    0.000    0.000 
#    0.000    0.000    0.000    0.000    0.000    0.000 
#
# Total GULP energy -133877.709252 kJ/mol
# GULP energy per Si atom -5578.237885 kJ/mol
# Density = 1.963412 g / cm^3
# Si number density = 19.678906 Si / 1000 Ang^3
#
#
#
# Elastic Constant Matrix: (Units=GPa)
#
#
# Indices 1 2 3 4 5 6 
#
# 1 111.2546 8.9008 19.9896 0.0025 1.3628 -0.0006
# 2 8.9008 57.9885 21.3723 -0.0001 2.2714 0.0001
# 3 19.9896 21.3723 105.6397 -0.0011 5.9320 0.0013
# 4 0.0025 -0.0001 -0.0011 51.8762 -0.0016 -8.3357
# 5 1.3628 2.2714 5.9320 -0.0016 32.5707 0.0007
# 6 -0.0006 0.0001 0.0013 -8.3357 0.0007 20.2076
#
#
#
# Elastic Compliance Matrix: (Units=1/GPa)
#
#
# Indices 1 2 3 4 5 6 
#
# 1 0.009343 -0.000845 -0.001595 0.000000 -0.000042 0.000000
# 2 -0.000845 0.018723 -0.003593 0.000000 -0.000616 0.000000
# 3 -0.001595 -0.003593 0.010585 0.000000 -0.001611 -0.000001
# 4 0.000000 0.000000 0.000000 0.020645 0.000001 0.008516
# 5 -0.000042 -0.000616 -0.001611 0.000001 0.031040 -0.000001
# 6 0.000000 0.000000 -0.000001 0.008516 -0.000001 0.052999
#
#
# Mechanical properties :
#
#
# Convention : Reuss Voigt Hill
#
# Bulk Modulus (GPa) = 37.61440 41.71202 39.66321
# Shear Modulus (GPa) = 30.43888 35.90558 33.17223
#
# Velocity S-wave (km/s) = 3.93718 4.27614 4.11015
# Velocity P-wave (km/s) = 6.31063 6.75446 6.53631
#
# Compressibility (1/GPa) = 0.02658557
#
# Stress axis : x y z
#
# Youngs Moduli (GPa) = 107.03195 53.41025 94.47029
#
# Poissons Ratio (x) = 0.04512 0.15065
# Poissons Ratio (y) = 0.09041 0.33948
# Poissons Ratio (z) = 0.17068 0.19193
#
# Static dielectric constant tensor:
#      x y z
#    x 1.713490 0.000000 -0.006300 
#    y 0.000000 1.708020 0.000000 
#    z -0.006300 0.000000 1.677340 
# 
# From -- ./inp_files/302191.got.cif
#   From: 2010.05.17/outbox.cif.g08.bks.cpg/sg12_152_cif.got.tgz:302191.got - 2010.06.03 13:09:07.
