data_PCOD9219898
_publ_section_title
;
Structure prediction by ZEFSAII (Michael W. Deem and Ramdas Pophale) SiO2 
 PCOD9219898
Probable space group: C 2/M
;
_chemical_formula_sum "Si O2"
_cell_formula_units_Z 56
_cell_length_a 16.841164
_cell_length_b 26.659476
_cell_length_c 8.600078
_cell_angle_alpha 90.000000
_cell_angle_beta 126.013870
_cell_angle_gamma 90.000000
_cell_volume 3123.254295
_symmetry_space_group_name_H-M "C 2/M"
_symmetry_group_IT_number 12
_symmetry_cell_setting 'monoclinic'
loop_
_space_group_symop_operation_xyz
x,y,z
-x,y,-z
-x,-y,-z
x,-y,z
1/2+x,1/2+y,z
1/2-x,1/2+y,-z
1/2-x,1/2-y,-z
1/2+x,1/2-y,z
loop_
_atom_site_type_symbol
_atom_site_label
_atom_site_fract_x
_atom_site_fract_y
_atom_site_fract_z
Si Si1 0.356594 0.609437 0.659475
Si Si2 0.640805 0.500000 0.300443
Si Si3 0.103461 0.713947 0.669403
Si Si4 0.187783 0.160960 0.088135
Si Si5 0.908624 0.000000 0.110630
Si Si6 0.902211 0.265340 0.977542
Si Si7 0.058237 0.894498 0.729088
Si Si8 0.784896 0.790190 0.409064
O O1 0.322584 0.552503 0.584770
O O2 0.330141 0.617511 0.808660
O O3 0.472871 0.611557 0.760289
O O4 0.313035 0.656542 0.514701
O O5 0.524173 0.500000 0.200036
O O6 0.648216 0.500000 0.119997
O O7 0.199721 0.678812 0.780034
O O8 0.130182 0.761180 0.588898
O O9 0.000000 0.690617 0.500000
O O10 0.088953 0.730586 0.828889
O O11 0.125332 0.207506 0.082509
O O12 0.142952 0.144833 0.871097
O O13 0.895845 0.949742 0.197064
O O14 0.808711 0.296069 0.810440
O O15 0.000000 0.279313 0.000000
O O16 0.000000 0.888797 0.500000
O O17 0.750000 0.750000 0.500000
#
# Coordination Sequence:
#
# PCOD9219898 Si02
#       8
#     8   4   8   8   4   8   8   8
#     4  11  21  36  59  82 118 155 197 235 291 350
#     4   9  18  34  56  82 111 156 200 233 289 351
#     4  11  25  39  56  81 122 158 196 246 290 348
#     4  11  22  37  55  83 114 157 197 235 287 351
#     4   9  17  36  50  78 116 152 190 238 286 345
#     4  11  23  37  57  82 121 151 195 239 298 351
#     4  11  23  32  56  84 118 154 193 238 291 343
#     4  11  21  37  56  86 116 154 199 238 291 353
#
# _framework density 17.930015000000001
#
# number of rings (size 3 to 8) (size 9 to 14) (size 15 to 20)
#    0.000    1.286    4.286    4.071    6.000    0.000 
#    0.000    0.000    0.000    0.000    0.000    2.500 
#    0.000    0.000    0.000    0.000    0.000    0.000 
#
# Total GULP energy -156218.153717 kJ/mol
# GULP energy per Si atom -5579.219776 kJ/mol
# Density = 1.788921 g / cm^3
# Si number density = 17.930015 Si / 1000 Ang^3
#
#
#
# Elastic Constant Matrix: (Units=GPa)
#
#
# Indices 1 2 3 4 5 6 
#
# 1 79.7995 17.1690 22.9990 0.0000 -2.2387 0.0000
# 2 17.1690 117.4911 47.1052 0.0000 7.0714 0.0000
# 3 22.9990 47.1052 98.8343 0.0000 4.3835 0.0000
# 4 0.0000 0.0000 0.0000 25.0203 0.0000 -0.7694
# 5 -2.2387 7.0714 4.3835 0.0000 29.9318 0.0000
# 6 0.0000 0.0000 0.0000 -0.7694 0.0000 13.0773
#
#
#
# Elastic Compliance Matrix: (Units=1/GPa)
#
#
# Indices 1 2 3 4 5 6 
#
# 1 0.013586 -0.000974 -0.002771 0.000000 0.001652 0.000000
# 2 -0.000974 0.010685 -0.004782 0.000000 -0.001897 0.000000
# 3 -0.002771 -0.004782 0.013086 0.000000 -0.000994 0.000000
# 4 0.000000 0.000000 0.000000 0.040040 0.000000 0.002356
# 5 0.001652 -0.001897 -0.000994 0.000000 0.034127 0.000000
# 6 0.000000 0.000000 0.000000 0.002356 0.000000 0.076607
#
#
# Mechanical properties :
#
#
# Convention : Reuss Voigt Hill
#
# Bulk Modulus (GPa) = 49.25133 52.29681 50.77407
# Shear Modulus (GPa) = 23.59043 27.52934 25.55988
#
# Velocity S-wave (km/s) = 3.63119 3.92264 3.77972
# Velocity P-wave (km/s) = 6.71632 7.05313 6.88678
#
# Compressibility (1/GPa) = 0.02030402
#
# Stress axis : x y z
#
# Youngs Moduli (GPa) = 73.60635 93.59010 76.41900
#
# Poissons Ratio (x) = 0.09115 0.21172
# Poissons Ratio (y) = 0.07169 0.36542
# Poissons Ratio (z) = 0.20393 0.44752
#
# Static dielectric constant tensor:
#      x y z
#    x 1.615510 0.000000 -0.042430 
#    y 0.000000 1.655200 0.000000 
#    z -0.042430 0.000000 1.713720 
# 
# From -- ./inp_files/67109.got.cif
#   From: 2010.05.17/outbox.cif.g08.bks.cpg/sg12_34_cif.got.tgz:67109.got - 2010.06.03 13:09:07.
