data_PCOD9219662
_publ_section_title
;
Structure prediction by ZEFSAII (Michael W. Deem and Ramdas Pophale) SiO2 
 PCOD9219662
Probable space group: C 2/M
;
_chemical_formula_sum "Si O2"
_cell_formula_units_Z 58
_cell_length_a 8.368398
_cell_length_b 30.149650
_cell_length_c 21.257915
_cell_angle_alpha 90.000000
_cell_angle_beta 33.046838
_cell_angle_gamma 90.000000
_cell_volume 2924.827354
_symmetry_space_group_name_H-M "C 2/M"
_symmetry_group_IT_number 12
_symmetry_cell_setting 'monoclinic'
loop_
_space_group_symop_operation_xyz
x,y,z
-x,y,-z
-x,-y,-z
x,-y,z
1/2+x,1/2+y,z
1/2-x,1/2+y,-z
1/2-x,1/2-y,-z
1/2+x,1/2-y,z
loop_
_atom_site_type_symbol
_atom_site_label
_atom_site_fract_x
_atom_site_fract_y
_atom_site_fract_z
Si Si1 0.774514 0.349907 0.631576
Si Si2 0.903175 0.429758 0.421683
Si Si3 0.339659 0.761788 0.683472
Si Si4 0.733036 0.051779 0.675023
Si Si5 0.500000 0.000000 0.500000
Si Si6 0.290217 0.686589 0.620709
Si Si7 0.813545 0.712252 0.927427
Si Si8 0.643625 0.128971 0.785854
O O1 0.735002 0.301709 0.674179
O O2 0.464534 0.368362 0.710620
O O3 0.000000 0.346678 0.500000
O O4 0.930341 0.383231 0.628418
O O5 0.916253 0.445537 0.344761
O O6 0.560040 0.428857 0.554890
O O7 0.032485 0.461562 0.433376
O O8 0.484193 0.721790 0.596308
O O9 0.545445 0.784071 0.667179
O O10 0.060582 0.736966 0.804831
O O11 0.585598 0.078799 0.781328
O O12 0.773286 0.000000 0.678177
O O13 0.500000 0.665220 0.500000
O O14 0.155419 0.652587 0.713558
O O15 0.942247 0.662109 0.894380
O O16 0.500000 0.704917 0.000000
O O17 0.750000 0.750000 0.000000
#
# Coordination Sequence:
#
# PCOD9219662 Si02
#       8
#     8   8   8   8   2   8   8   8
#     4  12  21  34  53  87 124 162 189 241 282 357
#     4  11  21  32  55  79 126 171 206 231 279 337
#     4  11  22  36  55  83 111 151 202 239 303 366
#     4  11  21  38  55  85 122 167 207 250 282 348
#     4  12  16  34  44  80 108 166 222 224 268 322
#     4  11  21  35  52  78 120 159 190 236 283 364
#     4  11  23  43  64  83 111 151 198 267 318 366
#     4  11  23  37  58  87 116 155 212 244 306 364
#
# _framework density 19.830231000000001
#
# number of rings (size 3 to 8) (size 9 to 14) (size 15 to 20)
#    0.000    0.828    3.448    7.034    1.931    0.000 
#    0.000    0.000    0.000    0.414    0.000    0.000 
#    0.000    2.759    0.000    0.000    0.000    0.000 
#
# Total GULP energy -161581.153409 kJ/mol
# GULP energy per Si atom -5571.763911 kJ/mol
# Density = 1.978510 g / cm^3
# Si number density = 19.830231 Si / 1000 Ang^3
#
#
#
# Elastic Constant Matrix: (Units=GPa)
#
#
# Indices 1 2 3 4 5 6 
#
# 1 64.4507 17.4101 10.4613 0.0001 -11.8822 0.0000
# 2 17.4101 114.2353 18.9293 0.0001 0.3068 0.0000
# 3 10.4613 18.9293 51.6253 -0.0005 -8.1548 -0.0005
# 4 0.0001 0.0001 -0.0005 12.2227 0.0001 5.5433
# 5 -11.8822 0.3068 -8.1548 0.0001 26.0735 0.0001
# 6 0.0000 0.0000 -0.0005 5.5433 0.0001 33.8669
#
#
#
# Elastic Compliance Matrix: (Units=1/GPa)
#
#
# Indices 1 2 3 4 5 6 
#
# 1 0.017850 -0.002495 -0.001486 0.000000 0.007699 0.000000
# 2 -0.002495 0.009707 -0.003420 0.000000 -0.002321 0.000000
# 3 -0.001486 -0.003420 0.021907 0.000001 0.006215 0.000000
# 4 0.000000 0.000000 0.000001 0.088376 0.000000 -0.014465
# 5 0.007699 -0.002321 0.006215 0.000000 0.043833 0.000000
# 6 0.000000 0.000000 0.000000 -0.014465 0.000000 0.031895
#
#
# Mechanical properties :
#
#
# Convention : Reuss Voigt Hill
#
# Bulk Modulus (GPa) = 28.85007 35.99031 32.42019
# Shear Modulus (GPa) = 20.83982 26.66664 23.75323
#
# Velocity S-wave (km/s) = 3.24529 3.67106 3.46472
# Velocity P-wave (km/s) = 5.35002 6.01311 5.69123
#
# Compressibility (1/GPa) = 0.03466196
#
# Stress axis : x y z
#
# Youngs Moduli (GPa) = 56.02128 103.01741 45.64683
#
# Poissons Ratio (x) = 0.25702 0.06784
# Poissons Ratio (y) = 0.13977 0.15613
# Poissons Ratio (z) = 0.08326 0.35235
#
# Static dielectric constant tensor:
#      x y z
#    x 1.785970 0.000000 0.025330 
#    y 0.000000 1.746010 0.000000 
#    z 0.025330 0.000000 1.710420 
# 
# From -- ./inp_files/334316.got.cif
#   From: 2010.05.17/outbox.cif.g08.bks.cpg/sg12_168_cif.got.tgz:334316.got - 2010.06.03 13:09:07.
