data_PCOD9219498
_publ_section_title
;
Structure prediction by ZEFSAII (Michael W. Deem and Ramdas Pophale) SiO2 
 PCOD9219498
Probable space group: C 2/M
;
_chemical_formula_sum "Si O2"
_cell_formula_units_Z 32
_cell_length_a 18.328433
_cell_length_b 13.752658
_cell_length_c 14.688907
_cell_angle_alpha 90.000000
_cell_angle_beta 21.995638
_cell_angle_gamma 90.000000
_cell_volume 1386.739972
_symmetry_space_group_name_H-M "C 2/M"
_symmetry_group_IT_number 12
_symmetry_cell_setting 'monoclinic'
loop_
_space_group_symop_operation_xyz
x,y,z
-x,y,-z
-x,-y,-z
x,-y,z
1/2+x,1/2+y,z
1/2-x,1/2+y,-z
1/2-x,1/2-y,-z
1/2+x,1/2-y,z
loop_
_atom_site_type_symbol
_atom_site_label
_atom_site_fract_x
_atom_site_fract_y
_atom_site_fract_z
Si Si1 0.871060 0.330635 0.409455
Si Si2 0.650711 0.797320 0.245868
Si Si3 0.618744 0.891512 0.956650
Si Si4 0.749529 0.500000 0.871789
Si Si5 0.715464 0.000000 0.375843
O O1 0.750000 0.250000 0.500000
O O2 0.740452 0.403432 0.619818
O O3 0.024325 0.281991 0.301628
O O4 0.977373 0.390827 0.207491
O O5 0.500000 0.831553 0.500000
O O6 0.796069 0.887041 0.051969
O O7 0.744945 0.700402 0.178073
O O8 0.710205 0.000000 0.844457
O O9 0.500000 0.875494 0.000000
O O10 0.705083 0.500000 0.816412
O O11 0.977647 0.500000 0.640681
#
# Coordination Sequence:
#
# PCOD9219498 Si02
#       5
#     8   8   8   4   4
#     4  11  21  39  62  87 117 155 198 243 299 356
#     4  11  20  39  65  88 115 153 200 247 300 349
#     4  11  25  41  57  84 124 166 198 236 293 358
#     4   9  16  34  64  86 106 146 186 251 306 339
#     4   9  16  34  60  83 110 148 188 235 307 342
#
# _framework density 23.075704000000002
#
# number of rings (size 3 to 8) (size 9 to 14) (size 15 to 20)
#    0.000    1.500    6.250    2.250    0.000    0.500 
#    2.250    1.875    0.000    0.000    0.000    0.000 
#    0.000    0.000    0.000    0.000    0.000    0.000 
#
# Total GULP energy -89261.904269 kJ/mol
# GULP energy per Si atom -5578.869017 kJ/mol
# Density = 2.302318 g / cm^3
# Si number density = 23.075704 Si / 1000 Ang^3
#
#
#
# Elastic Constant Matrix: (Units=GPa)
#
#
# Indices 1 2 3 4 5 6 
#
# 1 201.4203 91.7076 20.3421 0.0005 -5.6448 -0.0007
# 2 91.7076 231.0757 16.5757 0.0017 -32.3037 0.0005
# 3 20.3421 16.5757 21.7000 -0.0004 -1.5745 -0.0007
# 4 0.0005 0.0017 -0.0004 -9.0927 -0.0010 46.3340
# 5 -5.6448 -32.3037 -1.5745 -0.0010 28.9026 0.0013
# 6 -0.0007 0.0005 -0.0007 46.3340 0.0013 -23.0301
#
#
#
# Elastic Compliance Matrix: (Units=1/GPa)
#
#
# Indices 1 2 3 4 5 6 
#
# 1 0.006495 -0.002519 -0.004294 0.000000 -0.001780 0.000000
# 2 -0.002519 0.006387 -0.002044 0.000000 0.006536 0.000000
# 3 -0.004294 -0.002044 0.051647 0.000001 -0.000309 0.000001
# 4 0.000000 0.000000 0.000001 0.011887 -0.000001 0.023915
# 5 -0.001780 0.006536 -0.000309 -0.000001 0.041539 0.000000
# 6 0.000000 0.000000 0.000001 0.023915 0.000000 0.004693
#
#
# Mechanical properties :
#
#
# Convention : Reuss Voigt Hill
#
# Bulk Modulus (GPa) = 21.35994 79.04964 50.20479
# Shear Modulus (GPa) = 32.05787 21.06067 26.55927
#
# Velocity S-wave (km/s) = 3.73130 3.02433 3.39626
# Velocity P-wave (km/s) = 5.27637 6.82103 6.09781
#
# Compressibility (1/GPa) = 0.04681660
#
# Stress axis : x y z
#
# Youngs Moduli (GPa) = 153.95781 156.55633 19.36218
#
# Poissons Ratio (x) = 0.39431 0.08314
# Poissons Ratio (y) = 0.38777 0.03957
# Poissons Ratio (z) = 0.66111 0.31997
#
# Static dielectric constant tensor:
#      x y z
#    x 1.822470 0.000000 -0.013340 
#    y 0.000000 1.986500 0.000000 
#    z -0.013340 0.000000 1.984010 
# 
# From -- ./inp_files/104283.got.cif
#   From: 2010.05.17/outbox.cif.g08.bks.cpg/sg12_53_cif.got.tgz:104283.got - 2010.06.03 13:09:07.
