data_PCOD9219310
_publ_section_title
;
Structure prediction by ZEFSAII (Michael W. Deem and Ramdas Pophale) SiO2 
 PCOD9219310
Probable space group: C 2/M
;
_chemical_formula_sum "Si O2"
_cell_formula_units_Z 48
_cell_length_a 13.471886
_cell_length_b 16.018525
_cell_length_c 12.446609
_cell_angle_alpha 90.000000
_cell_angle_beta 76.029567
_cell_angle_gamma 90.000000
_cell_volume 2606.525057
_symmetry_space_group_name_H-M "C 2/M"
_symmetry_group_IT_number 12
_symmetry_cell_setting 'monoclinic'
loop_
_space_group_symop_operation_xyz
x,y,z
-x,y,-z
-x,-y,-z
x,-y,z
1/2+x,1/2+y,z
1/2-x,1/2+y,-z
1/2-x,1/2-y,-z
1/2+x,1/2-y,z
loop_
_atom_site_type_symbol
_atom_site_label
_atom_site_fract_x
_atom_site_fract_y
_atom_site_fract_z
Si Si1 0.852532 0.829102 0.766540
Si Si2 0.420730 0.703905 0.367914
Si Si3 0.112021 0.632633 0.478433
Si Si4 0.689719 0.408566 0.443544
Si Si5 0.356339 0.500000 0.135971
Si Si6 0.250691 0.830318 0.758823
Si Si7 0.091353 0.000000 0.129308
O O1 0.805063 0.852239 0.662991
O O2 0.790820 0.746733 0.821467
O O3 0.862436 0.914449 0.832267
O O4 0.967747 0.801527 0.709907
O O5 0.405470 0.781415 0.451633
O O6 0.392234 0.625516 0.450175
O O7 0.340327 0.703887 0.292529
O O8 0.202464 0.590380 0.522434
O O9 0.158075 0.647411 0.348261
O O10 0.000000 0.593079 0.500000
O O11 0.660146 0.500000 0.414753
O O12 0.292376 0.415961 0.179333
O O13 0.466234 0.500000 0.170331
O O14 0.383084 0.500000 0.003409
#
# Coordination Sequence:
#
# PCOD9219310 Si02
#       7
#     8   8   8   8   4   8   4
#     4  12  21  37  65  93 117 164 203 252 316 360
#     4  11  20  35  54  92 127 161 197 239 296 380
#     4  11  20  35  53  86 128 169 197 229 290 383
#     4  11  22  31  50  86 129 160 201 244 293 362
#     4  11  26  48  62  91 120 155 216 276 310 353
#     4  11  22  38  64  88 128 164 201 250 310 365
#     4  11  26  44  70  90 114 154 221 276 312 354
#
# _framework density 18.415322
#
# number of rings (size 3 to 8) (size 9 to 14) (size 15 to 20)
#    0.000    0.833    7.500    1.500    5.833    1.667 
#    0.000    0.000    0.000    0.000    0.000    4.667 
#    0.000    0.000    0.000    0.000    0.000    0.000 
#
# Total GULP energy -133891.974317 kJ/mol
# GULP energy per Si atom -5578.832263 kJ/mol
# Density = 1.837341 g / cm^3
# Si number density = 18.415322 Si / 1000 Ang^3
#
#
#
# Elastic Constant Matrix: (Units=GPa)
#
#
# Indices 1 2 3 4 5 6 
#
# 1 95.3900 46.9444 26.2908 0.0000 -0.2811 0.0000
# 2 46.9444 144.6828 36.9223 0.0000 -9.4814 0.0000
# 3 26.2908 36.9223 54.9965 0.0000 -1.0467 0.0000
# 4 0.0000 0.0000 0.0000 22.8491 0.0000 -2.0881
# 5 -0.2811 -9.4814 -1.0467 0.0000 18.8860 0.0000
# 6 0.0000 0.0000 0.0000 -2.0881 0.0000 -32.9384
#
#
#
# Elastic Compliance Matrix: (Units=1/GPa)
#
#
# Indices 1 2 3 4 5 6 
#
# 1 0.013270 -0.003368 -0.004115 0.000000 -0.001722 0.000000
# 2 -0.003368 0.009490 -0.004676 0.000000 0.004455 0.000000
# 3 -0.004115 -0.004676 0.023268 0.000000 -0.001119 0.000000
# 4 0.000000 0.000000 0.000000 0.043513 0.000000 -0.002759
# 5 -0.001722 0.004455 -0.001119 0.000000 0.055098 0.000000
# 6 0.000000 0.000000 0.000000 -0.002759 0.000000 -0.030185
#
#
# Mechanical properties :
#
#
# Convention : Reuss Voigt Hill
#
# Bulk Modulus (GPa) = 46.06367 57.26492 51.66430
# Shear Modulus (GPa) = 34.24426 14.08680 24.16553
#
# Velocity S-wave (km/s) = 4.31693 2.76877 3.62643
# Velocity P-wave (km/s) = 7.06512 6.43314 6.75653
#
# Compressibility (1/GPa) = 0.02170908
#
# Stress axis : x y z
#
# Youngs Moduli (GPa) = 75.35775 105.37608 42.97717
#
# Poissons Ratio (x) = 0.35494 0.17685
# Poissons Ratio (y) = 0.25383 0.20096
# Poissons Ratio (z) = 0.31010 0.49275
#
# Static dielectric constant tensor:
#      x y z
#    x 1.655810 0.000000 0.012420 
#    y 0.000000 1.688460 0.000000 
#    z 0.012420 0.000000 1.600970 
# 
# From -- ./inp_files/142912.got.cif
#   From: 2010.05.17/outbox.cif.g08.bks.cpg/sg12_72_cif.got.tgz:142912.got - 2010.06.03 13:09:07.
