data_PCOD9219270
_publ_section_title
;
Structure prediction by ZEFSAII (Michael W. Deem and Ramdas Pophale) SiO2 
 PCOD9219270
Probable space group: C 2/M
;
_chemical_formula_sum "Si O2"
_cell_formula_units_Z 56
_cell_length_a 31.167263
_cell_length_b 8.228788
_cell_length_c 22.775284
_cell_angle_alpha 90.000000
_cell_angle_beta 32.550150
_cell_angle_gamma 90.000000
_cell_volume 3142.758242
_symmetry_space_group_name_H-M "C 2/M"
_symmetry_group_IT_number 12
_symmetry_cell_setting 'monoclinic'
loop_
_space_group_symop_operation_xyz
x,y,z
-x,y,-z
-x,-y,-z
x,-y,z
1/2+x,1/2+y,z
1/2-x,1/2+y,-z
1/2-x,1/2-y,-z
1/2+x,1/2-y,z
loop_
_atom_site_type_symbol
_atom_site_label
_atom_site_fract_x
_atom_site_fract_y
_atom_site_fract_z
Si Si1 0.005633 0.302259 0.587409
Si Si2 0.529326 0.689880 0.030041
Si Si3 0.869955 0.303463 0.657856
Si Si4 0.700885 0.812248 0.814662
Si Si5 0.737829 0.308305 0.642453
Si Si6 0.089398 0.301840 0.605446
Si Si7 0.908473 0.307930 0.264031
O O1 0.004124 0.500000 0.589399
O O2 0.923185 0.250620 0.652153
O O3 0.077687 0.257708 0.460000
O O4 0.026761 0.246060 0.628306
O O5 0.507399 0.500000 0.058610
O O6 0.624046 0.710983 0.922882
O O7 0.500000 0.751401 0.000000
O O8 0.482999 0.778252 0.135446
O O9 0.864595 0.500000 0.664175
O O10 0.782098 0.233186 0.754210
O O11 0.716903 0.779039 0.727339
O O12 0.681546 0.000000 0.845668
O O13 0.743848 0.500000 0.649006
O O14 0.822375 0.254765 0.518375
O O15 0.667644 0.278138 0.677179
O O16 0.087128 0.500000 0.608085
O O17 0.076170 0.248890 0.687412
O O18 0.890910 0.500000 0.286536
#
# Coordination Sequence:
#
# PCOD9219270 Si02
#       7
#     8   8   8   8   8   8   8
#     4   8  14  28  53  81 106 139 179 213 249 306
#     4  11  23  39  58  75  98 138 183 223 261 311
#     4   9  16  30  55  80 105 139 179 215 253 310
#     4  12  23  34  53  80 111 138 170 222 274 312
#     4  11  20  34  54  76 108 147 182 211 248 313
#     4   9  18  32  53  80 111 144 177 213 256 309
#     4  11  22  35  53  79 110 141 175 219 267 309
#
# _framework density 17.818743000000001
#
# number of rings (size 3 to 8) (size 9 to 14) (size 15 to 20)
#    0.000    1.857    2.857    3.857    0.000    0.571 
#    0.000    3.571    0.000    0.857    0.000    0.000 
#    0.000    0.000    0.000    0.000    0.000    0.000 
#
# Total GULP energy -156314.364871 kJ/mol
# GULP energy per Si atom -5582.655888 kJ/mol
# Density = 1.777819 g / cm^3
# Si number density = 17.818743 Si / 1000 Ang^3
#
#
#
# Elastic Constant Matrix: (Units=GPa)
#
#
# Indices 1 2 3 4 5 6 
#
# 1 138.2197 -7.1123 54.4260 0.0067 -3.3815 -0.0009
# 2 -7.1123 15.2014 -7.6180 0.0252 2.9592 -0.0019
# 3 54.4260 -7.6180 57.6141 0.0006 2.9646 -0.0006
# 4 0.0067 0.0252 0.0006 12.2080 -0.0053 1.8587
# 5 -3.3815 2.9592 2.9646 -0.0053 26.5018 -0.0033
# 6 -0.0009 -0.0019 -0.0006 1.8587 -0.0033 14.4668
#
#
#
# Elastic Compliance Matrix: (Units=1/GPa)
#
#
# Indices 1 2 3 4 5 6 
#
# 1 0.011723 -0.000741 -0.011319 -0.000003 0.002845 0.000001
# 2 -0.000741 0.072680 0.010795 -0.000159 -0.009418 0.000028
# 3 -0.011319 0.010795 0.029785 -0.000021 -0.005981 0.000003
# 4 -0.000003 -0.000159 -0.000021 0.083548 0.000035 -0.010734
# 5 0.002845 -0.009418 -0.005981 0.000035 0.039817 0.000003
# 6 0.000001 0.000028 0.000003 -0.010734 0.000003 0.070503
#
#
# Mechanical properties :
#
#
# Convention : Reuss Voigt Hill
#
# Bulk Modulus (GPa) = 8.95596 32.26962 20.61279
# Shear Modulus (GPa) = 14.37583 22.05794 18.21688
#
# Velocity S-wave (km/s) = 2.84347 3.52221 3.20088
# Velocity P-wave (km/s) = 3.97712 5.88986 5.02534
#
# Compressibility (1/GPa) = 0.11165746
#
# Stress axis : x y z
#
# Youngs Moduli (GPa) = 85.29995 13.75893 33.57434
#
# Poissons Ratio (x) = 0.01020 0.38003
# Poissons Ratio (y) = 0.06322 -0.36243
# Poissons Ratio (z) = 0.96551 -0.14853
#
# Static dielectric constant tensor:
#      x y z
#    x 1.621670 0.000000 -0.001150 
#    y 0.000000 1.619310 0.000000 
#    z -0.001150 0.000000 1.575280 
# 
# From -- ./inp_files/295104.got.cif
#   From: 2010.05.17/outbox.cif.g08.bks.cpg/sg12_148_cif.got.tgz:295104.got - 2010.06.03 13:09:07.
