data_PCOD9219395
_publ_section_title
;
Structure prediction by ZEFSAII (Michael W. Deem and Ramdas Pophale) SiO2 
 PCOD9219395
Probable space group: C 2/M
;
_chemical_formula_sum "Si O2"
_cell_formula_units_Z 48
_cell_length_a 13.695369
_cell_length_b 15.580237
_cell_length_c 11.928667
_cell_angle_alpha 90.000000
_cell_angle_beta 64.351856
_cell_angle_gamma 90.000000
_cell_volume 2294.513284
_symmetry_space_group_name_H-M "C 2/M"
_symmetry_group_IT_number 12
_symmetry_cell_setting 'monoclinic'
loop_
_space_group_symop_operation_xyz
x,y,z
-x,y,-z
-x,-y,-z
x,-y,z
1/2+x,1/2+y,z
1/2-x,1/2+y,-z
1/2-x,1/2-y,-z
1/2+x,1/2-y,z
loop_
_atom_site_type_symbol
_atom_site_label
_atom_site_fract_x
_atom_site_fract_y
_atom_site_fract_z
Si Si1 0.467600 0.900963 0.275390
Si Si2 0.148496 0.161063 0.917940
Si Si3 0.706156 0.830822 0.788542
Si Si4 0.328731 0.906198 0.963266
Si Si5 0.513543 0.401875 0.805994
Si Si6 0.547641 0.730891 0.353779
O O1 0.349821 0.871674 0.291704
O O2 0.544848 0.899307 0.126304
O O3 0.517260 0.828025 0.331131
O O4 0.468470 0.000000 0.315757
O O5 0.131191 0.255297 0.877210
O O6 0.265961 0.159787 0.915737
O O7 0.125229 0.102793 0.821257
O O8 0.072234 0.130689 0.057440
O O9 0.824461 0.791621 0.708422
O O10 0.706741 0.896420 0.891667
O O11 0.292994 0.000000 0.940362
O O12 0.490785 0.500000 0.784908
O O13 0.505708 0.335347 0.708606
O O14 0.500000 0.716335 0.500000
#
# Coordination Sequence:
#
# PCOD9219395 Si02
#       6
#     8   8   8   8   8   8
#     4  11  25  45  69 101 135 174 223 282 344 401
#     4  11  20  36  67  98 135 168 211 270 344 401
#     4  12  23  40  67  97 136 177 218 275 335 407
#     4  11  21  36  64 103 136 170 214 271 345 414
#     4  11  23  40  64 101 140 173 216 276 339 405
#     4  12  27  47  69  92 133 185 235 277 327 390
#
# _framework density 20.91947
#
# number of rings (size 3 to 8) (size 9 to 14) (size 15 to 20)
#    0.000    0.667    5.000    4.500    2.333    3.333 
#    0.000    0.000    0.000    0.000    0.000    0.000 
#    0.000    0.000    0.000    0.000    0.000    0.000 
#
# Total GULP energy -133967.294239 kJ/mol
# GULP energy per Si atom -5581.970593 kJ/mol
# Density = 2.087186 g / cm^3
# Si number density = 20.919470 Si / 1000 Ang^3
#
#
#
# Elastic Constant Matrix: (Units=GPa)
#
#
# Indices 1 2 3 4 5 6 
#
# 1 100.7570 28.3274 29.4426 0.0000 5.8614 0.0000
# 2 28.3274 151.8111 41.2450 0.0000 12.1828 0.0000
# 3 29.4426 41.2450 97.5324 0.0000 13.6900 0.0000
# 4 0.0000 0.0000 0.0000 4.9514 0.0000 -1.2583
# 5 5.8614 12.1828 13.6900 0.0000 17.0817 0.0000
# 6 0.0000 0.0000 0.0000 -1.2583 0.0000 23.7590
#
#
#
# Elastic Compliance Matrix: (Units=1/GPa)
#
#
# Indices 1 2 3 4 5 6 
#
# 1 0.011120 -0.001279 -0.002714 0.000000 -0.000728 0.000000
# 2 -0.001279 0.007742 -0.002450 0.000000 -0.003119 0.000000
# 3 -0.002714 -0.002450 0.013219 0.000000 -0.007916 0.000000
# 4 0.000000 0.000000 0.000000 0.204719 0.000000 0.010842
# 5 -0.000728 -0.003119 -0.007916 0.000000 0.067361 0.000000
# 6 0.000000 0.000000 0.000000 0.010842 0.000000 0.042663
#
#
# Mechanical properties :
#
#
# Convention : Reuss Voigt Hill
#
# Bulk Modulus (GPa) = 52.09552 60.90340 56.49946
# Shear Modulus (GPa) = 13.65717 25.89745 19.77731
#
# Velocity S-wave (km/s) = 2.55785 3.52228 3.07807
# Velocity P-wave (km/s) = 5.80349 6.76154 6.30075
#
# Compressibility (1/GPa) = 0.01919551
#
# Stress axis : x y z
#
# Youngs Moduli (GPa) = 89.92936 129.16997 75.64682
#
# Poissons Ratio (x) = 0.16524 0.20527
# Poissons Ratio (y) = 0.11504 0.18533
# Poissons Ratio (z) = 0.24403 0.31645
#
# Static dielectric constant tensor:
#      x y z
#    x 1.859220 0.000000 -0.029930 
#    y 0.000000 1.817720 0.000000 
#    z -0.029930 0.000000 1.694430 
# 
# From -- ./inp_files/143524.got.cif
#   From: 2010.05.17/outbox.cif.g08.bks.cpg/sg12_72_cif.got.tgz:143524.got - 2010.06.03 13:09:07.
