data_PCOD9219110
_publ_section_title
;
Structure prediction by ZEFSAII (Michael W. Deem and Ramdas Pophale) SiO2 
 PCOD9219110
Probable space group: C 2/M
;
_chemical_formula_sum "Si O2"
_cell_formula_units_Z 58
_cell_length_a 20.591521
_cell_length_b 17.438419
_cell_length_c 9.821031
_cell_angle_alpha 90.000000
_cell_angle_beta 120.141681
_cell_angle_gamma 90.000000
_cell_volume 3049.730388
_symmetry_space_group_name_H-M "C 2/M"
_symmetry_group_IT_number 12
_symmetry_cell_setting 'monoclinic'
loop_
_space_group_symop_operation_xyz
x,y,z
-x,y,-z
-x,-y,-z
x,-y,z
1/2+x,1/2+y,z
1/2-x,1/2+y,-z
1/2-x,1/2-y,-z
1/2+x,1/2-y,z
loop_
_atom_site_type_symbol
_atom_site_label
_atom_site_fract_x
_atom_site_fract_y
_atom_site_fract_z
Si Si1 0.506449 0.915774 0.342877
Si Si2 0.162685 0.652954 0.451068
Si Si3 0.666075 0.722065 0.689950
Si Si4 0.314556 0.413409 0.699934
Si Si5 0.000000 0.000000 0.500000
Si Si6 0.331144 0.751248 0.819561
Si Si7 0.438957 0.758982 0.172300
Si Si8 0.939855 0.868910 0.623007
O O1 0.500000 0.911908 0.500000
O O2 0.591639 0.902406 0.382961
O O3 0.462217 0.844103 0.238273
O O4 0.479682 0.000000 0.272295
O O5 0.159287 0.702922 0.585952
O O6 0.240335 0.606197 0.533036
O O7 0.161075 0.712969 0.323768
O O8 0.755231 0.709684 0.797297
O O9 0.625856 0.732883 0.791047
O O10 0.619167 0.660262 0.553887
O O11 0.308966 0.500000 0.748685
O O12 0.318546 0.340611 0.804187
O O13 0.388813 0.404349 0.687437
O O14 0.990236 0.932913 0.606444
O O15 0.404597 0.762714 0.986335
O O16 0.508742 0.701265 0.269501
#
# Coordination Sequence:
#
# PCOD9219110 Si02
#       8
#     8   8   8   8   2   8   8   8
#     4  11  22  39  66  95 119 157 211 260 305 372
#     4  11  20  40  65  91 117 163 213 251 305 372
#     4  11  19  41  66  85 119 172 216 243 297 379
#     4  11  22  39  61  92 124 161 211 262 303 362
#     4  12  24  36  64 102 122 160 224 272 284 360
#     4  11  24  39  63  94 128 164 207 252 317 382
#     4  12  23  40  63  94 130 166 199 259 322 372
#     4  12  21  38  67  90 120 168 217 253 304 368
#
# _framework density 19.018075
#
# number of rings (size 3 to 8) (size 9 to 14) (size 15 to 20)
#    0.000    0.690    7.586    1.655    0.000    2.207 
#    1.241    2.759    1.517    0.000    0.000    0.000 
#    0.000    0.000    0.000    0.000    0.000    0.000 
#
# Total GULP energy -161581.400566 kJ/mol
# GULP energy per Si atom -5571.772433 kJ/mol
# Density = 1.897479 g / cm^3
# Si number density = 19.018075 Si / 1000 Ang^3
#
#
#
# Elastic Constant Matrix: (Units=GPa)
#
#
# Indices 1 2 3 4 5 6 
#
# 1 79.4767 5.8937 2.9857 0.0000 4.9471 0.0000
# 2 5.8937 126.9616 23.9022 0.0000 16.7647 0.0000
# 3 2.9857 23.9022 52.0121 0.0000 14.9751 0.0000
# 4 0.0000 0.0000 0.0000 6.3204 0.0000 -13.1765
# 5 4.9471 16.7647 14.9751 0.0000 17.0298 0.0000
# 6 0.0000 0.0000 0.0000 -13.1765 0.0000 5.9058
#
#
#
# Elastic Compliance Matrix: (Units=1/GPa)
#
#
# Indices 1 2 3 4 5 6 
#
# 1 0.012825 -0.000159 0.000488 0.000000 -0.003998 0.000000
# 2 -0.000159 0.009236 -0.002184 0.000000 -0.007126 0.000000
# 3 0.000488 -0.002184 0.026276 0.000000 -0.021098 0.000000
# 4 0.000000 0.000000 0.000000 -0.043332 0.000000 -0.096678
# 5 -0.003998 -0.007126 -0.021098 0.000000 0.085449 0.000000
# 6 0.000000 0.000000 0.000000 -0.096678 0.000000 -0.046374
#
#
# Mechanical properties :
#
#
# Convention : Reuss Voigt Hill
#
# Bulk Modulus (GPa) = 22.40796 36.00152 29.20474
# Shear Modulus (GPa) = 79.78869 20.89578 50.34224
#
# Velocity S-wave (km/s) = 6.48423 3.31831 5.15055
# Velocity P-wave (km/s) = 8.23822 5.80111 7.12465
#
# Compressibility (1/GPa) = 0.04462699
#
# Stress axis : x y z
#
# Youngs Moduli (GPa) = 77.97496 108.27449 38.05718
#
# Poissons Ratio (x) = 0.01725 -0.01858
# Poissons Ratio (y) = 0.01242 0.08310
# Poissons Ratio (z) = -0.03806 0.23643
#
# Static dielectric constant tensor:
#      x y z
#    x 1.698500 0.000000 0.014880 
#    y 0.000000 1.648220 0.000000 
#    z 0.014880 0.000000 1.654830 
# 
# From -- ./inp_files/88480.got.cif
#   From: 2010.05.17/outbox.cif.g08.bks.cpg/sg12_45_cif.got.tgz:88480.got - 2010.06.03 13:09:07.
