data_PCOD9219297
_publ_section_title
;
Structure prediction by ZEFSAII (Michael W. Deem and Ramdas Pophale) SiO2 
 PCOD9219297
Probable space group: C 2/M
;
_chemical_formula_sum "Si O2"
_cell_formula_units_Z 64
_cell_length_a 25.270824
_cell_length_b 20.675770
_cell_length_c 17.090114
_cell_angle_alpha 90.000000
_cell_angle_beta 21.478813
_cell_angle_gamma 90.000000
_cell_volume 3269.592084
_symmetry_space_group_name_H-M "C 2/M"
_symmetry_group_IT_number 12
_symmetry_cell_setting 'monoclinic'
loop_
_space_group_symop_operation_xyz
x,y,z
-x,y,-z
-x,-y,-z
x,-y,z
1/2+x,1/2+y,z
1/2-x,1/2+y,-z
1/2-x,1/2-y,-z
1/2+x,1/2-y,z
loop_
_atom_site_type_symbol
_atom_site_label
_atom_site_fract_x
_atom_site_fract_y
_atom_site_fract_z
Si Si1 0.886090 0.312695 0.965140
Si Si2 0.334631 0.618739 0.200667
Si Si3 0.444617 0.691672 0.333597
Si Si4 0.444389 0.925461 0.340522
Si Si5 0.385758 0.573739 0.958186
Si Si6 0.093657 0.377177 0.293732
Si Si7 0.832897 0.269126 0.206484
Si Si8 0.906678 0.221270 0.706073
O O1 0.986440 0.250206 0.810934
O O2 0.980924 0.376154 0.821911
O O3 0.820824 0.305788 0.141092
O O4 0.751982 0.308039 0.089651
O O5 0.225441 0.587714 0.412740
O O6 0.290701 0.694010 0.251447
O O7 0.500000 0.616271 0.000000
O O8 0.329378 0.584554 0.124062
O O9 0.488983 0.625219 0.231786
O O10 0.275282 0.702396 0.580548
O O11 0.517637 0.696685 0.319280
O O12 0.514585 0.906265 0.327534
O O13 0.470572 0.000000 0.286152
O O14 0.429652 0.500000 0.886520
O O15 0.251251 0.592636 0.088292
O O16 0.105076 0.299296 0.272736
O O17 0.000000 0.391649 0.500000
O O18 0.000000 0.271188 0.000000
O O19 0.000000 0.206897 0.500000
#
# Coordination Sequence:
#
# PCOD9219297 Si02
#       8
#     8   8   8   8   8   8   8   8
#     4  12  22  40  65  92 122 161 203 250 302 360
#     4  11  23  41  63  91 126 160 200 254 311 361
#     4  12  22  40  65  92 122 161 203 250 302 360
#     4  12  25  39  60  92 129 165 199 244 305 371
#     4  12  25  39  60  92 129 165 199 244 305 371
#     4  11  20  34  60  94 127 157 194 247 312 367
#     4  11  24  42  66  95 120 153 209 265 301 342
#     4  11  20  36  65  93 123 155 200 252 306 360
#
# _framework density 19.574307000000001
#
# number of rings (size 3 to 8) (size 9 to 14) (size 15 to 20)
#    0.000    0.500    7.500    1.875    0.000    3.000 
#    0.000    0.625    0.000    1.500    0.000    0.000 
#    0.000    0.000    0.000    0.000    0.000    0.000 
#
# Total GULP energy -179094.146971 kJ/mol
# GULP energy per Si atom -5596.692093 kJ/mol
# Density = 1.952976 g / cm^3
# Si number density = 19.574307 Si / 1000 Ang^3
#
#
#
# Elastic Constant Matrix: (Units=GPa)
#
#
# Indices 1 2 3 4 5 6 
#
# 1 14.1058 -1.4975 -9.3436 0.0005 -1.2514 -0.0010
# 2 -1.4975 132.1048 46.5385 0.0018 1.5348 -0.0013
# 3 -9.3436 46.5385 113.5083 0.0012 1.1219 -0.0007
# 4 0.0005 0.0018 0.0012 17.6580 -0.0001 -0.2172
# 5 -1.2514 1.5348 1.1219 -0.0001 27.9486 -0.0003
# 6 -0.0010 -0.0013 -0.0007 -0.2172 -0.0003 -3.2893
#
#
#
# Elastic Compliance Matrix: (Units=1/GPa)
#
#
# Indices 1 2 3 4 5 6 
#
# 1 0.075537 -0.001590 0.006838 -0.000003 0.003195 -0.000024
# 2 -0.001590 0.008884 -0.003769 -0.000001 -0.000408 -0.000002
# 3 0.006838 -0.003769 0.010918 -0.000001 0.000075 -0.000003
# 4 -0.000003 -0.000001 -0.000001 0.056586 0.000000 -0.003736
# 5 0.003195 -0.000408 0.000075 0.000000 0.035942 -0.000004
# 6 -0.000024 -0.000002 -0.000003 -0.003736 -0.000004 -0.303767
#
#
# Mechanical properties :
#
#
# Convention : Reuss Voigt Hill
#
# Bulk Modulus (GPa) = 10.17324 36.79041 23.48182
# Shear Modulus (GPa) = -58.07754 23.39822 -17.33966
#
# Velocity S-wave (km/s) = -5.45295 3.46114 -2.97953
# Velocity P-wave (km/s) = 5.86837 5.89989 0.43067
#
# Compressibility (1/GPa) = 0.09829714
#
# Stress axis : x y z
#
# Youngs Moduli (GPa) = 13.23848 112.55703 91.59548
#
# Poissons Ratio (x) = 0.17895 -0.62635
# Poissons Ratio (y) = 0.02105 0.34526
# Poissons Ratio (z) = -0.09053 0.42428
#
# Static dielectric constant tensor:
#      x y z
#    x 1.706310 0.000000 -0.019910 
#    y 0.000000 1.654120 0.000000 
#    z -0.019910 0.000000 1.703310 
# 
# From -- ./inp_files/294138.got.cif
#   From: 2010.05.17/outbox.cif.g08.bks.cpg/sg12_148_cif.got.tgz:294138.got - 2010.06.03 13:09:07.
