data_PCOD9219439
_publ_section_title
;
Structure prediction by ZEFSAII (Michael W. Deem and Ramdas Pophale) SiO2 
 PCOD9219439
Probable space group: C 2/M
;
_chemical_formula_sum "Si O2"
_cell_formula_units_Z 48
_cell_length_a 21.709553
_cell_length_b 14.803307
_cell_length_c 10.880612
_cell_angle_alpha 90.000000
_cell_angle_beta 44.266112
_cell_angle_gamma 90.000000
_cell_volume 2440.693868
_symmetry_space_group_name_H-M "C 2/M"
_symmetry_group_IT_number 12
_symmetry_cell_setting 'monoclinic'
loop_
_space_group_symop_operation_xyz
x,y,z
-x,y,-z
-x,-y,-z
x,-y,z
1/2+x,1/2+y,z
1/2-x,1/2+y,-z
1/2-x,1/2-y,-z
1/2+x,1/2-y,z
loop_
_atom_site_type_symbol
_atom_site_label
_atom_site_fract_x
_atom_site_fract_y
_atom_site_fract_z
Si Si1 0.856088 0.894149 0.668027
Si Si2 0.079046 0.846053 0.693821
Si Si3 0.895837 0.099672 0.881359
Si Si4 0.589458 0.160305 0.816630
Si Si5 0.283549 0.252509 0.171202
Si Si6 0.241220 0.400138 0.423803
O O1 0.897041 0.857836 0.483264
O O2 0.913530 0.891803 0.710120
O O3 0.775096 0.825591 0.803956
O O4 0.831689 0.000000 0.683593
O O5 0.065150 0.744864 0.763123
O O6 0.163437 0.884890 0.646982
O O7 0.984084 0.893508 0.837013
O O8 0.856772 0.000000 0.954468
O O9 0.830823 0.178835 0.012557
O O10 0.642717 0.202503 0.853868
O O11 0.662244 0.105414 0.635622
O O12 0.500000 0.118238 0.000000
O O13 0.231865 0.318016 0.341135
O O14 0.240433 0.500000 0.369094
#
# Coordination Sequence:
#
# PCOD9219439 Si02
#       6
#     8   8   8   8   8   8
#     4  11  22  38  60  84 115 159 196 232 282 338
#     4  11  20  38  58  86 120 146 189 239 291 342
#     4  11  23  36  58  90 119 152 192 233 284 344
#     4  11  21  38  60  83 115 150 192 237 290 343
#     4  11  21  39  58  85 122 151 189 237 284 343
#     4  11  22  37  62  87 114 153 188 237 296 340
#
# _framework density 19.666539
#
# number of rings (size 3 to 8) (size 9 to 14) (size 15 to 20)
#    0.000    1.000    5.000    4.000    0.000    1.667 
#    0.000    2.500    0.000    0.000    0.000    1.167 
#    0.000    0.000    0.000    0.000    0.000    0.000 
#
# Total GULP energy -133882.637967 kJ/mol
# GULP energy per Si atom -5578.443249 kJ/mol
# Density = 1.962178 g / cm^3
# Si number density = 19.666539 Si / 1000 Ang^3
#
#
#
# Elastic Constant Matrix: (Units=GPa)
#
#
# Indices 1 2 3 4 5 6 
#
# 1 68.1366 42.3494 9.9722 0.0000 -3.0153 0.0000
# 2 42.3494 79.5353 18.9893 0.0000 -9.5832 0.0000
# 3 9.9722 18.9893 77.1963 0.0000 -8.2773 0.0000
# 4 0.0000 0.0000 0.0000-3593.7994 0.0000 1084.1827
# 5 -3.0153 -9.5832 -8.2773 0.0000 24.9308 0.0000
# 6 0.0000 0.0000 0.0000 1084.1827 0.0000 -300.5210
#
#
#
# Elastic Compliance Matrix: (Units=1/GPa)
#
#
# Indices 1 2 3 4 5 6 
#
# 1 0.022026 -0.011936 -0.000120 0.000000 -0.001964 0.000000
# 2 -0.011936 0.020262 -0.002864 0.000000 0.005394 0.000000
# 3 -0.000120 -0.002864 0.014055 0.000000 0.003551 0.000000
# 4 0.000000 0.000000 0.000000 0.003149 0.000000 0.011360
# 5 -0.001964 0.005394 0.003551 0.000000 0.043126 0.000000
# 6 0.000000 0.000000 0.000000 0.011360 0.000000 0.037655
#
#
# Mechanical properties :
#
#
# Convention : Reuss Voigt Hill
#
# Bulk Modulus (GPa) = 37.73114 40.83219 39.28167
# Shear Modulus (GPa) = 27.94149 -763.64076 -367.84964
#
# Velocity S-wave (km/s) = 3.77339 -19.72657 -13.69122
# Velocity P-wave (km/s) = 6.18156 22.31687 15.16296
#
# Compressibility (1/GPa) = 0.02650330
#
# Stress axis : x y z
#
# Youngs Moduli (GPa) = 45.40186 49.35334 71.15056
#
# Poissons Ratio (x) = 0.58907 0.00852
# Poissons Ratio (y) = 0.54190 0.20377
# Poissons Ratio (z) = 0.00544 0.14135
#
# Static dielectric constant tensor:
#      x y z
#    x 1.676100 0.000000 -0.004210 
#    y 0.000000 1.670610 0.000000 
#    z -0.004210 0.000000 1.766240 
# 
# From -- ./inp_files/143160.got.cif
#   From: 2010.05.17/outbox.cif.g08.bks.cpg/sg12_72_cif.got.tgz:143160.got - 2010.06.03 13:09:07.
