data_PCOD9219585
_publ_section_title
;
Structure prediction by ZEFSAII (Michael W. Deem and Ramdas Pophale) SiO2 
 PCOD9219585
Probable space group: C 2/M
;
_chemical_formula_sum "Si O2"
_cell_formula_units_Z 64
_cell_length_a 15.159839
_cell_length_b 16.999924
_cell_length_c 20.475642
_cell_angle_alpha 90.000000
_cell_angle_beta 143.088282
_cell_angle_gamma 90.000000
_cell_volume 3169.222152
_symmetry_space_group_name_H-M "C 2/M"
_symmetry_group_IT_number 12
_symmetry_cell_setting 'monoclinic'
loop_
_space_group_symop_operation_xyz
x,y,z
-x,y,-z
-x,-y,-z
x,-y,z
1/2+x,1/2+y,z
1/2-x,1/2+y,-z
1/2-x,1/2-y,-z
1/2+x,1/2-y,z
loop_
_atom_site_type_symbol
_atom_site_label
_atom_site_fract_x
_atom_site_fract_y
_atom_site_fract_z
Si Si1 0.130453 0.677779 0.125487
Si Si2 0.442148 0.088245 0.613379
Si Si3 0.357600 0.591580 0.340770
Si Si4 0.549732 0.705822 0.193726
Si Si5 0.898671 0.906245 0.005047
Si Si6 0.643441 0.794838 0.811152
Si Si7 0.828186 0.148669 0.470494
Si Si8 0.653345 0.185215 0.557373
O O1 0.226485 0.609005 0.213937
O O2 0.065852 0.728735 0.146892
O O3 0.244868 0.734009 0.155763
O O4 0.000000 0.654055 0.000000
O O5 0.552261 0.156010 0.703331
O O6 0.299937 0.097734 0.574704
O O7 0.383983 0.109166 0.507075
O O8 0.503422 0.000000 0.653633
O O9 0.375607 0.500000 0.363938
O O10 0.327243 0.632840 0.392155
O O11 0.513005 0.625080 0.408184
O O12 0.473135 0.632358 0.112751
O O13 0.459589 0.746821 0.199397
O O14 0.710456 0.679172 0.313351
O O15 0.881041 0.000000 0.999962
O O16 0.745256 0.860427 0.905975
O O17 0.000000 0.890912 0.000000
O O18 0.806161 0.241467 0.464945
O O19 0.500000 0.207999 0.500000
#
# Coordination Sequence:
#
# PCOD9219585 Si02
#       8
#     8   8   8   8   8   8   8   8
#     4  12  24  43  67  95 127 171 226 270 324 391
#     4  12  26  40  62 100 135 163 208 270 326 381
#     4  11  22  38  66  95 128 170 208 265 323 376
#     4  12  23  44  69  98 129 172 225 270 321 395
#     4  11  24  44  71  99 131 173 223 281 333 379
#     4  12  23  43  72  92 129 176 224 265 322 397
#     4  11  20  42  66  93 128 169 218 254 311 395
#     4  12  24  42  69  94 130 173 216 262 323 393
#
# _framework density 20.194230999999998
#
# number of rings (size 3 to 8) (size 9 to 14) (size 15 to 20)
#    0.000    0.375    6.250    4.125    1.750    1.000 
#    0.000    1.250    0.000    0.000    0.000    0.000 
#    0.000    0.000    0.000    0.000    0.000    0.000 
#
# Total GULP energy -178895.137050 kJ/mol
# GULP energy per Si atom -5590.473033 kJ/mol
# Density = 2.014827 g / cm^3
# Si number density = 20.194231 Si / 1000 Ang^3
#
#
#
# Elastic Constant Matrix: (Units=GPa)
#
#
# Indices 1 2 3 4 5 6 
#
# 1 30.2370 1.3437 9.2267 0.0001 3.7697 0.0001
# 2 1.3437 59.5312 14.3890 -0.0008 -5.4827 0.0002
# 3 9.2267 14.3890 139.6787 -0.0015 9.9549 0.0004
# 4 0.0001 -0.0008 -0.0015 49.7346 -0.0005 -26.5577
# 5 3.7697 -5.4827 9.9549 -0.0005 20.5841 0.0002
# 6 0.0001 0.0002 0.0004 -26.5577 0.0002 24.6136
#
#
#
# Elastic Compliance Matrix: (Units=1/GPa)
#
#
# Indices 1 2 3 4 5 6 
#
# 1 0.034359 -0.000868 -0.001777 -0.000001 -0.005664 -0.000001
# 2 -0.000868 0.017905 -0.002215 0.000000 0.005999 0.000000
# 3 -0.001777 -0.002215 0.007792 0.000000 -0.004033 0.000000
# 4 -0.000001 0.000000 0.000000 0.047440 0.000001 0.051187
# 5 -0.005664 0.005999 -0.004033 0.000001 0.053167 0.000000
# 6 -0.000001 0.000000 0.000000 0.051187 0.000000 0.095858
#
#
# Mechanical properties :
#
#
# Convention : Reuss Voigt Hill
#
# Bulk Modulus (GPa) = 19.86561 31.04064 25.45313
# Shear Modulus (GPa) = 17.66665 32.61896 25.14280
#
# Velocity S-wave (km/s) = 2.96097 4.02339 3.53235
# Velocity P-wave (km/s) = 4.64203 6.08177 5.41001
#
# Compressibility (1/GPa) = 0.05033825
#
# Stress axis : x y z
#
# Youngs Moduli (GPa) = 29.10454 55.84925 128.33294
#
# Poissons Ratio (x) = 0.04847 0.22799
# Poissons Ratio (y) = 0.02526 0.28423
# Poissons Ratio (z) = 0.05171 0.12369
#
# Static dielectric constant tensor:
#      x y z
#    x 1.792900 0.000000 -0.016130 
#    y 0.000000 1.685630 0.000000 
#    z -0.016130 0.000000 1.726000 
# 
# From -- ./inp_files/271754.got.cif
#   From: 2010.05.17/outbox.cif.g08.bks.cpg/sg12_136_cif.got.tgz:271754.got - 2010.06.03 13:09:07.
