data_PCOD9219545
_publ_section_title
;
Structure prediction by ZEFSAII (Michael W. Deem and Ramdas Pophale) SiO2 
 PCOD9219545
Probable space group: C 2/M
;
_chemical_formula_sum "Si O2"
_cell_formula_units_Z 32
_cell_length_a 10.429560
_cell_length_b 14.338201
_cell_length_c 16.032067
_cell_angle_alpha 90.000000
_cell_angle_beta 146.871380
_cell_angle_gamma 90.000000
_cell_volume 1310.257046
_symmetry_space_group_name_H-M "C 2/M"
_symmetry_group_IT_number 12
_symmetry_cell_setting 'monoclinic'
loop_
_space_group_symop_operation_xyz
x,y,z
-x,y,-z
-x,-y,-z
x,-y,z
1/2+x,1/2+y,z
1/2-x,1/2+y,-z
1/2-x,1/2-y,-z
1/2+x,1/2-y,z
loop_
_atom_site_type_symbol
_atom_site_label
_atom_site_fract_x
_atom_site_fract_y
_atom_site_fract_z
Si Si1 0.500000 0.658521 0.500000
Si Si2 0.421521 0.297576 0.160062
Si Si3 0.861439 0.000000 0.211049
Si Si4 0.147708 0.500000 0.259214
Si Si5 0.115594 0.500000 0.422879
Si Si6 0.418458 0.801610 0.334595
O O1 0.294967 0.592852 0.357875
O O2 0.572689 0.723128 0.464091
O O3 0.368213 0.404388 0.161030
O O4 0.397381 0.232554 0.228644
O O5 0.671918 0.298032 0.249845
O O6 0.250000 0.250000 0.000000
O O7 0.102256 0.000000 0.401716
O O8 0.639986 0.000000 0.155150
O O9 0.002184 0.500000 0.265883
O O10 0.022171 0.403245 0.406279
#
# Coordination Sequence:
#
# PCOD9219545 Si02
#       6
#     4   8   4   4   4   8
#     4  11  20  41  70 110 146 179 240 301 382 432
#     4  12  28  49  71 104 150 204 252 293 353 450
#     4  12  24  47  77 110 149 192 244 305 380 436
#     4  11  20  40  69 110 149 182 227 301 377 449
#     4  12  24  43  75 120 151 179 238 318 389 426
#     4  12  26  44  75 108 150 191 241 310 373 432
#
# _framework density 24.422687
#
# number of rings (size 3 to 8) (size 9 to 14) (size 15 to 20)
#    0.000    0.250    5.000    4.500    0.000    5.500 
#    0.000    7.500    0.000    0.000    0.000    0.000 
#    0.000    0.000    0.000    0.000    0.000    0.000 
#
# Total GULP energy -89449.126526 kJ/mol
# GULP energy per Si atom -5590.570408 kJ/mol
# Density = 2.436710 g / cm^3
# Si number density = 24.422687 Si / 1000 Ang^3
#
#
#
# Elastic Constant Matrix: (Units=GPa)
#
#
# Indices 1 2 3 4 5 6 
#
# 1 146.7802 55.1875 52.0805 -0.0001 -21.5309 -0.0002
# 2 55.1875 225.5556 46.5424 0.0007 -12.9690 0.0001
# 3 52.0805 46.5424 94.6591 0.0021 -32.1155 0.0006
# 4 -0.0001 0.0007 0.0021 26.1916 0.0010 3.2143
# 5 -21.5309 -12.9690 -32.1155 0.0010 48.9525 0.0000
# 6 -0.0002 0.0001 0.0006 3.2143 0.0000 33.7750
#
#
#
# Elastic Compliance Matrix: (Units=1/GPa)
#
#
# Indices 1 2 3 4 5 6 
#
# 1 0.008824 -0.001302 -0.003878 0.000000 0.000992 0.000000
# 2 -0.001302 0.005131 -0.001981 0.000000 -0.000513 0.000000
# 3 -0.003878 -0.001981 0.016613 -0.000002 0.008668 0.000000
# 4 0.000000 0.000000 -0.000002 0.038631 -0.000002 -0.003676
# 5 0.000992 -0.000513 0.008668 -0.000002 0.026415 0.000000
# 6 0.000000 0.000000 0.000000 -0.003676 0.000000 0.029958
#
#
# Mechanical properties :
#
#
# Convention : Reuss Voigt Hill
#
# Bulk Modulus (GPa) = 61.55104 86.06841 73.80973
# Shear Modulus (GPa) = 34.40941 42.66279 38.53610
#
# Velocity S-wave (km/s) = 3.75762 4.18407 3.97656
# Velocity P-wave (km/s) = 6.63953 7.65895 7.16739
#
# Compressibility (1/GPa) = 0.01624668
#
# Stress axis : x y z
#
# Youngs Moduli (GPa) = 113.32840 194.88573 60.19435
#
# Poissons Ratio (x) = 0.25368 0.23345
# Poissons Ratio (y) = 0.14752 0.11922
# Poissons Ratio (z) = 0.43952 0.38600
#
# Static dielectric constant tensor:
#      x y z
#    x 2.050370 0.000000 0.003280 
#    y 0.000000 1.915260 0.000000 
#    z 0.003280 0.000000 2.061260 
# 
# From -- ./inp_files/263486.got.cif
#   From: 2010.05.17/outbox.cif.g08.bks.cpg/sg12_132_cif.got.tgz:263486.got - 2010.06.03 13:09:07.
