data_PCOD9219307
_publ_section_title
;
Structure prediction by ZEFSAII (Michael W. Deem and Ramdas Pophale) SiO2 
 PCOD9219307
Probable space group: C 2/M
;
_chemical_formula_sum "Si O2"
_cell_formula_units_Z 56
_cell_length_a 13.873065
_cell_length_b 26.585230
_cell_length_c 9.409648
_cell_angle_alpha 90.000000
_cell_angle_beta 53.793367
_cell_angle_gamma 90.000000
_cell_volume 2800.280876
_symmetry_space_group_name_H-M "C 2/M"
_symmetry_group_IT_number 12
_symmetry_cell_setting 'monoclinic'
loop_
_space_group_symop_operation_xyz
x,y,z
-x,y,-z
-x,-y,-z
x,-y,z
1/2+x,1/2+y,z
1/2-x,1/2+y,-z
1/2-x,1/2-y,-z
1/2+x,1/2-y,z
loop_
_atom_site_type_symbol
_atom_site_label
_atom_site_fract_x
_atom_site_fract_y
_atom_site_fract_z
Si Si1 0.082031 0.734638 0.054616
Si Si2 0.020200 0.402974 0.647483
Si Si3 0.370774 0.349029 0.057083
Si Si4 0.793812 0.630539 0.028011
Si Si5 0.131124 0.554780 0.813591
Si Si6 0.286244 0.176500 0.564091
Si Si7 0.586015 0.276340 0.547798
O O1 0.000323 0.751458 0.258293
O O2 0.128333 0.788310 0.959376
O O3 0.176036 0.690160 0.995092
O O4 0.000000 0.713238 0.000000
O O5 0.101996 0.439019 0.672686
O O6 0.095590 0.351354 0.590447
O O7 0.000000 0.416128 0.500000
O O8 0.896053 0.393789 0.837957
O O9 0.271139 0.357269 0.263209
O O10 0.500000 0.364131 0.000000
O O11 0.331320 0.373314 0.944253
O O12 0.801219 0.601246 0.170519
O O13 0.186001 0.500000 0.795156
O O14 0.000000 0.555423 0.000000
O O15 0.332878 0.230375 0.579508
O O16 0.181169 0.187325 0.541998
O O17 0.500000 0.297165 0.500000
#
# Coordination Sequence:
#
# PCOD9219307 Si02
#       7
#     8   8   8   8   8   8   8
#     4  11  20  35  49  80 115 157 196 223 274 333
#     4  11  20  35  61  84 111 150 182 227 292 346
#     4  11  22  37  52  79 118 156 196 233 266 328
#     4  11  21  35  61  81 115 154 189 231 285 340
#     4   9  21  39  59  91 118 136 178 238 296 352
#     4  11  21  36  52  77 115 147 198 242 269 328
#     4  11  22  34  51  74 113 157 197 240 271 315
#
# _framework density 19.997993000000001
#
# number of rings (size 3 to 8) (size 9 to 14) (size 15 to 20)
#    0.000    1.286    5.714    3.000    0.000    1.429 
#    0.000    0.000    0.000    0.429    0.000    1.000 
#    0.000    0.000    0.000    0.000    0.000    0.000 
#
# Total GULP energy -156193.962986 kJ/mol
# GULP energy per Si atom -5578.355821 kJ/mol
# Density = 1.995248 g / cm^3
# Si number density = 19.997993 Si / 1000 Ang^3
#
#
#
# Elastic Constant Matrix: (Units=GPa)
#
#
# Indices 1 2 3 4 5 6 
#
# 1 157.1946 22.9103 20.1518 0.0000 24.6026 0.0000
# 2 22.9103 37.0075 3.2727 0.0000 6.6058 0.0000
# 3 20.1518 3.2727 45.0906 0.0000 13.1892 0.0000
# 4 0.0000 0.0000 0.0000 1.0985 0.0000 0.9961
# 5 24.6026 6.6058 13.1892 0.0000 28.0690 0.0000
# 6 0.0000 0.0000 0.0000 0.9961 0.0000 9.9454
#
#
#
# Elastic Compliance Matrix: (Units=1/GPa)
#
#
# Indices 1 2 3 4 5 6 
#
# 1 0.007968 -0.003840 -0.001743 0.000000 -0.005261 0.000000
# 2 -0.003840 0.030057 0.000718 0.000000 -0.004046 0.000000
# 3 -0.001743 0.000718 0.026093 0.000000 -0.010902 0.000000
# 4 0.000000 0.000000 0.000000 1.001317 0.000000 -0.100293
# 5 -0.005261 -0.004046 -0.010902 0.000000 0.046312 0.000000
# 6 0.000000 0.000000 0.000000 -0.100293 0.000000 0.110595
#
#
# Mechanical properties :
#
#
# Convention : Reuss Voigt Hill
#
# Bulk Modulus (GPa) = 18.38633 36.88469 27.63551
# Shear Modulus (GPa) = 3.99935 20.68644 12.34289
#
# Velocity S-wave (km/s) = 1.41570 3.21974 2.48706
# Velocity P-wave (km/s) = 3.44766 5.68388 4.70068
#
# Compressibility (1/GPa) = 0.05438822
#
# Stress axis : x y z
#
# Youngs Moduli (GPa) = 125.50081 33.26992 38.32380
#
# Poissons Ratio (x) = 0.12774 0.06682
# Poissons Ratio (y) = 0.48186 -0.02751
# Poissons Ratio (z) = 0.21881 -0.02388
#
# Static dielectric constant tensor:
#      x y z
#    x 1.745410 0.000000 0.014390 
#    y 0.000000 1.713720 0.000000 
#    z 0.014390 0.000000 1.779480 
# 
# From -- ./inp_files/68100.got.cif
#   From: 2010.05.17/outbox.cif.g08.bks.cpg/sg12_35_cif.got.tgz:68100.got - 2010.06.03 13:09:07.
