data_PCOD9219006
_publ_section_title
;
Structure prediction by ZEFSAII (Michael W. Deem and Ramdas Pophale) SiO2 
 PCOD9219006
Probable space group: C 2/M
;
_chemical_formula_sum "Si O2"
_cell_formula_units_Z 44
_cell_length_a 9.948579
_cell_length_b 21.753021
_cell_length_c 9.114801
_cell_angle_alpha 90.000000
_cell_angle_beta 81.558162
_cell_angle_gamma 90.000000
_cell_volume 1951.177320
_symmetry_space_group_name_H-M "C 2/M"
_symmetry_group_IT_number 12
_symmetry_cell_setting 'monoclinic'
loop_
_space_group_symop_operation_xyz
x,y,z
-x,y,-z
-x,-y,-z
x,-y,z
1/2+x,1/2+y,z
1/2-x,1/2+y,-z
1/2-x,1/2-y,-z
1/2+x,1/2-y,z
loop_
_atom_site_type_symbol
_atom_site_label
_atom_site_fract_x
_atom_site_fract_y
_atom_site_fract_z
Si Si1 0.299371 0.390488 0.827681
Si Si2 0.666064 0.000000 0.347654
Si Si3 0.584149 0.813293 0.703287
Si Si4 0.351560 0.500000 0.594367
Si Si5 0.051138 0.827415 0.662925
Si Si6 0.337695 0.500000 0.035333
Si Si7 0.657111 0.868225 0.371577
O O1 0.168089 0.349453 0.812414
O O2 0.329586 0.439726 0.694261
O O3 0.430305 0.346444 0.791508
O O4 0.288645 0.436478 0.966636
O O5 0.592305 0.065003 0.350077
O O6 0.737030 0.000000 0.491871
O O7 0.780533 0.000000 0.205961
O O8 0.605561 0.740725 0.689654
O O9 0.632315 0.842088 0.539118
O O10 0.422073 0.824106 0.727406
O O11 0.500000 0.500000 0.500000
O O12 0.180723 0.871101 0.666006
O O13 0.000000 0.828622 0.500000
O O14 0.500000 0.500000 0.000000
#
# Coordination Sequence:
#
# PCOD9219006 Si02
#       7
#     8   4   8   4   8   4   8
#     4  11  23  39  64  95 128 158 213 264 312 370
#     4  12  22  39  62  86 125 166 204 253 320 369
#     4  11  22  36  58  97 131 162 201 260 314 375
#     4  11  19  34  59  94 122 151 199 265 311 357
#     4  12  19  35  62  96 131 164 202 261 319 370
#     4  11  25  44  66  92 123 170 215 266 315 372
#     4  11  22  35  58  93 131 163 204 252 319 375
#
# _framework density 22.550487
#
# number of rings (size 3 to 8) (size 9 to 14) (size 15 to 20)
#    0.000    0.727    5.455    5.455    0.000    2.909 
#    0.000    1.818    0.000   12.000    0.000    0.000 
#    0.000    0.000    0.000    0.000    0.000    0.000 
#
# Total GULP energy -122987.444791 kJ/mol
# GULP energy per Si atom -5590.338400 kJ/mol
# Density = 2.249916 g / cm^3
# Si number density = 22.550487 Si / 1000 Ang^3
#
#
#
# Elastic Constant Matrix: (Units=GPa)
#
#
# Indices 1 2 3 4 5 6 
#
# 1 97.9839 8.1314 0.2842 0.0000 11.0075 0.0000
# 2 8.1314 147.3513 19.9278 0.0000 7.5034 0.0000
# 3 0.2842 19.9278 17.6212 0.0000 -2.0636 0.0000
# 4 0.0000 0.0000 0.0000 7.8804 0.0000 10.9058
# 5 11.0075 7.5034 -2.0636 0.0000 18.9576 0.0000
# 6 0.0000 0.0000 0.0000 10.9058 0.0000 36.7228
#
#
#
# Elastic Compliance Matrix: (Units=1/GPa)
#
#
# Indices 1 2 3 4 5 6 
#
# 1 0.010937 -0.000183 -0.000713 0.000000 -0.006356 0.000000
# 2 -0.000183 0.008361 -0.009955 0.000000 -0.004286 0.000000
# 3 -0.000713 -0.009955 0.069414 0.000000 0.011910 0.000000
# 4 0.000000 0.000000 0.000000 0.215440 0.000000 -0.063981
# 5 -0.006356 -0.004286 0.011910 0.000000 0.059433 0.000000
# 6 0.000000 0.000000 0.000000 -0.063981 0.000000 0.046232
#
#
# Mechanical properties :
#
#
# Convention : Reuss Voigt Hill
#
# Bulk Modulus (GPa) = 14.92329 35.51591 25.21960
# Shear Modulus (GPa) = 11.01671 28.35302 19.68486
#
# Velocity S-wave (km/s) = 2.21268 3.54971 2.95773
# Velocity P-wave (km/s) = 3.62768 5.70826 4.78248
#
# Compressibility (1/GPa) = 0.06700933
#
# Stress axis : x y z
#
# Youngs Moduli (GPa) = 91.43245 119.60038 14.40634
#
# Poissons Ratio (x) = 0.02194 0.01028
# Poissons Ratio (y) = 0.01677 0.14341
# Poissons Ratio (z) = 0.06521 1.19058
#
# Static dielectric constant tensor:
#      x y z
#    x 1.862890 0.000000 -0.017350 
#    y 0.000000 1.887180 0.000000 
#    z -0.017350 0.000000 1.827580 
# 
# From -- ./inp_files/49325.got.cif
#   From: 2010.05.17/outbox.cif.g08.bks.cpg/sg12_25_cif.got.tgz:49325.got - 2010.06.03 13:09:07.
