data_PCOD9219158
_publ_section_title
;
Structure prediction by ZEFSAII (Michael W. Deem and Ramdas Pophale) SiO2 
 PCOD9219158
Probable space group: C 2/M
;
_chemical_formula_sum "Si O2"
_cell_formula_units_Z 42
_cell_length_a 12.527364
_cell_length_b 14.940293
_cell_length_c 8.778092
_cell_angle_alpha 90.000000
_cell_angle_beta 96.027888
_cell_angle_gamma 90.000000
_cell_volume 1633.845622
_symmetry_space_group_name_H-M "C 2/M"
_symmetry_group_IT_number 12
_symmetry_cell_setting 'monoclinic'
loop_
_space_group_symop_operation_xyz
x,y,z
-x,y,-z
-x,-y,-z
x,-y,z
1/2+x,1/2+y,z
1/2-x,1/2+y,-z
1/2-x,1/2-y,-z
1/2+x,1/2-y,z
loop_
_atom_site_type_symbol
_atom_site_label
_atom_site_fract_x
_atom_site_fract_y
_atom_site_fract_z
Si Si1 0.694683 0.345872 0.508403
Si Si2 0.500000 0.000000 0.000000
Si Si3 0.090849 0.101130 0.168270
Si Si4 0.685556 0.098221 0.879749
Si Si5 0.922016 0.593962 0.635833
Si Si6 0.944333 0.239473 0.257744
O O1 0.750000 0.250000 0.500000
O O2 0.647319 0.381749 0.342985
O O3 0.796285 0.404037 0.580994
O O4 0.601000 0.323561 0.614490
O O5 0.595918 0.921753 0.991537
O O6 0.190025 0.110437 0.065602
O O7 0.994808 0.170156 0.149953
O O8 0.051301 0.000000 0.158822
O O9 0.648259 0.189112 0.794586
O O10 0.683336 0.000000 0.792609
O O11 0.948184 0.500000 0.731687
O O12 0.000000 0.588397 0.500000
O O13 0.958268 0.689881 0.701401
#
# Coordination Sequence:
#
# PCOD9219158 Si02
#       6
#     8   2   8   8   8   8
#     4  12  20  32  47  74 116 158 181 212 255 318
#     4   8  20  40  68  80 102 130 184 236 308 334
#     4  11  22  35  53  77 117 154 188 219 264 324
#     4   9  19  38  60  80 105 135 181 235 287 330
#     4  11  20  30  46  70 103 144 191 221 254 298
#     4  12  20  33  53  80 109 146 184 223 263 323
#
# _framework density 25.706223999999999
#
# number of rings (size 3 to 8) (size 9 to 14) (size 15 to 20)
#    0.571    0.571    5.714    1.714    0.000    5.333 
#    0.000    0.952    0.000    0.000    0.000    0.667 
#    0.000    0.000    0.000    0.000    0.000    0.000 
#
# Total GULP energy -117008.773710 kJ/mol
# GULP energy per Si atom -5571.846367 kJ/mol
# Density = 2.564772 g / cm^3
# Si number density = 25.706224 Si / 1000 Ang^3
#
#
#
# Elastic Constant Matrix: (Units=GPa)
#
#
# Indices 1 2 3 4 5 6 
#
# 1 167.9646 78.7024 63.1213 0.0000 -10.2707 0.0000
# 2 78.7024 173.0435 29.6137 0.0000 -9.2674 0.0000
# 3 63.1213 29.6137 82.4171 0.0000 -31.5099 0.0000
# 4 0.0000 0.0000 0.0000 50.3268 0.0000 -206.5258
# 5 -10.2707 -9.2674 -31.5099 0.0000 51.9436 0.0000
# 6 0.0000 0.0000 0.0000 -206.5258 0.0000 371.7004
#
#
#
# Elastic Compliance Matrix: (Units=1/GPa)
#
#
# Indices 1 2 3 4 5 6 
#
# 1 0.010421 -0.003551 -0.008020 0.000000 -0.003438 0.000000
# 2 -0.003551 0.007372 0.000398 0.000000 0.000854 0.000000
# 3 -0.008020 0.000398 0.022854 0.000000 0.012349 0.000000
# 4 0.000000 0.000000 0.000000 -0.015522 0.000000 -0.008624
# 5 -0.003438 0.000854 0.012349 0.000000 0.026215 0.000000
# 6 0.000000 0.000000 0.000000 -0.008624 0.000000 -0.002102
#
#
# Mechanical properties :
#
#
# Convention : Reuss Voigt Hill
#
# Bulk Modulus (GPa) = 54.64442 85.14445 69.89444
# Shear Modulus (GPa) = 64.36218 111.59334 87.97776
#
# Velocity S-wave (km/s) = 5.00919 6.59585 5.85650
# Velocity P-wave (km/s) = 7.39996 9.54992 8.54284
#
# Compressibility (1/GPa) = 0.01830013
#
# Stress axis : x y z
#
# Youngs Moduli (GPa) = 95.95714 135.65203 43.75626
#
# Poissons Ratio (x) = 0.48176 0.35092
# Poissons Ratio (y) = 0.34078 -0.01740
# Poissons Ratio (z) = 0.76956 -0.05396
#
# Static dielectric constant tensor:
#      x y z
#    x 2.112640 0.000000 0.025890 
#    y 0.000000 1.984020 0.000000 
#    z 0.025890 0.000000 2.129200 
# 
# From -- ./inp_files/203877.got.cif
#   From: 2010.05.17/outbox.cif.g08.bks.cpg/sg12_102_cif.got.tgz:203877.got - 2010.06.03 13:09:07.
