data_PCOD9219726
_publ_section_title
;
Structure prediction by ZEFSAII (Michael W. Deem and Ramdas Pophale) SiO2 
 PCOD9219726
Probable space group: C 2/M
;
_chemical_formula_sum "Si O2"
_cell_formula_units_Z 64
_cell_length_a 25.544867
_cell_length_b 8.811285
_cell_length_c 28.775811
_cell_angle_alpha 90.000000
_cell_angle_beta 41.423865
_cell_angle_gamma 90.000000
_cell_volume 4285.306397
_symmetry_space_group_name_H-M "C 2/M"
_symmetry_group_IT_number 12
_symmetry_cell_setting 'monoclinic'
loop_
_space_group_symop_operation_xyz
x,y,z
-x,y,-z
-x,-y,-z
x,-y,z
1/2+x,1/2+y,z
1/2-x,1/2+y,-z
1/2-x,1/2-y,-z
1/2+x,1/2-y,z
loop_
_atom_site_type_symbol
_atom_site_label
_atom_site_fract_x
_atom_site_fract_y
_atom_site_fract_z
Si Si1 0.226437 0.175214 0.297372
Si Si2 0.549518 0.180189 0.072407
Si Si3 0.663991 0.819476 0.908565
Si Si4 0.381312 0.681012 0.160799
Si Si5 0.665411 0.318324 0.071550
Si Si6 0.897397 0.175227 0.697822
Si Si7 0.830624 0.319129 0.830682
Si Si8 0.566947 0.818450 0.418434
O O1 0.307559 0.265435 0.241537
O O2 0.189095 0.177417 0.269889
O O3 0.153519 0.251183 0.373534
O O4 0.237745 0.000000 0.302860
O O5 0.463190 0.251776 0.124856
O O6 0.600177 0.259147 0.078980
O O7 0.544170 0.000000 0.084745
O O8 0.597174 0.200782 0.992438
O O9 0.635054 0.749032 0.879499
O O10 0.743628 0.740092 0.873898
O O11 0.678063 0.000000 0.893753
O O12 0.384121 0.500000 0.156513
O O13 0.670002 0.500000 0.068071
O O14 0.648433 0.258179 0.134529
O O15 0.750000 0.250000 0.000000
O O16 0.889201 0.266640 0.750551
O O17 0.949118 0.250417 0.622341
O O18 0.918508 0.000000 0.691515
O O19 0.829673 0.500000 0.835678
O O20 0.500000 0.776592 0.500000
O O21 0.572101 0.000000 0.411968
#
# Coordination Sequence:
#
# PCOD9219726 Si02
#       8
#     8   8   8   8   8   8   8   8
#     4   9  18  30  46  66  95 131 164 194 235 286
#     4  11  24  39  53  69  93 125 166 212 257 303
#     4  11  21  34  51  70  94 125 162 206 256 303
#     4  12  23  34  50  71  99 129 165 207 251 304
#     4  12  24  39  56  73  95 125 166 214 263 307
#     4   9  18  30  46  69  98 131 166 199 241 290
#     4  12  22  33  53  74  98 129 168 211 256 306
#     4   9  16  27  45  71 104 136 165 198 239 292
#
# _framework density 14.934754
#
# number of rings (size 3 to 8) (size 9 to 14) (size 15 to 20)
#    0.750    0.625    2.500    5.250    0.000    4.000 
#    0.000    0.000    0.000    0.000    0.000    0.000 
#    0.000    1.000    0.000    3.750    0.000    5.750 
#
# Total GULP energy -178467.786754 kJ/mol
# GULP energy per Si atom -5577.118336 kJ/mol
# Density = 1.490076 g / cm^3
# Si number density = 14.934754 Si / 1000 Ang^3
#
#
#
# Elastic Constant Matrix: (Units=GPa)
#
#
# Indices 1 2 3 4 5 6 
#
# 1 88.8069 51.7206 50.3080 0.0005 -3.3198 -0.0011
# 2 51.7206 144.3352 68.5275 0.0019 -4.2505 -0.0008
# 3 50.3080 68.5275 120.5460 0.0004 -3.6115 -0.0002
# 4 0.0005 0.0019 0.0004 24.8204 0.0000 0.6707
# 5 -3.3198 -4.2505 -3.6115 0.0000 11.3823 0.0012
# 6 -0.0011 -0.0008 -0.0002 0.6707 0.0012 23.9229
#
#
#
# Elastic Compliance Matrix: (Units=1/GPa)
#
#
# Indices 1 2 3 4 5 6 
#
# 1 0.015979 -0.003467 -0.004641 0.000000 0.001893 0.000000
# 2 -0.003467 0.010280 -0.004354 -0.000001 0.001446 0.000000
# 3 -0.004641 -0.004354 0.012740 0.000000 0.001062 0.000000
# 4 0.000000 -0.000001 0.000000 0.040320 0.000000 -0.001130
# 5 0.001893 0.001446 0.001062 0.000000 0.089285 -0.000004
# 6 0.000000 0.000000 0.000000 -0.001130 -0.000004 0.041833
#
#
# Mechanical properties :
#
#
# Convention : Reuss Voigt Hill
#
# Bulk Modulus (GPa) = 71.04653 77.20004 74.12329
# Shear Modulus (GPa) = 20.82872 24.23391 22.53132
#
# Velocity S-wave (km/s) = 3.73855 4.03259 3.88835
# Velocity P-wave (km/s) = 8.14311 8.57240 8.36051
#
# Compressibility (1/GPa) = 0.01407528
#
# Stress axis : x y z
#
# Youngs Moduli (GPa) = 62.58076 97.27285 78.49552
#
# Poissons Ratio (x) = 0.33721 0.36432
# Poissons Ratio (y) = 0.21694 0.34177
# Poissons Ratio (z) = 0.29046 0.42353
#
# Static dielectric constant tensor:
#      x y z
#    x 1.468750 0.000000 0.000900 
#    y 0.000000 1.495440 0.000000 
#    z 0.000900 0.000000 1.501280 
# 
# From -- ./inp_files/348543.got.cif
#   From: 2010.05.17/outbox.cif.g08.bks.cpg/sg12_175_cif.got.tgz:348543.got - 2010.06.03 13:09:07.
