data_PCOD9219052
_publ_section_title
;
Structure prediction by ZEFSAII (Michael W. Deem and Ramdas Pophale) SiO2 
 PCOD9219052
Probable space group: C 2/M
;
_chemical_formula_sum "Si O2"
_cell_formula_units_Z 58
_cell_length_a 24.012199
_cell_length_b 19.806666
_cell_length_c 10.728732
_cell_angle_alpha 90.000000
_cell_angle_beta 143.972426
_cell_angle_gamma 90.000000
_cell_volume 3001.220627
_symmetry_space_group_name_H-M "C 2/M"
_symmetry_group_IT_number 12
_symmetry_cell_setting 'monoclinic'
loop_
_space_group_symop_operation_xyz
x,y,z
-x,y,-z
-x,-y,-z
x,-y,z
1/2+x,1/2+y,z
1/2-x,1/2+y,-z
1/2-x,1/2-y,-z
1/2+x,1/2-y,z
loop_
_atom_site_type_symbol
_atom_site_label
_atom_site_fract_x
_atom_site_fract_y
_atom_site_fract_z
Si Si1 0.265506 0.302939 0.636878
Si Si2 0.644977 0.844393 0.852549
Si Si3 0.000000 0.000000 0.500000
Si Si4 0.094602 0.780502 0.909616
Si Si5 0.349926 0.919089 0.672080
Si Si6 0.045053 0.419335 0.886918
Si Si7 0.393073 0.240650 0.454784
Si Si8 0.359175 0.373876 0.227562
O O1 0.250000 0.250000 0.500000
O O2 0.238322 0.376398 0.535582
O O3 0.190312 0.282364 0.606554
O O4 0.367605 0.296172 0.885456
O O5 0.659757 0.776627 0.961979
O O6 0.576096 0.889293 0.811993
O O7 0.604165 0.815285 0.649848
O O8 0.745488 0.880744 0.015815
O O9 0.082258 0.940276 0.635390
O O10 0.105794 0.845810 0.842801
O O11 0.989932 0.750362 0.706668
O O12 0.440048 0.902716 0.746442
O O13 0.335906 0.000000 0.644570
O O14 0.382416 0.898672 0.870789
O O15 0.049010 0.500000 0.888194
O O16 0.378750 0.312658 0.359868
#
# Coordination Sequence:
#
# PCOD9219052 Si02
#       8
#     8   8   2   8   8   8   8   8
#     4  12  24  39  64  96 121 169 229 266 322 399
#     4  11  19  36  65  94 120 165 209 264 327 378
#     4  12  24  40  64 100 132 182 220 240 320 420
#     4  11  21  40  62  89 127 167 209 274 333 375
#     4   9  20  40  59  87 133 173 206 268 334 386
#     4   9  19  37  63  94 127 165 210 256 328 404
#     4  11  22  41  63  91 135 162 210 285 334 367
#     4  11  21  39  61  90 128 171 213 258 320 384
#
# _framework density 19.325469999999999
#
# number of rings (size 3 to 8) (size 9 to 14) (size 15 to 20)
#    0.000    1.379    4.138    4.552    0.966    1.655 
#    1.241    0.690    0.000    3.310    0.000    1.931 
#    0.000    0.000    0.000    0.000    0.000    0.000 
#
# Total GULP energy -161674.140933 kJ/mol
# GULP energy per Si atom -5574.970377 kJ/mol
# Density = 1.928148 g / cm^3
# Si number density = 19.325470 Si / 1000 Ang^3
#
#
#
# Elastic Constant Matrix: (Units=GPa)
#
#
# Indices 1 2 3 4 5 6 
#
# 1 50.1872 14.7194 14.9584 0.0000 -5.8514 0.0000
# 2 14.7194 77.4940 32.9896 0.0000 1.0438 0.0000
# 3 14.9584 32.9896 117.5340 0.0000 7.6500 0.0000
# 4 0.0000 0.0000 0.0000 29.7630 0.0000 4.0581
# 5 -5.8514 1.0438 7.6500 0.0000 29.9699 0.0000
# 6 0.0000 0.0000 0.0000 4.0581 0.0000 26.9813
#
#
#
# Elastic Compliance Matrix: (Units=1/GPa)
#
#
# Indices 1 2 3 4 5 6 
#
# 1 0.022145 -0.003334 -0.002208 0.000000 0.005003 0.000000
# 2 -0.003334 0.015166 -0.003819 0.000000 -0.000204 0.000000
# 3 -0.002208 -0.003819 0.010048 0.000000 -0.002863 0.000000
# 4 0.000000 0.000000 0.000000 0.034302 0.000000 -0.005159
# 5 0.005003 -0.000204 -0.002863 0.000000 0.035082 0.000000
# 6 0.000000 0.000000 0.000000 -0.005159 0.000000 0.037839
#
#
# Mechanical properties :
#
#
# Convention : Reuss Voigt Hill
#
# Bulk Modulus (GPa) = 34.92108 41.17222 38.04665
# Shear Modulus (GPa) = 27.34510 29.51270 28.42890
#
# Velocity S-wave (km/s) = 3.76570 3.91210 3.83960
# Velocity P-wave (km/s) = 6.08412 6.46196 6.27589
#
# Compressibility (1/GPa) = 0.02863600
#
# Stress axis : x y z
#
# Youngs Moduli (GPa) = 45.15771 65.93678 99.52665
#
# Poissons Ratio (x) = 0.21980 0.21979
# Poissons Ratio (y) = 0.15053 0.38012
# Poissons Ratio (z) = 0.09972 0.25183
#
# Static dielectric constant tensor:
#      x y z
#    x 1.685780 0.000000 0.020920 
#    y 0.000000 1.666990 0.000000 
#    z 0.020920 0.000000 1.756430 
# 
# From -- ./inp_files/99303.got.cif
#   From: 2010.05.17/outbox.cif.g08.bks.cpg/sg12_50_cif.got.tgz:99303.got - 2010.06.03 13:09:07.
