data_PCOD9219212
_publ_section_title
;
Structure prediction by ZEFSAII (Michael W. Deem and Ramdas Pophale) SiO2 
 PCOD9219212
Probable space group: C 2/M
;
_chemical_formula_sum "Si O2"
_cell_formula_units_Z 48
_cell_length_a 20.965130
_cell_length_b 8.764682
_cell_length_c 16.872776
_cell_angle_alpha 90.000000
_cell_angle_beta 117.571915
_cell_angle_gamma 90.000000
_cell_volume 2748.305386
_symmetry_space_group_name_H-M "C 2/M"
_symmetry_group_IT_number 12
_symmetry_cell_setting 'monoclinic'
loop_
_space_group_symop_operation_xyz
x,y,z
-x,y,-z
-x,-y,-z
x,-y,z
1/2+x,1/2+y,z
1/2-x,1/2+y,-z
1/2-x,1/2-y,-z
1/2+x,1/2-y,z
loop_
_atom_site_type_symbol
_atom_site_label
_atom_site_fract_x
_atom_site_fract_y
_atom_site_fract_z
Si Si1 0.777745 0.181783 0.433394
Si Si2 0.151865 0.318979 0.771243
Si Si3 0.582078 0.313769 0.050353
Si Si4 0.918215 0.315648 0.433881
Si Si5 0.798129 0.182615 0.761561
Si Si6 0.170546 0.181909 0.947319
O O1 0.750000 0.250000 0.500000
O O2 0.856822 0.243855 0.454244
O O3 0.724790 0.234786 0.331959
O O4 0.779666 0.000000 0.438976
O O5 0.144510 0.500000 0.780822
O O6 0.102014 0.275175 0.668342
O O7 0.233359 0.292142 0.787199
O O8 0.138604 0.232037 0.844740
O O9 0.582107 0.500000 0.051308
O O10 0.628370 0.267591 0.153810
O O11 0.500000 0.261945 0.000000
O O12 0.623260 0.265464 0.994548
O O13 0.912046 0.500000 0.436982
O O14 0.000000 0.271727 0.500000
O O15 0.800257 0.000000 0.747787
O O16 0.175608 0.000000 0.953899
O O17 0.250000 0.250000 0.000000
#
# Coordination Sequence:
#
# PCOD9219212 Si02
#       6
#     8   8   8   8   8   8
#     4  11  22  37  58  83 110 143 188 231 272 325
#     4   9  17  32  54  81 107 138 176 215 265 321
#     4   9  18  34  54  76 106 142 178 218 268 319
#     4   9  19  38  61  82 112 148 178 220 282 335
#     4   9  17  34  57  78 105 141 181 220 270 325
#     4  11  20  32  53  79 105 138 180 221 262 315
#
# _framework density 17.465308
#
# number of rings (size 3 to 8) (size 9 to 14) (size 15 to 20)
#    0.000    2.333    1.667    3.000    0.000    3.000 
#    3.000    0.000    0.000    3.500    0.000    0.000 
#    0.000    0.000    0.000    0.000    0.000    0.000 
#
# Total GULP energy -133885.649541 kJ/mol
# GULP energy per Si atom -5578.568731 kJ/mol
# Density = 1.742556 g / cm^3
# Si number density = 17.465308 Si / 1000 Ang^3
#
#
#
# Elastic Constant Matrix: (Units=GPa)
#
#
# Indices 1 2 3 4 5 6 
#
# 1 136.2135 42.4702 99.9702 0.0000 10.7095 0.0000
# 2 42.4702 45.1349 49.8629 0.0000 -3.6477 0.0000
# 3 99.9702 49.8629 142.7954 0.0000 4.1405 0.0000
# 4 0.0000 0.0000 0.0000 31.8464 0.0000 -4.2092
# 5 10.7095 -3.6477 4.1405 0.0000 37.0680 0.0000
# 6 0.0000 0.0000 0.0000 -4.2092 0.0000 20.0608
#
#
#
# Elastic Compliance Matrix: (Units=1/GPa)
#
#
# Indices 1 2 3 4 5 6 
#
# 1 0.016178 -0.005172 -0.009400 0.000000 -0.004133 0.000000
# 2 -0.005172 0.038662 -0.010066 0.000000 0.006423 0.000000
# 3 -0.009400 -0.010066 0.017104 0.000000 -0.000185 0.000000
# 4 0.000000 0.000000 0.000000 0.032296 0.000000 0.006777
# 5 -0.004133 0.006423 -0.000185 0.000000 0.028824 0.000000
# 6 0.000000 0.000000 0.000000 0.006777 0.000000 0.051270
#
#
# Mechanical properties :
#
#
# Convention : Reuss Voigt Hill
#
# Bulk Modulus (GPa) = 44.11487 78.75004 61.43246
# Shear Modulus (GPa) = 20.73253 26.58441 23.65847
#
# Velocity S-wave (km/s) = 3.44912 3.90568 3.68448
# Velocity P-wave (km/s) = 6.41680 8.09484 7.30417
#
# Compressibility (1/GPa) = 0.02266809
#
# Stress axis : x y z
#
# Youngs Moduli (GPa) = 61.81216 25.86550 58.46455
#
# Poissons Ratio (x) = 0.13377 0.54959
# Poissons Ratio (y) = 0.31969 0.58849
# Poissons Ratio (z) = 0.58106 0.26035
#
# Static dielectric constant tensor:
#      x y z
#    x 1.574990 0.000000 0.013410 
#    y 0.000000 1.588110 0.000000 
#    z 0.013410 0.000000 1.598840 
# 
# From -- ./inp_files/230421.got.cif
#   From: 2010.05.17/outbox.cif.g08.bks.cpg/sg12_116_cif.got.tgz:230421.got - 2010.06.03 13:09:07.
