data_PCOD9219810
_publ_section_title
;
Structure prediction by ZEFSAII (Michael W. Deem and Ramdas Pophale) SiO2 
 PCOD9219810
Probable space group: C 2/M
;
_chemical_formula_sum "Si O2"
_cell_formula_units_Z 52
_cell_length_a 14.346408
_cell_length_b 20.262220
_cell_length_c 30.496755
_cell_angle_alpha 90.000000
_cell_angle_beta 159.297111
_cell_angle_gamma 90.000000
_cell_volume 3134.009393
_symmetry_space_group_name_H-M "C 2/M"
_symmetry_group_IT_number 12
_symmetry_cell_setting 'monoclinic'
loop_
_space_group_symop_operation_xyz
x,y,z
-x,y,-z
-x,-y,-z
x,-y,z
1/2+x,1/2+y,z
1/2-x,1/2+y,-z
1/2-x,1/2-y,-z
1/2+x,1/2-y,z
loop_
_atom_site_type_symbol
_atom_site_label
_atom_site_fract_x
_atom_site_fract_y
_atom_site_fract_z
Si Si1 0.889308 0.864615 0.218790
Si Si2 0.607875 0.211580 0.897420
Si Si3 0.555523 0.424377 0.199328
Si Si4 0.463496 0.926157 0.089482
Si Si5 0.599283 0.196706 0.667847
Si Si6 0.209657 0.730769 0.556104
Si Si7 0.500000 0.764066 0.000000
O O1 0.731449 0.914570 0.180254
O O2 0.672941 0.811026 0.107536
O O3 0.000467 0.899338 0.224336
O O4 0.115281 0.825771 0.344040
O O5 0.565760 0.135398 0.890802
O O6 0.330517 0.248426 0.768364
O O7 0.750000 0.250000 0.000000
O O8 0.796322 0.222147 0.938882
O O9 0.644971 0.500000 0.238620
O O10 0.759509 0.373728 0.267461
O O11 0.280107 0.420865 0.051794
O O12 0.457695 0.000000 0.105984
O O13 0.406158 0.214265 0.622886
O O14 0.441455 0.202350 0.552812
O O15 0.000000 0.754602 0.500000
#
# Coordination Sequence:
#
# PCOD9219810 Si02
#       7
#     8   8   8   8   8   8   4
#     4  12  18  35  56  85 115 146 179 234 291 338
#     4  12  19  36  58  84 112 148 190 236 283 336
#     4  11  21  35  56  87 121 146 182 230 288 351
#     4  11  22  35  56  86 119 151 182 229 291 347
#     4  11  21  37  56  81 114 151 190 233 282 330
#     4  11  22  35  58  82 113 144 196 243 273 327
#     4  12  20  30  60  90 110 136 194 236 276 338
#
# _framework density 16.592164
#
# number of rings (size 3 to 8) (size 9 to 14) (size 15 to 20)
#    0.000    0.615    9.231    0.462    0.000    1.231 
#    0.000    2.692    0.000    0.462    0.000    0.000 
#    0.000    0.000    0.000    0.000    0.000    0.000 
#
# Total GULP energy -145211.400200 kJ/mol
# GULP energy per Si atom -5585.053854 kJ/mol
# Density = 1.655440 g / cm^3
# Si number density = 16.592164 Si / 1000 Ang^3
#
#
#
# Elastic Constant Matrix: (Units=GPa)
#
#
# Indices 1 2 3 4 5 6 
#
# 1 97.4734 54.5474 26.2589 0.0050 28.6220 0.0020
# 2 54.5474 151.0845 45.2688 0.0039 11.2767 0.0024
# 3 26.2589 45.2688 93.4198 0.0099 3.7859 0.0047
# 4 0.0050 0.0039 0.0099 6.2943 0.0020 -8.0706
# 5 28.6220 11.2767 3.7859 0.0020 29.3734 0.0016
# 6 0.0020 0.0024 0.0047 -8.0706 0.0016 21.0205
#
#
#
# Elastic Compliance Matrix: (Units=1/GPa)
#
#
# Indices 1 2 3 4 5 6 
#
# 1 0.018015 -0.004703 -0.002158 -0.000005 -0.015471 -0.000001
# 2 -0.004703 0.009158 -0.003176 0.000005 0.001476 0.000002
# 3 -0.002158 -0.003176 0.012782 -0.000039 0.001674 -0.000018
# 4 -0.000005 0.000005 -0.000039 0.312926 -0.000019 0.120145
# 5 -0.015471 0.001476 0.001674 -0.000019 0.048337 -0.000010
# 6 -0.000001 0.000002 -0.000018 0.120145 -0.000010 0.093701
#
#
# Mechanical properties :
#
#
# Convention : Reuss Voigt Hill
#
# Bulk Modulus (GPa) = 50.29636 66.01421 58.15529
# Shear Modulus (GPa) = 9.58553 25.73114 17.65833
#
# Velocity S-wave (km/s) = 2.40618 3.94229 3.26583
# Velocity P-wave (km/s) = 6.17241 7.78428 7.02473
#
# Compressibility (1/GPa) = 0.01988216
#
# Stress axis : x y z
#
# Youngs Moduli (GPa) = 55.50886 109.19311 78.23545
#
# Poissons Ratio (x) = 0.51352 0.16883
# Poissons Ratio (y) = 0.26105 0.24845
# Poissons Ratio (z) = 0.11978 0.34676
#
# Static dielectric constant tensor:
#      x y z
#    x 1.562820 0.000000 0.007570 
#    y 0.000000 1.547180 0.000000 
#    z 0.007570 0.000000 1.564820 
# 
# From -- ./inp_files/99009.got.cif
#   From: 2010.05.17/outbox.cif.g08.bks.cpg/sg12_50_cif.got.tgz:99009.got - 2010.06.03 13:09:07.
