data_PCOD9219244
_publ_section_title
;
Structure prediction by ZEFSAII (Michael W. Deem and Ramdas Pophale) SiO2 
 PCOD9219244
Probable space group: C 2/M
;
_chemical_formula_sum "Si O2"
_cell_formula_units_Z 56
_cell_length_a 20.555328
_cell_length_b 20.965319
_cell_length_c 20.132424
_cell_angle_alpha 90.000000
_cell_angle_beta 159.567236
_cell_angle_gamma 90.000000
_cell_volume 3028.877522
_symmetry_space_group_name_H-M "C 2/M"
_symmetry_group_IT_number 12
_symmetry_cell_setting 'monoclinic'
loop_
_space_group_symop_operation_xyz
x,y,z
-x,y,-z
-x,-y,-z
x,-y,z
1/2+x,1/2+y,z
1/2-x,1/2+y,-z
1/2-x,1/2-y,-z
1/2+x,1/2-y,z
loop_
_atom_site_type_symbol
_atom_site_label
_atom_site_fract_x
_atom_site_fract_y
_atom_site_fract_z
Si Si1 0.531077 0.196266 0.460083
Si Si2 0.786828 0.675832 0.509080
Si Si3 0.876241 0.432433 0.815258
Si Si4 0.632853 0.350673 0.881935
Si Si5 0.359172 0.207017 0.802494
Si Si6 0.030563 0.571026 0.817613
Si Si7 0.218146 0.747895 0.074674
O O1 0.500000 0.157582 0.500000
O O2 0.619956 0.172446 0.475103
O O3 0.684699 0.247371 0.629749
O O4 0.335458 0.226272 0.248840
O O5 0.750000 0.750000 0.500000
O O6 0.584755 0.643441 0.315053
O O7 0.912998 0.630715 0.676596
O O8 0.769854 0.500000 0.710893
O O9 0.778330 0.364430 0.721468
O O10 0.002842 0.429995 0.870450
O O11 0.000000 0.433176 0.000000
O O12 0.670913 0.310880 0.851104
O O13 0.709268 0.304686 0.013049
O O14 0.756472 0.413549 0.996731
O O15 0.500000 0.211083 0.000000
O O16 0.507973 0.225750 0.887831
O O17 0.975026 0.500000 0.740330
#
# Coordination Sequence:
#
# PCOD9219244 Si02
#       7
#     8   8   8   8   8   8   8
#     4  12  23  34  57  93 121 150 193 252 309 359
#     4  12  22  38  63  92 121 160 200 253 308 363
#     4   9  19  35  55  76 111 161 200 237 290 345
#     4  11  21  35  60  80 115 158 197 241 303 355
#     4  11  20  33  55  82 115 153 195 241 294 356
#     4  11  23  39  60  87 121 161 208 254 299 361
#     4  11  20  34  54  86 114 149 194 243 300 355
#
# _framework density 18.488696999999998
#
# number of rings (size 3 to 8) (size 9 to 14) (size 15 to 20)
#    0.000    1.000    7.143    1.714    0.000    0.571 
#    0.000    0.000    0.000    1.714    0.000    1.000 
#    0.000    0.000    0.000    0.000    0.000    0.000 
#
# Total GULP energy -155883.310124 kJ/mol
# GULP energy per Si atom -5567.261076 kJ/mol
# Density = 1.844662 g / cm^3
# Si number density = 18.488697 Si / 1000 Ang^3
#
#
#
# Elastic Constant Matrix: (Units=GPa)
#
#
# Indices 1 2 3 4 5 6 
#
# 1 102.5246 26.9208 15.8010 0.0051 -15.1238 0.0061
# 2 26.9208 72.2776 17.4475 -0.0014 -7.2891 0.0005
# 3 15.8010 17.4475 75.3257 0.0043 3.0901 0.0076
# 4 0.0051 -0.0014 0.0043 13.0075 0.0038 1.2022
# 5 -15.1238 -7.2891 3.0901 0.0038 26.8731 0.0066
# 6 0.0061 0.0005 0.0076 1.2022 0.0066 15.2520
#
#
#
# Elastic Compliance Matrix: (Units=1/GPa)
#
#
# Indices 1 2 3 4 5 6 
#
# 1 0.011808 -0.003325 -0.001952 -0.000006 0.005968 -0.000006
# 2 -0.003325 0.016125 -0.003155 0.000003 0.002865 0.000001
# 3 -0.001952 -0.003155 0.014565 -0.000003 -0.003629 -0.000005
# 4 -0.000006 0.000003 -0.000003 0.077443 -0.000011 -0.006104
# 5 0.005968 0.002865 -0.003629 -0.000011 0.041765 -0.000018
# 6 -0.000006 0.000001 -0.000005 -0.006104 -0.000018 0.066046
#
#
# Mechanical properties :
#
#
# Convention : Reuss Voigt Hill
#
# Bulk Modulus (GPa) = 39.01066 41.16296 40.08681
# Shear Modulus (GPa) = 19.75040 23.69043 21.72041
#
# Velocity S-wave (km/s) = 3.27194 3.58347 3.43125
# Velocity P-wave (km/s) = 5.95144 6.27964 6.11774
#
# Compressibility (1/GPa) = 0.02563402
#
# Stress axis : x y z
#
# Youngs Moduli (GPa) = 84.68848 62.01719 68.65920
#
# Poissons Ratio (x) = 0.20621 0.13399
# Poissons Ratio (y) = 0.28160 0.21662
# Poissons Ratio (z) = 0.16528 0.19566
#
# Static dielectric constant tensor:
#      x y z
#    x 1.749990 -0.000010 -0.006460 
#    y -0.000010 1.657410 0.000000 
#    z -0.006460 0.000000 1.638190 
# 
# From -- ./inp_files/322714.got.cif
#   From: 2010.05.17/outbox.cif.g08.bks.cpg/sg12_162_cif.got.tgz:322714.got - 2010.06.03 13:09:07.
