data_PCOD9219820
_publ_section_title
;
Structure prediction by ZEFSAII (Michael W. Deem and Ramdas Pophale) SiO2 
 PCOD9219820
Probable space group: C 2/M
;
_chemical_formula_sum "Si O2"
_cell_formula_units_Z 56
_cell_length_a 14.245997
_cell_length_b 18.618876
_cell_length_c 11.918663
_cell_angle_alpha 90.000000
_cell_angle_beta 62.361559
_cell_angle_gamma 90.000000
_cell_volume 2800.624573
_symmetry_space_group_name_H-M "C 2/M"
_symmetry_group_IT_number 12
_symmetry_cell_setting 'monoclinic'
loop_
_space_group_symop_operation_xyz
x,y,z
-x,y,-z
-x,-y,-z
x,-y,z
1/2+x,1/2+y,z
1/2-x,1/2+y,-z
1/2-x,1/2-y,-z
1/2+x,1/2-y,z
loop_
_atom_site_type_symbol
_atom_site_label
_atom_site_fract_x
_atom_site_fract_y
_atom_site_fract_z
Si Si1 0.359658 0.274381 0.494278
Si Si2 0.409359 0.727156 0.720372
Si Si3 0.693316 0.419899 0.547006
Si Si4 0.090190 0.918536 0.846485
Si Si5 0.725500 0.852029 0.135146
Si Si6 0.885662 0.414258 0.592310
Si Si7 0.364301 0.584092 0.875613
O O1 0.250000 0.250000 0.500000
O O2 0.463757 0.259610 0.360212
O O3 0.370295 0.251196 0.617154
O O4 0.353060 0.360914 0.507935
O O5 0.338137 0.777575 0.841098
O O6 0.387752 0.644990 0.769643
O O7 0.702002 0.500000 0.495816
O O8 0.621057 0.421369 0.697829
O O9 0.804848 0.394548 0.538082
O O10 0.163058 0.855440 0.856954
O O11 0.963725 0.910531 0.908846
O O12 0.120174 0.000000 0.870728
O O13 0.651696 0.895676 0.262428
O O14 0.759460 0.891410 0.002059
O O15 0.887695 0.500000 0.586122
O O16 0.000000 0.384955 0.500000
O O17 0.359611 0.500000 0.843563
#
# Coordination Sequence:
#
# PCOD9219820 Si02
#       7
#     8   8   8   8   8   8   8
#     4  11  23  41  61  86 125 164 198 249 313 368
#     4  11  26  38  60  94 121 160 209 248 311 378
#     4   9  17  32  56  82 114 151 197 249 299 354
#     4   9  17  33  59  90 119 156 202 253 307 353
#     4  11  21  35  57  86 127 157 202 256 308 366
#     4   9  18  31  53  88 119 153 200 251 304 360
#     4  11  22  40  62  89 124 164 208 258 309 367
#
# _framework density 19.995539999999998
#
# number of rings (size 3 to 8) (size 9 to 14) (size 15 to 20)
#    0.000    1.857    1.429    4.714    4.000    1.714 
#    0.000    1.429    0.000    0.000    0.000    1.000 
#    0.000    0.000    0.000    0.000    0.000    0.000 
#
# Total GULP energy -155985.276660 kJ/mol
# GULP energy per Si atom -5570.902738 kJ/mol
# Density = 1.995003 g / cm^3
# Si number density = 19.995540 Si / 1000 Ang^3
#
#
#
# Elastic Constant Matrix: (Units=GPa)
#
#
# Indices 1 2 3 4 5 6 
#
# 1 65.3814 36.7203 34.4980 0.0000 -26.2950 0.0000
# 2 36.7203 111.3951 23.0593 0.0000 -10.8276 0.0000
# 3 34.4980 23.0593 89.3244 0.0000 -33.2521 0.0000
# 4 0.0000 0.0000 0.0000 37.3887 0.0000 2.9201
# 5 -26.2950 -10.8276 -33.2521 0.0000 32.7580 0.0000
# 6 0.0000 0.0000 0.0000 2.9201 0.0000 29.5064
#
#
#
# Elastic Compliance Matrix: (Units=1/GPa)
#
#
# Indices 1 2 3 4 5 6 
#
# 1 0.027333 -0.006842 -0.002354 0.000000 0.017290 0.000000
# 2 -0.006842 0.011219 -0.001475 0.000000 -0.003282 0.000000
# 3 -0.002354 -0.001475 0.018646 0.000000 0.016550 0.000000
# 4 0.000000 0.000000 0.000000 0.026954 0.000000 -0.002668
# 5 0.017290 -0.003282 0.016550 0.000000 0.060121 0.000000
# 6 0.000000 0.000000 0.000000 -0.002668 0.000000 0.034155
#
#
# Mechanical properties :
#
#
# Convention : Reuss Voigt Hill
#
# Bulk Modulus (GPa) = 27.88956 50.51734 39.20345
# Shear Modulus (GPa) = 23.61580 31.38552 27.50066
#
# Velocity S-wave (km/s) = 3.44037 3.96615 3.71258
# Velocity P-wave (km/s) = 5.45525 6.80389 6.16655
#
# Compressibility (1/GPa) = 0.03585571
#
# Stress axis : x y z
#
# Youngs Moduli (GPa) = 36.58556 89.13472 53.63054
#
# Poissons Ratio (x) = 0.60989 0.12623
# Poissons Ratio (y) = 0.25033 0.07912
# Poissons Ratio (z) = 0.08611 0.13150
#
# Static dielectric constant tensor:
#      x y z
#    x 1.720930 0.000000 -0.028470 
#    y 0.000000 1.797860 0.000000 
#    z -0.028470 0.000000 1.799900 
# 
# From -- ./inp_files/215850.got.cif
#   From: 2010.05.17/outbox.cif.g08.bks.cpg/sg12_108_cif.got.tgz:215850.got - 2010.06.03 13:09:07.
