data_PCOD9219571
_publ_section_title
;
Structure prediction by ZEFSAII (Michael W. Deem and Ramdas Pophale) SiO2 
 PCOD9219571
Probable space group: C 2/M
;
_chemical_formula_sum "Si O2"
_cell_formula_units_Z 34
_cell_length_a 16.543201
_cell_length_b 16.823677
_cell_length_c 19.395827
_cell_angle_alpha 90.000000
_cell_angle_beta 160.051801
_cell_angle_gamma 90.000000
_cell_volume 1841.705360
_symmetry_space_group_name_H-M "C 2/M"
_symmetry_group_IT_number 12
_symmetry_cell_setting 'monoclinic'
loop_
_space_group_symop_operation_xyz
x,y,z
-x,y,-z
-x,-y,-z
x,-y,z
1/2+x,1/2+y,z
1/2-x,1/2+y,-z
1/2-x,1/2-y,-z
1/2+x,1/2-y,z
loop_
_atom_site_type_symbol
_atom_site_label
_atom_site_fract_x
_atom_site_fract_y
_atom_site_fract_z
Si Si1 0.179558 0.138024 0.788485
Si Si2 0.500000 0.000000 0.000000
Si Si3 0.450253 0.187680 0.138712
Si Si4 0.340940 0.093275 0.571414
Si Si5 0.438929 0.215587 0.527585
O O1 0.292155 0.069511 0.832909
O O2 0.928111 0.112141 0.620221
O O3 0.130091 0.220399 0.709070
O O4 0.361310 0.149551 0.997052
O O5 0.494173 0.123099 0.233564
O O6 0.694341 0.235354 0.326900
O O7 0.250000 0.250000 0.000000
O O8 0.403631 0.146568 0.555340
O O9 0.366816 0.000000 0.579417
O O10 0.500000 0.186839 0.500000
#
# Coordination Sequence:
#
# PCOD9219571 Si02
#       5
#     8   2   8   8   8
#     4  11  22  42  61  95 131 166 208 259 326 386
#     4  12  24  36  66 100 132 156 196 272 324 378
#     4  11  20  41  68  88 121 177 218 254 318 389
#     4  11  23  40  64  93 129 167 216 263 317 377
#     4  11  23  41  64  92 129 171 216 262 316 384
#
# _framework density 18.461151000000001
#
# number of rings (size 3 to 8) (size 9 to 14) (size 15 to 20)
#    0.000    0.941    5.882    2.824    1.647    0.471 
#    0.000    2.941    0.000    1.412    0.000    0.000 
#    0.000    0.000    0.000    0.000    0.000    0.000 
#
# Total GULP energy -94698.752375 kJ/mol
# GULP energy per Si atom -5570.514846 kJ/mol
# Density = 1.841913 g / cm^3
# Si number density = 18.461151 Si / 1000 Ang^3
#
#
#
# Elastic Constant Matrix: (Units=GPa)
#
#
# Indices 1 2 3 4 5 6 
#
# 1 92.7783 46.8722 42.2540 0.0177 -2.1285 0.0125
# 2 46.8722 124.2016 45.4979 0.0579 -3.0931 0.0310
# 3 42.2540 45.4979 96.8703 0.0786 -22.1457 0.0265
# 4 0.0177 0.0579 0.0786 27.3291 0.0087 12.6308
# 5 -2.1285 -3.0931 -22.1457 0.0087 29.3888 -0.0118
# 6 0.0125 0.0310 0.0265 12.6308 -0.0118 12.9422
#
#
#
# Elastic Compliance Matrix: (Units=1/GPa)
#
#
# Indices 1 2 3 4 5 6 
#
# 1 0.015169 -0.003733 -0.005681 0.000026 -0.003575 -0.000023
# 2 -0.003733 0.010855 -0.003952 -0.000002 -0.002106 -0.000014
# 3 -0.005681 -0.003952 0.017479 -0.000069 0.012344 0.000057
# 4 0.000026 -0.000002 -0.000069 0.066657 -0.000096 -0.065053
# 5 -0.003575 -0.002106 0.012344 -0.000096 0.042848 0.000116
# 6 -0.000023 -0.000014 0.000057 -0.065053 0.000116 0.140755
#
#
# Mechanical properties :
#
#
# Convention : Reuss Voigt Hill
#
# Bulk Modulus (GPa) = 59.61907 64.78872 62.20390
# Shear Modulus (GPa) = 15.33342 25.88043 20.60693
#
# Velocity S-wave (km/s) = 2.88510 3.74824 3.34463
# Velocity P-wave (km/s) = 6.59264 7.34188 6.97732
#
# Compressibility (1/GPa) = 0.01677316
#
# Stress axis : x y z
#
# Youngs Moduli (GPa) = 65.92208 92.12107 57.21140
#
# Poissons Ratio (x) = 0.34387 0.32501
# Poissons Ratio (y) = 0.24607 0.22608
# Poissons Ratio (z) = 0.37450 0.36403
#
# Static dielectric constant tensor:
#      x y z
#    x 1.676540 0.000010 -0.007100 
#    y 0.000010 1.609740 -0.000010 
#    z -0.007100 -0.000010 1.639910 
# 
# From -- ./inp_files/14930.got.cif
#   From: 2010.05.17/outbox.cif.g08.bks.cpg/sg12_8_cif.got.tgz:14930.got - 2010.06.03 13:09:07.
