data_PCOD9219671
_publ_section_title
;
Structure prediction by ZEFSAII (Michael W. Deem and Ramdas Pophale) SiO2 
 PCOD9219671
Probable space group: C 2/M
;
_chemical_formula_sum "Si O2"
_cell_formula_units_Z 48
_cell_length_a 14.212370
_cell_length_b 9.377420
_cell_length_c 18.663472
_cell_angle_alpha 90.000000
_cell_angle_beta 118.936627
_cell_angle_gamma 90.000000
_cell_volume 2176.844924
_symmetry_space_group_name_H-M "C 2/M"
_symmetry_group_IT_number 12
_symmetry_cell_setting 'monoclinic'
loop_
_space_group_symop_operation_xyz
x,y,z
-x,y,-z
-x,-y,-z
x,-y,z
1/2+x,1/2+y,z
1/2-x,1/2+y,-z
1/2-x,1/2-y,-z
1/2+x,1/2-y,z
loop_
_atom_site_type_symbol
_atom_site_label
_atom_site_fract_x
_atom_site_fract_y
_atom_site_fract_z
Si Si1 0.966160 0.833406 0.601033
Si Si2 0.197880 0.840218 0.267718
Si Si3 0.409085 0.836099 0.240699
Si Si4 0.398915 0.665881 0.909396
Si Si5 0.321718 0.664615 0.423445
Si Si6 0.779016 0.167404 0.082708
O O1 0.867802 0.778538 0.515919
O O2 0.997548 0.739546 0.680303
O O3 0.072806 0.831182 0.589586
O O4 0.948987 0.000000 0.612441
O O5 0.303226 0.835720 0.253818
O O6 0.099641 0.814349 0.176174
O O7 0.228630 0.742204 0.345496
O O8 0.187267 0.000000 0.291270
O O9 0.375495 0.743841 0.159884
O O10 0.432824 0.000000 0.231689
O O11 0.356491 0.500000 0.902900
O O12 0.323791 0.794847 0.906845
O O13 0.500000 0.670348 0.000000
O O14 0.293129 0.500000 0.423515
O O15 0.796756 0.000000 0.078647
O O16 0.750000 0.250000 0.000000
#
# Coordination Sequence:
#
# PCOD9219671 Si02
#       6
#     8   8   8   8   8   8
#     4   8  13  21  32  49  74 106 141 174 213 259
#     4   8  14  23  36  55  79 109 143 177 216 262
#     4   9  16  26  39  57  81 110 144 180 222 267
#     4   9  18  33  50  68  93 123 154 190 232 275
#     4   8  13  20  31  48  74 107 140 174 212 257
#     4  11  21  33  49  68  92 121 155 192 230 273
#
# _framework density 22.050263000000001
#
# number of rings (size 3 to 8) (size 9 to 14) (size 15 to 20)
#    0.000    3.167    0.000    4.000    0.000    5.000 
#    0.000    3.333    0.000    0.000    0.000    0.000 
#    0.000    1.333    0.000    4.000    0.000   11.500 
#
# Total GULP energy -133816.019311 kJ/mol
# GULP energy per Si atom -5575.667471 kJ/mol
# Density = 2.200008 g / cm^3
# Si number density = 22.050263 Si / 1000 Ang^3
#
#
#
# Elastic Constant Matrix: (Units=GPa)
#
#
# Indices 1 2 3 4 5 6 
#
# 1 55.5130 11.3990 19.3491 0.0000 11.0091 0.0000
# 2 11.3990 147.7364 128.9523 0.0000 5.7410 0.0000
# 3 19.3491 128.9523 268.7167 0.0000 18.6444 0.0000
# 4 0.0000 0.0000 0.0000 46.0213 0.0000 3.4582
# 5 11.0091 5.7410 18.6444 0.0000 16.9353 0.0000
# 6 0.0000 0.0000 0.0000 3.4582 0.0000 0.8108
#
#
#
# Elastic Compliance Matrix: (Units=1/GPa)
#
#
# Indices 1 2 3 4 5 6 
#
# 1 0.020856 -0.001002 -0.000112 0.000000 -0.013094 0.000000
# 2 -0.001002 0.011786 -0.005794 0.000000 0.003035 0.000000
# 3 -0.000112 -0.005794 0.006895 0.000000 -0.005554 0.000000
# 4 0.000000 0.000000 0.000000 0.031978 0.000000 -0.136397
# 5 -0.013094 0.003035 -0.005554 0.000000 0.072646 0.000000
# 6 0.000000 0.000000 0.000000 -0.136397 0.000000 1.815179
#
#
# Mechanical properties :
#
#
# Convention : Reuss Voigt Hill
#
# Bulk Modulus (GPa) = 38.88167 87.92968 63.40567
# Shear Modulus (GPa) = 2.52305 33.57119 18.04712
#
# Velocity S-wave (km/s) = 1.07085 3.90614 2.86397
# Velocity P-wave (km/s) = 4.38183 7.76578 6.30507
#
# Compressibility (1/GPa) = 0.02571906
#
# Stress axis : x y z
#
# Youngs Moduli (GPa) = 47.94895 84.84909 145.02590
#
# Poissons Ratio (x) = 0.08506 0.01626
# Poissons Ratio (y) = 0.04807 0.84030
# Poissons Ratio (z) = 0.00538 0.49163
#
# Static dielectric constant tensor:
#      x y z
#    x 2.014680 0.000000 -0.057990 
#    y 0.000000 1.747030 0.000000 
#    z -0.057990 0.000000 1.852270 
# 
# From -- ./inp_files/318977.got.cif
#   From: 2010.05.17/outbox.cif.g08.bks.cpg/sg12_160_cif.got.tgz:318977.got - 2010.06.03 13:09:07.
