data_PCOD9219339
_publ_section_title
;
Structure prediction by ZEFSAII (Michael W. Deem and Ramdas Pophale) SiO2 
 PCOD9219339
Probable space group: C 2/M
;
_chemical_formula_sum "Si O2"
_cell_formula_units_Z 48
_cell_length_a 19.999868
_cell_length_b 20.554479
_cell_length_c 8.298129
_cell_angle_alpha 90.000000
_cell_angle_beta 137.596009
_cell_angle_gamma 90.000000
_cell_volume 2300.390730
_symmetry_space_group_name_H-M "C 2/M"
_symmetry_group_IT_number 12
_symmetry_cell_setting 'monoclinic'
loop_
_space_group_symop_operation_xyz
x,y,z
-x,y,-z
-x,-y,-z
x,-y,z
1/2+x,1/2+y,z
1/2-x,1/2+y,-z
1/2-x,1/2-y,-z
1/2+x,1/2-y,z
loop_
_atom_site_type_symbol
_atom_site_label
_atom_site_fract_x
_atom_site_fract_y
_atom_site_fract_z
Si Si1 0.283325 0.317659 0.486984
Si Si2 0.718670 0.925618 0.781662
Si Si3 0.781173 0.312916 0.957703
Si Si4 0.923580 0.120463 0.983616
Si Si5 0.410765 0.863643 0.718385
Si Si6 0.985567 0.751463 0.280264
O O1 0.250000 0.250000 0.500000
O O2 0.373602 0.336979 0.755872
O O3 0.188824 0.362774 0.353104
O O4 0.298837 0.320569 0.325406
O O5 0.711582 0.874618 0.915043
O O6 0.828798 0.914903 0.897410
O O7 0.627582 0.908390 0.498054
O O8 0.711048 0.000000 0.819496
O O9 0.885509 0.290408 0.069474
O O10 0.750000 0.250000 0.000000
O O11 0.967139 0.174590 0.185928
O O12 0.000000 0.081857 0.000000
O O13 0.435845 0.793123 0.679387
O O14 0.500000 0.881013 0.000000
O O15 0.000000 0.749969 0.500000
#
# Coordination Sequence:
#
# PCOD9219339 Si02
#       6
#     8   8   8   8   8   8
#     4  11  20  35  61  93 131 162 208 266 328 381
#     4  11  26  46  64  91 135 180 219 265 325 392
#     4  12  22  38  62  96 130 170 213 270 324 386
#     4  11  24  39  64  96 126 173 219 277 323 380
#     4  11  21  38  62  93 129 169 214 267 322 385
#     4  12  22  34  64 103 134 162 214 272 335 386
#
# _framework density 20.866019999999999
#
# number of rings (size 3 to 8) (size 9 to 14) (size 15 to 20)
#    0.000    0.667    6.667    2.500    2.333    0.667 
#    0.000    5.000    0.000    3.500    0.000    0.000 
#    0.000    0.000    0.000    0.000    0.000    0.000 
#
# Total GULP energy -133760.937793 kJ/mol
# GULP energy per Si atom -5573.372408 kJ/mol
# Density = 2.081853 g / cm^3
# Si number density = 20.866020 Si / 1000 Ang^3
#
#
#
# Elastic Constant Matrix: (Units=GPa)
#
#
# Indices 1 2 3 4 5 6 
#
# 1 65.4050 12.5668 9.0783 0.0000 -3.4392 0.0000
# 2 12.5668 109.8492 25.1410 0.0000 -15.7050 0.0000
# 3 9.0783 25.1410 111.1099 0.0000 -29.9024 0.0000
# 4 0.0000 0.0000 0.0000 14.0949 0.0000 1.1728
# 5 -3.4392 -15.7050 -29.9024 0.0000 44.2887 0.0000
# 6 0.0000 0.0000 0.0000 1.1728 0.0000 12.3117
#
#
#
# Elastic Compliance Matrix: (Units=1/GPa)
#
#
# Indices 1 2 3 4 5 6 
#
# 1 0.015723 -0.001583 -0.000915 0.000000 0.000042 0.000000
# 2 -0.001583 0.009968 -0.001476 0.000000 0.002415 0.000000
# 3 -0.000915 -0.001476 0.011303 0.000000 0.007037 0.000000
# 4 0.000000 0.000000 0.000000 0.071514 0.000000 -0.006813
# 5 0.000042 0.002415 0.007037 0.000000 0.028190 0.000000
# 6 0.000000 0.000000 0.000000 -0.006813 0.000000 0.081872
#
#
# Mechanical properties :
#
#
# Convention : Reuss Voigt Hill
#
# Bulk Modulus (GPa) = 34.43064 42.21514 38.32289
# Shear Modulus (GPa) = 21.16849 30.11092 25.63971
#
# Velocity S-wave (km/s) = 3.18857 3.80288 3.50920
# Velocity P-wave (km/s) = 5.48567 6.28952 5.90130
#
# Compressibility (1/GPa) = 0.02904390
#
# Stress axis : x y z
#
# Youngs Moduli (GPa) = 63.60198 100.32487 88.47504
#
# Poissons Ratio (x) = 0.15884 0.08097
# Poissons Ratio (y) = 0.10070 0.13060
# Poissons Ratio (z) = 0.05821 0.14809
#
# Static dielectric constant tensor:
#      x y z
#    x 1.907630 0.000000 0.121660 
#    y 0.000000 1.742150 0.000000 
#    z 0.121660 0.000000 1.829450 
# 
# From -- ./inp_files/89732.got.cif
#   From: 2010.05.17/outbox.cif.g08.bks.cpg/sg12_45_cif.got.tgz:89732.got - 2010.06.03 13:09:07.
