data_PCOD9219712
_publ_section_title
;
Structure prediction by ZEFSAII (Michael W. Deem and Ramdas Pophale) SiO2 
 PCOD9219712
Probable space group: C 2/M
;
_chemical_formula_sum "Si O2"
_cell_formula_units_Z 48
_cell_length_a 18.381802
_cell_length_b 8.936386
_cell_length_c 31.660404
_cell_angle_alpha 90.000000
_cell_angle_beta 149.998131
_cell_angle_gamma 90.000000
_cell_volume 2600.524781
_symmetry_space_group_name_H-M "C 2/M"
_symmetry_group_IT_number 12
_symmetry_cell_setting 'monoclinic'
loop_
_space_group_symop_operation_xyz
x,y,z
-x,y,-z
-x,-y,-z
x,-y,z
1/2+x,1/2+y,z
1/2-x,1/2+y,-z
1/2-x,1/2-y,-z
1/2+x,1/2-y,z
loop_
_atom_site_type_symbol
_atom_site_label
_atom_site_fract_x
_atom_site_fract_y
_atom_site_fract_z
Si Si1 0.845278 0.820034 0.675399
Si Si2 0.696688 0.322178 0.682819
Si Si3 0.835200 0.821723 0.835517
Si Si4 0.926834 0.327958 0.510001
Si Si5 0.185673 0.820868 0.841757
Si Si6 0.318819 0.678452 0.992901
O O1 0.788822 0.739460 0.689226
O O2 0.737895 0.779009 0.582702
O O3 0.013451 0.788281 0.751885
O O4 0.828060 0.000000 0.672903
O O5 0.707378 0.500000 0.690249
O O6 0.759003 0.248522 0.756327
O O7 0.530100 0.272095 0.590677
O O8 0.769671 0.748916 0.844543
O O9 0.812181 0.000000 0.824541
O O10 0.008128 0.794427 0.920496
O O11 0.929127 0.500000 0.526127
O O12 0.000000 0.326659 0.500000
O O13 0.247018 0.751384 0.915645
O O14 0.203872 0.000000 0.851525
O O15 0.294753 0.500000 0.980591
O O16 0.250000 0.750000 0.000000
#
# Coordination Sequence:
#
# PCOD9219712 Si02
#       6
#     8   8   8   8   8   8
#     4   9  19  36  57  82 113 149 186 226 277 334
#     4  11  21  33  55  86 114 143 188 238 278 323
#     4  11  24  41  58  79 113 153 188 224 275 336
#     4   8  15  31  54  78 109 148 185 225 277 330
#     4  11  23  39  60  86 115 146 184 230 278 330
#     4  11  24  41  62  87 113 145 186 229 274 328
#
# _framework density 18.457813000000002
#
# number of rings (size 3 to 8) (size 9 to 14) (size 15 to 20)
#    0.000    1.833    0.000    5.500    0.000   13.000 
#    0.000    0.833    0.000    0.000    0.000    0.000 
#    0.000    0.000    0.000    0.000    0.000    0.000 
#
# Total GULP energy -134082.902326 kJ/mol
# GULP energy per Si atom -5586.787597 kJ/mol
# Density = 1.841580 g / cm^3
# Si number density = 18.457813 Si / 1000 Ang^3
#
#
#
# Elastic Constant Matrix: (Units=GPa)
#
#
# Indices 1 2 3 4 5 6 
#
# 1 121.7465 76.7657 79.5615 0.0000 21.2351 0.0000
# 2 76.7657 100.7721 97.7943 0.0001 17.5828 -0.0001
# 3 79.5615 97.7943 158.4633 0.0001 34.4587 0.0000
# 4 0.0000 0.0001 0.0001 30.9204 0.0000 -3.4469
# 5 21.2351 17.5828 34.4587 0.0000 -20.1812 0.0000
# 6 0.0000 -0.0001 0.0000 -3.4469 0.0000 30.2792
#
#
#
# Elastic Compliance Matrix: (Units=1/GPa)
#
#
# Indices 1 2 3 4 5 6 
#
# 1 0.015539 -0.010310 -0.002218 0.000000 0.003581 0.000000
# 2 -0.010310 0.031284 -0.012906 0.000000 -0.005629 0.000000
# 3 -0.002218 -0.012906 0.013376 0.000000 0.009260 0.000000
# 4 0.000000 0.000000 0.000000 0.032757 0.000000 0.003729
# 5 0.003581 -0.005629 0.009260 0.000000 -0.034876 0.000000
# 6 0.000000 0.000000 0.000000 0.003729 0.000000 0.033450
#
#
# Mechanical properties :
#
#
# Convention : Reuss Voigt Hill
#
# Bulk Modulus (GPa) = 107.17233 98.80278 102.98755
# Shear Modulus (GPa) = 34.36194 16.66103 25.51148
#
# Velocity S-wave (km/s) = 4.31936 3.00768 3.72176
# Velocity P-wave (km/s) = 9.11402 8.10597 8.62473
#
# Compressibility (1/GPa) = 0.00933077
#
# Stress axis : x y z
#
# Youngs Moduli (GPa) = 64.35229 31.96487 74.76157
#
# Poissons Ratio (x) = 0.32955 0.16584
# Poissons Ratio (y) = 0.66345 0.96491
# Poissons Ratio (z) = 0.14275 0.41255
#
# Static dielectric constant tensor:
#      x y z
#    x 1.600860 0.000000 0.018770 
#    y 0.000000 1.614700 0.000000 
#    z 0.018770 0.000000 1.645100 
# 
# From -- ./inp_files/274609.got.cif
#   From: 2010.05.17/outbox.cif.g08.bks.cpg/sg12_138_cif.got.tgz:274609.got - 2010.06.03 13:09:07.
