data_PCOD9219170
_publ_section_title
;
Structure prediction by ZEFSAII (Michael W. Deem and Ramdas Pophale) SiO2 
 PCOD9219170
Probable space group: C 2/M
;
_chemical_formula_sum "Si O2"
_cell_formula_units_Z 64
_cell_length_a 20.606840
_cell_length_b 8.834902
_cell_length_c 20.605474
_cell_angle_alpha 90.000000
_cell_angle_beta 72.810414
_cell_angle_gamma 90.000000
_cell_volume 3583.852381
_symmetry_space_group_name_H-M "C 2/M"
_symmetry_group_IT_number 12
_symmetry_cell_setting 'monoclinic'
loop_
_space_group_symop_operation_xyz
x,y,z
-x,y,-z
-x,-y,-z
x,-y,z
1/2+x,1/2+y,z
1/2-x,1/2+y,-z
1/2-x,1/2-y,-z
1/2+x,1/2-y,z
loop_
_atom_site_type_symbol
_atom_site_label
_atom_site_fract_x
_atom_site_fract_y
_atom_site_fract_z
Si Si1 0.321907 0.820264 0.291231
Si Si2 0.578282 0.820112 0.497366
Si Si3 0.418295 0.825517 0.012356
Si Si4 0.337032 0.320089 0.644847
Si Si5 0.394276 0.679219 0.151522
Si Si6 0.929731 0.681014 0.725086
Si Si7 0.541887 0.817799 0.136582
Si Si8 0.426768 0.680318 0.361801
O O1 0.243346 0.792185 0.330293
O O2 0.341253 0.760645 0.214291
O O3 0.370690 0.736378 0.327500
O O4 0.335089 0.000000 0.290771
O O5 0.500000 0.792244 0.500000
O O6 0.626423 0.760860 0.426134
O O7 0.591792 0.735116 0.560625
O O8 0.586670 0.000000 0.503809
O O9 0.386453 0.726768 0.078710
O O10 0.396286 0.000000 0.025803
O O11 0.500000 0.822615 0.000000
O O12 0.412358 0.775971 0.939267
O O13 0.348698 0.500000 0.636870
O O14 0.371417 0.257385 0.699974
O O15 0.390285 0.500000 0.160131
O O16 0.469124 0.736787 0.151439
O O17 0.927988 0.500000 0.716596
O O18 0.926529 0.714218 0.802780
O O19 0.001739 0.743082 0.678237
O O20 0.529992 0.000000 0.135597
O O21 0.433584 0.500000 0.357405
#
# Coordination Sequence:
#
# PCOD9219170 Si02
#       8
#     8   8   8   8   8   8   8   8
#     4  11  24  42  60  82 117 157 195 236 290 348
#     4  11  23  40  64  89 116 154 190 230 287 348
#     4   8  15  29  48  74 110 151 189 229 282 342
#     4  11  25  42  62  87 115 151 194 243 289 338
#     4  11  20  30  51  82 114 150 189 238 289 335
#     4  11  21  36  60  87 118 154 191 235 287 346
#     4   9  18  32  53  80 113 152 191 232 283 343
#     4  12  24  38  62  91 117 149 192 240 285 336
#
# _framework density 17.857879000000001
#
# number of rings (size 3 to 8) (size 9 to 14) (size 15 to 20)
#    0.000    1.500    2.500    4.500    0.000    5.750 
#    0.000    0.000    0.000    0.750    0.000    0.000 
#    0.000    0.000    0.000    0.000    0.000    0.000 
#
# Total GULP energy -178760.889049 kJ/mol
# GULP energy per Si atom -5586.277783 kJ/mol
# Density = 1.781723 g / cm^3
# Si number density = 17.857879 Si / 1000 Ang^3
#
#
#
# Elastic Constant Matrix: (Units=GPa)
#
#
# Indices 1 2 3 4 5 6 
#
# 1 36.0112 19.1395 8.2990 0.0000 0.7268 0.0000
# 2 19.1395 51.0876 21.3283 0.0000 -7.2038 0.0000
# 3 8.2990 21.3283 95.5783 0.0000 9.8898 0.0000
# 4 0.0000 0.0000 0.0000 13.7494 0.0000 6.4155
# 5 0.7268 -7.2038 9.8898 0.0000 22.3146 0.0000
# 6 0.0000 0.0000 0.0000 6.4155 0.0000 21.1873
#
#
#
# Elastic Compliance Matrix: (Units=1/GPa)
#
#
# Indices 1 2 3 4 5 6 
#
# 1 0.035398 -0.014463 0.000793 0.000000 -0.006173 0.000000
# 2 -0.014463 0.029624 -0.006700 0.000000 0.013004 0.000000
# 3 0.000793 -0.006700 0.012698 0.000000 -0.007816 0.000000
# 4 0.000000 0.000000 0.000000 0.084697 0.000000 -0.025646
# 5 -0.006173 0.013004 -0.007816 0.000000 0.052677 0.000000
# 6 0.000000 0.000000 0.000000 -0.025646 0.000000 0.054964
#
#
# Mechanical properties :
#
#
# Convention : Reuss Voigt Hill
#
# Bulk Modulus (GPa) = 27.04303 31.13451 29.08877
# Shear Modulus (GPa) = 15.47393 20.37761 17.92577
#
# Velocity S-wave (km/s) = 2.94684 3.38168 3.17172
# Velocity P-wave (km/s) = 5.17251 5.72015 5.45321
#
# Compressibility (1/GPa) = 0.03697810
#
# Stress axis : x y z
#
# Youngs Moduli (GPa) = 28.25025 33.75687 78.75401
#
# Poissons Ratio (x) = 0.48822 -0.06242
# Poissons Ratio (y) = 0.40858 0.52767
# Poissons Ratio (z) = -0.02239 0.22618
#
# Static dielectric constant tensor:
#      x y z
#    x 1.582330 0.000000 0.019140 
#    y 0.000000 1.593630 0.000000 
#    z 0.019140 0.000000 1.624230 
# 
# From -- ./inp_files/319866.got.cif
#   From: 2010.05.17/outbox.cif.g08.bks.cpg/sg12_160_cif.got.tgz:319866.got - 2010.06.03 13:09:07.
