data_PCOD9219021
_publ_section_title
;
Structure prediction by ZEFSAII (Michael W. Deem and Ramdas Pophale) SiO2 
 PCOD9219021
Probable space group: C 2/M
;
_chemical_formula_sum "Si O2"
_cell_formula_units_Z 40
_cell_length_a 24.004896
_cell_length_b 20.900075
_cell_length_c 18.190356
_cell_angle_alpha 90.000000
_cell_angle_beta 167.506769
_cell_angle_gamma 90.000000
_cell_volume 1974.213520
_symmetry_space_group_name_H-M "C 2/M"
_symmetry_group_IT_number 12
_symmetry_cell_setting 'monoclinic'
loop_
_space_group_symop_operation_xyz
x,y,z
-x,y,-z
-x,-y,-z
x,-y,z
1/2+x,1/2+y,z
1/2-x,1/2+y,-z
1/2-x,1/2-y,-z
1/2+x,1/2-y,z
loop_
_atom_site_type_symbol
_atom_site_label
_atom_site_fract_x
_atom_site_fract_y
_atom_site_fract_z
Si Si1 0.575207 0.429152 0.683268
Si Si2 0.799838 0.316373 0.182782
Si Si3 0.774244 0.281649 0.383191
Si Si4 0.052229 0.321163 0.878219
Si Si5 0.188512 0.862216 0.531215
O O1 0.500000 0.428456 0.500000
O O2 0.682988 0.500000 0.836956
O O3 0.361120 0.414608 0.470017
O O4 0.770883 0.370145 0.938568
O O5 0.000000 0.344238 0.500000
O O6 0.982701 0.305235 0.348854
O O7 0.701229 0.246005 0.084225
O O8 0.557319 0.356790 0.840868
O O9 0.817320 0.301273 0.522740
O O10 0.793477 0.205398 0.403976
O O11 0.500000 0.303673 0.000000
O O12 0.940794 0.358775 0.804836
#
# Coordination Sequence:
#
# PCOD9219021 Si02
#       5
#     8   8   8   8   8
#     4  11  25  43  61  82 114 161 208 248 288 335
#     4  11  19  35  58  91 127 153 184 237 302 360
#     4  11  20  33  58  94 124 156 186 232 303 365
#     4  11  21  38  58  89 124 153 192 243 295 351
#     4  11  22  37  59  88 120 156 194 240 297 354
#
# _framework density 20.261233000000001
#
# number of rings (size 3 to 8) (size 9 to 14) (size 15 to 20)
#    0.000    1.000    4.000    6.600    2.800    0.800 
#    0.000    2.000    0.000    1.200    0.000    0.000 
#    0.000    0.000    0.000    0.000    0.000    0.000 
#
# Total GULP energy -111596.767733 kJ/mol
# GULP energy per Si atom -5579.838387 kJ/mol
# Density = 2.021512 g / cm^3
# Si number density = 20.261233 Si / 1000 Ang^3
#
#
#
# Elastic Constant Matrix: (Units=GPa)
#
#
# Indices 1 2 3 4 5 6 
#
# 1 103.7444 10.4759 27.5815 0.0004 15.7949 -0.0011
# 2 10.4759 49.9988 0.4300 0.0006 -1.6481 0.0008
# 3 27.5815 0.4300 85.8013 0.0036 -7.5006 -0.0021
# 4 0.0004 0.0006 0.0036 6.7558 0.0018 -0.3383
# 5 15.7949 -1.6481 -7.5006 0.0018 49.3053 -0.0010
# 6 -0.0011 0.0008 -0.0021 -0.3383 -0.0010 15.3771
#
#
#
# Elastic Compliance Matrix: (Units=1/GPa)
#
#
# Indices 1 2 3 4 5 6 
#
# 1 0.011673 -0.002557 -0.004129 0.000003 -0.004453 0.000000
# 2 -0.002557 0.020583 0.000862 -0.000003 0.001638 -0.000001
# 3 -0.004129 0.000862 0.013272 -0.000008 0.003371 0.000002
# 4 0.000003 -0.000003 -0.000008 0.148184 -0.000008 0.003260
# 5 -0.004453 0.001638 0.003371 -0.000008 0.022276 0.000001
# 6 0.000000 -0.000001 0.000002 0.003260 0.000001 0.065104
#
#
# Mechanical properties :
#
#
# Convention : Reuss Voigt Hill
#
# Bulk Modulus (GPa) = 29.51547 35.16882 32.34215
# Shear Modulus (GPa) = 16.44559 27.69144 22.06852
#
# Velocity S-wave (km/s) = 2.85209 3.70093 3.30388
# Velocity P-wave (km/s) = 5.04430 5.97142 5.52733
#
# Compressibility (1/GPa) = 0.03388054
#
# Stress axis : x y z
#
# Youngs Moduli (GPa) = 85.66834 48.58422 75.34428
#
# Poissons Ratio (x) = 0.12423 0.31108
# Poissons Ratio (y) = 0.21906 -0.06495
# Poissons Ratio (z) = 0.35371 -0.04188
#
# Static dielectric constant tensor:
#      x y z
#    x 1.901550 0.000000 0.032760 
#    y 0.000000 1.686360 0.000000 
#    z 0.032760 0.000000 1.797060 
# 
# From -- ./inp_files/217327.got.cif
#   From: 2010.05.17/outbox.cif.g08.bks.cpg/sg12_109_cif.got.tgz:217327.got - 2010.06.03 13:09:07.
