data_PCOD9219713
_publ_section_title
;
Structure prediction by ZEFSAII (Michael W. Deem and Ramdas Pophale) SiO2 
 PCOD9219713
Probable space group: C 2/M
;
_chemical_formula_sum "Si O2"
_cell_formula_units_Z 40
_cell_length_a 18.482882
_cell_length_b 8.924704
_cell_length_c 13.998771
_cell_angle_alpha 90.000000
_cell_angle_beta 71.169957
_cell_angle_gamma 90.000000
_cell_volume 2185.571060
_symmetry_space_group_name_H-M "C 2/M"
_symmetry_group_IT_number 12
_symmetry_cell_setting 'monoclinic'
loop_
_space_group_symop_operation_xyz
x,y,z
-x,y,-z
-x,-y,-z
x,-y,z
1/2+x,1/2+y,z
1/2-x,1/2+y,-z
1/2-x,1/2-y,-z
1/2+x,1/2-y,z
loop_
_atom_site_type_symbol
_atom_site_label
_atom_site_fract_x
_atom_site_fract_y
_atom_site_fract_z
Si Si1 0.429489 0.679001 0.601170
Si Si2 0.631999 0.680175 0.788352
Si Si3 0.226110 0.679361 0.409493
Si Si4 0.085344 0.827742 0.009763
Si Si5 0.525689 0.177993 0.216726
O O1 0.500000 0.710307 0.500000
O O2 0.420735 0.500000 0.611727
O O3 0.353244 0.751608 0.591394
O O4 0.447770 0.746684 0.696728
O O5 0.617633 0.500000 0.791643
O O6 0.707502 0.711829 0.696000
O O7 0.558847 0.761378 0.773834
O O8 0.637425 0.721040 0.898303
O O9 0.219724 0.500000 0.421325
O O10 0.250000 0.750000 0.500000
O O11 0.080181 0.727602 0.105713
O O12 0.102630 0.000000 0.028526
O O13 0.000000 0.826383 0.000000
O O14 0.524478 0.000000 0.226288
#
# Coordination Sequence:
#
# PCOD9219713 Si02
#       5
#     8   8   8   8   8
#     4  11  24  41  59  79 107 145 186 226 272 326
#     4   9  19  36  57  81 112 149 184 221 268 323
#     4  11  23  39  59  84 112 142 181 226 274 327
#     4   8  15  31  54  78 108 147 185 220 264 318
#     4  11  21  33  55  86 115 143 181 228 272 319
#
# _framework density 18.301852
#
# number of rings (size 3 to 8) (size 9 to 14) (size 15 to 20)
#    0.000    2.000    0.000    5.400    0.000   11.600 
#    0.000    1.000    0.000    0.000    0.000    0.000 
#    0.000    0.000    0.000    0.000    0.000    0.000 
#
# Total GULP energy -111688.159666 kJ/mol
# GULP energy per Si atom -5584.407983 kJ/mol
# Density = 1.826020 g / cm^3
# Si number density = 18.301852 Si / 1000 Ang^3
#
#
#
# Elastic Constant Matrix: (Units=GPa)
#
#
# Indices 1 2 3 4 5 6 
#
# 1 111.4528 69.8104 93.8566 0.0000 -3.2566 0.0000
# 2 69.8104 90.2619 94.5317 0.0000 -5.2491 0.0000
# 3 93.8566 94.5317 194.6538 0.0000 -7.5467 0.0000
# 4 0.0000 0.0000 0.0000 26.1655 0.0000 7.9011
# 5 -3.2566 -5.2491 -7.5467 0.0000 29.8626 0.0000
# 6 0.0000 0.0000 0.0000 7.9011 0.0000 22.8713
#
#
#
# Elastic Compliance Matrix: (Units=1/GPa)
#
#
# Indices 1 2 3 4 5 6 
#
# 1 0.018901 -0.010354 -0.004116 0.000000 -0.000799 0.000000
# 2 -0.010354 0.028261 -0.008669 0.000000 0.001648 0.000000
# 3 -0.004116 -0.008669 0.011367 0.000000 0.000900 0.000000
# 4 0.000000 0.000000 0.000000 0.042669 0.000000 -0.014741
# 5 -0.000799 0.001648 0.000900 0.000000 0.033917 0.000000
# 6 0.000000 0.000000 0.000000 -0.014741 0.000000 0.048815
#
#
# Mechanical properties :
#
#
# Convention : Reuss Voigt Hill
#
# Bulk Modulus (GPa) = 81.62224 101.41844 91.52034
# Shear Modulus (GPa) = 21.34104 24.99121 23.16612
#
# Velocity S-wave (km/s) = 3.41847 3.69928 3.56164
# Velocity P-wave (km/s) = 7.76375 8.58958 8.18708
#
# Compressibility (1/GPa) = 0.01225156
#
# Stress axis : x y z
#
# Youngs Moduli (GPa) = 52.90844 35.38423 87.97630
#
# Poissons Ratio (x) = 0.36636 0.36212
# Poissons Ratio (y) = 0.54780 0.76263
# Poissons Ratio (z) = 0.21778 0.30673
#
# Static dielectric constant tensor:
#      x y z
#    x 1.600740 0.000000 -0.022470 
#    y 0.000000 1.608870 0.000000 
#    z -0.022470 0.000000 1.644220 
# 
# From -- ./inp_files/151750.got.cif
#   From: 2010.05.17/outbox.cif.g08.bks.cpg/sg12_76_cif.got.tgz:151750.got - 2010.06.03 13:09:07.
