data_PCOD9219985
_publ_section_title
;
Structure prediction by ZEFSAII (Michael W. Deem and Ramdas Pophale) SiO2 
 PCOD9219985
Probable space group: C 2/M
;
_chemical_formula_sum "Si O2"
_cell_formula_units_Z 56
_cell_length_a 9.132451
_cell_length_b 16.595942
_cell_length_c 20.350856
_cell_angle_alpha 90.000000
_cell_angle_beta 53.845729
_cell_angle_gamma 90.000000
_cell_volume 2490.448648
_symmetry_space_group_name_H-M "C 2/M"
_symmetry_group_IT_number 12
_symmetry_cell_setting 'monoclinic'
loop_
_space_group_symop_operation_xyz
x,y,z
-x,y,-z
-x,-y,-z
x,-y,z
1/2+x,1/2+y,z
1/2-x,1/2+y,-z
1/2-x,1/2-y,-z
1/2+x,1/2-y,z
loop_
_atom_site_type_symbol
_atom_site_label
_atom_site_fract_x
_atom_site_fract_y
_atom_site_fract_z
Si Si1 0.504564 0.910584 0.206733
Si Si2 0.706263 0.301019 0.252008
Si Si3 0.172575 0.740108 0.594598
Si Si4 0.797092 0.908622 0.877971
Si Si5 0.929335 0.361287 0.587977
Si Si6 0.710787 0.385525 0.758853
Si Si7 0.801261 0.098450 0.023907
O O1 0.336347 0.852608 0.264767
O O2 0.641288 0.916715 0.230400
O O3 0.635560 0.877073 0.114688
O O4 0.438205 0.000000 0.207541
O O5 0.498442 0.291566 0.331326
O O6 0.727724 0.348092 0.176810
O O7 0.784736 0.211043 0.230917
O O8 0.250000 0.750000 0.500000
O O9 0.339772 0.773651 0.593128
O O10 0.081319 0.653387 0.603738
O O11 0.013735 0.916139 0.825758
O O12 0.721363 0.000000 0.888810
O O13 0.750227 0.876737 0.963118
O O14 0.771710 0.405504 0.668731
O O15 0.000000 0.394356 0.500000
O O16 0.805817 0.000000 0.022759
O O17 0.000000 0.123891 0.000000
#
# Coordination Sequence:
#
# PCOD9219985 Si02
#       7
#     8   8   8   8   8   8   8
#     4  11  23  40  62  88 122 166 210 254 309 371
#     4  11  23  37  57  93 127 150 198 264 314 358
#     4   9  18  33  55  86 117 151 192 244 296 358
#     4  11  21  38  63  86 117 165 211 252 303 362
#     4   9  18  32  54  86 115 148 194 245 293 358
#     4  11  21  37  61  88 120 159 207 248 304 373
#     4   9  18  36  60  85 116 165 219 250 288 374
#
# _framework density 22.485907000000001
#
# number of rings (size 3 to 8) (size 9 to 14) (size 15 to 20)
#    0.000    1.857    2.857    1.714    6.000    0.571 
#    0.000    6.429    0.000    1.714    0.000    9.000 
#    0.000    0.000    0.000    0.000    0.000    0.000 
#
# Total GULP energy -155979.475675 kJ/mol
# GULP energy per Si atom -5570.695560 kJ/mol
# Density = 2.243473 g / cm^3
# Si number density = 22.485907 Si / 1000 Ang^3
#
#
#
# Elastic Constant Matrix: (Units=GPa)
#
#
# Indices 1 2 3 4 5 6 
#
# 1 77.0518 16.2766 -2.9775 0.0000 13.6549 0.0000
# 2 16.2766 84.4508 8.5989 0.0000 -0.0376 0.0001
# 3 -2.9775 8.5989 128.6949 0.0001 17.3603 0.0000
# 4 0.0000 0.0000 0.0001 10.2618 -0.0001 6.7609
# 5 13.6549 -0.0376 17.3603 -0.0001 46.9967 -0.0002
# 6 0.0000 0.0001 0.0000 6.7609 -0.0002 30.9681
#
#
#
# Elastic Compliance Matrix: (Units=1/GPa)
#
#
# Indices 1 2 3 4 5 6 
#
# 1 0.014457 -0.002906 0.001153 0.000000 -0.004629 0.000000
# 2 -0.002906 0.012511 -0.001072 0.000000 0.001250 0.000000
# 3 0.001153 -0.001072 0.008329 0.000000 -0.003413 0.000000
# 4 0.000000 0.000000 0.000000 0.113820 0.000000 -0.024849
# 5 -0.004629 0.001250 -0.003413 0.000000 0.023885 0.000000
# 6 0.000000 0.000000 0.000000 -0.024849 0.000000 0.037716
#
#
# Mechanical properties :
#
#
# Convention : Reuss Voigt Hill
#
# Bulk Modulus (GPa) = 33.72950 37.11039 35.41994
# Shear Modulus (GPa) = 22.09948 35.53195 28.81571
#
# Velocity S-wave (km/s) = 3.13839 3.97947 3.58369
# Velocity P-wave (km/s) = 5.30712 6.13633 5.73673
#
# Compressibility (1/GPa) = 0.02964764
#
# Stress axis : x y z
#
# Youngs Moduli (GPa) = 69.17082 79.92994 120.06327
#
# Poissons Ratio (x) = 0.23226 -0.13844
# Poissons Ratio (y) = 0.20100 0.12869
# Poissons Ratio (z) = -0.07976 0.08567
#
# Static dielectric constant tensor:
#      x y z
#    x 1.906980 0.000000 0.026220 
#    y 0.000000 1.953500 0.000000 
#    z 0.026220 0.000000 1.892050 
# 
# From -- ./inp_files/300682.got.cif
#   From: 2010.05.17/outbox.cif.g08.bks.cpg/sg12_151_cif.got.tgz:300682.got - 2010.06.03 13:09:07.
