data_PCOD9219340
_publ_section_title
;
Structure prediction by ZEFSAII (Michael W. Deem and Ramdas Pophale) SiO2 
 PCOD9219340
Probable space group: C 2/M
;
_chemical_formula_sum "Si O2"
_cell_formula_units_Z 58
_cell_length_a 7.706174
_cell_length_b 22.452350
_cell_length_c 22.885485
_cell_angle_alpha 90.000000
_cell_angle_beta 133.949476
_cell_angle_gamma 90.000000
_cell_volume 2850.784076
_symmetry_space_group_name_H-M "C 2/M"
_symmetry_group_IT_number 12
_symmetry_cell_setting 'monoclinic'
loop_
_space_group_symop_operation_xyz
x,y,z
-x,y,-z
-x,-y,-z
x,-y,z
1/2+x,1/2+y,z
1/2-x,1/2+y,-z
1/2-x,1/2-y,-z
1/2+x,1/2-y,z
loop_
_atom_site_type_symbol
_atom_site_label
_atom_site_fract_x
_atom_site_fract_y
_atom_site_fract_z
Si Si1 0.162938 0.367079 0.201255
Si Si2 0.237272 0.671205 0.094791
Si Si3 0.627544 0.697366 0.349227
Si Si4 0.643960 0.308214 0.094627
Si Si5 0.821656 0.566174 0.684324
Si Si6 0.500000 0.000000 0.500000
Si Si7 0.546283 0.830765 0.361277
Si Si8 0.702657 0.608811 0.473927
O O1 0.232346 0.371968 0.149485
O O2 0.352460 0.320298 0.272954
O O3 0.193425 0.424506 0.249509
O O4 0.892236 0.343443 0.145450
O O5 0.470783 0.672292 0.107450
O O6 0.204230 0.737934 0.113483
O O7 0.000000 0.660312 0.000000
O O8 0.644880 0.767620 0.362782
O O9 0.793029 0.679741 0.333586
O O10 0.715034 0.657468 0.424382
O O11 0.500000 0.314656 0.000000
O O12 0.903414 0.500000 0.688588
O O13 0.557349 0.578650 0.596063
O O14 0.976967 0.619792 0.694045
O O15 0.617032 0.946713 0.487172
O O16 0.730425 0.855713 0.452578
#
# Coordination Sequence:
#
# PCOD9219340 Si02
#       8
#     8   8   8   8   8   2   8   8
#     4  11  25  40  64  93 135 177 206 275 326 389
#     4  11  20  35  62  97 133 174 210 259 322 393
#     4  11  25  40  60 100 135 168 210 274 342 396
#     4  11  20  35  61  98 136 169 213 261 319 396
#     4  11  27  45  64  92 127 168 224 278 329 391
#     4  12  20  40  70  92 120 176 220 282 324 378
#     4  12  25  41  65  93 126 176 216 272 337 396
#     4  11  23  43  68  89 125 170 223 276 323 393
#
# _framework density 20.345279000000001
#
# number of rings (size 3 to 8) (size 9 to 14) (size 15 to 20)
#    0.000    0.828    4.828    3.310    6.759    1.655 
#    0.000    0.000    0.000    0.828    0.000    0.000 
#    0.000    0.000    0.000    0.000    0.000    0.000 
#
# Total GULP energy -161842.237421 kJ/mol
# GULP energy per Si atom -5580.766808 kJ/mol
# Density = 2.029897 g / cm^3
# Si number density = 20.345279 Si / 1000 Ang^3
#
#
#
# Elastic Constant Matrix: (Units=GPa)
#
#
# Indices 1 2 3 4 5 6 
#
# 1 125.9276 34.0592 22.8485 0.0000 -13.9404 0.0000
# 2 34.0592 132.0903 18.9050 0.0000 -14.2947 0.0000
# 3 22.8485 18.9050 62.2824 0.0000 -0.7598 0.0000
# 4 0.0000 0.0000 0.0000 3.0046 0.0000 7.3890
# 5 -13.9404 -14.2947 -0.7598 0.0000 33.1167 0.0000
# 6 0.0000 0.0000 0.0000 7.3890 0.0000 -5.8458
#
#
#
# Elastic Compliance Matrix: (Units=1/GPa)
#
#
# Indices 1 2 3 4 5 6 
#
# 1 0.009248 -0.001638 -0.002857 0.000000 0.003120 0.000000
# 2 -0.001638 0.008597 -0.001972 0.000000 0.002976 0.000000
# 3 -0.002857 -0.001972 0.017683 0.000000 -0.001649 0.000000
# 4 0.000000 0.000000 0.000000 0.081010 0.000000 0.102395
# 5 0.003120 0.002976 -0.001649 0.000000 0.032757 0.000000
# 6 0.000000 0.000000 0.000000 0.102395 0.000000 -0.041637
#
#
# Mechanical properties :
#
#
# Convention : Reuss Voigt Hill
#
# Bulk Modulus (GPa) = 44.26248 52.43620 48.34934
# Shear Modulus (GPa) = 39.02477 22.35426 30.68952
#
# Velocity S-wave (km/s) = 4.38439 3.31833 3.88807
# Velocity P-wave (km/s) = 6.88719 6.36481 6.63115
#
# Compressibility (1/GPa) = 0.02259250
#
# Stress axis : x y z
#
# Youngs Moduli (GPa) = 108.13200 116.31560 56.55234
#
# Poissons Ratio (x) = 0.19052 0.16159
# Poissons Ratio (y) = 0.17711 0.11154
# Poissons Ratio (z) = 0.30898 0.22942
#
# Static dielectric constant tensor:
#      x y z
#    x 1.812890 0.000000 -0.010330 
#    y 0.000000 1.695900 0.000000 
#    z -0.010330 0.000000 1.744330 
# 
# From -- ./inp_files/333860.got.cif
#   From: 2010.05.17/outbox.cif.g08.bks.cpg/sg12_167_cif.got.tgz:333860.got - 2010.06.03 13:09:07.
