data_PCOD9219485
_publ_section_title
;
Structure prediction by ZEFSAII (Michael W. Deem and Ramdas Pophale) SiO2 
 PCOD9219485
Probable space group: C 2/M
;
_chemical_formula_sum "Si O2"
_cell_formula_units_Z 36
_cell_length_a 20.541559
_cell_length_b 19.480351
_cell_length_c 12.163398
_cell_angle_alpha 90.000000
_cell_angle_beta 161.421297
_cell_angle_gamma 90.000000
_cell_volume 1550.745068
_symmetry_space_group_name_H-M "C 2/M"
_symmetry_group_IT_number 12
_symmetry_cell_setting 'monoclinic'
loop_
_space_group_symop_operation_xyz
x,y,z
-x,y,-z
-x,-y,-z
x,-y,z
1/2+x,1/2+y,z
1/2-x,1/2+y,-z
1/2-x,1/2-y,-z
1/2+x,1/2-y,z
loop_
_atom_site_type_symbol
_atom_site_label
_atom_site_fract_x
_atom_site_fract_y
_atom_site_fract_z
Si Si1 0.408391 0.856022 0.468504
Si Si2 0.278241 0.112069 0.703247
Si Si3 0.876125 0.500000 0.502250
Si Si4 0.220420 0.788797 0.791157
Si Si5 0.845307 0.000000 0.652551
Si Si6 0.785339 0.000000 0.213538
O O1 0.500000 0.880126 0.500000
O O2 0.263474 0.793174 0.199724
O O3 0.305915 0.923917 0.355993
O O4 0.590748 0.822706 0.837248
O O5 0.219634 0.183361 0.664671
O O6 0.147206 0.068403 0.406921
O O7 0.250336 0.065257 0.767159
O O8 0.500000 0.116644 0.000000
O O9 0.866432 0.500000 0.619580
O O10 0.111860 0.500000 0.844268
O O11 0.000000 0.800956 0.500000
O O12 0.000000 0.000000 0.000000
O O13 0.000000 0.000000 0.500000
#
# Coordination Sequence:
#
# PCOD9219485 Si02
#       6
#     8   8   4   8   4   4
#     4  11  24  42  66  98 139 176 220 288 343 398
#     4  11  21  43  69  94 135 184 226 282 335 407
#     4  12  23  45  65 100 142 174 230 283 343 398
#     4  11  23  42  68  99 133 177 229 278 344 408
#     4  11  24  40  63  98 138 183 222 282 337 404
#     4  11  20  38  72 100 130 174 237 271 331 408
#
# _framework density 23.214646999999999
#
# number of rings (size 3 to 8) (size 9 to 14) (size 15 to 20)
#    0.000    0.889    4.444    4.333    0.000    3.556 
#    4.000    5.556    0.000    0.000    0.000    0.778 
#    0.000    0.000    0.000    0.000    0.000    0.000 
#
# Total GULP energy -100305.488934 kJ/mol
# GULP energy per Si atom -5572.527163 kJ/mol
# Density = 2.316181 g / cm^3
# Si number density = 23.214647 Si / 1000 Ang^3
#
#
#
# Elastic Constant Matrix: (Units=GPa)
#
#
# Indices 1 2 3 4 5 6 
#
# 1 133.0287 70.9514 39.2756 0.0000 1.6051 0.0000
# 2 70.9514 124.3706 27.5817 0.0000 -4.3815 0.0000
# 3 39.2756 27.5817 128.5592 0.0000 -1.1439 0.0000
# 4 0.0000 0.0000 0.0000 -39.2669 0.0000 12.2275
# 5 1.6051 -4.3815 -1.1439 0.0000 43.8938 0.0000
# 6 0.0000 0.0000 0.0000 12.2275 0.0000 33.0083
#
#
#
# Elastic Compliance Matrix: (Units=1/GPa)
#
#
# Indices 1 2 3 4 5 6 
#
# 1 0.011411 -0.006061 -0.002195 0.000000 -0.001079 0.000000
# 2 -0.006061 0.011689 -0.000644 0.000000 0.001372 0.000000
# 3 -0.002195 -0.000644 0.008590 0.000000 0.000240 0.000000
# 4 0.000000 0.000000 0.000000 -0.022833 0.000000 0.008458
# 5 -0.001079 0.001372 0.000240 0.000000 0.022965 0.000000
# 6 0.000000 0.000000 0.000000 0.008458 0.000000 0.027162
#
#
# Mechanical properties :
#
#
# Convention : Reuss Voigt Hill
#
# Bulk Modulus (GPa) = 71.99877 73.50841 72.75359
# Shear Modulus (GPa) = 61.41414 24.07035 42.74224
#
# Velocity S-wave (km/s) = 5.14901 3.22352 4.29555
# Velocity P-wave (km/s) = 8.15055 6.75191 7.48397
#
# Compressibility (1/GPa) = 0.01388913
#
# Stress axis : x y z
#
# Youngs Moduli (GPa) = 87.63480 85.54830 116.42082
#
# Poissons Ratio (x) = 0.51850 0.25559
# Poissons Ratio (y) = 0.53115 0.07498
# Poissons Ratio (z) = 0.19239 0.05509
#
# Static dielectric constant tensor:
#      x y z
#    x 1.933490 0.000000 0.128710 
#    y 0.000000 2.015670 0.000000 
#    z 0.128710 0.000000 2.129470 
# 
# From -- ./inp_files/169924.got.cif
#   From: 2010.05.17/outbox.cif.g08.bks.cpg/sg12_85_cif.got.tgz:169924.got - 2010.06.03 13:09:07.
