data_PCOD9219927
_publ_section_title
;
Structure prediction by ZEFSAII (Michael W. Deem and Ramdas Pophale) SiO2 
 PCOD9219927
Probable space group: C 2/M
;
_chemical_formula_sum "Si O2"
_cell_formula_units_Z 48
_cell_length_a 14.684396
_cell_length_b 14.407352
_cell_length_c 19.676767
_cell_angle_alpha 90.000000
_cell_angle_beta 146.050395
_cell_angle_gamma 90.000000
_cell_volume 2324.817101
_symmetry_space_group_name_H-M "C 2/M"
_symmetry_group_IT_number 12
_symmetry_cell_setting 'monoclinic'
loop_
_space_group_symop_operation_xyz
x,y,z
-x,y,-z
-x,-y,-z
x,-y,z
1/2+x,1/2+y,z
1/2-x,1/2+y,-z
1/2-x,1/2-y,-z
1/2+x,1/2-y,z
loop_
_atom_site_type_symbol
_atom_site_label
_atom_site_fract_x
_atom_site_fract_y
_atom_site_fract_z
Si Si1 0.228583 0.598956 0.816102
Si Si2 0.557812 0.723792 0.726405
Si Si3 0.057479 0.293091 0.207073
Si Si4 0.364020 0.110163 0.973488
Si Si5 0.611082 0.607487 0.635363
Si Si6 0.047575 0.899513 0.920840
O O1 0.141131 0.500000 0.758112
O O2 0.128833 0.686747 0.731869
O O3 0.391228 0.593107 0.872904
O O4 0.296011 0.612706 0.934139
O O5 0.444880 0.774479 0.713122
O O6 0.705421 0.669896 0.856206
O O7 0.514676 0.651332 0.640096
O O8 0.229728 0.331096 0.285268
O O9 0.995929 0.192148 0.145595
O O10 0.931991 0.361175 0.089491
O O11 0.336765 0.000000 0.952743
O O12 0.500000 0.134243 0.000000
O O13 0.500000 0.606620 0.500000
O O14 0.659947 0.500000 0.680972
O O15 0.062229 0.000000 0.893877
#
# Coordination Sequence:
#
# PCOD9219927 Si02
#       6
#     8   8   8   8   8   8
#     4   9  17  31  52  81 121 165 200 233 292 374
#     4  12  23  38  63  96 132 167 213 269 325 394
#     4  12  23  38  63  96 132 167 213 269 325 394
#     4  11  21  36  61  96 140 182 215 259 321 394
#     4  11  26  49  72  91 120 169 227 282 332 384
#     4   9  17  31  52  81 121 165 200 233 292 374
#
# _framework density 20.646785999999999
#
# number of rings (size 3 to 8) (size 9 to 14) (size 15 to 20)
#    0.000    1.333    5.000    2.500    0.000    3.333 
#    0.000    0.000    0.000    2.000    0.000    0.000 
#    0.000    0.000    0.000    0.000    0.000    0.000 
#
# Total GULP energy -133722.446625 kJ/mol
# GULP energy per Si atom -5571.768609 kJ/mol
# Density = 2.059979 g / cm^3
# Si number density = 20.646786 Si / 1000 Ang^3
#
#
#
# Elastic Constant Matrix: (Units=GPa)
#
#
# Indices 1 2 3 4 5 6 
#
# 1 98.6696 11.1316 2.7618 0.0007 -27.2394 0.0003
# 2 11.1316 130.0271 11.9320 0.0006 -9.8789 0.0004
# 3 2.7618 11.9320 36.0678 0.0004 -16.4626 0.0010
# 4 0.0007 0.0006 0.0004 21.7170 0.0005 -9.9048
# 5 -27.2394 -9.8789 -16.4626 0.0005 17.5782 0.0005
# 6 0.0003 0.0004 0.0010 -9.9048 0.0005 5.0757
#
#
#
# Elastic Compliance Matrix: (Units=1/GPa)
#
#
# Indices 1 2 3 4 5 6 
#
# 1 0.031861 0.000314 0.035059 -0.000104 0.082383 -0.000221
# 2 0.000314 0.008059 -0.000700 -0.000007 0.004361 -0.000015
# 3 0.035059 -0.000700 0.087139 -0.000189 0.135543 -0.000403
# 4 -0.000104 -0.000007 -0.000189 0.418667 -0.000379 0.816996
# 5 0.082383 0.004361 0.135543 -0.000379 0.313942 -0.000804
# 6 -0.000221 -0.000015 -0.000403 0.816996 -0.000804 1.791320
#
#
# Mechanical properties :
#
#
# Convention : Reuss Voigt Hill
#
# Bulk Modulus (GPa) = 5.09148 35.15724 20.12436
# Shear Modulus (GPa) = 1.88885 24.80345 13.34615
#
# Velocity S-wave (km/s) = 0.95751 3.46977 2.54520
# Velocity P-wave (km/s) = 1.92192 5.75477 4.29017
#
# Compressibility (1/GPa) = 0.19640662
#
# Stress axis : x y z
#
# Youngs Moduli (GPa) = 31.38599 124.07957 11.47591
#
# Poissons Ratio (x) = -0.03900 -0.40233
# Poissons Ratio (y) = -0.00986 0.00803
# Poissons Ratio (z) = -1.10036 0.08682
#
# Static dielectric constant tensor:
#      x y z
#    x 1.862930 0.000000 -0.042600 
#    y 0.000000 1.762730 0.000000 
#    z -0.042600 0.000000 1.721520 
# 
# From -- ./inp_files/270450.got.cif
#   From: 2010.05.17/outbox.cif.g08.bks.cpg/sg12_136_cif.got.tgz:270450.got - 2010.06.03 13:09:07.
