data_PCOD9219825
_publ_section_title
;
Structure prediction by ZEFSAII (Michael W. Deem and Ramdas Pophale) SiO2 
 PCOD9219825
Probable space group: C 2/M
;
_chemical_formula_sum "Si O2"
_cell_formula_units_Z 44
_cell_length_a 8.036610
_cell_length_b 22.332900
_cell_length_c 18.649082
_cell_angle_alpha 90.000000
_cell_angle_beta 39.793796
_cell_angle_gamma 90.000000
_cell_volume 2142.266188
_symmetry_space_group_name_H-M "C 2/M"
_symmetry_group_IT_number 12
_symmetry_cell_setting 'monoclinic'
loop_
_space_group_symop_operation_xyz
x,y,z
-x,y,-z
-x,-y,-z
x,-y,z
1/2+x,1/2+y,z
1/2-x,1/2+y,-z
1/2-x,1/2-y,-z
1/2+x,1/2-y,z
loop_
_atom_site_type_symbol
_atom_site_label
_atom_site_fract_x
_atom_site_fract_y
_atom_site_fract_z
Si Si1 0.337071 0.831171 0.327156
Si Si2 0.934127 0.123805 0.353445
Si Si3 0.744711 0.655722 0.120356
Si Si4 0.275157 0.063611 0.450706
Si Si5 0.100149 0.781059 0.887086
Si Si6 0.500000 0.226177 0.500000
O O1 0.377980 0.874052 0.383246
O O2 0.615487 0.807310 0.215650
O O3 0.140941 0.775050 0.402153
O O4 0.196746 0.869290 0.312798
O O5 0.780985 0.072186 0.446485
O O6 0.742820 0.180845 0.428404
O O7 0.038499 0.120059 0.237744
O O8 0.864430 0.709344 0.129657
O O9 0.584690 0.690230 0.111333
O O10 0.000000 0.625331 0.000000
O O11 0.000000 0.060040 0.500000
O O12 0.413191 0.000000 0.391643
O O13 0.000000 0.793862 0.000000
#
# Coordination Sequence:
#
# PCOD9219825 Si02
#       6
#     8   8   8   8   8   4
#     4  11  21  35  58  83 117 152 187 240 278 347
#     4  11  22  34  56  84 120 149 187 237 283 346
#     4  11  22  35  53  79 116 153 190 232 287 350
#     4   9  20  38  58  82 112 157 199 232 279 334
#     4  11  22  35  54  79 115 153 191 232 287 349
#     4  12  22  30  54  90 124 146 184 222 308 342
#
# _framework density 20.538996999999998
#
# number of rings (size 3 to 8) (size 9 to 14) (size 15 to 20)
#    0.000    1.273    4.545    4.909    2.545    0.000 
#    0.000    0.455    0.000    1.091    0.000    0.000 
#    0.000    0.000    0.000    0.000    0.000    0.000 
#
# Total GULP energy -122510.041660 kJ/mol
# GULP energy per Si atom -5568.638257 kJ/mol
# Density = 2.049225 g / cm^3
# Si number density = 20.538997 Si / 1000 Ang^3
#
#
#
# Elastic Constant Matrix: (Units=GPa)
#
#
# Indices 1 2 3 4 5 6 
#
# 1 65.6983 -8.2225 30.0995 -0.0001 -2.5776 0.0000
# 2 -8.2225 53.4649 30.5071 0.0000 8.7260 0.0000
# 3 30.0995 30.5071 139.0953 -0.0003 -2.6755 0.0002
# 4 -0.0001 0.0000 -0.0003 25.1661 0.0002 -2.4406
# 5 -2.5776 8.7260 -2.6755 0.0002 40.4696 -0.0001
# 6 0.0000 0.0000 0.0002 -2.4406 -0.0001 0.7974
#
#
#
# Elastic Compliance Matrix: (Units=1/GPa)
#
#
# Indices 1 2 3 4 5 6 
#
# 1 0.018361 0.005909 -0.005278 0.000000 -0.000454 0.000001
# 2 0.005909 0.024309 -0.006713 0.000000 -0.005309 0.000001
# 3 -0.005278 -0.006713 0.009838 0.000000 0.001762 -0.000002
# 4 0.000000 0.000000 0.000000 0.056509 0.000000 0.172958
# 5 -0.000454 -0.005309 0.001762 0.000000 0.025942 0.000004
# 6 0.000001 0.000001 -0.000002 0.172958 0.000004 1.783450
#
#
# Mechanical properties :
#
#
# Convention : Reuss Voigt Hill
#
# Bulk Modulus (GPa) = 24.78577 40.33631 32.56104
# Shear Modulus (GPa) = 2.57199 27.01156 14.79178
#
# Velocity S-wave (km/s) = 1.12025 3.63041 2.68653
# Velocity P-wave (km/s) = 3.71041 6.10367 5.05084
#
# Compressibility (1/GPa) = 0.04034573
#
# Stress axis : x y z
#
# Youngs Moduli (GPa) = 54.46318 41.13638 101.65105
#
# Poissons Ratio (x) = -0.24310 0.53652
# Poissons Ratio (y) = -0.32185 0.68234
# Poissons Ratio (z) = 0.28746 0.27613
#
# Static dielectric constant tensor:
#      x y z
#    x 1.799760 0.000000 0.041860 
#    y 0.000000 1.769410 0.000000 
#    z 0.041860 0.000000 1.779030 
# 
# From -- ./inp_files/259096.got.cif
#   From: 2010.05.17/outbox.cif.g08.bks.cpg/sg12_130_cif.got.tgz:259096.got - 2010.06.03 13:09:07.
