data_PCOD9219161
_publ_section_title
;
Structure prediction by ZEFSAII (Michael W. Deem and Ramdas Pophale) SiO2 
 PCOD9219161
Probable space group: C 2/M
;
_chemical_formula_sum "Si O2"
_cell_formula_units_Z 48
_cell_length_a 24.909600
_cell_length_b 8.666356
_cell_length_c 21.980200
_cell_angle_alpha 90.000000
_cell_angle_beta 141.464647
_cell_angle_gamma 90.000000
_cell_volume 2956.113864
_symmetry_space_group_name_H-M "C 2/M"
_symmetry_group_IT_number 12
_symmetry_cell_setting 'monoclinic'
loop_
_space_group_symop_operation_xyz
x,y,z
-x,y,-z
-x,-y,-z
x,-y,z
1/2+x,1/2+y,z
1/2-x,1/2+y,-z
1/2-x,1/2-y,-z
1/2+x,1/2-y,z
loop_
_atom_site_type_symbol
_atom_site_label
_atom_site_fract_x
_atom_site_fract_y
_atom_site_fract_z
Si Si1 0.463728 0.312652 0.534328
Si Si2 0.860584 0.185105 0.260777
Si Si3 0.286565 0.684754 0.331825
Si Si4 0.894446 0.183402 0.850226
Si Si5 0.575314 0.815796 0.988344
Si Si6 0.228724 0.183336 0.047113
O O1 0.500000 0.269366 0.500000
O O2 0.462581 0.500000 0.534846
O O3 0.538861 0.265071 0.647217
O O4 0.364155 0.263601 0.445382
O O5 0.819978 0.210880 0.292046
O O6 0.804363 0.270058 0.160947
O O7 0.856694 0.000000 0.246756
O O8 0.274925 0.500000 0.327676
O O9 0.195923 0.767930 0.259092
O O10 0.977939 0.257559 0.892586
O O11 0.903743 0.000000 0.860288
O O12 0.895836 0.247794 0.920624
O O13 0.577531 0.000000 0.994108
O O14 0.641455 0.756253 0.996779
O O15 0.220019 0.000000 0.036839
O O16 0.250000 0.250000 0.000000
#
# Coordination Sequence:
#
# PCOD9219161 Si02
#       6
#     8   8   8   8   8   8
#     4   7  12  23  42  68  95 127 163 196 233 287
#     4   9  16  29  48  69  97 130 165 203 243 285
#     4   9  15  26  46  71 100 133 165 194 237 293
#     4  11  20  30  47  73 103 132 161 200 247 295
#     4  11  21  35  51  69  94 129 168 205 246 293
#     4  12  24  37  52  72  98 130 168 207 247 291
#
# _framework density 16.237532999999999
#
# number of rings (size 3 to 8) (size 9 to 14) (size 15 to 20)
#    0.000    2.167    1.667    7.500    0.000    0.000 
#    0.000    0.833    0.000    3.000    0.000    1.167 
#    0.000    0.000    0.000    0.000    0.000    0.000 
#
# Total GULP energy -133787.217490 kJ/mol
# GULP energy per Si atom -5574.467395 kJ/mol
# Density = 1.620058 g / cm^3
# Si number density = 16.237533 Si / 1000 Ang^3
#
#
#
# Elastic Constant Matrix: (Units=GPa)
#
#
# Indices 1 2 3 4 5 6 
#
# 1 86.1400 34.8382 48.9737 0.0000 17.1037 0.0000
# 2 34.8382 79.7258 39.1814 0.0000 5.8300 0.0000
# 3 48.9737 39.1814 88.4492 0.0000 34.0641 0.0000
# 4 0.0000 0.0000 0.0000 1.8185 0.0000 -3.0975
# 5 17.1037 5.8300 34.0641 0.0000 26.3710 0.0000
# 6 0.0000 0.0000 0.0000 -3.0975 0.0000 18.5330
#
#
#
# Elastic Compliance Matrix: (Units=1/GPa)
#
#
# Indices 1 2 3 4 5 6 
#
# 1 0.017778 -0.003790 -0.008053 0.000000 -0.000290 0.000000
# 2 -0.003790 0.018697 -0.011022 0.000000 0.012562 0.000000
# 3 -0.008053 -0.011022 0.035217 0.000000 -0.037832 0.000000
# 4 0.000000 0.000000 0.000000 0.768758 0.000000 0.128484
# 5 -0.000290 0.012562 -0.037832 0.000000 0.084200 0.000000
# 6 0.000000 0.000000 0.000000 0.128484 0.000000 0.075432
#
#
# Mechanical properties :
#
#
# Convention : Reuss Voigt Hill
#
# Bulk Modulus (GPa) = 38.51651 55.58909 47.05280
# Shear Modulus (GPa) = 4.74174 18.09926 11.42050
#
# Velocity S-wave (km/s) = 1.71072 3.34227 2.65493
# Velocity P-wave (km/s) = 5.26063 7.01453 6.19991
#
# Compressibility (1/GPa) = 0.02596289
#
# Stress axis : x y z
#
# Youngs Moduli (GPa) = 56.25052 53.48376 28.39512
#
# Poissons Ratio (x) = 0.20268 0.22866
# Poissons Ratio (y) = 0.21317 0.31298
# Poissons Ratio (z) = 0.45297 0.58951
#
# Static dielectric constant tensor:
#      x y z
#    x 1.523340 0.000000 0.034890 
#    y 0.000000 1.541700 0.000000 
#    z 0.034890 0.000000 1.577880 
# 
# From -- ./inp_files/323853.got.cif
#   From: 2010.05.17/outbox.cif.g08.bks.cpg/sg12_162_cif.got.tgz:323853.got - 2010.06.03 13:09:07.
