data_PCOD9219636
_publ_section_title
;
Structure prediction by ZEFSAII (Michael W. Deem and Ramdas Pophale) SiO2 
 PCOD9219636
Probable space group: C 2/M
;
_chemical_formula_sum "Si O2"
_cell_formula_units_Z 64
_cell_length_a 31.570480
_cell_length_b 7.752172
_cell_length_c 15.095039
_cell_angle_alpha 90.000000
_cell_angle_beta 131.175023
_cell_angle_gamma 90.000000
_cell_volume 2780.749598
_symmetry_space_group_name_H-M "C 2/M"
_symmetry_group_IT_number 12
_symmetry_cell_setting 'monoclinic'
loop_
_space_group_symop_operation_xyz
x,y,z
-x,y,-z
-x,-y,-z
x,-y,z
1/2+x,1/2+y,z
1/2-x,1/2+y,-z
1/2-x,1/2-y,-z
1/2+x,1/2-y,z
loop_
_atom_site_type_symbol
_atom_site_label
_atom_site_fract_x
_atom_site_fract_y
_atom_site_fract_z
Si Si1 0.793813 0.792730 0.423269
Si Si2 0.948026 0.287835 0.868344
Si Si3 0.305738 0.209821 0.950691
Si Si4 0.327520 0.789941 0.776444
Si Si5 0.316722 0.708622 0.251434
Si Si6 0.016364 0.806700 0.429836
Si Si7 0.912743 0.701359 0.635841
Si Si8 0.101272 0.701331 0.783195
O O1 0.730007 0.730514 0.351256
O O2 0.809602 0.740494 0.343956
O O3 0.846355 0.737138 0.554337
O O4 0.792665 0.000000 0.423165
O O5 0.949210 0.500000 0.871621
O O6 0.887375 0.232977 0.822548
O O7 0.948065 0.225117 0.766742
O O8 0.000000 0.230145 0.000000
O O9 0.321519 0.256335 0.871766
O O10 0.241287 0.265655 0.876341
O O11 0.305327 0.000000 0.954437
O O12 0.352113 0.269907 0.084030
O O13 0.327278 0.000000 0.771976
O O14 0.319942 0.500000 0.253101
O O15 0.369883 0.781515 0.273280
O O16 0.957648 0.797936 0.296291
O O17 0.000000 0.714972 0.500000
O O18 0.064208 0.749444 0.428539
O O19 0.033778 0.000000 0.477962
O O20 0.920203 0.500000 0.652153
O O21 0.090177 0.500000 0.787231
#
# Coordination Sequence:
#
# PCOD9219636 Si02
#       8
#     8   8   8   8   8   8   8   8
#     4   9  18  34  57  81 109 151 193 228 272 337
#     4   9  19  34  56  87 119 150 187 235 284 335
#     4   8  16  29  49  78 110 144 185 231 274 328
#     4   8  15  31  55  81 111 149 192 228 268 331
#     4   9  17  32  51  75 109 151 192 224 270 338
#     4  11  25  43  59  76 105 151 196 230 276 345
#     4  11  23  37  58  90 117 143 186 242 293 333
#     4  11  21  31  51  82 110 139 182 239 292 330
#
# _framework density 23.015376
#
# number of rings (size 3 to 8) (size 9 to 14) (size 15 to 20)
#    0.000    2.500    0.000    3.750    1.750    5.000 
#    0.000    0.625    0.000    3.750    0.000    0.000 
#    0.000    0.000    0.000    0.000    0.000    0.000 
#
# Total GULP energy -178694.282958 kJ/mol
# GULP energy per Si atom -5584.196342 kJ/mol
# Density = 2.296299 g / cm^3
# Si number density = 23.015376 Si / 1000 Ang^3
#
#
#
# Elastic Constant Matrix: (Units=GPa)
#
#
# Indices 1 2 3 4 5 6 
#
# 1 121.1652 5.8213 44.8142 0.0000 18.5273 0.0000
# 2 5.8213 28.6408 -0.3908 0.0000 -3.2504 0.0000
# 3 44.8142 -0.3908 94.8842 0.0000 -1.7002 0.0000
# 4 0.0000 0.0000 0.0000 15.8662 0.0000 10.6903
# 5 18.5273 -3.2504 -1.7002 0.0000 21.2042 0.0000
# 6 0.0000 0.0000 0.0000 10.6903 0.0000 -4.3051
#
#
#
# Elastic Compliance Matrix: (Units=1/GPa)
#
#
# Indices 1 2 3 4 5 6 
#
# 1 0.012581 -0.004015 -0.006175 0.000000 -0.012103 0.000000
# 2 -0.004015 0.036820 0.002215 0.000000 0.009330 0.000000
# 3 -0.006175 0.002215 0.013587 0.000000 0.006825 0.000000
# 4 0.000000 0.000000 0.000000 0.023578 0.000000 0.058549
# 5 -0.012103 0.009330 0.006825 0.000000 0.059713 0.000000
# 6 0.000000 0.000000 0.000000 0.058549 0.000000 -0.086897
#
#
# Mechanical properties :
#
#
# Convention : Reuss Voigt Hill
#
# Bulk Modulus (GPa) = 21.25941 38.35329 29.80635
# Shear Modulus (GPa) = 54.93755 19.51611 37.22683
#
# Velocity S-wave (km/s) = 4.89099 2.91513 4.02615
# Velocity P-wave (km/s) = 6.41504 5.29444 5.88149
#
# Compressibility (1/GPa) = 0.04703800
#
# Stress axis : x y z
#
# Youngs Moduli (GPa) = 79.48626 27.15889 73.59856
#
# Poissons Ratio (x) = 0.10904 0.45450
# Poissons Ratio (y) = 0.31913 -0.16303
# Poissons Ratio (z) = 0.49086 -0.06016
#
# Static dielectric constant tensor:
#      x y z
#    x -333.674430 0.000020 115.272630 
#    y 0.000020 1.849600 -0.000010 
#    z 115.272630 -0.000010 -37.717430 
# 
# From -- ./inp_files/250030.got.cif
#   From: 2010.05.17/outbox.cif.g08.bks.cpg/sg12_126_cif.got.tgz:250030.got - 2010.06.03 13:09:07.
