data_PCOD9219050
_publ_section_title
;
Structure prediction by ZEFSAII (Michael W. Deem and Ramdas Pophale) SiO2 
 PCOD9219050
Probable space group: C 2/M
;
_chemical_formula_sum "Si O2"
_cell_formula_units_Z 56
_cell_length_a 25.251582
_cell_length_b 17.959578
_cell_length_c 17.454274
_cell_angle_alpha 90.000000
_cell_angle_beta 20.173558
_cell_angle_gamma 90.000000
_cell_volume 2729.830548
_symmetry_space_group_name_H-M "C 2/M"
_symmetry_group_IT_number 12
_symmetry_cell_setting 'monoclinic'
loop_
_space_group_symop_operation_xyz
x,y,z
-x,y,-z
-x,-y,-z
x,-y,z
1/2+x,1/2+y,z
1/2-x,1/2+y,-z
1/2-x,1/2-y,-z
1/2+x,1/2-y,z
loop_
_atom_site_type_symbol
_atom_site_label
_atom_site_fract_x
_atom_site_fract_y
_atom_site_fract_z
Si Si1 0.102816 0.792924 0.933653
Si Si2 0.413503 0.886421 0.040850
Si Si3 0.111057 0.916290 0.527107
Si Si4 0.620546 0.706215 0.628903
Si Si5 0.051470 0.314487 0.581414
Si Si6 0.104508 0.584186 0.100743
Si Si7 0.599836 0.681915 0.288205
O O1 0.097399 0.702938 0.941244
O O2 0.280680 0.815727 0.685495
O O3 0.000000 0.817237 0.000000
O O4 0.016627 0.815594 0.128098
O O5 0.241232 0.916312 0.285046
O O6 0.476073 0.910291 0.873257
O O7 0.500000 0.911882 0.000000
O O8 0.176112 0.867076 0.508762
O O9 0.970458 0.870325 0.682794
O O10 0.072165 0.000000 0.601455
O O11 0.750000 0.750000 0.500000
O O12 0.572291 0.763743 0.628813
O O13 0.927546 0.267679 0.699943
O O14 0.997960 0.393175 0.687314
O O15 0.165205 0.500000 0.025872
O O16 0.232844 0.649183 0.924234
O O17 0.500000 0.671879 0.500000
#
# Coordination Sequence:
#
# PCOD9219050 Si02
#       7
#     8   8   8   8   8   8   8
#     4  11  19  36  64  91 124 164 212 255 296 363
#     4  11  21  36  59  93 128 160 199 252 320 380
#     4  11  23  38  60  92 125 159 203 259 320 376
#     4  11  20  38  62  89 125 166 205 248 304 370
#     4  11  23  39  62  93 121 162 216 255 302 378
#     4  12  25  40  61  89 131 170 202 259 320 369
#     4  11  22  42  65  91 118 161 211 265 317 369
#
# _framework density 20.514095000000001
#
# number of rings (size 3 to 8) (size 9 to 14) (size 15 to 20)
#    0.000    0.857    7.143    2.143    0.000    1.714 
#    0.000    0.714    0.000    1.286    0.000    0.000 
#    0.000    0.000    0.000    0.000    0.000    0.000 
#
# Total GULP energy -156365.112087 kJ/mol
# GULP energy per Si atom -5584.468289 kJ/mol
# Density = 2.046740 g / cm^3
# Si number density = 20.514095 Si / 1000 Ang^3
#
#
#
# Elastic Constant Matrix: (Units=GPa)
#
#
# Indices 1 2 3 4 5 6 
#
# 1 77.2641 29.0053 15.7289 -0.0006 0.2830 -0.0001
# 2 29.0053 72.9852 12.6366 0.0007 6.9457 0.0000
# 3 15.7289 12.6366 86.3714 0.0006 22.2124 0.0000
# 4 -0.0006 0.0007 0.0006 2.7786 0.0007 -5.6787
# 5 0.2830 6.9457 22.2124 0.0007 31.3304 -0.0001
# 6 -0.0001 0.0000 0.0000 -5.6787 -0.0001 6.7235
#
#
#
# Elastic Compliance Matrix: (Units=1/GPa)
#
#
# Indices 1 2 3 4 5 6 
#
# 1 0.015790 -0.006093 -0.002806 -0.000007 0.003198 -0.000006
# 2 -0.006093 0.016515 -0.000464 0.000007 -0.003277 0.000005
# 3 -0.002806 -0.000464 0.014827 0.000002 -0.010384 0.000002
# 4 -0.000007 0.000007 0.000002 -0.495594 0.000007 -0.418586
# 5 0.003198 -0.003277 -0.010384 0.000007 0.039978 0.000006
# 6 -0.000006 0.000005 0.000002 -0.418586 0.000006 -0.204812
#
#
# Mechanical properties :
#
#
# Convention : Reuss Voigt Hill
#
# Bulk Modulus (GPa) = 35.20483 39.04027 37.12255
# Shear Modulus (GPa) = -8.54554 20.11648 5.78547
#
# Velocity S-wave (km/s) = -2.04322 3.13488 1.68118
# Velocity P-wave (km/s) = 3.41061 5.67235 4.68016
#
# Compressibility (1/GPa) = 0.02840519
#
# Stress axis : x y z
#
# Youngs Moduli (GPa) = 63.33232 60.55013 67.44320
#
# Poissons Ratio (x) = 0.36896 0.18927
# Poissons Ratio (y) = 0.38592 0.03127
# Poissons Ratio (z) = 0.17773 0.02808
#
# Static dielectric constant tensor:
#      x y z
#    x 1.788120 0.000000 -0.026200 
#    y 0.000000 1.721820 0.000000 
#    z -0.026200 0.000000 1.773020 
# 
# From -- ./inp_files/293865.got.cif
#   From: 2010.05.17/outbox.cif.g08.bks.cpg/sg12_147_cif.got.tgz:293865.got - 2010.06.03 13:09:07.
