data_PCOD9219257
_publ_section_title
;
Structure prediction by ZEFSAII (Michael W. Deem and Ramdas Pophale) SiO2 
 PCOD9219257
Probable space group: C 2/M
;
_chemical_formula_sum "Si O2"
_cell_formula_units_Z 56
_cell_length_a 31.064569
_cell_length_b 8.268968
_cell_length_c 17.150783
_cell_angle_alpha 90.000000
_cell_angle_beta 135.031690
_cell_angle_gamma 90.000000
_cell_volume 3113.474112
_symmetry_space_group_name_H-M "C 2/M"
_symmetry_group_IT_number 12
_symmetry_cell_setting 'monoclinic'
loop_
_space_group_symop_operation_xyz
x,y,z
-x,y,-z
-x,-y,-z
x,-y,z
1/2+x,1/2+y,z
1/2-x,1/2+y,-z
1/2-x,1/2-y,-z
1/2+x,1/2-y,z
loop_
_atom_site_type_symbol
_atom_site_label
_atom_site_fract_x
_atom_site_fract_y
_atom_site_fract_z
Si Si1 0.875032 0.187746 0.127883
Si Si2 0.301572 0.190005 0.888193
Si Si3 0.404886 0.802700 0.909291
Si Si4 0.027978 0.696845 0.155917
Si Si5 0.986670 0.305437 0.687827
Si Si6 0.673578 0.814380 0.777662
Si Si7 0.061983 0.807538 0.535201
O O1 0.943344 0.249271 0.231023
O O2 0.837075 0.208968 0.158625
O O3 0.876739 0.000000 0.107890
O O4 0.843912 0.286030 0.018417
O O5 0.341926 0.250665 0.867065
O O6 0.238549 0.279201 0.822696
O O7 0.288842 0.000000 0.861514
O O8 0.422110 0.751035 0.843855
O O9 0.404152 0.000000 0.909201
O O10 0.461914 0.754140 0.037196
O O11 0.028070 0.500000 0.156117
O O12 0.034925 0.748539 0.253843
O O13 0.984914 0.500000 0.681731
O O14 0.947677 0.234211 0.567405
O O15 0.619622 0.776231 0.648321
O O16 0.669977 0.000000 0.798045
O O17 0.000000 0.756088 0.500000
O O18 0.068434 0.000000 0.553927
#
# Coordination Sequence:
#
# PCOD9219257 Si02
#       7
#     8   8   8   8   8   8   8
#     4  12  23  36  53  79 114 149 183 222 268 324
#     4  11  21  36  57  82 112 148 184 222 271 325
#     4   8  14  27  51  81 112 143 176 218 265 321
#     4   8  14  27  50  83 113 139 177 220 267 318
#     4  11  20  33  57  85 112 144 181 226 272 320
#     4  12  25  40  57  78 107 145 187 228 270 323
#     4  11  23  39  58  80 108 143 181 227 273 321
#
# _framework density 17.986339000000001
#
# number of rings (size 3 to 8) (size 9 to 14) (size 15 to 20)
#    0.000    1.571    2.857    5.143    0.000    0.571 
#    0.000    0.000    0.000    5.143    0.000    0.000 
#    0.000    0.000    0.000    0.000    0.000    0.000 
#
# Total GULP energy -156384.731726 kJ/mol
# GULP energy per Si atom -5585.168990 kJ/mol
# Density = 1.794540 g / cm^3
# Si number density = 17.986339 Si / 1000 Ang^3
#
#
#
# Elastic Constant Matrix: (Units=GPa)
#
#
# Indices 1 2 3 4 5 6 
#
# 1 112.6104 -9.9480 25.5980 0.0000 -13.2813 0.0000
# 2 -9.9480 26.8328 -7.1478 0.0000 3.4322 0.0000
# 3 25.5980 -7.1478 30.3194 0.0000 -10.0246 0.0000
# 4 0.0000 0.0000 0.0000 12.9010 0.0000 1.8342
# 5 -13.2813 3.4322 -10.0246 0.0000 30.5772 0.0000
# 6 0.0000 0.0000 0.0000 1.8342 0.0000 13.4712
#
#
#
# Elastic Compliance Matrix: (Units=1/GPa)
#
#
# Indices 1 2 3 4 5 6 
#
# 1 0.011161 0.001656 -0.008402 0.000000 0.001907 0.000000
# 2 0.001656 0.040077 0.007627 0.000000 -0.001279 0.000000
# 3 -0.008402 0.007627 0.045294 0.000000 0.010344 0.000000
# 4 0.000000 0.000000 0.000000 0.079043 0.000000 -0.010762
# 5 0.001907 -0.001279 0.010344 0.000000 0.037067 0.000000
# 6 0.000000 0.000000 0.000000 -0.010762 0.000000 0.075698
#
#
# Mechanical properties :
#
#
# Convention : Reuss Voigt Hill
#
# Bulk Modulus (GPa) = 10.17351 20.75189 15.46270
# Shear Modulus (GPa) = 15.65709 22.14058 18.89884
#
# Velocity S-wave (km/s) = 2.95362 3.51232 3.24502
# Velocity P-wave (km/s) = 4.15937 5.29256 4.75981
#
# Compressibility (1/GPa) = 0.09829451
#
# Stress axis : x y z
#
# Youngs Moduli (GPa) = 89.59471 24.95191 22.07786
#
# Poissons Ratio (x) = -0.04132 0.18550
# Poissons Ratio (y) = -0.14835 -0.16840
# Poissons Ratio (z) = 0.75280 -0.19032
#
# Static dielectric constant tensor:
#      x y z
#    x 1.630970 0.000000 -0.019470 
#    y 0.000000 1.615200 0.000000 
#    z -0.019470 0.000000 1.580370 
# 
# From -- ./inp_files/249301.got.cif
#   From: 2010.05.17/outbox.cif.g08.bks.cpg/sg12_125_cif.got.tgz:249301.got - 2010.06.03 13:09:07.
