data_PCOD9219688
_publ_section_title
;
Structure prediction by ZEFSAII (Michael W. Deem and Ramdas Pophale) SiO2 
 PCOD9219688
Probable space group: C 2/M
;
_chemical_formula_sum "Si O2"
_cell_formula_units_Z 48
_cell_length_a 21.298019
_cell_length_b 7.929786
_cell_length_c 18.105829
_cell_angle_alpha 90.000000
_cell_angle_beta 53.958614
_cell_angle_gamma 90.000000
_cell_volume 2472.570290
_symmetry_space_group_name_H-M "C 2/M"
_symmetry_group_IT_number 12
_symmetry_cell_setting 'monoclinic'
loop_
_space_group_symop_operation_xyz
x,y,z
-x,y,-z
-x,-y,-z
x,-y,z
1/2+x,1/2+y,z
1/2-x,1/2+y,-z
1/2-x,1/2-y,-z
1/2+x,1/2-y,z
loop_
_atom_site_type_symbol
_atom_site_label
_atom_site_fract_x
_atom_site_fract_y
_atom_site_fract_z
Si Si1 0.191942 0.199679 0.604927
Si Si2 0.522071 0.294235 0.101858
Si Si3 0.123364 0.797002 0.897439
Si Si4 0.442910 0.293218 0.605822
Si Si5 0.267449 0.300308 0.707615
Si Si6 0.984107 0.793223 0.289484
O O1 0.250000 0.250000 0.500000
O O2 0.227312 0.245773 0.659355
O O3 0.105073 0.267171 0.652568
O O4 0.184202 0.000000 0.608735
O O5 0.522139 0.500000 0.101723
O O6 0.440809 0.242667 0.119220
O O7 0.524449 0.239660 0.184963
O O8 0.590628 0.239137 0.999351
O O9 0.208553 0.743800 0.814188
O O10 0.121711 0.000000 0.898562
O O11 0.500000 0.240843 0.500000
O O12 0.442606 0.500000 0.605588
O O13 0.354795 0.232542 0.655036
O O14 0.475376 0.239496 0.662974
O O15 0.274572 0.500000 0.700038
O O16 0.984176 0.000000 0.289893
#
# Coordination Sequence:
#
# PCOD9219688 Si02
#       6
#     8   8   8   8   8   8
#     4  11  21  34  55  79 103 131 171 222 264 302
#     4   8  14  27  51  78  99 128 175 219 252 300
#     4   9  16  30  52  77 103 131 170 216 260 305
#     4   9  18  32  49  71 101 137 176 215 252 301
#     4  11  21  33  51  78 108 136 168 210 262 313
#     4   9  16  30  53  76  96 130 180 220 249 294
#
# _framework density 19.412998000000002
#
# number of rings (size 3 to 8) (size 9 to 14) (size 15 to 20)
#    0.000    2.500    1.667    3.000    0.000    2.667 
#    0.000    2.500    0.000   11.000    0.000    0.000 
#    0.000    0.000    0.000    0.000    0.000    0.000 
#
# Total GULP energy -133899.131861 kJ/mol
# GULP energy per Si atom -5579.130494 kJ/mol
# Density = 1.936881 g / cm^3
# Si number density = 19.412998 Si / 1000 Ang^3
#
#
#
# Elastic Constant Matrix: (Units=GPa)
#
#
# Indices 1 2 3 4 5 6 
#
# 1 291.9062 8.4022 311.3143 0.0000 -10.6089 0.0003
# 2 8.4022 16.7908 9.6089 -0.0002 -0.5540 0.0002
# 3 311.3143 9.6089 497.5576 0.0000 -11.0158 0.0006
# 4 0.0000 -0.0002 0.0000 21.5384 0.0001 -6.1196
# 5 -10.6089 -0.5540 -11.0158 0.0001 36.7400 0.0000
# 6 0.0003 0.0002 0.0006 -6.1196 0.0000 11.9395
#
#
#
# Elastic Compliance Matrix: (Units=1/GPa)
#
#
# Indices 1 2 3 4 5 6 
#
# 1 0.010372 -0.001472 -0.006438 0.000000 0.001042 0.000000
# 2 -0.001472 0.060442 -0.000237 0.000000 0.000415 -0.000001
# 3 -0.006438 -0.000237 0.006042 0.000000 -0.000051 0.000000
# 4 0.000000 0.000000 0.000000 0.054343 0.000000 0.027854
# 5 0.001042 0.000415 -0.000051 0.000000 0.027510 0.000000
# 6 0.000000 -0.000001 0.000000 0.027854 0.000000 0.098032
#
#
# Mechanical properties :
#
#
# Convention : Reuss Voigt Hill
#
# Bulk Modulus (GPa) = 16.51199 162.76725 89.63962
# Shear Modulus (GPa) = 17.05183 45.83886 31.44534
#
# Velocity S-wave (km/s) = 2.96695 4.86454 4.02905
# Velocity P-wave (km/s) = 4.50124 10.75073 8.24134
#
# Compressibility (1/GPa) = 0.06056204
#
# Stress axis : x y z
#
# Youngs Moduli (GPa) = 96.40889 16.54466 165.51675
#
# Poissons Ratio (x) = 0.02435 1.06566
# Poissons Ratio (y) = 0.14187 0.03928
# Poissons Ratio (z) = 0.62072 0.00393
#
# Static dielectric constant tensor:
#      x y z
#    x 1.661560 0.000000 -0.011890 
#    y 0.000000 1.705520 0.000000 
#    z -0.011890 0.000000 1.681350 
# 
# From -- ./inp_files/274038.got.cif
#   From: 2010.05.17/outbox.cif.g08.bks.cpg/sg12_138_cif.got.tgz:274038.got - 2010.06.03 13:09:07.
