data_PCOD9219511
_publ_section_title
;
Structure prediction by ZEFSAII (Michael W. Deem and Ramdas Pophale) SiO2 
 PCOD9219511
Probable space group: C 2/M
;
_chemical_formula_sum "Si O2"
_cell_formula_units_Z 56
_cell_length_a 26.621772
_cell_length_b 14.611353
_cell_length_c 8.669268
_cell_angle_alpha 90.000000
_cell_angle_beta 119.957283
_cell_angle_gamma 90.000000
_cell_volume 2921.643568
_symmetry_space_group_name_H-M "C 2/M"
_symmetry_group_IT_number 12
_symmetry_cell_setting 'monoclinic'
loop_
_space_group_symop_operation_xyz
x,y,z
-x,y,-z
-x,-y,-z
x,-y,z
1/2+x,1/2+y,z
1/2-x,1/2+y,-z
1/2-x,1/2-y,-z
1/2+x,1/2-y,z
loop_
_atom_site_type_symbol
_atom_site_label
_atom_site_fract_x
_atom_site_fract_y
_atom_site_fract_z
Si Si1 0.097902 0.257635 0.994134
Si Si2 0.580308 0.897622 0.236187
Si Si3 0.382187 0.603119 0.434137
Si Si4 0.676754 0.344728 0.352299
Si Si5 0.183431 0.741040 0.848869
Si Si6 0.197683 0.650663 0.553359
Si Si7 0.482252 0.750058 0.642285
O O1 0.143690 0.285168 0.932520
O O2 0.039877 0.222415 0.823264
O O3 0.080622 0.343487 0.074926
O O4 0.129929 0.183214 0.151226
O O5 0.646966 0.903864 0.393430
O O6 0.549180 0.829689 0.309264
O O7 0.556042 0.000000 0.192827
O O8 0.393515 0.500000 0.395980
O O9 0.350521 0.598319 0.551302
O O10 0.342194 0.663585 0.258184
O O11 0.439113 0.664976 0.550060
O O12 0.736490 0.381278 0.371437
O O13 0.692292 0.249632 0.462636
O O14 0.182365 0.668426 0.707873
O O15 0.250000 0.750000 0.000000
O O16 0.500000 0.784075 0.500000
#
# Coordination Sequence:
#
# PCOD9219511 Si02
#       7
#     8   8   8   8   8   8   8
#     4  11  21  38  65  92 126 165 213 257 321 366
#     4  11  24  41  66  95 125 167 217 265 319 382
#     4  11  24  43  66  95 127 171 216 258 318 382
#     4   9  18  35  62  89 124 165 205 260 310 373
#     4  11  20  39  68  91 128 171 203 261 321 375
#     4   9  17  36  61  90 124 168 204 252 321 369
#     4  12  23  43  66  90 128 172 209 265 317 376
#
# _framework density 19.167293000000001
#
# number of rings (size 3 to 8) (size 9 to 14) (size 15 to 20)
#    0.000    1.429    7.143    0.429    2.000    2.286 
#    0.000    5.000    0.000    0.000    0.000    0.000 
#    0.000    0.000    0.000    0.000    0.000    0.000 
#
# Total GULP energy -156217.385311 kJ/mol
# GULP energy per Si atom -5579.192333 kJ/mol
# Density = 1.912367 g / cm^3
# Si number density = 19.167293 Si / 1000 Ang^3
#
#
#
# Elastic Constant Matrix: (Units=GPa)
#
#
# Indices 1 2 3 4 5 6 
#
# 1 121.5419 46.9368 44.8519 0.0000 -9.8509 0.0000
# 2 46.9368 83.7313 27.9507 0.0000 -3.2911 0.0000
# 3 44.8519 27.9507 120.1494 0.0000 7.2584 0.0000
# 4 0.0000 0.0000 0.0000 5.1644 0.0000 -6.5514
# 5 -9.8509 -3.2911 7.2584 0.0000 51.8775 0.0000
# 6 0.0000 0.0000 0.0000 -6.5514 0.0000 -6.9960
#
#
#
# Elastic Compliance Matrix: (Units=1/GPa)
#
#
# Indices 1 2 3 4 5 6 
#
# 1 0.011695 -0.005377 -0.003256 0.000000 0.002335 0.000000
# 2 -0.005377 0.015502 -0.001610 0.000000 0.000188 0.000000
# 3 -0.003256 -0.001610 0.010041 0.000000 -0.002125 0.000000
# 4 0.000000 0.000000 0.000000 0.088500 0.000000 -0.082875
# 5 0.002335 0.000188 -0.002125 0.000000 0.020029 0.000000
# 6 0.000000 0.000000 0.000000 -0.082875 0.000000 -0.065330
#
#
# Mechanical properties :
#
#
# Convention : Reuss Voigt Hill
#
# Bulk Modulus (GPa) = 59.69538 62.76683 61.23111
# Shear Modulus (GPa) = 46.94480 23.72139 35.33310
#
# Velocity S-wave (km/s) = 4.95432 3.52177 4.29815
# Velocity P-wave (km/s) = 7.99619 7.02531 7.52642
#
# Compressibility (1/GPa) = 0.01675171
#
# Stress axis : x y z
#
# Youngs Moduli (GPa) = 85.50725 64.50730 99.58753
#
# Poissons Ratio (x) = 0.34686 0.32425
# Poissons Ratio (y) = 0.45978 0.16037
# Poissons Ratio (z) = 0.27840 0.10388
#
# Static dielectric constant tensor:
#      x y z
#    x 1.692760 0.000000 0.007160 
#    y 0.000000 1.672580 0.000000 
#    z 0.007160 0.000000 1.674010 
# 
# From -- ./inp_files/104709.got.cif
#   From: 2010.05.17/outbox.cif.g08.bks.cpg/sg12_53_cif.got.tgz:104709.got - 2010.06.03 13:09:07.
