data_PCOD9219935
_publ_section_title
;
Structure prediction by ZEFSAII (Michael W. Deem and Ramdas Pophale) SiO2 
 PCOD9219935
Probable space group: C 2/M
;
_chemical_formula_sum "Si O2"
_cell_formula_units_Z 56
_cell_length_a 12.055946
_cell_length_b 24.957695
_cell_length_c 9.332186
_cell_angle_alpha 90.000000
_cell_angle_beta 67.261721
_cell_angle_gamma 90.000000
_cell_volume 2589.715006
_symmetry_space_group_name_H-M "C 2/M"
_symmetry_group_IT_number 12
_symmetry_cell_setting 'monoclinic'
loop_
_space_group_symop_operation_xyz
x,y,z
-x,y,-z
-x,-y,-z
x,-y,z
1/2+x,1/2+y,z
1/2-x,1/2+y,-z
1/2-x,1/2-y,-z
1/2+x,1/2-y,z
loop_
_atom_site_type_symbol
_atom_site_label
_atom_site_fract_x
_atom_site_fract_y
_atom_site_fract_z
Si Si1 0.190933 0.802901 0.087268
Si Si2 0.962350 0.755138 0.353363
Si Si3 0.750124 0.111349 0.709515
Si Si4 0.744420 0.393987 0.849635
Si Si5 0.513871 0.872194 0.665080
Si Si6 0.624335 0.635646 0.638337
Si Si7 0.410493 0.558141 0.844363
O O1 0.255189 0.836586 0.182386
O O2 0.066547 0.781789 0.208864
O O3 0.250000 0.750000 0.000000
O O4 0.188112 0.841583 0.952660
O O5 0.860040 0.799186 0.369451
O O6 0.000000 0.761175 0.500000
O O7 0.958176 0.691774 0.328842
O O8 0.625774 0.100901 0.690249
O O9 0.849920 0.120651 0.537511
O O10 0.801655 0.065674 0.786366
O O11 0.887727 0.390586 0.799764
O O12 0.723605 0.389445 0.692108
O O13 0.658528 0.437174 0.968914
O O14 0.500000 0.880990 0.500000
O O15 0.503152 0.606404 0.758945
O O16 0.468610 0.500000 0.800610
#
# Coordination Sequence:
#
# PCOD9219935 Si02
#       7
#     8   8   8   8   8   8   8
#     4  11  22  38  56  94 138 178 224 261 319 379
#     4  11  21  36  62  95 135 181 217 259 317 387
#     4  11  24  43  68  93 136 177 224 275 317 397
#     4  11  24  41  63  95 134 169 214 277 331 389
#     4  11  24  41  64  96 135 181 224 258 319 395
#     4  12  22  41  68  97 135 172 219 279 326 387
#     4  11  26  47  71  99 127 163 218 285 356 401
#
# _framework density 21.624002000000001
#
# number of rings (size 3 to 8) (size 9 to 14) (size 15 to 20)
#    0.000    0.857    7.143    0.857    2.000    5.143 
#    0.000    1.429    0.000    0.857    0.000    0.000 
#    0.000    0.000    0.000    0.000    0.000    0.000 
#
# Total GULP energy -156064.595031 kJ/mol
# GULP energy per Si atom -5573.735537 kJ/mol
# Density = 2.157478 g / cm^3
# Si number density = 21.624002 Si / 1000 Ang^3
#
#
#
# Elastic Constant Matrix: (Units=GPa)
#
#
# Indices 1 2 3 4 5 6 
#
# 1 71.5225 5.7252 -4.1995 0.0000 6.8312 0.0000
# 2 5.7252 61.5182 10.0591 0.0000 -1.2707 0.0000
# 3 -4.1995 10.0591 84.1559 0.0000 2.5878 0.0000
# 4 0.0000 0.0000 0.0000 10.9126 0.0000 -9.7847
# 5 6.8312 -1.2707 2.5878 0.0000 36.1411 0.0000
# 6 0.0000 0.0000 0.0000 -9.7847 0.0000 14.2051
#
#
#
# Elastic Compliance Matrix: (Units=1/GPa)
#
#
# Indices 1 2 3 4 5 6 
#
# 1 0.014438 -0.001565 0.000995 0.000000 -0.002855 0.000000
# 2 -0.001565 0.016768 -0.002114 0.000000 0.001037 0.000000
# 3 0.000995 -0.002114 0.012220 0.000000 -0.001137 0.000000
# 4 0.000000 0.000000 0.000000 0.239650 0.000000 0.165075
# 5 -0.002855 0.001037 -0.001137 0.000000 0.028327 0.000000
# 6 0.000000 0.000000 0.000000 0.165075 0.000000 0.184103
#
#
# Mechanical properties :
#
#
# Convention : Reuss Voigt Hill
#
# Bulk Modulus (GPa) = 26.27588 26.70734 26.49161
# Shear Modulus (GPa) = 9.73595 25.95924 17.84759
#
# Velocity S-wave (km/s) = 2.12418 3.46856 2.87603
# Velocity P-wave (km/s) = 4.26542 5.33093 4.82766
#
# Compressibility (1/GPa) = 0.03805772
#
# Stress axis : x y z
#
# Youngs Moduli (GPa) = 69.26134 59.63681 81.83251
#
# Poissons Ratio (x) = 0.09336 -0.08146
# Poissons Ratio (y) = 0.10842 0.17302
# Poissons Ratio (z) = -0.06894 0.12609
#
# Static dielectric constant tensor:
#      x y z
#    x 2.092770 0.000000 -0.136090 
#    y 0.000000 1.822490 0.000000 
#    z -0.136090 0.000000 1.784720 
# 
# From -- ./inp_files/53184.got.cif
#   From: 2010.05.17/outbox.cif.g08.bks.cpg/sg12_27_cif.got.tgz:53184.got - 2010.06.03 13:09:07.
