data_PCOD9219355
_publ_section_title
;
Structure prediction by ZEFSAII (Michael W. Deem and Ramdas Pophale) SiO2 
 PCOD9219355
Probable space group: C 2/M
;
_chemical_formula_sum "Si O2"
_cell_formula_units_Z 56
_cell_length_a 8.932523
_cell_length_b 21.937240
_cell_length_c 14.465550
_cell_angle_alpha 90.000000
_cell_angle_beta 109.811106
_cell_angle_gamma 90.000000
_cell_volume 2666.830146
_symmetry_space_group_name_H-M "C 2/M"
_symmetry_group_IT_number 12
_symmetry_cell_setting 'monoclinic'
loop_
_space_group_symop_operation_xyz
x,y,z
-x,y,-z
-x,-y,-z
x,-y,z
1/2+x,1/2+y,z
1/2-x,1/2+y,-z
1/2-x,1/2-y,-z
1/2+x,1/2-y,z
loop_
_atom_site_type_symbol
_atom_site_label
_atom_site_fract_x
_atom_site_fract_y
_atom_site_fract_z
Si Si1 0.692416 0.429719 0.242035
Si Si2 0.627534 0.648121 0.792981
Si Si3 0.157594 0.250297 0.095069
Si Si4 0.687715 0.383312 0.046641
Si Si5 0.907771 0.332704 0.386325
Si Si6 0.596654 0.256235 0.303947
Si Si7 0.143817 0.430221 0.089882
O O1 0.676476 0.500000 0.265137
O O2 0.523443 0.394183 0.214466
O O3 0.739627 0.423287 0.144688
O O4 0.819772 0.392032 0.327754
O O5 0.713374 0.695062 0.883408
O O6 0.544439 0.694535 0.705600
O O7 0.779695 0.604821 0.807771
O O8 0.239220 0.185981 0.084321
O O9 0.112886 0.247467 0.195114
O O10 0.000000 0.259661 0.000000
O O11 0.500000 0.375423 0.000000
O O12 0.726748 0.421525 0.963386
O O13 0.763049 0.284347 0.372178
O O14 0.000000 0.344070 0.500000
O O15 0.031894 0.304246 0.338364
O O16 0.108746 0.500000 0.103910
O O17 0.000000 0.402194 0.000000
#
# Coordination Sequence:
#
# PCOD9219355 Si02
#       7
#     8   8   8   8   8   8   8
#     4  11  23  40  63  89 123 167 216 259 307 378
#     4  11  20  36  55  86 125 162 206 248 309 365
#     4  11  22  36  61  95 135 165 210 255 313 378
#     4  11  20  39  60  84 120 168 214 256 304 377
#     4  11  24  43  69  97 123 161 211 269 333 380
#     4  11  21  43  63  96 129 161 204 259 325 388
#     4  11  24  37  51  81 123 173 221 254 295 356
#
# _framework density 20.998712999999999
#
# number of rings (size 3 to 8) (size 9 to 14) (size 15 to 20)
#    0.000    1.000    5.714    2.571    0.000    6.571 
#    0.000    0.000    0.000    0.857    0.000    1.000 
#    0.000    0.000    0.000    0.000    0.000    0.000 
#
# Total GULP energy -156047.342099 kJ/mol
# GULP energy per Si atom -5573.119361 kJ/mol
# Density = 2.095092 g / cm^3
# Si number density = 20.998713 Si / 1000 Ang^3
#
#
#
# Elastic Constant Matrix: (Units=GPa)
#
#
# Indices 1 2 3 4 5 6 
#
# 1 35.0268 26.5041 31.3711 0.0000 18.8370 0.0000
# 2 26.5041 118.2697 39.8572 0.0000 8.8372 0.0000
# 3 31.3711 39.8572 129.8040 0.0000 27.7903 0.0000
# 4 0.0000 0.0000 0.0000 -3.3629 0.0000 -3.6094
# 5 18.8370 8.8372 27.7903 0.0000 30.6156 0.0000
# 6 0.0000 0.0000 0.0000 -3.6094 0.0000 19.6270
#
#
#
# Elastic Compliance Matrix: (Units=1/GPa)
#
#
# Indices 1 2 3 4 5 6 
#
# 1 0.053046 -0.008366 -0.004693 0.000000 -0.025963 0.000000
# 2 -0.008366 0.010751 -0.002131 0.000000 0.003979 0.000000
# 3 -0.004693 -0.002131 0.010851 0.000000 -0.006348 0.000000
# 4 0.000000 0.000000 0.000000 -0.248345 0.000000 -0.045671
# 5 -0.025963 0.003979 -0.006348 0.000000 0.053251 0.000000
# 6 0.000000 0.000000 0.000000 -0.045671 0.000000 0.042551
#
#
# Mechanical properties :
#
#
# Convention : Reuss Voigt Hill
#
# Bulk Modulus (GPa) = 22.58943 53.17391 37.88167
# Shear Modulus (GPa) = -152.62891 21.73382 -65.44755
#
# Velocity S-wave (km/s) = -8.53479 3.22064 -5.58883
# Velocity P-wave (km/s) = 9.29208 6.26159 4.85465
#
# Compressibility (1/GPa) = 0.04426849
#
# Stress axis : x y z
#
# Youngs Moduli (GPa) = 18.85170 93.01493 92.15429
#
# Poissons Ratio (x) = 0.77817 0.43245
# Poissons Ratio (y) = 0.15771 0.19638
# Poissons Ratio (z) = 0.08846 0.19822
#
# Static dielectric constant tensor:
#      x y z
#    x 2.023330 0.000000 0.002170 
#    y 0.000000 1.849240 0.000000 
#    z 0.002170 0.000000 1.771290 
# 
# From -- ./inp_files/198942.got.cif
#   From: 2010.05.17/outbox.cif.g08.bks.cpg/sg12_100_cif.got.tgz:198942.got - 2010.06.03 13:09:07.
