data_PCOD9219844
_publ_section_title
;
Structure prediction by ZEFSAII (Michael W. Deem and Ramdas Pophale) SiO2 
 PCOD9219844
Probable space group: C 2/M
;
_chemical_formula_sum "Si O2"
_cell_formula_units_Z 56
_cell_length_a 9.430629
_cell_length_b 22.891500
_cell_length_c 16.292996
_cell_angle_alpha 90.000000
_cell_angle_beta 56.424447
_cell_angle_gamma 90.000000
_cell_volume 2930.507648
_symmetry_space_group_name_H-M "C 2/M"
_symmetry_group_IT_number 12
_symmetry_cell_setting 'monoclinic'
loop_
_space_group_symop_operation_xyz
x,y,z
-x,y,-z
-x,-y,-z
x,-y,z
1/2+x,1/2+y,z
1/2-x,1/2+y,-z
1/2-x,1/2-y,-z
1/2+x,1/2-y,z
loop_
_atom_site_type_symbol
_atom_site_label
_atom_site_fract_x
_atom_site_fract_y
_atom_site_fract_z
Si Si1 0.882498 0.068214 0.864842
Si Si2 0.223366 0.434592 0.260307
Si Si3 0.366381 0.149837 0.157012
Si Si4 0.756560 0.612680 0.922446
Si Si5 0.432054 0.180541 0.613467
Si Si6 0.120954 0.270334 0.704091
Si Si7 0.253729 0.242254 0.901697
O O1 0.763251 0.105301 0.842986
O O2 0.079539 0.073747 0.777788
O O3 0.835514 0.000000 0.878083
O O4 0.857472 0.090846 0.966204
O O5 0.168264 0.500000 0.301527
O O6 0.224451 0.429336 0.160941
O O7 0.114802 0.382012 0.332407
O O8 0.556029 0.124397 0.099600
O O9 0.322418 0.172337 0.262487
O O10 0.356579 0.209045 0.107136
O O11 0.699689 0.675445 0.904100
O O12 0.500000 0.174404 0.500000
O O13 0.263699 0.221225 0.665809
O O14 0.568680 0.211742 0.629267
O O15 0.943914 0.251058 0.804278
O O16 0.250000 0.250000 0.000000
#
# Coordination Sequence:
#
# PCOD9219844 Si02
#       7
#     8   8   8   8   8   8   8
#     4  11  24  39  59  86 124 175 214 250 303 371
#     4  11  24  44  64  88 124 168 211 262 317 375
#     4  11  21  38  58  88 130 163 210 249 307 361
#     4  11  22  38  59  89 129 168 212 254 300 372
#     4  12  25  45  70  96 121 160 209 267 326 377
#     4  11  23  43  62  96 129 162 199 259 319 377
#     4  11  21  35  60  92 132 166 201 241 311 373
#
# _framework density 19.109317000000001
#
# number of rings (size 3 to 8) (size 9 to 14) (size 15 to 20)
#    0.000    0.857    5.714    2.571    2.000    4.286 
#    5.143    0.000    0.000    0.000    0.000    2.000 
#    0.000    0.000    0.000    0.000    0.000    0.000 
#
# Total GULP energy -156603.746832 kJ/mol
# GULP energy per Si atom -5592.990958 kJ/mol
# Density = 1.906582 g / cm^3
# Si number density = 19.109317 Si / 1000 Ang^3
#
#
#
# Elastic Constant Matrix: (Units=GPa)
#
#
# Indices 1 2 3 4 5 6 
#
# 1 90.0861 38.3731 15.2402 0.0000 18.5702 0.0000
# 2 38.3731 105.0163 10.8855 0.0000 1.2297 0.0000
# 3 15.2402 10.8855 76.3885 0.0000 15.5913 0.0000
# 4 0.0000 0.0000 0.0000 13.2860 0.0000 -0.4187
# 5 18.5702 1.2297 15.5913 0.0000 27.0726 0.0000
# 6 0.0000 0.0000 0.0000 -0.4187 0.0000 27.8363
#
#
#
# Elastic Compliance Matrix: (Units=1/GPa)
#
#
# Indices 1 2 3 4 5 6 
#
# 1 0.015645 -0.005573 -0.000214 0.000000 -0.010356 0.000000
# 2 -0.005573 0.011654 -0.001384 0.000000 0.004091 0.000000
# 3 -0.000214 -0.001384 0.015058 0.000000 -0.008463 0.000000
# 4 0.000000 0.000000 0.000000 0.075303 0.000000 0.001133
# 5 -0.010356 0.004091 -0.008463 0.000000 0.048729 0.000000
# 6 0.000000 0.000000 0.000000 0.001133 0.000000 0.035941
#
#
# Mechanical properties :
#
#
# Convention : Reuss Voigt Hill
#
# Bulk Modulus (GPa) = 35.69333 44.49872 40.09603
# Shear Modulus (GPa) = 22.12280 27.43846 24.78063
#
# Velocity S-wave (km/s) = 3.40619 3.79340 3.60499
# Velocity P-wave (km/s) = 5.84710 6.52100 6.19322
#
# Compressibility (1/GPa) = 0.02801644
#
# Stress axis : x y z
#
# Youngs Moduli (GPa) = 63.91661 85.80446 66.40968
#
# Poissons Ratio (x) = 0.47823 0.01418
# Poissons Ratio (y) = 0.35624 0.09189
# Poissons Ratio (z) = 0.01365 0.11873
#
# Static dielectric constant tensor:
#      x y z
#    x 1.699570 0.000000 0.006680 
#    y 0.000000 1.683680 0.000000 
#    z 0.006680 0.000000 1.661510 
# 
# From -- ./inp_files/198796.got.cif
#   From: 2010.05.17/outbox.cif.g08.bks.cpg/sg12_100_cif.got.tgz:198796.got - 2010.06.03 13:09:07.
