data_PCOD9219798
_publ_section_title
;
Structure prediction by ZEFSAII (Michael W. Deem and Ramdas Pophale) SiO2 
 PCOD9219798
Probable space group: C 2/M
;
_chemical_formula_sum "Si O2"
_cell_formula_units_Z 48
_cell_length_a 14.109108
_cell_length_b 25.316329
_cell_length_c 10.249141
_cell_angle_alpha 90.000000
_cell_angle_beta 135.195606
_cell_angle_gamma 90.000000
_cell_volume 2579.793937
_symmetry_space_group_name_H-M "C 2/M"
_symmetry_group_IT_number 12
_symmetry_cell_setting 'monoclinic'
loop_
_space_group_symop_operation_xyz
x,y,z
-x,y,-z
-x,-y,-z
x,-y,z
1/2+x,1/2+y,z
1/2-x,1/2+y,-z
1/2-x,1/2-y,-z
1/2+x,1/2-y,z
loop_
_atom_site_type_symbol
_atom_site_label
_atom_site_fract_x
_atom_site_fract_y
_atom_site_fract_z
Si Si1 0.271438 0.147254 0.158480
Si Si2 0.497633 0.670178 0.778809
Si Si3 0.628496 0.744610 0.705001
Si Si4 0.110173 0.280032 0.208525
Si Si5 0.290957 0.136387 0.489469
Si Si6 0.518010 0.059587 0.675104
O O1 0.319808 0.205521 0.160059
O O2 0.292222 0.146693 0.335099
O O3 0.361696 0.101258 0.185447
O O4 0.113897 0.142260 0.975086
O O5 0.573254 0.694217 0.727952
O O6 0.443514 0.722983 0.798071
O O7 0.365669 0.635628 0.623577
O O8 0.500000 0.764867 0.500000
O O9 0.750459 0.728511 0.731067
O O10 0.140022 0.316594 0.361538
O O11 0.000000 0.302182 0.000000
O O12 0.381201 0.084587 0.598085
O O13 0.500000 0.057723 0.500000
O O14 0.544283 0.000000 0.745752
#
# Coordination Sequence:
#
# PCOD9219798 Si02
#       6
#     8   8   8   8   8   8
#     4  11  21  35  55  82 114 148 184 229 278 327
#     4  12  22  35  51  83 120 153 185 221 274 338
#     4  12  22  35  53  81 120 158 185 221 267 331
#     4  12  23  36  52  83 120 153 191 221 265 338
#     4  11  21  37  56  79 114 147 186 231 275 330
#     4   9  20  38  60  82 104 141 192 240 285 327
#
# _framework density 18.606137
#
# number of rings (size 3 to 8) (size 9 to 14) (size 15 to 20)
#    0.000    0.833    5.000    5.000    2.333    0.000 
#    0.000    0.833    0.000    4.500    0.000    1.167 
#    0.000    0.000    0.000    0.000    0.000    0.000 
#
# Total GULP energy -134092.893533 kJ/mol
# GULP energy per Si atom -5587.203897 kJ/mol
# Density = 1.856379 g / cm^3
# Si number density = 18.606137 Si / 1000 Ang^3
#
#
#
# Elastic Constant Matrix: (Units=GPa)
#
#
# Indices 1 2 3 4 5 6 
#
# 1 91.1729 40.2780 31.6693 0.0000 26.5730 0.0000
# 2 40.2780 103.7746 35.1201 0.0000 17.7706 0.0000
# 3 31.6693 35.1201 110.3151 0.0000 32.1797 0.0000
# 4 0.0000 0.0000 0.0000 13.3569 0.0000 2.8981
# 5 26.5730 17.7706 32.1797 0.0000 28.8017 0.0000
# 6 0.0000 0.0000 0.0000 2.8981 0.0000 16.2246
#
#
#
# Elastic Compliance Matrix: (Units=1/GPa)
#
#
# Indices 1 2 3 4 5 6 
#
# 1 0.016540 -0.004330 0.000449 0.000000 -0.013090 0.000000
# 2 -0.004330 0.012285 -0.002407 0.000000 -0.000896 0.000000
# 3 0.000449 -0.002407 0.013930 0.000000 -0.014493 0.000000
# 4 0.000000 0.000000 0.000000 0.077886 0.000000 -0.013912
# 5 -0.013090 -0.000896 -0.014493 0.000000 0.063543 0.000000
# 6 0.000000 0.000000 0.000000 -0.013912 0.000000 0.064120
#
#
# Mechanical properties :
#
#
# Convention : Reuss Voigt Hill
#
# Bulk Modulus (GPa) = 33.13562 57.71082 45.42322
# Shear Modulus (GPa) = 18.45427 24.88965 21.67196
#
# Velocity S-wave (km/s) = 3.15276 3.66144 3.41658
# Velocity P-wave (km/s) = 5.57681 6.99709 6.32693
#
# Compressibility (1/GPa) = 0.03017900
#
# Stress axis : x y z
#
# Youngs Moduli (GPa) = 60.45767 81.40166 71.78758
#
# Poissons Ratio (x) = 0.35248 -0.03220
# Poissons Ratio (y) = 0.26179 0.17276
# Poissons Ratio (z) = -0.02712 0.19590
#
# Static dielectric constant tensor:
#      x y z
#    x 1.681210 0.000000 -0.010820 
#    y 0.000000 1.629630 0.000000 
#    z -0.010820 0.000000 1.702560 
# 
# From -- ./inp_files/148021.got.cif
#   From: 2010.05.17/outbox.cif.g08.bks.cpg/sg12_75_cif.got.tgz:148021.got - 2010.06.03 13:09:07.
