data_PCOD9219869
_publ_section_title
;
Structure prediction by ZEFSAII (Michael W. Deem and Ramdas Pophale) SiO2 
 PCOD9219869
Probable space group: C 2/M
;
_chemical_formula_sum "Si O2"
_cell_formula_units_Z 56
_cell_length_a 17.548819
_cell_length_b 22.353739
_cell_length_c 14.687706
_cell_angle_alpha 90.000000
_cell_angle_beta 31.950674
_cell_angle_gamma 90.000000
_cell_volume 3049.037986
_symmetry_space_group_name_H-M "C 2/M"
_symmetry_group_IT_number 12
_symmetry_cell_setting 'monoclinic'
loop_
_space_group_symop_operation_xyz
x,y,z
-x,y,-z
-x,-y,-z
x,-y,z
1/2+x,1/2+y,z
1/2-x,1/2+y,-z
1/2-x,1/2-y,-z
1/2+x,1/2-y,z
loop_
_atom_site_type_symbol
_atom_site_label
_atom_site_fract_x
_atom_site_fract_y
_atom_site_fract_z
Si Si1 0.735739 0.931068 0.894438
Si Si2 0.347982 0.778113 0.822193
Si Si3 0.709498 0.145904 0.748272
Si Si4 0.972197 0.628195 0.243747
Si Si5 0.216274 0.814823 0.583661
Si Si6 0.169861 0.219260 0.833734
Si Si7 0.000998 0.841341 0.338990
O O1 0.697884 0.907568 0.831512
O O2 0.868432 0.888168 0.789183
O O3 0.778102 0.000000 0.851520
O O4 0.592896 0.921326 0.101010
O O5 0.445149 0.823533 0.779414
O O6 0.252683 0.805306 0.837768
O O7 0.443574 0.723783 0.686855
O O8 0.250000 0.750000 0.000000
O O9 0.585345 0.146735 0.797790
O O10 0.694061 0.209203 0.814020
O O11 0.864540 0.142124 0.540685
O O12 0.819907 0.629811 0.450942
O O13 0.250000 0.750000 0.500000
O O14 0.228416 0.802901 0.677663
O O15 0.061349 0.832120 0.699581
O O16 0.000000 0.207477 0.000000
#
# Coordination Sequence:
#
# PCOD9219869 Si02
#       7
#     8   8   8   8   8   8   8
#     4  12  26  40  60  86 121 178 228 250 293 366
#     4  12  20  33  59  91 125 160 198 248 325 383
#     4  11  21  36  56  84 125 167 201 248 308 357
#     4  11  22  38  58  84 124 162 201 260 308 367
#     4  11  21  37  59  92 128 162 203 246 322 390
#     4  12  22  33  59  95 130 162 195 242 317 395
#     4  11  21  36  58  84 128 164 202 261 307 364
#
# _framework density 18.36645
#
# number of rings (size 3 to 8) (size 9 to 14) (size 15 to 20)
#    0.000    0.571    7.143    3.429    0.000    4.000 
#    0.000    2.143    0.000    0.000    0.000    4.000 
#    0.000    0.000    0.000    0.000    0.000    0.000 
#
# Total GULP energy -156129.207782 kJ/mol
# GULP energy per Si atom -5576.043135 kJ/mol
# Density = 1.832465 g / cm^3
# Si number density = 18.366450 Si / 1000 Ang^3
#
#
#
# Elastic Constant Matrix: (Units=GPa)
#
#
# Indices 1 2 3 4 5 6 
#
# 1 159.9622 31.0678 27.6949 -0.0019 -15.0850 0.0006
# 2 31.0678 65.4437 11.6925 -0.0009 -1.5662 0.0002
# 3 27.6949 11.6925 76.5183 -0.0054 -1.1187 0.0026
# 4 -0.0019 -0.0009 -0.0054 11.4597 0.0028 1.5187
# 5 -15.0850 -1.5662 -1.1187 0.0028 31.3086 -0.0012
# 6 0.0006 0.0002 0.0026 1.5187 -0.0012 12.6620
#
#
#
# Elastic Compliance Matrix: (Units=1/GPa)
#
#
# Indices 1 2 3 4 5 6 
#
# 1 0.007560 -0.003112 -0.002211 -0.000001 0.003408 0.000001
# 2 -0.003112 0.017006 -0.001482 0.000000 -0.000702 0.000000
# 3 -0.002211 -0.001482 0.014086 0.000007 -0.000636 -0.000004
# 4 -0.000001 0.000000 0.000007 0.088672 -0.000009 -0.010636
# 5 0.003408 -0.000702 -0.000636 -0.000009 0.033524 0.000004
# 6 0.000001 0.000000 -0.000004 -0.010636 0.000004 0.080252
#
#
# Mechanical properties :
#
#
# Convention : Reuss Voigt Hill
#
# Bulk Modulus (GPa) = 39.93471 49.20386 44.56929
# Shear Modulus (GPa) = 19.00715 26.51732 22.76223
#
# Velocity S-wave (km/s) = 3.22045 3.80385 3.52424
# Velocity P-wave (km/s) = 5.96816 6.79269 6.39373
#
# Compressibility (1/GPa) = 0.02504087
#
# Stress axis : x y z
#
# Youngs Moduli (GPa) = 132.27289 58.80311 70.99150
#
# Poissons Ratio (x) = 0.18302 0.15695
# Poissons Ratio (y) = 0.41169 0.10524
# Poissons Ratio (z) = 0.29244 0.08717
#
# Static dielectric constant tensor:
#      x y z
#    x 1.339180 0.000000 0.412970 
#    y 0.000000 1.600050 0.000010 
#    z 0.412970 0.000010 1.170390 
# 
# From -- ./inp_files/227579.got.cif
#   From: 2010.05.17/outbox.cif.g08.bks.cpg/sg12_114_cif.got.tgz:227579.got - 2010.06.03 13:09:07.
