data_PCOD9219313
_publ_section_title
;
Structure prediction by ZEFSAII (Michael W. Deem and Ramdas Pophale) SiO2 
 PCOD9219313
Probable space group: C 2/M
;
_chemical_formula_sum "Si O2"
_cell_formula_units_Z 48
_cell_length_a 20.813922
_cell_length_b 15.625640
_cell_length_c 8.752665
_cell_angle_alpha 90.000000
_cell_angle_beta 140.499232
_cell_angle_gamma 90.000000
_cell_volume 1810.713046
_symmetry_space_group_name_H-M "C 2/M"
_symmetry_group_IT_number 12
_symmetry_cell_setting 'monoclinic'
loop_
_space_group_symop_operation_xyz
x,y,z
-x,y,-z
-x,-y,-z
x,-y,z
1/2+x,1/2+y,z
1/2-x,1/2+y,-z
1/2-x,1/2-y,-z
1/2+x,1/2-y,z
loop_
_atom_site_type_symbol
_atom_site_label
_atom_site_fract_x
_atom_site_fract_y
_atom_site_fract_z
Si Si1 0.617679 0.669377 0.717817
Si Si2 0.445322 0.602362 0.688146
Si Si3 0.338826 0.127907 0.179224
Si Si4 0.647943 0.668395 0.169968
Si Si5 0.900060 0.640071 0.960467
Si Si6 0.879397 0.381156 0.587620
O O1 0.500000 0.639442 0.500000
O O2 0.631923 0.650830 0.563749
O O3 0.628962 0.771023 0.764820
O O4 0.716927 0.624818 0.969341
O O5 0.447421 0.500000 0.668529
O O6 0.398474 0.624921 0.765759
O O7 0.560932 0.638744 0.890804
O O8 0.388195 0.089491 0.423728
O O9 0.366664 0.098383 0.058969
O O10 0.848204 0.729615 0.826345
O O11 0.763163 0.642995 0.367084
O O12 0.886627 0.586412 0.779516
O O13 0.016082 0.670237 0.206114
#
# Coordination Sequence:
#
# PCOD9219313 Si02
#       6
#     8   8   8   8   8   8
#     4  11  21  35  54  83 121 159 194 237 296 358
#     4  11  23  39  58  82 115 157 206 254 300 347
#     4  11  21  35  57  87 128 163 190 237 304 369
#     4  11  20  35  55  80 116 155 199 247 297 352
#     4  11  22  34  56  89 125 161 194 234 302 377
#     4  11  21  34  54  83 121 160 196 236 292 366
#
# _framework density 26.508894000000002
#
# number of rings (size 3 to 8) (size 9 to 14) (size 15 to 20)
#    0.000    1.000    0.000   12.000    0.000    0.333 
#    0.000    0.000    0.000    0.000    0.000   22.167 
#    0.000   61.333    0.000    0.000    0.000    0.000 
#
# Total GULP energy -133602.068493 kJ/mol
# GULP energy per Si atom -5566.752854 kJ/mol
# Density = 2.644856 g / cm^3
# Si number density = 26.508894 Si / 1000 Ang^3
#
#
#
# Elastic Constant Matrix: (Units=GPa)
#
#
# Indices 1 2 3 4 5 6 
#
# 1 120.1333 -3.5947 55.6134 0.0000 3.3524 0.0000
# 2 -3.5947 80.2050 -11.5805 0.0000 -0.5638 0.0000
# 3 55.6134 -11.5805 203.1555 0.0000 -20.4965 0.0000
# 4 0.0000 0.0000 0.0000 -3.2666 0.0000 -28.4782
# 5 3.3524 -0.5638 -20.4965 0.0000 82.7365 0.0000
# 6 0.0000 0.0000 0.0000 -28.4782 0.0000 9.4666
#
#
#
# Elastic Compliance Matrix: (Units=1/GPa)
#
#
# Indices 1 2 3 4 5 6 
#
# 1 0.009623 0.000028 -0.002741 0.000000 -0.001069 0.000000
# 2 0.000028 0.012577 0.000736 0.000000 0.000267 0.000000
# 3 -0.002741 0.000736 0.005873 0.000000 0.001571 0.000000
# 4 0.000000 0.000000 0.000000 -0.011244 0.000000 -0.033825
# 5 -0.001069 0.000267 0.001571 0.000000 0.012521 0.000000
# 6 0.000000 0.000000 0.000000 -0.033825 0.000000 0.003880
#
#
# Mechanical properties :
#
#
# Convention : Reuss Voigt Hill
#
# Bulk Modulus (GPa) = 41.45710 53.81891 47.63801
# Shear Modulus (GPa) = 110.56082 41.99100 76.27591
#
# Velocity S-wave (km/s) = 6.46511 3.98431 5.36993
# Velocity P-wave (km/s) = 8.45003 6.44303 7.51384
#
# Compressibility (1/GPa) = 0.02412132
#
# Stress axis : x y z
#
# Youngs Moduli (GPa) = 103.91261 79.50721 170.26937
#
# Poissons Ratio (x) = -0.00223 0.46664
# Poissons Ratio (y) = -0.00292 -0.12535
# Poissons Ratio (z) = 0.28479 -0.05853
#
# Static dielectric constant tensor:
#      x y z
#    x 2.276530 0.000000 -0.138920 
#    y 0.000000 2.012590 0.000000 
#    z -0.138920 0.000000 2.060550 
# 
# From -- ./inp_files/90478.got.cif
#   From: 2010.05.17/outbox.cif.g08.bks.cpg/sg12_46_cif.got.tgz:90478.got - 2010.06.03 13:09:07.
