data_PCOD9219928
_publ_section_title
;
Structure prediction by ZEFSAII (Michael W. Deem and Ramdas Pophale) SiO2 
 PCOD9219928
Probable space group: C 2/M
;
_chemical_formula_sum "Si O2"
_cell_formula_units_Z 40
_cell_length_a 32.629742
_cell_length_b 10.913520
_cell_length_c 7.191589
_cell_angle_alpha 90.000000
_cell_angle_beta 139.953879
_cell_angle_gamma 90.000000
_cell_volume 1647.734105
_symmetry_space_group_name_H-M "C 2/M"
_symmetry_group_IT_number 12
_symmetry_cell_setting 'monoclinic'
loop_
_space_group_symop_operation_xyz
x,y,z
-x,y,-z
-x,-y,-z
x,-y,z
1/2+x,1/2+y,z
1/2-x,1/2+y,-z
1/2-x,1/2-y,-z
1/2+x,1/2-y,z
loop_
_atom_site_type_symbol
_atom_site_label
_atom_site_fract_x
_atom_site_fract_y
_atom_site_fract_z
Si Si1 0.712306 0.858530 0.261834
Si Si2 0.510838 0.142176 0.325110
Si Si3 0.566267 0.500000 0.984100
Si Si4 0.854753 0.743799 0.307760
Si Si5 0.082225 0.000000 0.489389
Si Si6 0.885180 0.253658 0.823998
O O1 0.750000 0.750000 0.500000
O O2 0.699654 0.815331 0.007222
O O3 0.644442 0.847948 0.133476
O O4 0.735162 0.000000 0.350349
O O5 0.500000 0.184186 0.500000
O O6 0.582131 0.164530 0.511233
O O7 0.496164 0.000000 0.262923
O O8 0.457389 0.211964 0.023684
O O9 0.490032 0.500000 0.679390
O O10 0.572157 0.500000 0.230222
O O11 0.604896 0.619506 0.055532
O O12 0.876893 0.879662 0.324676
O O13 0.844899 0.746824 0.494915
#
# Coordination Sequence:
#
# PCOD9219928 Si02
#       6
#     8   8   4   8   4   8
#     4  12  30  51  70  97 129 172 236 290 339 404
#     4  11  21  36  61  99 140 176 213 262 332 410
#     4   9  18  35  63 105 142 173 217 260 317 404
#     4  11  23  42  69  99 138 178 218 275 335 399
#     4   9  18  35  63 105 142 173 217 260 317 404
#     4  11  23  42  69  99 138 178 218 275 335 399
#
# _framework density 24.275762
#
# number of rings (size 3 to 8) (size 9 to 14) (size 15 to 20)
#    0.000    1.200    4.000    1.800    2.800    4.800 
#    0.000    2.000    0.000    0.000    0.000    0.000 
#    0.000    0.000    0.000    0.000    0.000    0.000 
#
# Total GULP energy -111878.198461 kJ/mol
# GULP energy per Si atom -5593.909923 kJ/mol
# Density = 2.422051 g / cm^3
# Si number density = 24.275762 Si / 1000 Ang^3
#
#
#
# Elastic Constant Matrix: (Units=GPa)
#
#
# Indices 1 2 3 4 5 6 
#
# 1 52.6418 3.1135 5.6890 0.0000 -12.2412 0.0000
# 2 3.1135 155.5935 45.9414 0.0000 -14.9262 0.0000
# 3 5.6890 45.9414 101.4055 0.0000 -5.2179 0.0000
# 4 0.0000 0.0000 0.0000 33.1674 0.0000 5.4559
# 5 -12.2412 -14.9262 -5.2179 0.0000 36.4426 0.0000
# 6 0.0000 0.0000 0.0000 5.4559 0.0000 27.6088
#
#
#
# Elastic Compliance Matrix: (Units=1/GPa)
#
#
# Indices 1 2 3 4 5 6 
#
# 1 0.020714 0.000574 -0.001060 0.000000 0.007041 0.000000
# 2 0.000574 0.007684 -0.003366 0.000000 0.002858 0.000000
# 3 -0.001060 -0.003366 0.011441 0.000000 -0.000097 0.000000
# 4 0.000000 0.000000 0.000000 0.031163 0.000000 -0.006158
# 5 0.007041 0.002858 -0.000097 0.000000 0.030962 0.000000
# 6 0.000000 0.000000 0.000000 -0.006158 0.000000 0.037437
#
#
# Mechanical properties :
#
#
# Convention : Reuss Voigt Hill
#
# Bulk Modulus (GPa) = 31.11903 46.56984 38.84443
# Shear Modulus (GPa) = 31.68221 36.43687 34.05954
#
# Velocity S-wave (km/s) = 3.61653 3.87842 3.74976
# Velocity P-wave (km/s) = 5.50326 6.26750 5.89777
#
# Compressibility (1/GPa) = 0.03213467
#
# Stress axis : x y z
#
# Youngs Moduli (GPa) = 48.27587 130.14749 87.40556
#
# Poissons Ratio (x) = -0.07469 0.09263
# Poissons Ratio (y) = -0.02771 0.29422
# Poissons Ratio (z) = 0.05116 0.43810
#
# Static dielectric constant tensor:
#      x y z
#    x 1.959020 0.000000 0.004000 
#    y 0.000000 1.955440 0.000000 
#    z 0.004000 0.000000 2.003590 
# 
# From -- ./inp_files/102349.got.cif
#   From: 2010.05.17/outbox.cif.g08.bks.cpg/sg12_52_cif.got.tgz:102349.got - 2010.06.03 13:09:07.
