data_PCOD9219169
_publ_section_title
;
Structure prediction by ZEFSAII (Michael W. Deem and Ramdas Pophale) SiO2 
 PCOD9219169
Probable space group: C 2/M
;
_chemical_formula_sum "Si O2"
_cell_formula_units_Z 40
_cell_length_a 25.866525
_cell_length_b 8.786451
_cell_length_c 25.655407
_cell_angle_alpha 90.000000
_cell_angle_beta 23.402849
_cell_angle_gamma 90.000000
_cell_volume 2315.968500
_symmetry_space_group_name_H-M "C 2/M"
_symmetry_group_IT_number 12
_symmetry_cell_setting 'monoclinic'
loop_
_space_group_symop_operation_xyz
x,y,z
-x,y,-z
-x,-y,-z
x,-y,z
1/2+x,1/2+y,z
1/2-x,1/2+y,-z
1/2-x,1/2-y,-z
1/2+x,1/2-y,z
loop_
_atom_site_type_symbol
_atom_site_label
_atom_site_fract_x
_atom_site_fract_y
_atom_site_fract_z
Si Si1 0.353669 0.181647 0.863148
Si Si2 0.343602 0.324410 0.154545
Si Si3 0.577372 0.316789 0.808824
Si Si4 0.293976 0.820126 0.094276
Si Si5 0.628838 0.682172 0.642971
O O1 0.307238 0.234715 0.849166
O O2 0.494851 0.246439 0.746301
O O3 0.352342 0.000000 0.868199
O O4 0.250000 0.250000 0.000000
O O5 0.301494 0.500000 0.188060
O O6 0.333347 0.274625 0.224176
O O7 0.281182 0.225484 0.166756
O O8 0.500000 0.321267 0.000000
O O9 0.554577 0.500000 0.833861
O O10 0.636333 0.284267 0.697921
O O11 0.438087 0.235334 0.943425
O O12 0.283184 0.000000 0.097228
O O13 0.624246 0.500000 0.641223
O O14 0.750000 0.750000 0.500000
#
# Coordination Sequence:
#
# PCOD9219169 Si02
#       5
#     8   8   8   8   8
#     4  12  23  37  57  82 111 146 185 231 280 329
#     4   8  15  29  48  73 105 142 179 220 271 325
#     4   9  18  33  53  75 107 147 184 223 271 326
#     4  11  20  30  50  81 112 142 178 225 278 326
#     4  11  23  39  58  82 113 150 188 227 274 332
#
# _framework density 17.271391999999999
#
# number of rings (size 3 to 8) (size 9 to 14) (size 15 to 20)
#    0.000    1.800    2.000    5.400    0.000    4.400 
#    0.000    0.000    0.000    1.200    0.000    8.400 
#    0.000    0.000    0.000    0.000    0.000    0.000 
#
# Total GULP energy -111626.916179 kJ/mol
# GULP energy per Si atom -5581.345809 kJ/mol
# Density = 1.723208 g / cm^3
# Si number density = 17.271392 Si / 1000 Ang^3
#
#
#
# Elastic Constant Matrix: (Units=GPa)
#
#
# Indices 1 2 3 4 5 6 
#
# 1 161.0006 67.9699 66.5663 -0.0006 15.1585 0.0000
# 2 67.9699 102.2188 49.6648 0.0017 8.1296 -0.0005
# 3 66.5663 49.6648 93.9537 -0.0030 4.9914 0.0017
# 4 -0.0006 0.0017 -0.0030 23.9770 -0.0014 -0.6547
# 5 15.1585 8.1296 4.9914 -0.0014 17.6081 0.0005
# 6 0.0000 -0.0005 0.0017 -0.6547 0.0005 31.1312
#
#
#
# Elastic Compliance Matrix: (Units=1/GPa)
#
#
# Indices 1 2 3 4 5 6 
#
# 1 0.010566 -0.004143 -0.004990 0.000000 -0.005769 0.000000
# 2 -0.004143 0.015097 -0.004939 -0.000002 -0.002004 0.000000
# 3 -0.004990 -0.004939 0.016691 0.000002 0.001844 -0.000001
# 4 0.000000 -0.000002 0.000002 0.041731 0.000004 0.000878
# 5 -0.005769 -0.002004 0.001844 0.000004 0.062161 -0.000001
# 6 0.000000 0.000000 -0.000001 0.000878 -0.000001 0.032141
#
#
# Mechanical properties :
#
#
# Convention : Reuss Voigt Hill
#
# Bulk Modulus (GPa) = 70.36351 80.61947 75.49149
# Shear Modulus (GPa) = 23.66686 26.07475 24.87081
#
# Velocity S-wave (km/s) = 3.70576 3.88971 3.79885
# Velocity P-wave (km/s) = 7.69016 8.18245 7.94012
#
# Compressibility (1/GPa) = 0.01421191
#
# Stress axis : x y z
#
# Youngs Moduli (GPa) = 94.63963 66.24049 59.91097
#
# Poissons Ratio (x) = 0.27442 0.29895
# Poissons Ratio (y) = 0.39208 0.29587
# Poissons Ratio (z) = 0.47224 0.32713
#
# Static dielectric constant tensor:
#      x y z
#    x 1.626630 0.000000 0.023530 
#    y 0.000000 1.576210 0.000000 
#    z 0.023530 0.000000 1.548620 
# 
# From -- ./inp_files/92942.got.cif
#   From: 2010.05.17/outbox.cif.g08.bks.cpg/sg12_47_cif.got.tgz:92942.got - 2010.06.03 13:09:07.
