data_PCOD9219775
_publ_section_title
;
Structure prediction by ZEFSAII (Michael W. Deem and Ramdas Pophale) SiO2 
 PCOD9219775
Probable space group: C 2/M
;
_chemical_formula_sum "Si O2"
_cell_formula_units_Z 56
_cell_length_a 8.193147
_cell_length_b 18.655039
_cell_length_c 17.941995
_cell_angle_alpha 90.000000
_cell_angle_beta 81.472966
_cell_angle_gamma 90.000000
_cell_volume 2712.003359
_symmetry_space_group_name_H-M "C 2/M"
_symmetry_group_IT_number 12
_symmetry_cell_setting 'monoclinic'
loop_
_space_group_symop_operation_xyz
x,y,z
-x,y,-z
-x,-y,-z
x,-y,z
1/2+x,1/2+y,z
1/2-x,1/2+y,-z
1/2-x,1/2-y,-z
1/2+x,1/2-y,z
loop_
_atom_site_type_symbol
_atom_site_label
_atom_site_fract_x
_atom_site_fract_y
_atom_site_fract_z
Si Si1 0.177213 0.186022 0.455046
Si Si2 0.523981 0.306848 0.230946
Si Si3 0.678582 0.796288 0.324052
Si Si4 0.686251 0.079376 0.775179
Si Si5 0.382318 0.297053 0.076453
Si Si6 0.513799 0.141907 0.078863
Si Si7 0.945069 0.418536 0.384919
O O1 0.250000 0.250000 0.500000
O O2 0.167676 0.224952 0.375333
O O3 0.298264 0.118578 0.441086
O O4 0.000000 0.166652 0.500000
O O5 0.591031 0.228629 0.252691
O O6 0.364148 0.317594 0.293108
O O7 0.670669 0.362200 0.231667
O O8 0.461776 0.314179 0.150838
O O9 0.591098 0.860513 0.373391
O O10 0.550926 0.097706 0.846810
O O11 0.610715 0.079412 0.697755
O O12 0.754189 0.000000 0.785178
O O13 0.390548 0.210280 0.076720
O O14 0.198735 0.327926 0.079552
O O15 0.500000 0.320173 0.000000
O O16 0.500000 0.102866 0.000000
O O17 0.983253 0.500000 0.405341
#
# Coordination Sequence:
#
# PCOD9219775 Si02
#       7
#     8   8   8   8   8   8   8
#     4  12  23  42  69  97 127 166 216 264 312 394
#     4  12  21  37  65  91 125 165 224 261 323 386
#     4  12  22  40  67  97 122 170 216 261 319 392
#     4  11  24  41  60  88 127 169 216 270 327 388
#     4  11  21  34  59  95 125 157 210 278 321 371
#     4  11  21  37  59  88 126 168 212 265 327 383
#     4  11  24  43  65  98 135 168 212 272 330 381
#
# _framework density 20.648942000000002
#
# number of rings (size 3 to 8) (size 9 to 14) (size 15 to 20)
#    0.000    0.571    4.286    6.857    0.000    1.143 
#    0.000    2.143    0.000    1.714    0.000    0.000 
#    0.000    0.000    0.000    0.000    0.000    0.000 
#
# Total GULP energy -156556.788569 kJ/mol
# GULP energy per Si atom -5591.313877 kJ/mol
# Density = 2.060194 g / cm^3
# Si number density = 20.648942 Si / 1000 Ang^3
#
#
#
# Elastic Constant Matrix: (Units=GPa)
#
#
# Indices 1 2 3 4 5 6 
#
# 1 84.0894 22.5581 30.8005 0.0000 -23.4756 0.0000
# 2 22.5581 103.0945 17.3046 0.0000 -20.3155 0.0000
# 3 30.8005 17.3046 102.4899 0.0000 -11.4036 0.0000
# 4 0.0000 0.0000 0.0000 -10.9374 0.0000 3.8509
# 5 -23.4756 -20.3155 -11.4036 0.0000 50.9724 0.0000
# 6 0.0000 0.0000 0.0000 3.8509 0.0000 18.5805
#
#
#
# Elastic Compliance Matrix: (Units=1/GPa)
#
#
# Indices 1 2 3 4 5 6 
#
# 1 0.015223 -0.001621 -0.003685 0.000000 0.005541 0.000000
# 2 -0.001621 0.010883 -0.000975 0.000000 0.003373 0.000000
# 3 -0.003685 -0.000975 0.011073 0.000000 0.000391 0.000000
# 4 0.000000 0.000000 0.000000 -0.085212 0.000000 0.017660
# 5 0.005541 0.003373 0.000391 0.000000 0.023602 0.000000
# 6 0.000000 0.000000 0.000000 0.017660 0.000000 0.050160
#
#
# Mechanical properties :
#
#
# Convention : Reuss Voigt Hill
#
# Bulk Modulus (GPa) = 40.62135 47.88890 44.25513
# Shear Modulus (GPa) = 107.53533 26.32382 66.92958
#
# Velocity S-wave (km/s) = 7.22433 3.57434 5.69942
# Velocity P-wave (km/s) = 9.45003 6.34641 8.04922
#
# Compressibility (1/GPa) = 0.02461760
#
# Stress axis : x y z
#
# Youngs Moduli (GPa) = 65.68821 91.88834 90.31273
#
# Poissons Ratio (x) = 0.14892 0.33279
# Poissons Ratio (y) = 0.10646 0.08807
# Poissons Ratio (z) = 0.24205 0.08960
#
# Static dielectric constant tensor:
#      x y z
#    x 1.747970 0.000000 0.043380 
#    y 0.000000 1.715170 0.000000 
#    z 0.043380 0.000000 1.828420 
# 
# From -- ./inp_files/257006.got.cif
#   From: 2010.05.17/outbox.cif.g08.bks.cpg/sg12_129_cif.got.tgz:257006.got - 2010.06.03 13:09:07.
