data_PCOD9219142
_publ_section_title
;
Structure prediction by ZEFSAII (Michael W. Deem and Ramdas Pophale) SiO2 
 PCOD9219142
Probable space group: C 2/M
;
_chemical_formula_sum "Si O2"
_cell_formula_units_Z 64
_cell_length_a 20.224311
_cell_length_b 14.209944
_cell_length_c 17.699216
_cell_angle_alpha 90.000000
_cell_angle_beta 143.258785
_cell_angle_gamma 90.000000
_cell_volume 3042.760729
_symmetry_space_group_name_H-M "C 2/M"
_symmetry_group_IT_number 12
_symmetry_cell_setting 'monoclinic'
loop_
_space_group_symop_operation_xyz
x,y,z
-x,y,-z
-x,-y,-z
x,-y,z
1/2+x,1/2+y,z
1/2-x,1/2+y,-z
1/2-x,1/2-y,-z
1/2+x,1/2-y,z
loop_
_atom_site_type_symbol
_atom_site_label
_atom_site_fract_x
_atom_site_fract_y
_atom_site_fract_z
Si Si1 0.894687 0.384931 0.304056
Si Si2 0.069372 0.107509 0.441886
Si Si3 0.333348 0.884193 0.084123
Si Si4 0.239741 0.384426 0.272929
Si Si5 0.675049 0.385119 0.809819
Si Si6 0.251899 0.359827 0.514220
Si Si7 0.439623 0.106944 0.777984
Si Si8 0.143688 0.388123 0.567153
O O1 0.893763 0.500000 0.300843
O O2 0.837288 0.353433 0.174596
O O3 0.839668 0.353171 0.332314
O O4 0.023794 0.355659 0.426757
O O5 0.152929 0.149064 0.580782
O O6 0.138541 0.105148 0.427370
O O7 0.949134 0.149677 0.319111
O O8 0.050222 0.000000 0.449815
O O9 0.446363 0.850768 0.146773
O O10 0.336492 0.000000 0.087583
O O11 0.230355 0.855358 0.938641
O O12 0.239100 0.500000 0.278617
O O13 0.251710 0.361251 0.196434
O O14 0.131127 0.350227 0.218084
O O15 0.670375 0.500000 0.808285
O O16 0.250000 0.250000 0.500000
O O17 0.146309 0.397805 0.370856
O O18 0.235511 0.374827 0.587650
O O19 0.466765 0.000000 0.826141
O O20 0.131272 0.500000 0.563453
#
# Coordination Sequence:
#
# PCOD9219142 Si02
#       8
#     8   8   8   8   8   8   8   8
#     4   8  14  24  45  72  94 115 142 186 240 284
#     4   9  17  30  47  65  90 124 155 186 226 277
#     4   9  15  24  42  71  99 117 143 193 241 276
#     4   8  14  24  41  64  90 122 154 187 222 263
#     4   9  16  25  42  68  95 121 153 190 227 268
#     4  11  20  29  46  69  95 117 151 196 236 273
#     4   9  16  28  46  66  92 122 152 187 236 281
#     4   9  15  27  48  71  93 118 149 184 234 289
#
# _framework density 21.033531
#
# number of rings (size 3 to 8) (size 9 to 14) (size 15 to 20)
#    0.000    3.000    1.250    3.000    0.000    2.000 
#    0.000    2.500   11.000    1.500    0.000    7.875 
#    0.000    0.000    0.000    0.000    0.000    0.000 
#
# Total GULP energy -178509.494448 kJ/mol
# GULP energy per Si atom -5578.421702 kJ/mol
# Density = 2.098566 g / cm^3
# Si number density = 21.033531 Si / 1000 Ang^3
#
#
#
# Elastic Constant Matrix: (Units=GPa)
#
#
# Indices 1 2 3 4 5 6 
#
# 1 102.8246 -5.3502 44.5035 0.0000 -35.0795 0.0000
# 2 -5.3502 50.4519 9.4581 0.0000 -3.8471 0.0000
# 3 44.5035 9.4581 67.9928 0.0000 -31.5916 0.0000
# 4 0.0000 0.0000 0.0000 10.7891 0.0000 -4.2469
# 5 -35.0795 -3.8471 -31.5916 0.0000 32.0411 0.0000
# 6 0.0000 0.0000 0.0000 -4.2469 0.0000 -16.4420
#
#
#
# Elastic Compliance Matrix: (Units=1/GPa)
#
#
# Indices 1 2 3 4 5 6 
#
# 1 0.016878 0.003810 -0.005128 0.000000 0.013880 0.000000
# 2 0.003810 0.021219 -0.004288 0.000000 0.002491 0.000000
# 3 -0.005128 -0.004288 0.029181 0.000000 0.022642 0.000000
# 4 0.000000 0.000000 0.000000 0.084132 0.000000 -0.021731
# 5 0.013880 0.002491 0.022642 0.000000 0.069029 0.000000
# 6 0.000000 0.000000 0.000000 -0.021731 0.000000 -0.055207
#
#
# Mechanical properties :
#
#
# Convention : Reuss Voigt Hill
#
# Bulk Modulus (GPa) = 17.83656 35.38802 26.61229
# Shear Modulus (GPa) = 25.62347 16.78816 21.20582
#
# Velocity S-wave (km/s) = 3.49409 2.82824 3.17865
# Velocity P-wave (km/s) = 4.97762 5.24656 5.11385
#
# Compressibility (1/GPa) = 0.05606462
#
# Stress axis : x y z
#
# Youngs Moduli (GPa) = 59.24737 47.12845 34.26927
#
# Poissons Ratio (x) = -0.17954 0.17575
# Poissons Ratio (y) = -0.22571 0.14694
# Poissons Ratio (z) = 0.30384 0.20208
#
# Static dielectric constant tensor:
#      x y z
#    x 1.798540 0.000000 -0.016040 
#    y 0.000000 1.819450 0.000000 
#    z -0.016040 0.000000 1.735610 
# 
# From -- ./inp_files/284827.got.cif
#   From: 2010.05.17/outbox.cif.g08.bks.cpg/sg12_143_cif.got.tgz:284827.got - 2010.06.03 13:09:07.
