data_PCOD9219117
_publ_section_title
;
Structure prediction by ZEFSAII (Michael W. Deem and Ramdas Pophale) SiO2 
 PCOD9219117
Probable space group: C 2/M
;
_chemical_formula_sum "Si O2"
_cell_formula_units_Z 48
_cell_length_a 31.897219
_cell_length_b 16.125438
_cell_length_c 9.424159
_cell_angle_alpha 90.000000
_cell_angle_beta 151.527680
_cell_angle_gamma 90.000000
_cell_volume 2310.910895
_symmetry_space_group_name_H-M "C 2/M"
_symmetry_group_IT_number 12
_symmetry_cell_setting 'monoclinic'
loop_
_space_group_symop_operation_xyz
x,y,z
-x,y,-z
-x,-y,-z
x,-y,z
1/2+x,1/2+y,z
1/2-x,1/2+y,-z
1/2-x,1/2-y,-z
1/2+x,1/2-y,z
loop_
_atom_site_type_symbol
_atom_site_label
_atom_site_fract_x
_atom_site_fract_y
_atom_site_fract_z
Si Si1 0.396531 0.185387 0.974035
Si Si2 0.844738 0.243627 0.347462
Si Si3 0.409719 0.660229 0.808372
Si Si4 0.719639 0.405627 0.350211
Si Si5 0.903127 0.819275 0.231245
Si Si6 0.954102 0.592201 0.708972
O O1 0.425822 0.256544 0.948834
O O2 0.301168 0.151299 0.643377
O O3 0.397224 0.232260 0.126411
O O4 0.469124 0.114325 0.174534
O O5 0.846823 0.189608 0.494785
O O6 0.897361 0.198236 0.379497
O O7 0.883992 0.334244 0.494296
O O8 0.750000 0.250000 0.000000
O O9 0.357265 0.601514 0.759609
O O10 0.500000 0.632788 0.000000
O O11 0.749504 0.500000 0.423549
O O12 0.674275 0.372596 0.070930
O O13 0.000000 0.857041 0.500000
O O14 0.918091 0.500000 0.578784
O O15 0.000000 0.593904 0.000000
#
# Coordination Sequence:
#
# PCOD9219117 Si02
#       6
#     8   8   8   8   8   8
#     4  11  19  42  64  94 121 166 212 253 306 384
#     4  12  21  38  60  93 125 164 205 251 310 385
#     4  11  20  41  67  87 120 168 222 252 296 380
#     4  11  25  41  63  94 126 166 215 266 310 365
#     4  11  22  39  65  89 124 163 209 255 312 378
#     4  11  22  38  65  97 127 161 206 263 318 367
#
# _framework density 20.771031000000001
#
# number of rings (size 3 to 8) (size 9 to 14) (size 15 to 20)
#    0.000    0.833    5.000    5.500    0.000    0.667 
#    0.000    5.833    0.000    0.000    0.000    0.000 
#    0.000    0.000    0.000    0.000    0.000    0.000 
#
# Total GULP energy -134125.454612 kJ/mol
# GULP energy per Si atom -5588.560609 kJ/mol
# Density = 2.072376 g / cm^3
# Si number density = 20.771031 Si / 1000 Ang^3
#
#
#
# Elastic Constant Matrix: (Units=GPa)
#
#
# Indices 1 2 3 4 5 6 
#
# 1 57.1752 7.3801 -9.4822 0.0000 -13.4336 0.0000
# 2 7.3801 66.2355 13.7438 0.0000 -9.4850 0.0000
# 3 -9.4822 13.7438 103.9880 0.0000 -2.4707 0.0000
# 4 0.0000 0.0000 0.0000 24.2845 0.0000 1.0004
# 5 -13.4336 -9.4850 -2.4707 0.0000 40.1865 0.0000
# 6 0.0000 0.0000 0.0000 1.0004 0.0000 8.9870
#
#
#
# Elastic Compliance Matrix: (Units=1/GPa)
#
#
# Indices 1 2 3 4 5 6 
#
# 1 0.019542 -0.001729 0.002159 0.000000 0.006257 0.000000
# 2 -0.001729 0.016197 -0.002225 0.000000 0.003108 0.000000
# 3 0.002159 -0.002225 0.010127 0.000000 0.000819 0.000000
# 4 0.000000 0.000000 0.000000 0.041368 0.000000 -0.004605
# 5 0.006257 0.003108 0.000819 0.000000 0.027759 0.000000
# 6 0.000000 0.000000 0.000000 -0.004605 0.000000 0.111784
#
#
# Mechanical properties :
#
#
# Convention : Reuss Voigt Hill
#
# Bulk Modulus (GPa) = 23.65423 27.85357 25.75390
# Shear Modulus (GPa) = 20.45337 29.07542 24.76439
#
# Velocity S-wave (km/s) = 3.14141 3.74546 3.45665
# Velocity P-wave (km/s) = 4.95689 5.66953 5.32514
#
# Compressibility (1/GPa) = 0.04227573
#
# Stress axis : x y z
#
# Youngs Moduli (GPa) = 51.17313 61.73983 98.74733
#
# Poissons Ratio (x) = 0.10677 -0.21321
# Poissons Ratio (y) = 0.08850 0.21967
# Poissons Ratio (z) = -0.11049 0.13734
#
# Static dielectric constant tensor:
#      x y z
#    x 1.772630 0.000000 0.012460 
#    y 0.000000 1.734320 0.000000 
#    z 0.012460 0.000000 1.697900 
# 
# From -- ./inp_files/112957.got.cif
#   From: 2010.05.17/outbox.cif.g08.bks.cpg/sg12_57_cif.got.tgz:112957.got - 2010.06.03 13:09:07.
