data_PCOD9219119
_publ_section_title
;
Structure prediction by ZEFSAII (Michael W. Deem and Ramdas Pophale) SiO2 
 PCOD9219119
Probable space group: C 2/M
;
_chemical_formula_sum "Si O2"
_cell_formula_units_Z 36
_cell_length_a 9.875816
_cell_length_b 15.073591
_cell_length_c 11.023152
_cell_angle_alpha 90.000000
_cell_angle_beta 81.272118
_cell_angle_gamma 90.000000
_cell_volume 1621.948679
_symmetry_space_group_name_H-M "C 2/M"
_symmetry_group_IT_number 12
_symmetry_cell_setting 'monoclinic'
loop_
_space_group_symop_operation_xyz
x,y,z
-x,y,-z
-x,-y,-z
x,-y,z
1/2+x,1/2+y,z
1/2-x,1/2+y,-z
1/2-x,1/2-y,-z
1/2+x,1/2-y,z
loop_
_atom_site_type_symbol
_atom_site_label
_atom_site_fract_x
_atom_site_fract_y
_atom_site_fract_z
Si Si1 0.641998 0.000000 0.626692
Si Si2 0.402768 0.645556 0.187989
Si Si3 0.279199 0.500000 0.358635
Si Si4 0.053696 0.344984 0.799926
Si Si5 0.783585 0.393248 0.990133
Si Si6 0.569731 0.500000 0.275186
O O1 0.672021 0.000000 0.480153
O O2 0.567149 0.087127 0.687274
O O3 0.789976 0.000000 0.674187
O O4 0.285284 0.588124 0.274742
O O5 0.430268 0.742375 0.235216
O O6 0.347217 0.649447 0.058514
O O7 0.534844 0.584120 0.194541
O O8 0.437774 0.500000 0.383177
O O9 0.914455 0.363674 0.891664
O O10 0.174072 0.365870 0.880629
O O11 0.771412 0.500000 0.987452
#
# Coordination Sequence:
#
# PCOD9219119 Si02
#       6
#     4   8   4   8   8   4
#     4  12  21  37  62  86 116 144 204 227 285 342
#     4   9  21  39  60  79 113 157 188 232 291 329
#     4   8  21  40  60  80 115 154 187 239 287 324
#     4  11  23  34  61  90 111 154 187 237 282 343
#     4  11  19  43  56  82 122 152 184 237 290 337
#     4   8  21  40  56  80 113 154 185 239 281 324
#
# _framework density 22.195525
#
# number of rings (size 3 to 8) (size 9 to 14) (size 15 to 20)
#    1.333    0.444    4.444    1.667    3.111    0.889 
#    0.000    3.333    0.000    0.000    0.000    0.000 
#    0.000    0.000    0.000    0.000    0.000    0.000 
#
# Total GULP energy -100495.189259 kJ/mol
# GULP energy per Si atom -5583.066070 kJ/mol
# Density = 2.214501 g / cm^3
# Si number density = 22.195525 Si / 1000 Ang^3
#
#
#
# Elastic Constant Matrix: (Units=GPa)
#
#
# Indices 1 2 3 4 5 6 
#
# 1 86.4644 2.8121 2.0559 0.0000 5.1902 0.0000
# 2 2.8121 186.5725 26.9546 0.0000 -11.0011 0.0000
# 3 2.0559 26.9546 92.9334 0.0000 -16.4654 0.0000
# 4 0.0000 0.0000 0.0000 1.2944 0.0000 1.4042
# 5 5.1902 -11.0011 -16.4654 0.0000 36.9021 0.0000
# 6 0.0000 0.0000 0.0000 1.4042 0.0000 -5.2828
#
#
#
# Elastic Compliance Matrix: (Units=1/GPa)
#
#
# Indices 1 2 3 4 5 6 
#
# 1 0.011702 -0.000213 -0.000543 0.000000 -0.001952 0.000000
# 2 -0.000213 0.005634 -0.001440 0.000000 0.001067 0.000000
# 3 -0.000543 -0.001440 0.012083 0.000000 0.005038 0.000000
# 4 0.000000 0.000000 0.000000 0.599643 0.000000 0.159390
# 5 -0.001952 0.001067 0.005038 0.000000 0.029939 0.000000
# 6 0.000000 0.000000 0.000000 0.159390 0.000000 -0.146928
#
#
# Mechanical properties :
#
#
# Convention : Reuss Voigt Hill
#
# Bulk Modulus (GPa) = 39.95724 47.73504 43.84614
# Shear Modulus (GPa) = 9.52727 28.85926 19.19326
#
# Velocity S-wave (km/s) = 2.07407 3.60978 2.94383
# Velocity P-wave (km/s) = 4.87618 6.23918 5.59931
#
# Compressibility (1/GPa) = 0.02502675
#
# Stress axis : x y z
#
# Youngs Moduli (GPa) = 85.45220 177.49193 82.76214
#
# Poissons Ratio (x) = 0.03781 0.04493
# Poissons Ratio (y) = 0.01820 0.11921
# Poissons Ratio (z) = 0.04639 0.25566
#
# Static dielectric constant tensor:
#      x y z
#    x 1.861570 0.000000 -0.034700 
#    y 0.000000 1.793200 0.000000 
#    z -0.034700 0.000000 1.829280 
# 
# From -- ./inp_files/128588.got.cif
#   From: 2010.05.17/outbox.cif.g08.bks.cpg/sg12_65_cif.got.tgz:128588.got - 2010.06.03 13:09:07.
