data_PCOD9219403
_publ_section_title
;
Structure prediction by ZEFSAII (Michael W. Deem and Ramdas Pophale) SiO2 
 PCOD9219403
Probable space group: C 2/M
;
_chemical_formula_sum "Si O2"
_cell_formula_units_Z 60
_cell_length_a 12.592223
_cell_length_b 22.260963
_cell_length_c 11.295880
_cell_angle_alpha 90.000000
_cell_angle_beta 97.520150
_cell_angle_gamma 90.000000
_cell_volume 3139.170143
_symmetry_space_group_name_H-M "C 2/M"
_symmetry_group_IT_number 12
_symmetry_cell_setting 'monoclinic'
loop_
_space_group_symop_operation_xyz
x,y,z
-x,y,-z
-x,-y,-z
x,-y,z
1/2+x,1/2+y,z
1/2-x,1/2+y,-z
1/2-x,1/2-y,-z
1/2+x,1/2-y,z
loop_
_atom_site_type_symbol
_atom_site_label
_atom_site_fract_x
_atom_site_fract_y
_atom_site_fract_z
Si Si1 0.632087 0.069421 0.807277
Si Si2 0.155307 0.779634 0.841241
Si Si3 0.025083 0.800921 0.368152
Si Si4 0.247619 0.176059 0.301641
Si Si5 0.675639 0.876340 0.071898
Si Si6 0.879623 0.566442 0.707601
Si Si7 0.607235 0.827135 0.455650
Si Si8 0.500000 0.787795 0.000000
O O1 0.698549 0.115107 0.736451
O O2 0.506890 0.072039 0.753300
O O3 0.665368 0.000000 0.802193
O O4 0.650167 0.092859 0.943575
O O5 0.229968 0.727998 0.792601
O O6 0.222744 0.832565 0.910722
O O7 0.081085 0.804234 0.725135
O O8 0.076402 0.749703 0.925410
O O9 0.124342 0.832473 0.318148
O O10 0.064818 0.731261 0.380685
O O11 0.000000 0.818771 0.500000
O O12 0.311302 0.193234 0.430830
O O13 0.679189 0.924609 0.176189
O O14 0.576993 0.831402 0.085614
O O15 0.860246 0.500000 0.654997
O O16 0.845634 0.621309 0.619481
O O17 0.500000 0.853474 0.500000
#
# Coordination Sequence:
#
# PCOD9219403 Si02
#       8
#     8   8   8   8   8   8   8   4
#     4  11  23  40  61  88 119 159 200 246 303 354
#     4  12  24  37  61  93 123 159 196 246 298 363
#     4  11  24  39  61  90 122 160 198 240 303 365
#     4  12  22  40  63  88 126 160 195 245 301 358
#     4  12  23  38  61  86 126 158 196 245 302 358
#     4  11  22  38  60  88 122 159 200 248 296 356
#     4  11  20  37  59  91 124 154 193 240 302 363
#     4  12  22  38  57  94 125 156 194 242 302 364
#
# _framework density 19.113330000000001
#
# number of rings (size 3 to 8) (size 9 to 14) (size 15 to 20)
#    0.000    0.533    6.667    3.600    3.733    1.867 
#    0.000    0.000    0.000    2.800    0.000    0.000 
#    0.000    0.000    0.000    0.000    0.000    0.000 
#
# Total GULP energy -167700.577008 kJ/mol
# GULP energy per Si atom -5590.019234 kJ/mol
# Density = 1.906983 g / cm^3
# Si number density = 19.113330 Si / 1000 Ang^3
#
#
#
# Elastic Constant Matrix: (Units=GPa)
#
#
# Indices 1 2 3 4 5 6 
#
# 1 54.0506 9.2114 -1.8021 0.0000 -14.6271 0.0000
# 2 9.2114 61.2838 8.2147 0.0000 -3.8366 0.0000
# 3 -1.8021 8.2147 50.9161 0.0000 -8.2945 0.0000
# 4 0.0000 0.0000 0.0000 15.6837 0.0000 -0.3239
# 5 -14.6271 -3.8366 -8.2945 0.0000 30.4775 0.0000
# 6 0.0000 0.0000 0.0000 -0.3239 0.0000 24.6794
#
#
#
# Elastic Compliance Matrix: (Units=1/GPa)
#
#
# Indices 1 2 3 4 5 6 
#
# 1 0.022118 -0.003044 0.003077 0.000000 0.011069 0.000000
# 2 -0.003044 0.017157 -0.002890 0.000000 -0.000088 0.000000
# 3 0.003077 -0.002890 0.021343 0.000000 0.006922 0.000000
# 4 0.000000 0.000000 0.000000 0.063778 0.000000 0.000837
# 5 0.011069 -0.000088 0.006922 0.000000 0.039996 0.000000
# 6 0.000000 0.000000 0.000000 0.000837 0.000000 0.040531
#
#
# Mechanical properties :
#
#
# Convention : Reuss Voigt Hill
#
# Bulk Modulus (GPa) = 18.21353 21.94428 20.07890
# Shear Modulus (GPa) = 21.83999 24.20989 23.02494
#
# Velocity S-wave (km/s) = 3.38399 3.56286 3.47458
# Velocity P-wave (km/s) = 4.98181 5.33211 5.15993
#
# Compressibility (1/GPa) = 0.05490425
#
# Stress axis : x y z
#
# Youngs Moduli (GPa) = 45.21179 58.28538 46.85394
#
# Poissons Ratio (x) = 0.17742 -0.14418
# Poissons Ratio (y) = 0.13762 0.13541
# Poissons Ratio (z) = -0.13913 0.16845
#
# Static dielectric constant tensor:
#      x y z
#    x 1.674440 0.000000 -0.013440 
#    y 0.000000 1.662340 0.000000 
#    z -0.013440 0.000000 1.714010 
# 
# From -- ./inp_files/133946.got.cif
#   From: 2010.05.17/outbox.cif.g08.bks.cpg/sg12_67_cif.got.tgz:133946.got - 2010.06.03 13:09:07.
