data_PCOD9219237
_publ_section_title
;
Structure prediction by ZEFSAII (Michael W. Deem and Ramdas Pophale) SiO2 
 PCOD9219237
Probable space group: C 2/M
;
_chemical_formula_sum "Si O2"
_cell_formula_units_Z 48
_cell_length_a 10.752408
_cell_length_b 25.650126
_cell_length_c 8.982031
_cell_angle_alpha 90.000000
_cell_angle_beta 90.841972
_cell_angle_gamma 90.000000
_cell_volume 2476.982244
_symmetry_space_group_name_H-M "C 2/M"
_symmetry_group_IT_number 12
_symmetry_cell_setting 'monoclinic'
loop_
_space_group_symop_operation_xyz
x,y,z
-x,y,-z
-x,-y,-z
x,-y,z
1/2+x,1/2+y,z
1/2-x,1/2+y,-z
1/2-x,1/2-y,-z
1/2+x,1/2-y,z
loop_
_atom_site_type_symbol
_atom_site_label
_atom_site_fract_x
_atom_site_fract_y
_atom_site_fract_z
Si Si1 0.130395 0.268600 0.590113
Si Si2 0.173259 0.440049 0.644094
Si Si3 0.762097 0.845029 0.788020
Si Si4 0.526833 0.732587 0.172730
Si Si5 0.373001 0.843576 0.909719
Si Si6 0.121892 0.561126 0.301217
O O1 0.250000 0.250000 0.500000
O O2 0.161638 0.323347 0.667516
O O3 0.000000 0.269879 0.500000
O O4 0.098526 0.233537 0.733503
O O5 0.205973 0.500000 0.664024
O O6 0.261619 0.405090 0.747320
O O7 0.176049 0.429091 0.467230
O O8 0.028419 0.434336 0.689246
O O9 0.884688 0.811849 0.763194
O O10 0.721804 0.834055 0.956521
O O11 0.594414 0.789713 0.176241
O O12 0.500000 0.723480 0.000000
O O13 0.336777 0.892541 0.807494
O O14 0.500000 0.857630 0.000000
O O15 0.148089 0.500000 0.261010
#
# Coordination Sequence:
#
# PCOD9219237 Si02
#       6
#     8   8   8   8   8   8
#     4  12  25  40  61  93 127 165 210 256 302 372
#     4   9  19  34  53  82 118 158 205 257 314 370
#     4  12  23  37  61  87 121 169 205 255 312 371
#     4  11  24  43  58  84 129 165 207 252 311 367
#     4  11  20  33  53  83 120 163 197 243 305 369
#     4   9  18  33  53  82 123 161 199 255 317 372
#
# _framework density 19.378419000000001
#
# number of rings (size 3 to 8) (size 9 to 14) (size 15 to 20)
#    0.000    1.333    6.667    1.500    4.667    1.000 
#    0.000    0.000    0.000    0.500    0.000    2.333 
#    0.000    0.000    0.000    0.000    0.000    0.000 
#
# Total GULP energy -133922.550185 kJ/mol
# GULP energy per Si atom -5580.106258 kJ/mol
# Density = 1.933431 g / cm^3
# Si number density = 19.378419 Si / 1000 Ang^3
#
#
#
# Elastic Constant Matrix: (Units=GPa)
#
#
# Indices 1 2 3 4 5 6 
#
# 1 58.4252 32.8767 35.3195 0.0000 -8.2497 0.0000
# 2 32.8767 85.2195 41.2244 0.0000 -4.2625 0.0000
# 3 35.3195 41.2244 90.1696 0.0000 -16.6030 0.0000
# 4 0.0000 0.0000 0.0000 41.4125 0.0000 8.3709
# 5 -8.2497 -4.2625 -16.6030 0.0000 27.6261 0.0000
# 6 0.0000 0.0000 0.0000 8.3709 0.0000 22.2814
#
#
#
# Elastic Compliance Matrix: (Units=1/GPa)
#
#
# Indices 1 2 3 4 5 6 
#
# 1 0.024938 -0.006418 -0.006347 0.000000 0.002642 0.000000
# 2 -0.006418 0.016821 -0.005680 0.000000 -0.002735 0.000000
# 3 -0.006347 -0.005680 0.017612 0.000000 0.007813 0.000000
# 4 0.000000 0.000000 0.000000 0.026132 0.000000 -0.009817
# 5 0.002642 -0.002735 0.007813 0.000000 0.041260 0.000000
# 6 0.000000 0.000000 0.000000 -0.009817 0.000000 0.048569
#
#
# Mechanical properties :
#
#
# Convention : Reuss Voigt Hill
#
# Bulk Modulus (GPa) = 44.48433 50.29506 47.38970
# Shear Modulus (GPa) = 22.75665 26.55690 24.65678
#
# Velocity S-wave (km/s) = 3.43057 3.70596 3.57092
# Velocity P-wave (km/s) = 6.22070 6.65753 6.44282
#
# Compressibility (1/GPa) = 0.02247983
#
# Stress axis : x y z
#
# Youngs Moduli (GPa) = 40.10006 59.44825 56.77957
#
# Poissons Ratio (x) = 0.38154 0.36040
# Poissons Ratio (y) = 0.25736 0.32252
# Poissons Ratio (z) = 0.25453 0.33768
#
# Static dielectric constant tensor:
#      x y z
#    x 1.694290 0.000000 -0.010400 
#    y 0.000000 1.696640 0.000000 
#    z -0.010400 0.000000 1.746280 
# 
# From -- ./inp_files/50584.got.cif
#   From: 2010.05.17/outbox.cif.g08.bks.cpg/sg12_26_cif.got.tgz:50584.got - 2010.06.03 13:09:07.
