data_PCOD9219618
_publ_section_title
;
Structure prediction by ZEFSAII (Michael W. Deem and Ramdas Pophale) SiO2 
 PCOD9219618
Probable space group: C 2/M
;
_chemical_formula_sum "Si O2"
_cell_formula_units_Z 56
_cell_length_a 23.619501
_cell_length_b 7.631193
_cell_length_c 17.243025
_cell_angle_alpha 90.000000
_cell_angle_beta 98.519452
_cell_angle_gamma 90.000000
_cell_volume 3073.674045
_symmetry_space_group_name_H-M "C 2/M"
_symmetry_group_IT_number 12
_symmetry_cell_setting 'monoclinic'
loop_
_space_group_symop_operation_xyz
x,y,z
-x,y,-z
-x,-y,-z
x,-y,z
1/2+x,1/2+y,z
1/2-x,1/2+y,-z
1/2-x,1/2-y,-z
1/2+x,1/2-y,z
loop_
_atom_site_type_symbol
_atom_site_label
_atom_site_fract_x
_atom_site_fract_y
_atom_site_fract_z
Si Si1 0.197743 0.199878 0.099835
Si Si2 0.459102 0.213778 0.379445
Si Si3 0.176634 0.209210 0.932107
Si Si4 0.245728 0.791005 0.262128
Si Si5 0.629246 0.211258 0.764653
Si Si6 0.581901 0.785836 0.459118
Si Si7 0.796226 0.707907 0.575219
O O1 0.264463 0.203681 0.085868
O O2 0.203002 0.280870 0.186599
O O3 0.177296 0.000000 0.104220
O O4 0.165642 0.274267 0.017618
O O5 0.423503 0.274670 0.297953
O O6 0.427341 0.264916 0.452942
O O7 0.525027 0.269588 0.401160
O O8 0.459553 0.000000 0.378439
O O9 0.130692 0.241111 0.855587
O O10 0.186947 0.000000 0.938552
O O11 0.310294 0.724676 0.259724
O O12 0.225022 0.764705 0.344775
O O13 0.248280 0.000000 0.249411
O O14 0.629254 0.000000 0.760014
O O15 0.641467 0.721238 0.436361
O O16 0.582574 0.000000 0.458685
O O17 0.801654 0.500000 0.579400
O O18 0.750000 0.750000 0.500000
#
# Coordination Sequence:
#
# PCOD9219618 Si02
#       7
#     8   8   8   8   8   8   8
#     4   8  15  27  40  55  80 114 146 173 203 243
#     4   8  13  25  45  63  79 104 138 174 209 243
#     4   9  15  23  38  60  85 111 138 171 210 249
#     4   9  17  29  43  61  86 114 142 170 203 246
#     4   9  16  26  42  64  88 112 138 170 210 253
#     4   8  15  27  43  62  81 104 139 177 206 238
#     4  11  21  31  44  64  88 112 139 171 206 246
#
# _framework density 18.219239000000002
#
# number of rings (size 3 to 8) (size 9 to 14) (size 15 to 20)
#    0.000    3.143    0.000    3.429    0.000    5.143 
#    0.000    0.000    0.000    1.714    0.000    7.000 
#    0.000    8.000    0.000    0.000    0.000    0.000 
#
# Total GULP energy -155890.648588 kJ/mol
# GULP energy per Si atom -5567.523164 kJ/mol
# Density = 1.817777 g / cm^3
# Si number density = 18.219239 Si / 1000 Ang^3
#
#
#
# Elastic Constant Matrix: (Units=GPa)
#
#
# Indices 1 2 3 4 5 6 
#
# 1 77.3537 1.9767 72.2878 0.0000 12.7264 0.0000
# 2 1.9767 39.7982 -1.7482 0.0000 1.6483 0.0000
# 3 72.2878 -1.7482 201.3518 0.0000 27.0007 0.0000
# 4 0.0000 0.0000 0.0000 21.6892 0.0000 -0.8932
# 5 12.7264 1.6483 27.0007 0.0000 27.2109 0.0000
# 6 0.0000 0.0000 0.0000 -0.8932 0.0000 9.4918
#
#
#
# Elastic Compliance Matrix: (Units=1/GPa)
#
#
# Indices 1 2 3 4 5 6 
#
# 1 0.019658 -0.001172 -0.006741 0.000000 -0.002434 0.000000
# 2 -0.001172 0.025301 0.000891 0.000000 -0.001869 0.000000
# 3 -0.006741 0.000891 0.008050 0.000000 -0.004889 0.000000
# 4 0.000000 0.000000 0.000000 0.046285 0.000000 0.004355
# 5 -0.002434 -0.001869 -0.004889 0.000000 0.042852 0.000000
# 6 0.000000 0.000000 0.000000 0.004355 0.000000 0.105764
#
#
# Mechanical properties :
#
#
# Convention : Reuss Voigt Hill
#
# Bulk Modulus (GPa) = 25.66394 51.50404 38.58399
# Shear Modulus (GPa) = 18.18559 28.07755 23.13157
#
# Velocity S-wave (km/s) = 3.16278 3.92994 3.56704
# Velocity P-wave (km/s) = 5.23969 6.99449 6.17970
#
# Compressibility (1/GPa) = 0.03896518
#
# Stress axis : x y z
#
# Youngs Moduli (GPa) = 50.87083 39.52335 124.22501
#
# Poissons Ratio (x) = 0.04631 0.83742
# Poissons Ratio (y) = 0.05960 -0.11067
# Poissons Ratio (z) = 0.34293 -0.03521
#
# Static dielectric constant tensor:
#      x y z
#    x 1.601740 0.000000 0.023470 
#    y 0.000000 1.676700 0.000000 
#    z 0.023470 0.000000 1.660970 
# 
# From -- ./inp_files/287074.got.cif
#   From: 2010.05.17/outbox.cif.g08.bks.cpg/sg12_144_cif.got.tgz:287074.got - 2010.06.03 13:09:07.
