data_PCOD9219558
_publ_section_title
;
Structure prediction by ZEFSAII (Michael W. Deem and Ramdas Pophale) SiO2 
 PCOD9219558
Probable space group: C 2/M
;
_chemical_formula_sum "Si O2"
_cell_formula_units_Z 48
_cell_length_a 14.994691
_cell_length_b 9.651106
_cell_length_c 16.701334
_cell_angle_alpha 90.000000
_cell_angle_beta 71.811425
_cell_angle_gamma 90.000000
_cell_volume 2296.175395
_symmetry_space_group_name_H-M "C 2/M"
_symmetry_group_IT_number 12
_symmetry_cell_setting 'monoclinic'
loop_
_space_group_symop_operation_xyz
x,y,z
-x,y,-z
-x,-y,-z
x,-y,z
1/2+x,1/2+y,z
1/2-x,1/2+y,-z
1/2-x,1/2-y,-z
1/2+x,1/2-y,z
loop_
_atom_site_type_symbol
_atom_site_label
_atom_site_fract_x
_atom_site_fract_y
_atom_site_fract_z
Si Si1 0.921461 0.204303 0.303105
Si Si2 0.722156 0.842236 0.431837
Si Si3 0.624922 0.000000 0.100747
Si Si4 0.740590 0.226456 0.151489
Si Si5 0.846420 0.500000 0.081486
Si Si6 0.566898 0.000000 0.766285
Si Si7 0.613602 0.664219 0.334595
Si Si8 0.885583 0.000000 0.186490
O O1 0.820130 0.145404 0.355806
O O2 0.905031 0.363850 0.288610
O O3 0.947899 0.120759 0.215929
O O4 0.003644 0.183494 0.344405
O O5 0.750000 0.750000 0.500000
O O6 0.647778 0.757249 0.399480
O O7 0.691108 0.000000 0.459072
O O8 0.683823 0.863393 0.103594
O O9 0.543896 0.000000 0.189559
O O10 0.594958 0.000000 0.016928
O O11 0.785146 0.361215 0.099573
O O12 0.673455 0.279127 0.242316
O O13 0.818823 0.122722 0.165695
O O14 0.894285 0.500000 0.154859
O O15 0.632375 0.500000 0.341728
#
# Coordination Sequence:
#
# PCOD9219558 Si02
#       8
#     8   8   4   8   4   4   8   4
#     4  12  24  42  69  95 131 172 219 271 321 382
#     4  12  27  47  68  99 137 169 210 265 329 387
#     4  11  25  40  60  94 134 169 214 281 327 387
#     4  11  22  39  65  92 126 171 223 265 321 390
#     4  12  22  40  62  92 132 173 215 272 341 382
#     4  12  24  39  66  95 126 168 230 270 318 389
#     4  12  23  41  71  98 127 172 222 264 317 387
#     4  11  20  41  64  92 123 171 217 266 323 369
#
# _framework density 20.904325
#
# number of rings (size 3 to 8) (size 9 to 14) (size 15 to 20)
#    0.000    0.333    7.500    1.250    4.667    0.667 
#    0.000    2.500    0.000    1.000    0.000    0.000 
#    0.000    0.000    0.000    0.000    0.000    0.000 
#
# Total GULP energy -133610.658283 kJ/mol
# GULP energy per Si atom -5567.110762 kJ/mol
# Density = 2.085675 g / cm^3
# Si number density = 20.904325 Si / 1000 Ang^3
#
#
#
# Elastic Constant Matrix: (Units=GPa)
#
#
# Indices 1 2 3 4 5 6 
#
# 1 79.3590 30.0734 9.0519 0.0000 37.1723 0.0000
# 2 30.0734 216.0382 30.3773 0.0000 23.3324 0.0000
# 3 9.0519 30.3773 45.4486 0.0000 27.9902 0.0000
# 4 0.0000 0.0000 0.0000 21.0446 0.0000 1.0088
# 5 37.1723 23.3324 27.9902 0.0000 34.0426 0.0000
# 6 0.0000 0.0000 0.0000 1.0088 0.0000 29.4506
#
#
#
# Elastic Compliance Matrix: (Units=1/GPa)
#
#
# Indices 1 2 3 4 5 6 
#
# 1 0.059049 -0.004655 0.058941 0.000000 -0.109750 0.000000
# 2 -0.004655 0.005509 -0.007212 0.000000 0.007236 0.000000
# 3 0.058941 -0.007212 0.104687 0.000000 -0.145492 0.000000
# 4 0.000000 0.000000 0.000000 0.047596 0.000000 -0.001630
# 5 -0.109750 0.007236 -0.145492 0.000000 0.263880 0.000000
# 6 0.000000 0.000000 0.000000 -0.001630 0.000000 0.034011
#
#
# Mechanical properties :
#
#
# Convention : Reuss Voigt Hill
#
# Bulk Modulus (GPa) = 3.79657 53.31679 28.55668
# Shear Modulus (GPa) = 9.83514 34.99711 22.41613
#
# Velocity S-wave (km/s) = 2.17142 4.09608 3.27818
# Velocity P-wave (km/s) = 2.84725 6.92323 5.29329
#
# Compressibility (1/GPa) = 0.26339578
#
# Stress axis : x y z
#
# Youngs Moduli (GPa) = 16.93500 181.51165 9.55228
#
# Poissons Ratio (x) = 0.84485 -0.56302
# Poissons Ratio (y) = 0.07882 0.06889
# Poissons Ratio (z) = -0.99817 1.30900
#
# Static dielectric constant tensor:
#      x y z
#    x 1.773640 0.000000 -0.015300 
#    y 0.000000 1.753060 0.000000 
#    z -0.015300 0.000000 1.791600 
# 
# From -- ./inp_files/267762.got.cif
#   From: 2010.05.17/outbox.cif.g08.bks.cpg/sg12_134_cif.got.tgz:267762.got - 2010.06.03 13:09:07.
