data_PCOD9219125
_publ_section_title
;
Structure prediction by ZEFSAII (Michael W. Deem and Ramdas Pophale) SiO2 
 PCOD9219125
Probable space group: C 2/M
;
_chemical_formula_sum "Si O2"
_cell_formula_units_Z 64
_cell_length_a 19.530274
_cell_length_b 7.510436
_cell_length_c 21.522132
_cell_angle_alpha 90.000000
_cell_angle_beta 93.117891
_cell_angle_gamma 90.000000
_cell_volume 3152.212083
_symmetry_space_group_name_H-M "C 2/M"
_symmetry_group_IT_number 12
_symmetry_cell_setting 'monoclinic'
loop_
_space_group_symop_operation_xyz
x,y,z
-x,y,-z
-x,-y,-z
x,-y,z
1/2+x,1/2+y,z
1/2-x,1/2+y,-z
1/2-x,1/2-y,-z
1/2+x,1/2-y,z
loop_
_atom_site_type_symbol
_atom_site_label
_atom_site_fract_x
_atom_site_fract_y
_atom_site_fract_z
Si Si1 0.469391 0.206441 0.883692
Si Si2 0.580575 0.781206 0.369834
Si Si3 0.642163 0.785078 0.030806
Si Si4 0.874760 0.202655 0.108170
Si Si5 0.169391 0.713618 0.492130
Si Si6 0.547334 0.206607 0.564581
Si Si7 0.761943 0.716923 0.848730
Si Si8 0.120245 0.717668 0.234605
O O1 0.430551 0.275602 0.942943
O O2 0.550473 0.214136 0.889072
O O3 0.436321 0.278513 0.818675
O O4 0.448720 0.000000 0.882503
O O5 0.634395 0.725620 0.425907
O O6 0.504160 0.719280 0.385939
O O7 0.603678 0.722276 0.303008
O O8 0.579102 0.000000 0.370468
O O9 0.696537 0.735147 0.086602
O O10 0.643532 0.000000 0.022547
O O11 0.653057 0.706503 0.963701
O O12 0.815548 0.282259 0.148470
O O13 0.885929 0.000000 0.128180
O O14 0.161594 0.500000 0.492673
O O15 0.250000 0.750000 0.500000
O O16 0.120499 0.782485 0.545932
O O17 0.500000 0.208970 0.500000
O O18 0.559239 0.000000 0.582108
O O19 0.759777 0.500000 0.848364
O O20 0.807080 0.771571 0.791940
O O21 0.119834 0.500000 0.236884
#
# Coordination Sequence:
#
# PCOD9219125 Si02
#       8
#     8   8   8   8   8   8   8   8
#     4   9  18  31  46  63  83 108 139 179 219 249
#     4   8  13  24  46  68  81 107 153 188 204 234
#     4   9  17  31  48  62  80 109 144 177 210 252
#     4  11  20  28  42  65  90 111 133 169 219 267
#     4   9  16  26  42  67  97 119 137 171 216 254
#     4   7  11  21  38  61  86 110 139 175 208 234
#     4   8  16  29  43  61  85 112 140 174 216 255
#     4   8  14  28  48  64  79 107 151 188 206 237
#
# _framework density 20.303203
#
# number of rings (size 3 to 8) (size 9 to 14) (size 15 to 20)
#    0.000    3.375    0.000    4.125    0.000    2.000 
#    0.000    1.875    0.000    5.625    0.000    0.000 
#    0.000    0.000    0.000    0.000    0.000    0.000 
#
# Total GULP energy -178258.129813 kJ/mol
# GULP energy per Si atom -5570.566557 kJ/mol
# Density = 2.025699 g / cm^3
# Si number density = 20.303203 Si / 1000 Ang^3
#
#
#
# Elastic Constant Matrix: (Units=GPa)
#
#
# Indices 1 2 3 4 5 6 
#
# 1 141.6152 -2.8013 50.5537 0.0000 -40.2661 0.0000
# 2 -2.8013 48.4521 -1.3492 0.0000 0.2478 0.0000
# 3 50.5537 -1.3492 100.7215 0.0000 -38.9269 0.0000
# 4 0.0000 0.0000 0.0000 -0.7889 0.0000 -4.0313
# 5 -40.2661 0.2478 -38.9269 0.0000 27.3951 0.0000
# 6 0.0000 0.0000 0.0000 -4.0313 0.0000 6.8799
#
#
#
# Elastic Compliance Matrix: (Units=1/GPa)
#
#
# Indices 1 2 3 4 5 6 
#
# 1 0.012298 0.000656 0.001819 0.000000 0.020654 0.000000
# 2 0.000656 0.020684 0.000550 0.000000 0.001559 0.000000
# 3 0.001819 0.000550 0.022301 0.000000 0.034357 0.000000
# 4 0.000000 0.000000 0.000000 -0.317356 0.000000 -0.185958
# 5 0.020654 0.001559 0.034357 0.000000 0.115666 0.000000
# 6 0.000000 0.000000 0.000000 -0.185958 0.000000 0.036388
#
#
# Mechanical properties :
#
#
# Convention : Reuss Voigt Hill
#
# Bulk Modulus (GPa) = 16.30425 42.62169 29.46297
# Shear Modulus (GPa) = -52.28813 22.98959 -14.64927
#
# Velocity S-wave (km/s) = -5.08031 3.36864 -2.68904
# Velocity P-wave (km/s) = 5.13468 6.01402 2.21399
#
# Compressibility (1/GPa) = 0.06133371
#
# Stress axis : x y z
#
# Youngs Moduli (GPa) = 81.31550 48.34602 44.84051
#
# Poissons Ratio (x) = -0.03172 -0.08155
# Poissons Ratio (y) = -0.05335 -0.02468
# Poissons Ratio (z) = -0.14789 -0.02661
#
# Static dielectric constant tensor:
#      x y z
#    x 1.745760 0.000000 -0.036650 
#    y 0.000000 1.796040 0.000000 
#    z -0.036650 0.000000 1.701640 
# 
# From -- ./inp_files/319150.got.cif
#   From: 2010.05.17/outbox.cif.g08.bks.cpg/sg12_160_cif.got.tgz:319150.got - 2010.06.03 13:09:07.
