data_PCOD9219918
_publ_section_title
;
Structure prediction by ZEFSAII (Michael W. Deem and Ramdas Pophale) SiO2 
 PCOD9219918
Probable space group: C 2/M
;
_chemical_formula_sum "Si O2"
_cell_formula_units_Z 44
_cell_length_a 8.684815
_cell_length_b 18.132998
_cell_length_c 18.275981
_cell_angle_alpha 90.000000
_cell_angle_beta 46.493503
_cell_angle_gamma 90.000000
_cell_volume 2087.499364
_symmetry_space_group_name_H-M "C 2/M"
_symmetry_group_IT_number 12
_symmetry_cell_setting 'monoclinic'
loop_
_space_group_symop_operation_xyz
x,y,z
-x,y,-z
-x,-y,-z
x,-y,z
1/2+x,1/2+y,z
1/2-x,1/2+y,-z
1/2-x,1/2-y,-z
1/2+x,1/2-y,z
loop_
_atom_site_type_symbol
_atom_site_label
_atom_site_fract_x
_atom_site_fract_y
_atom_site_fract_z
Si Si1 0.481819 0.261829 0.889703
Si Si2 0.098458 0.500000 0.691955
Si Si3 0.000000 0.124046 0.000000
Si Si4 0.682949 0.000000 0.096077
Si Si5 0.647450 0.341843 0.210686
Si Si6 0.963318 0.121474 0.594795
Si Si7 0.323873 0.000000 0.495851
Si Si8 0.301294 0.000000 0.123141
O O1 0.466940 0.291146 0.812235
O O2 0.613219 0.188187 0.859362
O O3 0.250000 0.250000 0.000000
O O4 0.583316 0.325038 0.907703
O O5 0.250946 0.570545 0.658706
O O6 0.059274 0.500000 0.619047
O O7 0.864061 0.500000 0.803015
O O8 0.183344 0.070793 0.970021
O O9 0.442330 0.000000 0.149752
O O10 0.558918 0.334035 0.322127
O O11 0.664486 0.425202 0.173013
O O12 0.000000 0.153046 0.500000
O O13 0.163417 0.068900 0.546429
O O14 0.500000 0.000000 0.500000
O O15 0.500000 0.000000 0.000000
#
# Coordination Sequence:
#
# PCOD9219918 Si02
#       8
#     8   4   4   4   8   8   4   4
#     4  12  24  42  61  89 130 178 218 259 330 404
#     4   9  17  34  61  85 128 167 207 256 332 396
#     4  11  24  38  58  91 136 166 214 279 314 388
#     4  11  21  36  60  95 125 164 216 269 324 360
#     4  12  24  41  69  91 129 176 223 265 333 395
#     4   9  19  38  61  92 123 169 220 266 322 401
#     4   9  18  34  60  96 133 158 202 282 344 378
#     4  12  22  36  63  96 125 163 220 272 313 386
#
# _framework density 21.077853000000001
#
# number of rings (size 3 to 8) (size 9 to 14) (size 15 to 20)
#    0.000    1.273    3.636    4.909    0.000    2.182 
#    0.000    2.727    0.000    0.000    0.000    0.000 
#    0.000    0.000    0.000    0.000    0.000    0.000 
#
# Total GULP energy -122680.751309 kJ/mol
# GULP energy per Si atom -5576.397787 kJ/mol
# Density = 2.102988 g / cm^3
# Si number density = 21.077853 Si / 1000 Ang^3
#
#
#
# Elastic Constant Matrix: (Units=GPa)
#
#
# Indices 1 2 3 4 5 6 
#
# 1 78.3139 13.3068 5.8327 0.0001 29.5439 -0.0002
# 2 13.3068 67.8793 11.9484 0.0000 6.8653 -0.0001
# 3 5.8327 11.9484 103.3531 0.0000 31.1449 -0.0001
# 4 0.0001 0.0000 0.0000 21.0269 0.0000 14.6617
# 5 29.5439 6.8653 31.1449 0.0000 38.7361 0.0001
# 6 -0.0002 -0.0001 -0.0001 14.6617 0.0001 10.7949
#
#
#
# Elastic Compliance Matrix: (Units=1/GPa)
#
#
# Indices 1 2 3 4 5 6 
#
# 1 0.019880 -0.002868 0.004785 -0.000008 -0.018501 0.000011
# 2 -0.002868 0.015534 -0.001932 0.000000 0.000987 0.000000
# 3 0.004785 -0.001932 0.014023 -0.000004 -0.014582 0.000006
# 4 -0.000008 0.000000 -0.000004 0.898152 0.000011 -1.219871
# 5 -0.018501 0.000987 -0.014582 0.000011 0.051476 -0.000016
# 6 0.000011 0.000000 0.000006 -1.219871 -0.000016 1.749467
#
#
# Mechanical properties :
#
#
# Convention : Reuss Voigt Hill
#
# Bulk Modulus (GPa) = 20.24001 34.63580 27.43791
# Shear Modulus (GPa) = 1.80830 28.67547 15.24188
#
# Velocity S-wave (km/s) = 0.92724 3.69244 2.69201
# Velocity P-wave (km/s) = 3.28172 5.88615 4.76532
#
# Compressibility (1/GPa) = 0.04940709
#
# Stress axis : x y z
#
# Youngs Moduli (GPa) = 50.30294 64.37309 71.31129
#
# Poissons Ratio (x) = 0.18463 -0.34121
# Poissons Ratio (y) = 0.14428 0.13774
# Poissons Ratio (z) = -0.24069 0.12434
#
# Static dielectric constant tensor:
#      x y z
#    x 1.856840 0.000000 0.120880 
#    y 0.000000 1.793110 0.000000 
#    z 0.120880 0.000000 1.939360 
# 
# From -- ./inp_files/195616.got.cif
#   From: 2010.05.17/outbox.cif.g08.bks.cpg/sg12_98_cif.got.tgz:195616.got - 2010.06.03 13:09:07.
