data_PCOD9219540
_publ_section_title
;
Structure prediction by ZEFSAII (Michael W. Deem and Ramdas Pophale) SiO2 
 PCOD9219540
Probable space group: C 2/M
;
_chemical_formula_sum "Si O2"
_cell_formula_units_Z 48
_cell_length_a 8.428071
_cell_length_b 15.065543
_cell_length_c 18.152987
_cell_angle_alpha 90.000000
_cell_angle_beta 80.971180
_cell_angle_gamma 90.000000
_cell_volume 2276.388290
_symmetry_space_group_name_H-M "C 2/M"
_symmetry_group_IT_number 12
_symmetry_cell_setting 'monoclinic'
loop_
_space_group_symop_operation_xyz
x,y,z
-x,y,-z
-x,-y,-z
x,-y,z
1/2+x,1/2+y,z
1/2-x,1/2+y,-z
1/2-x,1/2-y,-z
1/2+x,1/2-y,z
loop_
_atom_site_type_symbol
_atom_site_label
_atom_site_fract_x
_atom_site_fract_y
_atom_site_fract_z
Si Si1 0.917465 0.353158 0.081661
Si Si2 0.355253 0.799124 0.554008
Si Si3 0.866587 0.902700 0.229890
Si Si4 0.932499 0.776172 0.337367
Si Si5 0.460254 0.650051 0.922448
Si Si6 0.988148 0.602449 0.245610
O O1 0.727547 0.354414 0.081267
O O2 0.983146 0.252654 0.083622
O O3 0.948523 0.392249 0.161213
O O4 0.000000 0.389955 0.000000
O O5 0.500000 0.848698 0.500000
O O6 0.250000 0.750000 0.500000
O O7 0.217804 0.833064 0.618699
O O8 0.448096 0.734494 0.603507
O O9 0.980143 0.834331 0.264678
O O10 0.678898 0.877156 0.239640
O O11 0.933950 0.901604 0.143428
O O12 0.878963 0.000000 0.262031
O O13 0.904470 0.677659 0.303855
O O14 0.500000 0.615760 0.000000
O O15 0.959427 0.500000 0.271764
#
# Coordination Sequence:
#
# PCOD9219540 Si02
#       6
#     8   8   8   8   8   8
#     4  11  22  38  61  88 124 170 218 265 316 366
#     4   9  20  38  68  98 121 161 206 242 309 383
#     4  11  24  40  62  94 129 169 214 260 317 368
#     4  11  20  40  67  92 128 165 201 256 310 367
#     4  11  22  38  61  88 124 170 217 266 317 365
#     4  11  24  40  62  94 128 170 215 258 315 372
#
# _framework density 21.086034000000001
#
# number of rings (size 3 to 8) (size 9 to 14) (size 15 to 20)
#    0.000    1.333    3.333    4.000    2.333    1.333 
#    0.000    0.000    0.000   20.000    0.000    0.000 
#    0.000    0.000    0.000    0.000    0.000    0.000 
#
# Total GULP energy -133629.790604 kJ/mol
# GULP energy per Si atom -5567.907942 kJ/mol
# Density = 2.103804 g / cm^3
# Si number density = 21.086034 Si / 1000 Ang^3
#
#
#
# Elastic Constant Matrix: (Units=GPa)
#
#
# Indices 1 2 3 4 5 6 
#
# 1 71.4361 7.4077 26.1917 0.0000 14.7938 0.0000
# 2 7.4077 72.9830 28.8145 0.0000 5.5179 0.0000
# 3 26.1917 28.8145 128.2340 0.0000 22.0099 0.0000
# 4 0.0000 0.0000 0.0000 -6.8505 0.0000 -1.3817
# 5 14.7938 5.5179 22.0099 0.0000 51.0595 0.0000
# 6 0.0000 0.0000 0.0000 -1.3817 0.0000 13.7629
#
#
#
# Elastic Compliance Matrix: (Units=1/GPa)
#
#
# Indices 1 2 3 4 5 6 
#
# 1 0.015671 -0.000329 -0.002542 0.000000 -0.003409 0.000000
# 2 -0.000329 0.015044 -0.003294 0.000000 -0.000110 0.000000
# 3 -0.002542 -0.003294 0.009579 0.000000 -0.003037 0.000000
# 4 0.000000 0.000000 0.000000 -0.143077 0.000000 -0.014364
# 5 -0.003409 -0.000110 -0.003037 0.000000 0.021894 0.000000
# 6 0.000000 0.000000 0.000000 -0.014364 0.000000 0.071217
#
#
# Mechanical properties :
#
#
# Convention : Reuss Voigt Hill
#
# Bulk Modulus (GPa) = 35.76130 44.16455 39.96292
# Shear Modulus (GPa) = 417.41013 25.61032 221.51022
#
# Velocity S-wave (km/s) = 14.08494 3.48884 10.26054
# Velocity P-wave (km/s) = 16.77827 6.10080 12.62399
#
# Compressibility (1/GPa) = 0.02796319
#
# Stress axis : x y z
#
# Youngs Moduli (GPa) = 63.81408 66.47083 104.39731
#
# Poissons Ratio (x) = 0.02189 0.26533
# Poissons Ratio (y) = 0.02102 0.34391
# Poissons Ratio (z) = 0.16219 0.21897
#
# Static dielectric constant tensor:
#      x y z
#    x 1.790420 0.000000 -0.039960 
#    y 0.000000 1.741840 0.000000 
#    z -0.039960 0.000000 1.808340 
# 
# From -- ./inp_files/255768.got.cif
#   From: 2010.05.17/outbox.cif.g08.bks.cpg/sg12_128_cif.got.tgz:255768.got - 2010.06.03 13:09:07.
