data_PCOD9219951
_publ_section_title
;
Structure prediction by ZEFSAII (Michael W. Deem and Ramdas Pophale) SiO2 
 PCOD9219951
Probable space group: C 2/M
;
_chemical_formula_sum "Si O2"
_cell_formula_units_Z 64
_cell_length_a 22.377547
_cell_length_b 20.824317
_cell_length_c 8.855918
_cell_angle_alpha 90.000000
_cell_angle_beta 55.548626
_cell_angle_gamma 90.000000
_cell_volume 3403.013193
_symmetry_space_group_name_H-M "C 2/M"
_symmetry_group_IT_number 12
_symmetry_cell_setting 'monoclinic'
loop_
_space_group_symop_operation_xyz
x,y,z
-x,y,-z
-x,-y,-z
x,-y,z
1/2+x,1/2+y,z
1/2-x,1/2+y,-z
1/2-x,1/2-y,-z
1/2+x,1/2-y,z
loop_
_atom_site_type_symbol
_atom_site_label
_atom_site_fract_x
_atom_site_fract_y
_atom_site_fract_z
Si Si1 0.710347 0.849126 0.571759
Si Si2 0.654998 0.720277 0.480824
Si Si3 0.500811 0.264666 0.177356
Si Si4 0.849379 0.219919 0.877985
Si Si5 0.355826 0.927073 0.565843
Si Si6 0.847985 0.572301 0.081921
Si Si7 0.787989 0.645586 0.927624
Si Si8 0.999630 0.610306 0.179574
O O1 0.678792 0.788198 0.524354
O O2 0.786201 0.829151 0.536346
O O3 0.707727 0.908524 0.460977
O O4 0.657656 0.873864 0.780199
O O5 0.573127 0.708265 0.648483
O O6 0.654669 0.720061 0.299239
O O7 0.572223 0.288996 0.161674
O O8 0.499686 0.187100 0.197428
O O9 0.500000 0.277779 0.000000
O O10 0.821135 0.291147 0.960112
O O11 0.789936 0.168810 0.019202
O O12 0.341651 0.877918 0.721141
O O13 0.431874 0.916291 0.370261
O O14 0.351162 0.000000 0.624081
O O15 0.843626 0.500000 0.147405
O O16 0.784719 0.589461 0.055133
O O17 0.923063 0.581450 0.884520
O O18 0.000000 0.593885 0.000000
#
# Coordination Sequence:
#
# PCOD9219951 Si02
#       8
#     8   8   8   8   8   8   8   8
#     4  11  22  37  61  90 117 159 211 250 294 350
#     4  11  22  38  61  87 123 156 198 255 306 362
#     4  11  22  36  62  92 120 156 195 249 311 367
#     4  11  22  39  62  84 123 158 196 255 315 356
#     4  12  24  39  58  86 125 168 207 246 291 349
#     4  12  23  39  59  84 125 169 207 244 288 354
#     4  11  24  39  58  88 118 160 206 251 304 355
#     4  11  21  37  55  87 122 161 207 238 284 357
#
# _framework density 18.806861999999999
#
# number of rings (size 3 to 8) (size 9 to 14) (size 15 to 20)
#    0.000    0.750    6.250    2.250    1.750    1.000 
#    0.000    1.250    0.000    0.000    0.000    5.250 
#    0.000    0.000    0.000    0.000    0.000    0.000 
#
# Total GULP energy -178640.681722 kJ/mol
# GULP energy per Si atom -5582.521304 kJ/mol
# Density = 1.876406 g / cm^3
# Si number density = 18.806862 Si / 1000 Ang^3
#
#
#
# Elastic Constant Matrix: (Units=GPa)
#
#
# Indices 1 2 3 4 5 6 
#
# 1 130.0033 30.1655 33.6082 0.0000 -16.0876 0.0000
# 2 30.1655 67.4701 33.3113 0.0000 -10.4066 0.0000
# 3 33.6082 33.3113 85.4505 0.0000 -10.1457 0.0000
# 4 0.0000 0.0000 0.0000 14.9688 0.0000 2.1497
# 5 -16.0876 -10.4066 -10.1457 0.0000 32.8173 0.0000
# 6 0.0000 0.0000 0.0000 2.1497 0.0000 18.7933
#
#
#
# Elastic Compliance Matrix: (Units=1/GPa)
#
#
# Indices 1 2 3 4 5 6 
#
# 1 0.009246 -0.002538 -0.002289 0.000000 0.003020 0.000000
# 2 -0.002538 0.019505 -0.006248 0.000000 0.003009 0.000000
# 3 -0.002289 -0.006248 0.015229 0.000000 0.001605 0.000000
# 4 0.000000 0.000000 0.000000 0.067921 0.000000 -0.007769
# 5 0.003020 0.003009 0.001605 0.000000 0.033403 0.000000
# 6 0.000000 0.000000 0.000000 -0.007769 0.000000 0.054099
#
#
# Mechanical properties :
#
#
# Convention : Reuss Voigt Hill
#
# Bulk Modulus (GPa) = 45.80687 53.01042 49.40864
# Shear Modulus (GPa) = 21.85020 25.70514 23.77767
#
# Velocity S-wave (km/s) = 3.41225 3.70103 3.55957
# Velocity P-wave (km/s) = 6.31933 6.81993 6.57440
#
# Compressibility (1/GPa) = 0.02183079
#
# Stress axis : x y z
#
# Youngs Moduli (GPa) = 108.14917 51.26840 65.66384
#
# Poissons Ratio (x) = 0.13013 0.15028
# Poissons Ratio (y) = 0.27451 0.41028
# Poissons Ratio (z) = 0.24751 0.32033
#
# Static dielectric constant tensor:
#      x y z
#    x 1.712020 0.000000 0.037890 
#    y 0.000000 1.639290 0.000000 
#    z 0.037890 0.000000 1.692450 
# 
# From -- ./inp_files/99061.got.cif
#   From: 2010.05.17/outbox.cif.g08.bks.cpg/sg12_50_cif.got.tgz:99061.got - 2010.06.03 13:09:07.
