data_PCOD9219805
_publ_section_title
;
Structure prediction by ZEFSAII (Michael W. Deem and Ramdas Pophale) SiO2 
 PCOD9219805
Probable space group: C 2/M
;
_chemical_formula_sum "Si O2"
_cell_formula_units_Z 48
_cell_length_a 27.746565
_cell_length_b 20.535813
_cell_length_c 12.328914
_cell_angle_alpha 90.000000
_cell_angle_beta 159.634312
_cell_angle_gamma 90.000000
_cell_volume 2444.772941
_symmetry_space_group_name_H-M "C 2/M"
_symmetry_group_IT_number 12
_symmetry_cell_setting 'monoclinic'
loop_
_space_group_symop_operation_xyz
x,y,z
-x,y,-z
-x,-y,-z
x,-y,z
1/2+x,1/2+y,z
1/2-x,1/2+y,-z
1/2-x,1/2-y,-z
1/2+x,1/2-y,z
loop_
_atom_site_type_symbol
_atom_site_label
_atom_site_fract_x
_atom_site_fract_y
_atom_site_fract_z
Si Si1 0.066880 0.427489 0.520253
Si Si2 0.159281 0.290467 0.224203
Si Si3 0.541464 0.428774 0.213316
Si Si4 0.922006 0.206920 0.630986
Si Si5 0.625232 0.787084 0.680591
Si Si6 0.628146 0.070910 0.102105
O O1 0.130566 0.500000 0.638049
O O2 0.156550 0.361207 0.707672
O O3 0.000000 0.429853 0.500000
O O4 0.953636 0.419230 0.184391
O O5 0.250000 0.250000 0.500000
O O6 0.264216 0.293808 0.342124
O O7 0.118002 0.365578 0.156021
O O8 0.019542 0.251564 0.910103
O O9 0.482168 0.500000 0.117837
O O10 0.511856 0.365181 0.221802
O O11 0.707341 0.433952 0.570123
O O12 0.500000 0.415932 0.000000
O O13 0.922730 0.241355 0.517925
O O14 0.500000 0.793051 0.500000
O O15 0.750000 0.750000 0.000000
O O16 0.583147 0.000000 0.050641
#
# Coordination Sequence:
#
# PCOD9219805 Si02
#       6
#     8   8   8   8   8   8
#     4   9  18  33  56  83 108 142 194 244 279 323
#     4  11  21  35  56  84 113 148 188 233 281 337
#     4   9  18  32  53  82 112 147 193 238 276 326
#     4  11  21  36  57  82 113 150 185 233 286 334
#     4  11  23  38  59  86 117 149 187 235 289 342
#     4   9  17  32  54  80 110 145 190 241 278 321
#
# _framework density 19.633724999999998
#
# number of rings (size 3 to 8) (size 9 to 14) (size 15 to 20)
#    0.000    2.000    1.667    3.500    7.000    0.000 
#    0.000    0.000    0.000    9.000    0.000    0.000 
#    0.000    0.000    0.000    0.000    0.000    0.000 
#
# Total GULP energy -133618.644922 kJ/mol
# GULP energy per Si atom -5567.443538 kJ/mol
# Density = 1.958904 g / cm^3
# Si number density = 19.633725 Si / 1000 Ang^3
#
#
#
# Elastic Constant Matrix: (Units=GPa)
#
#
# Indices 1 2 3 4 5 6 
#
# 1 48.2964 33.5724 3.9187 0.0000 -11.9118 0.0000
# 2 33.5724 240.8980 44.1953 0.0000 -25.6408 0.0000
# 3 3.9187 44.1953 86.5559 0.0000 -18.1255 0.0000
# 4 0.0000 0.0000 0.0000 33.8653 0.0000 -6.9837
# 5 -11.9118 -25.6408 -18.1255 0.0000 32.2733 0.0000
# 6 0.0000 0.0000 0.0000 -6.9837 0.0000 37.7082
#
#
#
# Elastic Compliance Matrix: (Units=1/GPa)
#
#
# Indices 1 2 3 4 5 6 
#
# 1 0.024533 -0.002958 0.002044 0.000000 0.007853 0.000000
# 2 -0.002958 0.005144 -0.002114 0.000000 0.001808 0.000000
# 3 0.002044 -0.002114 0.013992 0.000000 0.006933 0.000000
# 4 0.000000 0.000000 0.000000 0.030701 0.000000 0.005686
# 5 0.007853 0.001808 0.006933 0.000000 0.039214 0.000000
# 6 0.000000 0.000000 0.000000 0.005686 0.000000 0.027572
#
#
# Mechanical properties :
#
#
# Convention : Reuss Voigt Hill
#
# Bulk Modulus (GPa) = 26.58695 59.90255 43.24475
# Shear Modulus (GPa) = 31.29912 40.37362 35.83637
#
# Velocity S-wave (km/s) = 3.99701 4.53961 4.27692
# Velocity P-wave (km/s) = 5.90528 7.61930 6.81638
#
# Compressibility (1/GPa) = 0.03761244
#
# Stress axis : x y z
#
# Youngs Moduli (GPa) = 40.76189 194.41643 71.46995
#
# Poissons Ratio (x) = 0.57512 -0.14610
# Poissons Ratio (y) = 0.12058 0.15108
# Poissons Ratio (z) = -0.08332 0.41097
#
# Static dielectric constant tensor:
#      x y z
#    x 1.711650 0.000000 0.000220 
#    y 0.000000 1.799740 0.000000 
#    z 0.000220 0.000000 1.647660 
# 
# From -- ./inp_files/132454.got.cif
#   From: 2010.05.17/outbox.cif.g08.bks.cpg/sg12_67_cif.got.tgz:132454.got - 2010.06.03 13:09:07.
