data_PCOD9219648
_publ_section_title
;
Structure prediction by ZEFSAII (Michael W. Deem and Ramdas Pophale) SiO2 
 PCOD9219648
Probable space group: C 2/M
;
_chemical_formula_sum "Si O2"
_cell_formula_units_Z 56
_cell_length_a 23.825921
_cell_length_b 7.926025
_cell_length_c 18.910680
_cell_angle_alpha 90.000000
_cell_angle_beta 126.178799
_cell_angle_gamma 90.000000
_cell_volume 2882.584363
_symmetry_space_group_name_H-M "C 2/M"
_symmetry_group_IT_number 12
_symmetry_cell_setting 'monoclinic'
loop_
_space_group_symop_operation_xyz
x,y,z
-x,y,-z
-x,-y,-z
x,-y,z
1/2+x,1/2+y,z
1/2-x,1/2+y,-z
1/2-x,1/2-y,-z
1/2+x,1/2-y,z
loop_
_atom_site_type_symbol
_atom_site_label
_atom_site_fract_x
_atom_site_fract_y
_atom_site_fract_z
Si Si1 0.437889 0.206596 0.403265
Si Si2 0.992015 0.199354 0.843131
Si Si3 0.712847 0.199810 0.880982
Si Si4 0.939416 0.295272 0.241037
Si Si5 0.214495 0.697956 0.710814
Si Si6 0.136685 0.195761 0.008934
Si Si7 0.638894 0.810426 0.166518
O O1 0.500000 0.262149 0.500000
O O2 0.448399 0.256304 0.329217
O O3 0.360712 0.262301 0.369766
O O4 0.436424 0.000000 0.402631
O O5 0.001360 0.230990 0.766976
O O6 0.924566 0.277752 0.828497
O O7 0.989097 0.000000 0.855743
O O8 0.064033 0.271815 0.929247
O O9 0.636532 0.267656 0.843492
O O10 0.712057 0.212945 0.794583
O O11 0.788396 0.272205 0.958799
O O12 0.713723 0.000000 0.897588
O O13 0.937768 0.500000 0.238182
O O14 0.219733 0.500000 0.697745
O O15 0.286176 0.782921 0.741761
O O16 0.134878 0.198248 0.093071
O O17 0.137551 0.000000 0.987453
O O18 0.635600 0.000000 0.136693
#
# Coordination Sequence:
#
# PCOD9219648 Si02
#       7
#     8   8   8   8   8   8   8
#     4   8  14  28  55  85 104 122 151 187 233 291
#     4  11  22  33  46  65  94 132 168 201 239 284
#     4   7  12  26  46  65  89 122 154 186 230 278
#     4   9  17  30  48  71 100 128 155 191 234 283
#     4   8  14  28  50  73  98 126 155 189 231 282
#     4   9  18  33  50  67  90 125 167 205 241 282
#     4  11  21  32  48  69  94 125 165 208 242 276
#
# _framework density 19.427011
#
# number of rings (size 3 to 8) (size 9 to 14) (size 15 to 20)
#    0.000    3.000    0.000    4.714    0.000    3.429 
#    0.000    6.429    0.000    2.571    0.000    0.000 
#    0.000    0.000    0.000    0.000    0.000    0.000 
#
# Total GULP energy -156073.405985 kJ/mol
# GULP energy per Si atom -5574.050214 kJ/mol
# Density = 1.938279 g / cm^3
# Si number density = 19.427011 Si / 1000 Ang^3
#
#
#
# Elastic Constant Matrix: (Units=GPa)
#
#
# Indices 1 2 3 4 5 6 
#
# 1 139.0923 3.9572 47.4356 0.0000 22.4658 0.0000
# 2 3.9572 30.3248 6.1871 0.0000 8.8514 0.0000
# 3 47.4356 6.1871 104.3868 0.0000 24.6399 0.0000
# 4 0.0000 0.0000 0.0000 5.1391 0.0000 -4.8769
# 5 22.4658 8.8514 24.6399 0.0000 21.2222 0.0000
# 6 0.0000 0.0000 0.0000 -4.8769 0.0000 16.2004
#
#
#
# Elastic Compliance Matrix: (Units=1/GPa)
#
#
# Indices 1 2 3 4 5 6 
#
# 1 0.009208 0.001485 -0.002514 0.000000 -0.007447 0.000000
# 2 0.001485 0.038101 0.001638 0.000000 -0.019365 0.000000
# 3 -0.002514 0.001638 0.013993 0.000000 -0.014268 0.000000
# 4 0.000000 0.000000 0.000000 0.272409 0.000000 0.082005
# 5 -0.007447 -0.019365 -0.014268 0.000000 0.079647 0.000000
# 6 0.000000 0.000000 0.000000 0.082005 0.000000 0.086413
#
#
# Mechanical properties :
#
#
# Convention : Reuss Voigt Hill
#
# Bulk Modulus (GPa) = 15.99508 43.21818 29.60663
# Shear Modulus (GPa) = 9.62663 22.92727 16.27695
#
# Velocity S-wave (km/s) = 2.22846 3.43909 2.89771
# Velocity P-wave (km/s) = 3.85651 6.16965 5.14477
#
# Compressibility (1/GPa) = 0.06251921
#
# Stress axis : x y z
#
# Youngs Moduli (GPa) = 108.60656 26.24618 71.46366
#
# Poissons Ratio (x) = -0.03898 0.17967
# Poissons Ratio (y) = -0.16131 -0.11704
# Poissons Ratio (z) = 0.27306 -0.04299
#
# Static dielectric constant tensor:
#      x y z
#    x 1.700800 0.000000 0.026400 
#    y 0.000000 1.685890 0.000000 
#    z 0.026400 0.000000 1.704910 
# 
# From -- ./inp_files/319326.got.cif
#   From: 2010.05.17/outbox.cif.g08.bks.cpg/sg12_160_cif.got.tgz:319326.got - 2010.06.03 13:09:07.
