data_PCOD9219993
_publ_section_title
;
Structure prediction by ZEFSAII (Michael W. Deem and Ramdas Pophale) SiO2 
 PCOD9219993
Probable space group: C 2/M
;
_chemical_formula_sum "Si O2"
_cell_formula_units_Z 64
_cell_length_a 14.314054
_cell_length_b 19.002141
_cell_length_c 13.864058
_cell_angle_alpha 90.000000
_cell_angle_beta 57.580093
_cell_angle_gamma 90.000000
_cell_volume 3183.251201
_symmetry_space_group_name_H-M "C 2/M"
_symmetry_group_IT_number 12
_symmetry_cell_setting 'monoclinic'
loop_
_space_group_symop_operation_xyz
x,y,z
-x,y,-z
-x,-y,-z
x,-y,z
1/2+x,1/2+y,z
1/2-x,1/2+y,-z
1/2-x,1/2-y,-z
1/2+x,1/2-y,z
loop_
_atom_site_type_symbol
_atom_site_label
_atom_site_fract_x
_atom_site_fract_y
_atom_site_fract_z
Si Si1 0.224219 0.158700 0.700782
Si Si2 0.452081 0.788757 0.631916
Si Si3 0.063378 0.707595 0.780306
Si Si4 0.720122 0.920190 0.718890
Si Si5 0.923965 0.134682 0.712916
Si Si6 0.862223 0.793456 0.948424
Si Si7 0.869389 0.922980 0.084234
Si Si8 0.173714 0.081433 0.549469
O O1 0.335404 0.171726 0.698278
O O2 0.153203 0.229744 0.734858
O O3 0.158220 0.096978 0.791060
O O4 0.240660 0.132377 0.583299
O O5 0.500000 0.806500 0.500000
O O6 0.521188 0.801821 0.692210
O O7 0.427814 0.705338 0.646631
O O8 0.123879 0.637279 0.782117
O O9 0.961424 0.736373 0.901555
O O10 0.818714 0.910680 0.740866
O O11 0.782323 0.907669 0.582543
O O12 0.677810 0.000000 0.743973
O O13 0.901401 0.163071 0.832652
O O14 0.043117 0.098529 0.633693
O O15 0.750000 0.750000 0.000000
O O16 0.841490 0.852750 0.039950
O O17 0.821394 0.000000 0.084206
O O18 0.000000 0.928283 0.000000
O O19 0.192092 0.000000 0.563703
#
# Coordination Sequence:
#
# PCOD9219993 Si02
#       8
#     8   8   8   8   8   8   8   8
#     4  12  22  39  64  93 124 160 206 257 307 375
#     4  11  22  36  60  93 126 161 205 253 305 364
#     4  11  23  41  62  92 122 166 209 260 303 378
#     4  11  24  40  62  92 132 175 205 245 314 384
#     4  11  21  37  61  95 127 161 209 264 308 363
#     4  11  24  42  64  91 125 164 210 263 317 366
#     4  11  22  39  63  92 121 153 201 263 322 359
#     4  11  22  38  61  95 133 165 204 258 316 371
#
# _framework density 20.105231
#
# number of rings (size 3 to 8) (size 9 to 14) (size 15 to 20)
#    0.000    0.875    5.000    4.125    0.000    4.000 
#    0.000    3.125    0.000    4.125    0.000    0.000 
#    0.000    0.000    0.000    0.000    0.000    0.000 
#
# Total GULP energy -178663.944926 kJ/mol
# GULP energy per Si atom -5583.248279 kJ/mol
# Density = 2.005947 g / cm^3
# Si number density = 20.105231 Si / 1000 Ang^3
#
#
#
# Elastic Constant Matrix: (Units=GPa)
#
#
# Indices 1 2 3 4 5 6 
#
# 1 73.2760 36.6451 14.9165 0.0000 -4.4191 0.0000
# 2 36.6451 110.8783 13.7283 0.0000 -10.0909 0.0000
# 3 14.9165 13.7283 51.3230 0.0000 -5.4239 0.0000
# 4 0.0000 0.0000 0.0000 25.8036 0.0000 -2.7646
# 5 -4.4191 -10.0909 -5.4239 0.0000 19.8409 0.0000
# 6 0.0000 0.0000 0.0000 -2.7646 0.0000 26.5389
#
#
#
# Elastic Compliance Matrix: (Units=1/GPa)
#
#
# Indices 1 2 3 4 5 6 
#
# 1 0.016952 -0.005148 -0.003529 0.000000 0.000193 0.000000
# 2 -0.005148 0.011241 -0.001058 0.000000 0.004281 0.000000
# 3 -0.003529 -0.001058 0.021268 0.000000 0.004490 0.000000
# 4 0.000000 0.000000 0.000000 0.039192 0.000000 0.004083
# 5 0.000193 0.004281 0.004490 0.000000 0.053849 0.000000
# 6 0.000000 0.000000 0.000000 0.004083 0.000000 0.038106
#
#
# Mechanical properties :
#
#
# Convention : Reuss Voigt Hill
#
# Bulk Modulus (GPa) = 33.34540 40.67302 37.00921
# Shear Modulus (GPa) = 23.80113 25.78250 24.79181
#
# Velocity S-wave (km/s) = 3.44441 3.58491 3.51537
# Velocity P-wave (km/s) = 5.69562 6.11633 5.90972
#
# Compressibility (1/GPa) = 0.02998914
#
# Stress axis : x y z
#
# Youngs Moduli (GPa) = 58.99152 88.96061 47.01953
#
# Poissons Ratio (x) = 0.45796 0.16595
# Poissons Ratio (y) = 0.30369 0.04975
# Poissons Ratio (z) = 0.20821 0.09414
#
# Static dielectric constant tensor:
#      x y z
#    x 1.720440 0.000000 -0.019390 
#    y 0.000000 1.703670 0.000000 
#    z -0.019390 0.000000 1.543750 
# 
# From -- ./inp_files/216803.got.cif
#   From: 2010.05.17/outbox.cif.g08.bks.cpg/sg12_109_cif.got.tgz:216803.got - 2010.06.03 13:09:07.
