data_PCOD9219325
_publ_section_title
;
Structure prediction by ZEFSAII (Michael W. Deem and Ramdas Pophale) SiO2 
 PCOD9219325
Probable space group: C 2/M
;
_chemical_formula_sum "Si O2"
_cell_formula_units_Z 64
_cell_length_a 33.461830
_cell_length_b 8.626893
_cell_length_c 21.144003
_cell_angle_alpha 90.000000
_cell_angle_beta 36.474434
_cell_angle_gamma 90.000000
_cell_volume 3628.414542
_symmetry_space_group_name_H-M "C 2/M"
_symmetry_group_IT_number 12
_symmetry_cell_setting 'monoclinic'
loop_
_space_group_symop_operation_xyz
x,y,z
-x,y,-z
-x,-y,-z
x,-y,z
1/2+x,1/2+y,z
1/2-x,1/2+y,-z
1/2-x,1/2-y,-z
1/2+x,1/2-y,z
loop_
_atom_site_type_symbol
_atom_site_label
_atom_site_fract_x
_atom_site_fract_y
_atom_site_fract_z
Si Si1 0.781629 0.184076 0.395806
Si Si2 0.570239 0.811833 0.987016
Si Si3 0.709240 0.811025 0.862413
Si Si4 0.926219 0.686930 0.517198
Si Si5 0.293561 0.685485 0.631002
Si Si6 0.420056 0.187395 0.173342
Si Si7 0.420987 0.186710 0.671660
Si Si8 0.784661 0.185611 0.893360
O O1 0.750000 0.250000 0.500000
O O2 0.739578 0.243643 0.388985
O O3 0.858045 0.241083 0.289100
O O4 0.779869 0.000000 0.399671
O O5 0.632361 0.758783 0.950501
O O6 0.584464 0.771451 0.895559
O O7 0.569342 0.000000 0.989889
O O8 0.494662 0.762259 0.100059
O O9 0.751819 0.764087 0.746533
O O10 0.744306 0.758948 0.882192
O O11 0.709216 0.000000 0.863120
O O12 0.921444 0.500000 0.519249
O O13 0.869975 0.762810 0.545351
O O14 0.913283 0.730243 0.607267
O O15 0.003337 0.730915 0.404657
O O16 0.289107 0.500000 0.632529
O O17 0.415933 0.000000 0.182513
O O18 0.361246 0.259618 0.787521
O O19 0.416747 0.000000 0.680288
O O20 0.782591 0.000000 0.897081
O O21 0.750000 0.250000 0.000000
#
# Coordination Sequence:
#
# PCOD9219325 Si02
#       8
#     8   8   8   8   8   8   8   8
#     4  12  25  40  57  80 113 152 188 229 280 336
#     4   8  14  28  55  85 110 138 177 222 269 327
#     4   9  17  31  54  83 110 139 182 228 272 324
#     4   9  18  33  55  84 115 145 183 230 281 330
#     4  11  20  35  59  86 113 141 184 237 278 330
#     4   9  16  31  57  84 109 141 179 222 273 329
#     4   9  18  34  55  80 113 150 186 229 277 333
#     4  11  22  36  54  79 111 151 191 233 283 336
#
# _framework density 17.638558
#
# number of rings (size 3 to 8) (size 9 to 14) (size 15 to 20)
#    0.000    2.250    2.500    3.375    0.000    0.500 
#    0.000    3.750    0.000    6.000    0.000    0.000 
#    0.000    0.000    0.000    0.000    0.000    0.000 
#
# Total GULP energy -178534.646622 kJ/mol
# GULP energy per Si atom -5579.207707 kJ/mol
# Density = 1.759841 g / cm^3
# Si number density = 17.638558 Si / 1000 Ang^3
#
#
#
# Elastic Constant Matrix: (Units=GPa)
#
#
# Indices 1 2 3 4 5 6 
#
# 1 117.8982 32.3407 90.2206 0.0013 -12.9862 -0.0011
# 2 32.3407 44.3632 47.7415 0.0034 -2.6664 -0.0060
# 3 90.2206 47.7415 171.7578 0.0058 -14.3683 -0.0039
# 4 0.0013 0.0034 0.0058 28.5031 -0.0033 -3.3692
# 5 -12.9862 -2.6664 -14.3683 -0.0033 30.6931 0.0020
# 6 -0.0011 -0.0060 -0.0039 -3.3692 0.0020 23.5280
#
#
#
# Elastic Compliance Matrix: (Units=1/GPa)
#
#
# Indices 1 2 3 4 5 6 
#
# 1 0.014774 -0.003574 -0.006525 0.000001 0.002886 -0.000001
# 2 -0.003574 0.033088 -0.007499 -0.000002 -0.002148 0.000007
# 3 -0.006525 -0.007499 0.011499 -0.000001 0.001971 -0.000001
# 4 0.000001 -0.000002 -0.000001 0.035688 0.000003 0.005110
# 5 0.002886 -0.002148 0.001971 0.000003 0.034537 -0.000003
# 6 -0.000001 0.000007 -0.000001 0.005110 -0.000003 0.043234
#
#
# Mechanical properties :
#
#
# Convention : Reuss Voigt Hill
#
# Bulk Modulus (GPa) = 41.38567 74.95831 58.17199
# Shear Modulus (GPa) = 23.14031 27.45927 25.29979
#
# Velocity S-wave (km/s) = 3.62597 3.94988 3.79138
# Velocity P-wave (km/s) = 6.40658 7.96186 7.22618
#
# Compressibility (1/GPa) = 0.02416296
#
# Stress axis : x y z
#
# Youngs Moduli (GPa) = 67.68786 30.22230 86.96253
#
# Poissons Ratio (x) = 0.10802 0.56747
# Poissons Ratio (y) = 0.24193 0.65217
# Poissons Ratio (z) = 0.44169 0.22665
#
# Static dielectric constant tensor:
#      x y z
#    x 1.599990 0.000000 -0.021800 
#    y 0.000000 1.600120 0.000000 
#    z -0.021800 0.000000 1.586680 
# 
# From -- ./inp_files/295444.got.cif
#   From: 2010.05.17/outbox.cif.g08.bks.cpg/sg12_148_cif.got.tgz:295444.got - 2010.06.03 13:09:07.
