data_PCOD9219988
_publ_section_title
;
Structure prediction by ZEFSAII (Michael W. Deem and Ramdas Pophale) SiO2 
 PCOD9219988
Probable space group: C 2/M
;
_chemical_formula_sum "Si O2"
_cell_formula_units_Z 56
_cell_length_a 20.608405
_cell_length_b 8.401225
_cell_length_c 27.102127
_cell_angle_alpha 90.000000
_cell_angle_beta 142.000182
_cell_angle_gamma 90.000000
_cell_volume 2888.887207
_symmetry_space_group_name_H-M "C 2/M"
_symmetry_group_IT_number 12
_symmetry_cell_setting 'monoclinic'
loop_
_space_group_symop_operation_xyz
x,y,z
-x,y,-z
-x,-y,-z
x,-y,z
1/2+x,1/2+y,z
1/2-x,1/2+y,-z
1/2-x,1/2-y,-z
1/2+x,1/2-y,z
loop_
_atom_site_type_symbol
_atom_site_label
_atom_site_fract_x
_atom_site_fract_y
_atom_site_fract_z
Si Si1 0.155021 0.308090 0.978315
Si Si2 0.484700 0.190461 0.434690
Si Si3 0.767717 0.809753 0.256140
Si Si4 0.932511 0.809268 0.803700
Si Si5 0.495123 0.306166 0.734155
Si Si6 0.267439 0.306157 0.143047
Si Si7 0.367584 0.309158 0.561578
O O1 0.151203 0.500000 0.973986
O O2 0.043755 0.239349 0.894327
O O3 0.250000 0.250000 0.000000
O O4 0.183487 0.257916 0.051412
O O5 0.500000 0.248798 0.500000
O O6 0.374637 0.245758 0.344797
O O7 0.579279 0.247791 0.456463
O O8 0.484833 0.000000 0.435700
O O9 0.666132 0.762539 0.226796
O O10 0.754047 0.751955 0.191332
O O11 0.777182 0.000000 0.259974
O O12 0.938126 0.754841 0.750007
O O13 0.923189 0.000000 0.798805
O O14 0.495044 0.500000 0.734129
O O15 0.616776 0.255904 0.806058
O O16 0.438156 0.253721 0.650247
O O17 0.266342 0.500000 0.143158
O O18 0.369068 0.500000 0.561753
O O19 0.250000 0.250000 0.500000
#
# Coordination Sequence:
#
# PCOD9219988 Si02
#       7
#     8   8   8   8   8   8   8
#     4  11  21  37  61  90 121 158 203 252 306 360
#     4  11  25  44  64  89 125 167 203 247 313 374
#     4  11  23  42  65  90 120 158 207 254 301 364
#     4  11  23  40  61  89 126 163 200 247 304 366
#     4   9  18  37  62  85 117 162 199 238 302 365
#     4   9  18  37  63  86 116 160 200 243 306 366
#     4  11  23  41  65  94 125 160 206 255 303 364
#
# _framework density 19.384627999999999
#
# number of rings (size 3 to 8) (size 9 to 14) (size 15 to 20)
#    0.000    1.571    2.857    2.143    2.000    1.714 
#    0.000    9.286    0.000    0.000    0.000    0.000 
#    0.000    0.000    0.000    0.000    0.000    0.000 
#
# Total GULP energy -156445.701640 kJ/mol
# GULP energy per Si atom -5587.346487 kJ/mol
# Density = 1.934051 g / cm^3
# Si number density = 19.384628 Si / 1000 Ang^3
#
#
#
# Elastic Constant Matrix: (Units=GPa)
#
#
# Indices 1 2 3 4 5 6 
#
# 1 175.5895 17.8643 65.5348 0.0000 -13.7681 0.0000
# 2 17.8643 35.1798 16.6637 0.0000 -5.6235 0.0000
# 3 65.5348 16.6637 96.8458 0.0000 -14.8847 0.0000
# 4 0.0000 0.0000 0.0000 32.9316 0.0000 5.4246
# 5 -13.7681 -5.6235 -14.8847 0.0000 42.5449 0.0000
# 6 0.0000 0.0000 0.0000 5.4246 0.0000 32.5908
#
#
#
# Elastic Compliance Matrix: (Units=1/GPa)
#
#
# Indices 1 2 3 4 5 6 
#
# 1 0.007712 -0.001516 -0.004867 0.000000 0.000593 0.000000
# 2 -0.001516 0.031470 -0.004042 0.000000 0.002255 0.000000
# 3 -0.004867 -0.004042 0.014785 0.000000 0.003064 0.000000
# 4 0.000000 0.000000 0.000000 0.031222 0.000000 -0.005197
# 5 0.000593 0.002255 0.003064 0.000000 0.025066 0.000000
# 6 0.000000 0.000000 0.000000 -0.005197 0.000000 0.031548
#
#
# Mechanical properties :
#
#
# Convention : Reuss Voigt Hill
#
# Bulk Modulus (GPa) = 30.19572 56.41563 43.30568
# Shear Modulus (GPa) = 28.78611 35.45028 32.11820
#
# Velocity S-wave (km/s) = 3.85775 4.28107 4.07491
# Velocity P-wave (km/s) = 5.95432 7.32142 6.67297
#
# Compressibility (1/GPa) = 0.03311728
#
# Stress axis : x y z
#
# Youngs Moduli (GPa) = 129.66338 31.77580 67.63411
#
# Poissons Ratio (x) = 0.04818 0.32917
# Poissons Ratio (y) = 0.19660 0.27340
# Poissons Ratio (z) = 0.63105 0.12845
#
# Static dielectric constant tensor:
#      x y z
#    x 1.720710 0.000000 0.028550 
#    y 0.000000 1.674430 0.000000 
#    z 0.028550 0.000000 1.719420 
# 
# From -- ./inp_files/363208.got.cif
#   From: 2010.05.17/outbox.cif.g08.bks.cpg/sg12_182_cif.got.tgz:363208.got - 2010.06.03 13:09:07.
