data_PCOD9219791
_publ_section_title
;
Structure prediction by ZEFSAII (Michael W. Deem and Ramdas Pophale) SiO2 
 PCOD9219791
Probable space group: C 2/M
;
_chemical_formula_sum "Si O2"
_cell_formula_units_Z 40
_cell_length_a 23.523942
_cell_length_b 16.086155
_cell_length_c 5.068300
_cell_angle_alpha 90.000000
_cell_angle_beta 117.001899
_cell_angle_gamma 90.000000
_cell_volume 1708.827451
_symmetry_space_group_name_H-M "C 2/M"
_symmetry_group_IT_number 12
_symmetry_cell_setting 'monoclinic'
loop_
_space_group_symop_operation_xyz
x,y,z
-x,y,-z
-x,-y,-z
x,-y,z
1/2+x,1/2+y,z
1/2-x,1/2+y,-z
1/2-x,1/2-y,-z
1/2+x,1/2-y,z
loop_
_atom_site_type_symbol
_atom_site_label
_atom_site_fract_x
_atom_site_fract_y
_atom_site_fract_z
Si Si1 0.035305 0.345411 0.828980
Si Si2 0.768687 0.321723 0.253267
Si Si3 0.300876 0.000000 0.166347
Si Si4 0.848053 0.183582 0.605919
Si Si5 0.073617 0.173756 0.729992
Si Si6 0.110747 0.500000 0.147228
O O1 0.075002 0.274247 0.765057
O O2 0.000000 0.383996 0.500000
O O3 0.068950 0.418288 0.054341
O O4 0.000000 0.299221 0.000000
O O5 0.768644 0.409585 0.103520
O O6 0.833729 0.282720 0.517376
O O7 0.718962 0.335348 0.389197
O O8 0.750000 0.250000 0.000000
O O9 0.340571 0.000000 0.516366
O O10 0.349394 0.000000 0.032607
O O11 0.875909 0.149906 0.389351
O O12 0.899652 0.151084 0.927622
O O13 0.000000 0.152712 0.500000
#
# Coordination Sequence:
#
# PCOD9219791 Si02
#       6
#     8   8   4   8   8   4
#     4  11  21  35  54  81 127 175 218 257 299 362
#     4  11  25  45  68  96 133 173 220 276 328 390
#     4  12  28  41  64  96 125 167 221 268 331 388
#     4  11  22  39  66  89 131 170 207 275 326 381
#     4  11  21  36  59  94 126 165 216 262 323 389
#     4  12  24  39  58  86 126 176 218 259 309 378
#
# _framework density 23.407864
#
# number of rings (size 3 to 8) (size 9 to 14) (size 15 to 20)
#    0.000    0.800    2.000    7.200    5.600    0.000 
#    0.000    0.000    0.000    0.000    0.000    4.200 
#    0.000    0.000    0.000    0.000    0.000    0.000 
#
# Total GULP energy -111461.791477 kJ/mol
# GULP energy per Si atom -5573.089574 kJ/mol
# Density = 2.335459 g / cm^3
# Si number density = 23.407864 Si / 1000 Ang^3
#
#
#
# Elastic Constant Matrix: (Units=GPa)
#
#
# Indices 1 2 3 4 5 6 
#
# 1 115.4745 5.7290 40.9034 0.0000 -37.6725 0.0000
# 2 5.7290 54.5376 6.7506 0.0000 -12.4847 0.0000
# 3 40.9034 6.7506 161.9277 0.0000 -16.4951 0.0000
# 4 0.0000 0.0000 0.0000 56.6092 0.0000 -1.6745
# 5 -37.6725 -12.4847 -16.4951 0.0000 39.7333 0.0000
# 6 0.0000 0.0000 0.0000 -1.6745 0.0000 18.1448
#
#
#
# Elastic Compliance Matrix: (Units=1/GPa)
#
#
# Indices 1 2 3 4 5 6 
#
# 1 0.013362 0.001680 -0.002194 0.000000 0.012286 0.000000
# 2 0.001680 0.019975 -0.000476 0.000000 0.007672 0.000000
# 3 -0.002194 -0.000476 0.006810 0.000000 0.000598 0.000000
# 4 0.000000 0.000000 0.000000 0.017713 0.000000 0.001635
# 5 0.012286 0.007672 0.000598 0.000000 0.039476 0.000000
# 6 0.000000 0.000000 0.000000 0.001635 0.000000 0.055263
#
#
# Mechanical properties :
#
#
# Convention : Reuss Voigt Hill
#
# Bulk Modulus (GPa) = 26.19927 48.74509 37.47218
# Shear Modulus (GPa) = 29.88647 41.46792 35.67719
#
# Velocity S-wave (km/s) = 3.57707 4.21353 3.90828
# Velocity P-wave (km/s) = 5.31765 6.67392 6.03401
#
# Compressibility (1/GPa) = 0.03816900
#
# Stress axis : x y z
#
# Youngs Moduli (GPa) = 74.83997 50.06350 146.83254
#
# Poissons Ratio (x) = -0.08413 0.32211
# Poissons Ratio (y) = -0.12577 0.06985
# Poissons Ratio (z) = 0.16418 0.02381
#
# Static dielectric constant tensor:
#      x y z
#    x 1.929200 0.000000 0.094920 
#    y 0.000000 1.976500 0.000000 
#    z 0.094920 0.000000 2.004210 
# 
# From -- ./inp_files/24404.got.cif
#   From: 2010.05.17/outbox.cif.g08.bks.cpg/sg12_13_cif.got.tgz:24404.got - 2010.06.03 13:09:07.
