data_PCOD9219214
_publ_section_title
;
Structure prediction by ZEFSAII (Michael W. Deem and Ramdas Pophale) SiO2 
 PCOD9219214
Probable space group: C 2/M
;
_chemical_formula_sum "Si O2"
_cell_formula_units_Z 56
_cell_length_a 20.263943
_cell_length_b 8.721428
_cell_length_c 21.615316
_cell_angle_alpha 90.000000
_cell_angle_beta 54.239156
_cell_angle_gamma 90.000000
_cell_volume 3099.859964
_symmetry_space_group_name_H-M "C 2/M"
_symmetry_group_IT_number 12
_symmetry_cell_setting 'monoclinic'
loop_
_space_group_symop_operation_xyz
x,y,z
-x,y,-z
-x,-y,-z
x,-y,z
1/2+x,1/2+y,z
1/2-x,1/2+y,-z
1/2-x,1/2-y,-z
1/2+x,1/2-y,z
loop_
_atom_site_type_symbol
_atom_site_label
_atom_site_fract_x
_atom_site_fract_y
_atom_site_fract_z
Si Si1 0.391302 0.319418 0.799706
Si Si2 0.508278 0.314652 0.374321
Si Si3 0.907945 0.312796 0.046939
Si Si4 0.846089 0.317843 0.626210
Si Si5 0.759683 0.682084 0.207425
Si Si6 0.839771 0.317253 0.952704
Si Si7 0.678029 0.315731 0.496159
O O1 0.403932 0.500000 0.803636
O O2 0.454950 0.267532 0.712408
O O3 0.303275 0.301676 0.815243
O O4 0.390043 0.234666 0.865299
O O5 0.515714 0.500000 0.374706
O O6 0.567699 0.246090 0.394451
O O7 0.413633 0.273672 0.431319
O O8 0.906561 0.500000 0.049512
O O9 0.846969 0.264656 0.134857
O O10 0.876344 0.264452 0.997468
O O11 0.000000 0.260852 0.000000
O O12 0.851842 0.500000 0.617129
O O13 0.779310 0.271064 0.714131
O O14 0.820413 0.245083 0.575017
O O15 0.761907 0.500000 0.221348
O O16 0.835314 0.500000 0.955663
O O17 0.750000 0.250000 0.000000
O O18 0.683989 0.500000 0.493186
O O19 0.750000 0.250000 0.500000
#
# Coordination Sequence:
#
# PCOD9219214 Si02
#       7
#     8   8   8   8   8   8   8
#     4   9  17  33  55  82 109 139 178 226 278 327
#     4   9  20  39  62  84 113 150 188 228 281 339
#     4   9  18  34  54  76 106 143 187 231 274 327
#     4  11  22  36  59  89 116 145 189 239 279 328
#     4   9  17  34  57  79 108 146 186 226 278 335
#     4  11  20  32  53  80 108 142 183 228 274 325
#     4  11  23  41  62  85 116 153 187 226 280 340
#
# _framework density 18.065332000000001
#
# number of rings (size 3 to 8) (size 9 to 14) (size 15 to 20)
#    0.000    2.143    1.429    3.429    0.000    5.143 
#    2.571    0.000    0.000    3.000    0.000    0.000 
#    0.000    0.000    0.000    0.000    0.000    0.000 
#
# Total GULP energy -156214.748898 kJ/mol
# GULP energy per Si atom -5579.098175 kJ/mol
# Density = 1.802421 g / cm^3
# Si number density = 18.065332 Si / 1000 Ang^3
#
#
#
# Elastic Constant Matrix: (Units=GPa)
#
#
# Indices 1 2 3 4 5 6 
#
# 1 145.3583 41.9595 85.7319 0.0000 -7.1721 0.0002
# 2 41.9595 42.4612 38.5466 0.0000 -0.6381 0.0003
# 3 85.7319 38.5466 127.4126 0.0000 -5.7743 0.0000
# 4 0.0000 0.0000 0.0000 27.4684 0.0000 6.2952
# 5 -7.1721 -0.6381 -5.7743 0.0000 26.1971 0.0000
# 6 0.0002 0.0003 0.0000 6.2952 0.0000 23.6795
#
#
#
# Elastic Compliance Matrix: (Units=1/GPa)
#
#
# Indices 1 2 3 4 5 6 
#
# 1 0.012697 -0.006673 -0.006438 0.000000 0.001894 0.000000
# 2 -0.006673 0.036026 -0.006517 0.000000 -0.002386 0.000000
# 3 -0.006438 -0.006517 0.014207 0.000000 0.001210 0.000000
# 4 0.000000 0.000000 0.000000 0.038767 0.000000 -0.010306
# 5 0.001894 -0.002386 0.001210 0.000000 0.038899 0.000000
# 6 0.000000 0.000000 0.000000 -0.010306 0.000000 0.044970
#
#
# Mechanical properties :
#
#
# Convention : Reuss Voigt Hill
#
# Bulk Modulus (GPa) = 42.24361 71.96756 57.10559
# Shear Modulus (GPa) = 21.48553 25.40194 23.44374
#
# Velocity S-wave (km/s) = 3.45240 3.75389 3.60630
# Velocity P-wave (km/s) = 6.27110 7.66243 7.00141
#
# Compressibility (1/GPa) = 0.02367222
#
# Stress axis : x y z
#
# Youngs Moduli (GPa) = 78.76017 27.75806 70.38712
#
# Poissons Ratio (x) = 0.18524 0.45319
# Poissons Ratio (y) = 0.52560 0.45870
# Poissons Ratio (z) = 0.50710 0.18089
#
# Static dielectric constant tensor:
#      x y z
#    x 1.554500 0.000000 -0.024460 
#    y 0.000000 1.611460 0.000000 
#    z -0.024460 0.000000 1.628130 
# 
# From -- ./inp_files/313699.got.cif
#   From: 2010.05.17/outbox.cif.g08.bks.cpg/sg12_157_cif.got.tgz:313699.got - 2010.06.03 13:09:07.
