data_PCOD9219090
_publ_section_title
;
Structure prediction by ZEFSAII (Michael W. Deem and Ramdas Pophale) SiO2 
 PCOD9219090
Probable space group: C 2/M
;
_chemical_formula_sum "Si O2"
_cell_formula_units_Z 44
_cell_length_a 16.028951
_cell_length_b 15.153929
_cell_length_c 18.940248
_cell_angle_alpha 90.000000
_cell_angle_beta 21.760418
_cell_angle_gamma 90.000000
_cell_volume 1705.569517
_symmetry_space_group_name_H-M "C 2/M"
_symmetry_group_IT_number 12
_symmetry_cell_setting 'monoclinic'
loop_
_space_group_symop_operation_xyz
x,y,z
-x,y,-z
-x,-y,-z
x,-y,z
1/2+x,1/2+y,z
1/2-x,1/2+y,-z
1/2-x,1/2-y,-z
1/2+x,1/2-y,z
loop_
_atom_site_type_symbol
_atom_site_label
_atom_site_fract_x
_atom_site_fract_y
_atom_site_fract_z
Si Si1 0.500000 0.622027 0.500000
Si Si2 0.037027 0.160447 0.324970
Si Si3 0.016005 0.708714 0.886657
Si Si4 0.606339 0.593906 0.802075
Si Si5 0.387471 0.905352 0.862346
Si Si6 0.356685 0.144255 0.475367
O O1 0.474066 0.593886 0.437934
O O2 0.258078 0.665332 0.704366
O O3 0.879168 0.142655 0.381750
O O4 0.948394 0.257508 0.417389
O O5 0.299436 0.169182 0.097457
O O6 0.957761 0.681058 0.851162
O O7 0.063958 0.810265 0.869071
O O8 0.623571 0.500000 0.827830
O O9 0.812513 0.601724 0.585460
O O10 0.378816 0.590238 0.934637
O O11 0.475516 0.897661 0.713178
O O12 0.463816 0.000000 0.834086
#
# Coordination Sequence:
#
# PCOD9219090 Si02
#       6
#     4   8   8   8   8   8
#     4  12  24  40  64  90 120 178 212 236 318 360
#     4  11  22  36  67  91 121 165 206 253 314 363
#     4  12  22  42  62  89 129 163 208 258 295 373
#     4  11  22  37  65  97 124 159 204 259 315 361
#     4  11  22  37  65  97 124 159 204 259 315 361
#     4  11  19  38  64  93 123 162 199 259 316 357
#
# _framework density 25.797836
#
# number of rings (size 3 to 8) (size 9 to 14) (size 15 to 20)
#    0.000    0.727    7.273    2.727    0.000    0.000 
#    0.000    0.909    0.000    2.182    0.000    0.000 
#    0.000    0.000    0.000    0.000    0.000    0.000 
#
# Total GULP energy -122678.228390 kJ/mol
# GULP energy per Si atom -5576.283109 kJ/mol
# Density = 2.573912 g / cm^3
# Si number density = 25.797836 Si / 1000 Ang^3
#
#
#
# Elastic Constant Matrix: (Units=GPa)
#
#
# Indices 1 2 3 4 5 6 
#
# 1 80.1974 22.7252 47.7924 0.0039 13.6038 0.0145
# 2 22.7252 115.7992 32.4240 -0.0143 14.5383 -0.0021
# 3 47.7924 32.4240 175.5146 -0.0490 19.2954 0.0181
# 4 0.0039 -0.0143 -0.0490 -8.4407 0.0028 15.1038
# 5 13.6038 14.5383 19.2954 0.0028 51.1328 0.0149
# 6 0.0145 -0.0021 0.0181 15.1038 0.0149 -40.3432
#
#
#
# Elastic Compliance Matrix: (Units=1/GPa)
#
#
# Indices 1 2 3 4 5 6 
#
# 1 0.015525 -0.001739 -0.003658 0.000110 -0.002255 0.000044
# 2 -0.001739 0.009510 -0.001082 -0.000047 -0.001833 -0.000020
# 3 -0.003658 -0.001082 0.007045 -0.000117 -0.001378 -0.000042
# 4 0.000110 -0.000047 -0.000117 -0.358925 0.000087 -0.134375
# 5 -0.002255 -0.001833 -0.001378 0.000087 0.021198 0.000039
# 6 0.000044 -0.000020 -0.000042 -0.134375 0.000039 -0.075095
#
#
# Mechanical properties :
#
#
# Convention : Reuss Voigt Hill
#
# Bulk Modulus (GPa) = 52.29744 64.15493 58.22618
# Shear Modulus (GPa) = -13.83468 18.37443 2.26987
#
# Velocity S-wave (km/s) = -2.31827 2.67169 0.93903
# Velocity P-wave (km/s) = 3.62632 5.86852 4.87800
#
# Compressibility (1/GPa) = 0.01912139
#
# Stress axis : x y z
#
# Youngs Moduli (GPa) = 64.41393 105.15285 141.94707
#
# Poissons Ratio (x) = 0.18288 0.51925
# Poissons Ratio (y) = 0.11203 0.15355
# Poissons Ratio (z) = 0.23563 0.11375
#
# Static dielectric constant tensor:
#      x y z
#    x 2.116920 -0.000010 0.008430 
#    y -0.000010 2.139280 0.000050 
#    z 0.008430 0.000050 1.955140 
# 
# From -- ./inp_files/317267.got.cif
#   From: 2010.05.17/outbox.cif.g08.bks.cpg/sg12_159_cif.got.tgz:317267.got - 2010.06.03 13:09:07.
