data_PCOD9219682
_publ_section_title
;
Structure prediction by ZEFSAII (Michael W. Deem and Ramdas Pophale) SiO2 
 PCOD9219682
Probable space group: C 2/M
;
_chemical_formula_sum "Si O2"
_cell_formula_units_Z 64
_cell_length_a 19.454605
_cell_length_b 8.887452
_cell_length_c 23.642312
_cell_angle_alpha 90.000000
_cell_angle_beta 65.868007
_cell_angle_gamma 90.000000
_cell_volume 3730.550849
_symmetry_space_group_name_H-M "C 2/M"
_symmetry_group_IT_number 12
_symmetry_cell_setting 'monoclinic'
loop_
_space_group_symop_operation_xyz
x,y,z
-x,y,-z
-x,-y,-z
x,-y,z
1/2+x,1/2+y,z
1/2-x,1/2+y,-z
1/2-x,1/2-y,-z
1/2+x,1/2-y,z
loop_
_atom_site_type_symbol
_atom_site_label
_atom_site_fract_x
_atom_site_fract_y
_atom_site_fract_z
Si Si1 0.200611 0.321072 0.637562
Si Si2 0.130053 0.179459 0.459507
Si Si3 0.266081 0.680868 0.734144
Si Si4 0.681930 0.819124 0.059794
Si Si5 0.075067 0.820696 0.603172
Si Si6 0.581688 0.182743 0.993232
Si Si7 0.230578 0.318690 0.873585
Si Si8 0.580904 0.178525 0.361272
O O1 0.185916 0.500000 0.638532
O O2 0.281258 0.292286 0.580478
O O3 0.212341 0.280441 0.699415
O O4 0.135781 0.231380 0.628307
O O5 0.104725 0.223427 0.530568
O O6 0.086626 0.262952 0.424023
O O7 0.117661 0.000000 0.456652
O O8 0.276870 0.500000 0.728092
O O9 0.234707 0.719917 0.806222
O O10 0.345866 0.757466 0.694980
O O11 0.699786 0.753510 0.115426
O O12 0.687061 0.000000 0.059188
O O13 0.750000 0.750000 0.000000
O O14 0.607364 0.777735 0.048744
O O15 0.995139 0.743243 0.639360
O O16 0.066576 0.000000 0.606596
O O17 0.651196 0.228622 0.929009
O O18 0.579459 0.000000 0.992006
O O19 0.500000 0.237503 0.000000
O O20 0.235413 0.500000 0.877787
O O21 0.581322 0.000000 0.360167
#
# Coordination Sequence:
#
# PCOD9219682 Si02
#       8
#     8   8   8   8   8   8   8   8
#     4   9  18  33  51  72  99 129 165 209 250 294
#     4   9  19  35  53  73  99 131 164 200 250 310
#     4   9  19  37  55  70  95 133 173 209 250 302
#     4   9  16  27  46  72 100 129 163 202 238 277
#     4  11  21  33  51  74 101 132 163 201 255 310
#     4   8  14  26  46  74 104 130 158 193 234 280
#     4   9  17  31  53  74  95 131 169 199 239 292
#     4  11  22  34  51  74  98 126 165 213 257 298
#
# _framework density 17.155645
#
# number of rings (size 3 to 8) (size 9 to 14) (size 15 to 20)
#    0.000    2.625    0.000    4.125    0.000    5.000 
#    0.000    1.250    0.000   12.375    0.000    0.000 
#    0.000    0.000    0.000    0.000    0.000    0.000 
#
# Total GULP energy -178388.076895 kJ/mol
# GULP energy per Si atom -5574.627403 kJ/mol
# Density = 1.711660 g / cm^3
# Si number density = 17.155645 Si / 1000 Ang^3
#
#
#
# Elastic Constant Matrix: (Units=GPa)
#
#
# Indices 1 2 3 4 5 6 
#
# 1 115.8681 36.4606 45.8374 0.0000 11.1116 -0.0001
# 2 36.4606 27.8289 26.9520 0.0000 3.2465 -0.0001
# 3 45.8374 26.9520 92.8248 0.0000 7.0034 0.0000
# 4 0.0000 0.0000 0.0000 17.0999 0.0000 9.9088
# 5 11.1116 3.2465 7.0034 0.0000 7.5848 0.0000
# 6 -0.0001 -0.0001 0.0000 9.9088 0.0000 25.8368
#
#
#
# Elastic Compliance Matrix: (Units=1/GPa)
#
#
# Indices 1 2 3 4 5 6 
#
# 1 0.016435 -0.018130 -0.001742 0.000000 -0.014709 0.000000
# 2 -0.018130 0.070518 -0.012091 0.000000 0.007541 0.000000
# 3 -0.001742 -0.012091 0.015651 0.000000 -0.006724 0.000000
# 4 0.000000 0.000000 0.000000 0.075190 0.000000 -0.028837
# 5 -0.014709 0.007541 -0.006724 0.000000 0.156371 0.000000
# 6 0.000000 0.000000 0.000000 -0.028837 0.000000 0.049764
#
#
# Mechanical properties :
#
#
# Convention : Reuss Voigt Hill
#
# Bulk Modulus (GPa) = 25.85471 50.55798 38.20635
# Shear Modulus (GPa) = 10.85193 18.58909 14.72051
#
# Velocity S-wave (km/s) = 2.51780 3.29531 2.93244
# Velocity P-wave (km/s) = 4.85343 6.63422 5.81243
#
# Compressibility (1/GPa) = 0.03867767
#
# Stress axis : x y z
#
# Youngs Moduli (GPa) = 60.84514 14.18085 63.89259
#
# Poissons Ratio (x) = 0.25710 0.11130
# Poissons Ratio (y) = 1.10312 0.77255
# Poissons Ratio (z) = 0.10599 0.17147
#
# Static dielectric constant tensor:
#      x y z
#    x 1.580350 0.000000 0.014140 
#    y 0.000000 1.573820 0.000000 
#    z 0.014140 0.000000 1.591520 
# 
# From -- ./inp_files/341964.got.cif
#   From: 2010.05.17/outbox.cif.g08.bks.cpg/sg12_171_cif.got.tgz:341964.got - 2010.06.03 13:09:07.
