data_PCOD9219254
_publ_section_title
;
Structure prediction by ZEFSAII (Michael W. Deem and Ramdas Pophale) SiO2 
 PCOD9219254
Probable space group: C 2/M
;
_chemical_formula_sum "Si O2"
_cell_formula_units_Z 40
_cell_length_a 16.769816
_cell_length_b 22.017920
_cell_length_c 8.193378
_cell_angle_alpha 90.000000
_cell_angle_beta 46.728369
_cell_angle_gamma 90.000000
_cell_volume 2202.753550
_symmetry_space_group_name_H-M "C 2/M"
_symmetry_group_IT_number 12
_symmetry_cell_setting 'monoclinic'
loop_
_space_group_symop_operation_xyz
x,y,z
-x,y,-z
-x,-y,-z
x,-y,z
1/2+x,1/2+y,z
1/2-x,1/2+y,-z
1/2-x,1/2-y,-z
1/2+x,1/2-y,z
loop_
_atom_site_type_symbol
_atom_site_label
_atom_site_fract_x
_atom_site_fract_y
_atom_site_fract_z
Si Si1 0.767459 0.834691 0.553478
Si Si2 0.770969 0.213078 0.195287
Si Si3 0.494601 0.292941 0.704468
Si Si4 0.381013 0.929226 0.081460
Si Si5 0.575651 0.166100 0.252120
O O1 0.740913 0.822123 0.402607
O O2 0.722969 0.782202 0.741767
O O3 0.898388 0.826397 0.380561
O O4 0.714025 0.897773 0.679371
O O5 0.676151 0.202381 0.195556
O O6 0.883145 0.190172 0.954542
O O7 0.500000 0.301347 0.500000
O O8 0.495530 0.219818 0.731927
O O9 0.386502 0.887884 0.913592
O O10 0.360593 0.000000 0.080111
O O11 0.500000 0.923284 0.000000
O O12 0.500000 0.140178 0.500000
#
# Coordination Sequence:
#
# PCOD9219254 Si02
#       5
#     8   8   8   8   8
#     4  11  22  36  60  88 124 156 201 248 306 360
#     4  11  21  34  58  95 122 156 192 258 315 355
#     4  11  20  33  56  92 125 152 188 251 310 358
#     4  11  25  42  61  85 123 169 206 243 290 364
#     4  11  20  36  59  91 124 156 199 249 305 357
#
# _framework density 18.159091
#
# number of rings (size 3 to 8) (size 9 to 14) (size 15 to 20)
#    0.000    1.000    6.000    3.600    2.800    0.400 
#    0.000    1.000    0.000    7.800    0.000    0.000 
#    0.000    0.000    0.000    0.000    0.000    0.000 
#
# Total GULP energy -111586.188863 kJ/mol
# GULP energy per Si atom -5579.309443 kJ/mol
# Density = 1.811776 g / cm^3
# Si number density = 18.159091 Si / 1000 Ang^3
#
#
#
# Elastic Constant Matrix: (Units=GPa)
#
#
# Indices 1 2 3 4 5 6 
#
# 1 68.6001 39.6202 41.3756 0.0000 -9.9326 0.0000
# 2 39.6202 112.5306 47.9371 0.0000 6.2776 0.0000
# 3 41.3756 47.9371 132.3326 0.0000 -12.6029 0.0000
# 4 0.0000 0.0000 0.0000 26.8827 0.0000 -3.3476
# 5 -9.9326 6.2776 -12.6029 0.0000 35.6584 0.0000
# 6 0.0000 0.0000 0.0000 -3.3476 0.0000 15.1749
#
#
#
# Elastic Compliance Matrix: (Units=1/GPa)
#
#
# Indices 1 2 3 4 5 6 
#
# 1 0.021296 -0.006155 -0.003892 0.000000 0.005640 0.000000
# 2 -0.006155 0.012678 -0.003150 0.000000 -0.005060 0.000000
# 3 -0.003892 -0.003150 0.010208 0.000000 0.003078 0.000000
# 4 0.000000 0.000000 0.000000 0.038249 0.000000 0.008438
# 5 0.005640 -0.005060 0.003078 0.000000 0.031594 0.000000
# 6 0.000000 0.000000 0.000000 0.008438 0.000000 0.067760
#
#
# Mechanical properties :
#
#
# Convention : Reuss Voigt Hill
#
# Bulk Modulus (GPa) = 56.21662 63.48101 59.84882
# Shear Modulus (GPa) = 23.35294 27.84522 25.59908
#
# Velocity S-wave (km/s) = 3.59000 3.92012 3.75869
# Velocity P-wave (km/s) = 6.94328 7.45144 7.20184
#
# Compressibility (1/GPa) = 0.01778833
#
# Stress axis : x y z
#
# Youngs Moduli (GPa) = 46.95771 78.87985 97.96481
#
# Poissons Ratio (x) = 0.48548 0.38126
# Poissons Ratio (y) = 0.28901 0.30858
# Poissons Ratio (z) = 0.18275 0.24846
#
# Static dielectric constant tensor:
#      x y z
#    x 1.687090 0.000000 -0.002760 
#    y 0.000000 1.585390 0.000000 
#    z -0.002760 0.000000 1.674240 
# 
# From -- ./inp_files/48490.got.cif
#   From: 2010.05.17/outbox.cif.g08.bks.cpg/sg12_25_cif.got.tgz:48490.got - 2010.06.03 13:09:07.
