data_PCOD9219076
_publ_section_title
;
Structure prediction by ZEFSAII (Michael W. Deem and Ramdas Pophale) SiO2 
 PCOD9219076
Probable space group: C 2/M
;
_chemical_formula_sum "Si O2"
_cell_formula_units_Z 48
_cell_length_a 14.921063
_cell_length_b 21.133605
_cell_length_c 11.628863
_cell_angle_alpha 90.000000
_cell_angle_beta 39.890157
_cell_angle_gamma 90.000000
_cell_volume 2351.710822
_symmetry_space_group_name_H-M "C 2/M"
_symmetry_group_IT_number 12
_symmetry_cell_setting 'monoclinic'
loop_
_space_group_symop_operation_xyz
x,y,z
-x,y,-z
-x,-y,-z
x,-y,z
1/2+x,1/2+y,z
1/2-x,1/2+y,-z
1/2-x,1/2-y,-z
1/2+x,1/2-y,z
loop_
_atom_site_type_symbol
_atom_site_label
_atom_site_fract_x
_atom_site_fract_y
_atom_site_fract_z
Si Si1 0.153865 0.430068 0.899164
Si Si2 0.071236 0.367588 0.202174
Si Si3 0.333808 0.790184 0.689973
Si Si4 0.645002 0.654263 0.423317
Si Si5 0.237565 0.868973 0.575413
Si Si6 0.859567 0.000000 0.216577
Si Si7 0.610755 0.000000 0.290083
O O1 0.196850 0.500000 0.899102
O O2 0.257613 0.405029 0.700807
O O3 0.138464 0.377582 0.012211
O O4 0.000000 0.435654 0.000000
O O5 0.159978 0.315925 0.186382
O O6 0.091723 0.435948 0.240085
O O7 0.901127 0.361436 0.371667
O O8 0.500000 0.798018 0.500000
O O9 0.298746 0.718681 0.690266
O O10 0.244231 0.832883 0.691167
O O11 0.500000 0.643293 0.500000
O O12 0.645567 0.659903 0.561495
O O13 0.177786 0.938457 0.667506
O O14 0.752687 0.000000 0.217261
O O15 0.000000 0.000000 0.000000
O O16 0.500000 0.000000 0.500000
#
# Coordination Sequence:
#
# PCOD9219076 Si02
#       7
#     8   8   8   8   8   4   4
#     4  11  24  40  64  95 129 165 216 262 303 387
#     4  11  19  37  71  98 120 162 221 269 310 360
#     4   9  20  39  67  96 118 163 222 267 311 378
#     4  11  25  43  62  91 131 176 208 252 327 388
#     4  11  21  41  67  91 130 166 208 266 320 379
#     4  12  26  38  62 104 138 161 208 266 334 383
#     4  12  18  36  66  97 120 163 211 260 311 362
#
# _framework density 20.410672000000002
#
# number of rings (size 3 to 8) (size 9 to 14) (size 15 to 20)
#    0.000    1.167    5.833    1.000    1.167    2.333 
#    0.000    0.833    0.000    0.000    0.000    0.000 
#    0.000    0.000    0.000    0.000    0.000    0.000 
#
# Total GULP energy -133664.602760 kJ/mol
# GULP energy per Si atom -5569.358448 kJ/mol
# Density = 2.036422 g / cm^3
# Si number density = 20.410672 Si / 1000 Ang^3
#
#
#
# Elastic Constant Matrix: (Units=GPa)
#
#
# Indices 1 2 3 4 5 6 
#
# 1 123.3197 33.2516 12.3087 0.0003 4.2620 -0.0011
# 2 33.2516 92.0343 9.0385 0.0002 -1.6696 -0.0010
# 3 12.3087 9.0385 38.7044 -0.0003 0.6623 -0.0005
# 4 0.0003 0.0002 -0.0003 20.9254 0.0003 -6.0291
# 5 4.2620 -1.6696 0.6623 0.0003 29.4465 0.0007
# 6 -0.0011 -0.0010 -0.0005 -6.0291 0.0007 26.9938
#
#
#
# Elastic Compliance Matrix: (Units=1/GPa)
#
#
# Indices 1 2 3 4 5 6 
#
# 1 0.009225 -0.003146 -0.002174 0.000000 -0.001465 0.000000
# 2 -0.003146 0.012207 -0.001871 0.000000 0.001190 0.000000
# 3 -0.002174 -0.001871 0.026972 0.000001 -0.000398 0.000000
# 4 0.000000 0.000000 0.000001 0.051076 -0.000001 0.011408
# 5 -0.001465 0.001190 -0.000398 -0.000001 0.034248 -0.000001
# 6 0.000000 0.000000 0.000000 0.011408 -0.000001 0.039594
#
#
# Mechanical properties :
#
#
# Convention : Reuss Voigt Hill
#
# Bulk Modulus (GPa) = 29.39184 40.36177 34.87681
# Shear Modulus (GPa) = 25.12012 28.77045 26.94529
#
# Velocity S-wave (km/s) = 3.51199 3.75851 3.63734
# Velocity P-wave (km/s) = 5.55670 6.21715 5.89618
#
# Compressibility (1/GPa) = 0.03402305
#
# Stress axis : x y z
#
# Youngs Moduli (GPa) = 108.40243 81.91731 37.07571
#
# Poissons Ratio (x) = 0.25771 0.08060
# Poissons Ratio (y) = 0.34103 0.06935
# Poissons Ratio (z) = 0.23566 0.15324
#
# Static dielectric constant tensor:
#      x y z
#    x 1.736320 0.000000 0.036920 
#    y 0.000000 1.858040 0.000000 
#    z 0.036920 0.000000 1.735930 
# 
# From -- ./inp_files/147960.got.cif
#   From: 2010.05.17/outbox.cif.g08.bks.cpg/sg12_74_cif.got.tgz:147960.got - 2010.06.03 13:09:07.
