data_PCOD9219159
_publ_section_title
;
Structure prediction by ZEFSAII (Michael W. Deem and Ramdas Pophale) SiO2 
 PCOD9219159
Probable space group: C 2/M
;
_chemical_formula_sum "Si O2"
_cell_formula_units_Z 48
_cell_length_a 21.070509
_cell_length_b 8.822205
_cell_length_c 31.906591
_cell_angle_alpha 90.000000
_cell_angle_beta 151.179278
_cell_angle_gamma 90.000000
_cell_volume 2859.191210
_symmetry_space_group_name_H-M "C 2/M"
_symmetry_group_IT_number 12
_symmetry_cell_setting 'monoclinic'
loop_
_space_group_symop_operation_xyz
x,y,z
-x,y,-z
-x,-y,-z
x,-y,z
1/2+x,1/2+y,z
1/2-x,1/2+y,-z
1/2-x,1/2-y,-z
1/2+x,1/2-y,z
loop_
_atom_site_type_symbol
_atom_site_label
_atom_site_fract_x
_atom_site_fract_y
_atom_site_fract_z
Si Si1 0.244427 0.682694 0.543016
Si Si2 0.015496 0.684075 0.557096
Si Si3 0.429257 0.819893 0.718879
Si Si4 0.432249 0.325052 0.073668
Si Si5 0.317210 0.326616 0.102366
Si Si6 0.810555 0.815872 0.735649
O O1 0.248416 0.500000 0.544301
O O2 0.250000 0.750000 0.500000
O O3 0.362413 0.744778 0.639945
O O4 0.108023 0.731668 0.486613
O O5 0.012936 0.500000 0.554742
O O6 0.160037 0.727642 0.657009
O O7 0.000000 0.735704 0.500000
O O8 0.581981 0.774106 0.812831
O O9 0.355061 0.753185 0.716966
O O10 0.415277 0.000000 0.709699
O O11 0.432625 0.500000 0.060189
O O12 0.372991 0.321918 0.086787
O O13 0.581733 0.270518 0.167177
O O14 0.331954 0.231556 0.987238
O O15 0.323791 0.500000 0.120247
O O16 0.818511 0.000000 0.736491
#
# Coordination Sequence:
#
# PCOD9219159 Si02
#       6
#     8   8   8   8   8   8
#     4  11  22  37  54  73 101 133 170 209 249 296
#     4   9  16  30  54  76  96 130 171 206 244 295
#     4  11  20  30  46  70  98 129 166 206 251 294
#     4   8  14  23  38  63  95 124 156 199 243 289
#     4   9  16  26  41  61  91 129 164 197 242 296
#     4   9  16  29  48  71  97 130 167 202 245 294
#
# _framework density 16.787965
#
# number of rings (size 3 to 8) (size 9 to 14) (size 15 to 20)
#    0.000    2.500    1.667    3.500    0.000    4.000 
#    0.000    2.500    0.000    0.000    0.000    1.167 
#    0.000    9.333    0.000    0.000    0.000    0.000 
#
# Total GULP energy -133731.844600 kJ/mol
# GULP energy per Si atom -5572.160192 kJ/mol
# Density = 1.674975 g / cm^3
# Si number density = 16.787965 Si / 1000 Ang^3
#
#
#
# Elastic Constant Matrix: (Units=GPa)
#
#
# Indices 1 2 3 4 5 6 
#
# 1 62.9271 20.4851 49.2490 0.0000 0.9395 0.0001
# 2 20.4851 60.6341 42.5622 0.0000 -2.3864 0.0004
# 3 49.2490 42.5622 150.4382 0.0001 15.0755 0.0000
# 4 0.0000 0.0000 0.0001 27.7811 0.0000 -2.7107
# 5 0.9395 -2.3864 15.0755 0.0000 16.8622 -0.0001
# 6 0.0001 0.0004 0.0000 -2.7107 -0.0001 13.4729
#
#
#
# Elastic Compliance Matrix: (Units=1/GPa)
#
#
# Indices 1 2 3 4 5 6 
#
# 1 0.022096 -0.002330 -0.007050 0.000000 0.004742 0.000000
# 2 -0.002330 0.022123 -0.006396 0.000000 0.008979 -0.000001
# 3 -0.007050 -0.006396 0.011880 0.000000 -0.011134 0.000000
# 4 0.000000 0.000000 0.000000 0.036716 0.000000 0.007387
# 5 0.004742 0.008979 -0.011134 0.000000 0.070265 0.000000
# 6 0.000000 -0.000001 0.000000 0.007387 0.000000 0.075709
#
#
# Mechanical properties :
#
#
# Convention : Reuss Voigt Hill
#
# Bulk Modulus (GPa) = 40.73641 55.39911 48.06776
# Shear Modulus (GPa) = 17.95175 22.40346 20.17760
#
# Velocity S-wave (km/s) = 3.27360 3.65704 3.47062
# Velocity P-wave (km/s) = 6.21341 7.13462 6.68989
#
# Compressibility (1/GPa) = 0.02454807
#
# Stress axis : x y z
#
# Youngs Moduli (GPa) = 45.25611 45.20258 84.17225
#
# Poissons Ratio (x) = 0.10533 0.59339
# Poissons Ratio (y) = 0.10545 0.53836
# Poissons Ratio (z) = 0.31904 0.28911
#
# Static dielectric constant tensor:
#      x y z
#    x 1.540020 0.000000 0.023480 
#    y 0.000000 1.569090 0.000000 
#    z 0.023480 0.000000 1.597720 
# 
# From -- ./inp_files/280533.got.cif
#   From: 2010.05.17/outbox.cif.g08.bks.cpg/sg12_141_cif.got.tgz:280533.got - 2010.06.03 13:09:07.
