data_PCOD9219665
_publ_section_title
;
Structure prediction by ZEFSAII (Michael W. Deem and Ramdas Pophale) SiO2 
 PCOD9219665
Probable space group: C 2/M
;
_chemical_formula_sum "Si O2"
_cell_formula_units_Z 40
_cell_length_a 9.344184
_cell_length_b 22.379203
_cell_length_c 10.624009
_cell_angle_alpha 90.000000
_cell_angle_beta 89.086339
_cell_angle_gamma 90.000000
_cell_volume 2221.361330
_symmetry_space_group_name_H-M "C 2/M"
_symmetry_group_IT_number 12
_symmetry_cell_setting 'monoclinic'
loop_
_space_group_symop_operation_xyz
x,y,z
-x,y,-z
-x,-y,-z
x,-y,z
1/2+x,1/2+y,z
1/2-x,1/2+y,-z
1/2-x,1/2-y,-z
1/2+x,1/2-y,z
loop_
_atom_site_type_symbol
_atom_site_label
_atom_site_fract_x
_atom_site_fract_y
_atom_site_fract_z
Si Si1 0.379665 0.272782 0.913917
Si Si2 0.180593 0.817323 0.597467
Si Si3 0.775510 0.855635 0.687618
Si Si4 0.518904 0.434801 0.650300
Si Si5 0.996901 0.702921 0.695218
O O1 0.321842 0.313971 0.802626
O O2 0.456955 0.218705 0.839044
O O3 0.500000 0.302327 0.000000
O O4 0.250000 0.250000 0.000000
O O5 0.588716 0.740192 0.641991
O O6 0.171357 0.829133 0.447904
O O7 0.120835 0.877021 0.667118
O O8 0.346972 0.807067 0.627603
O O9 0.604519 0.852748 0.683767
O O10 0.862005 0.916707 0.702383
O O11 0.500000 0.438980 0.500000
O O12 0.567559 0.500000 0.695238
#
# Coordination Sequence:
#
# PCOD9219665 Si02
#       5
#     8   8   8   8   8
#     4  12  23  34  48  77 115 152 179 215 268 326
#     4  11  21  32  56  87 113 143 174 226 285 332
#     4  11  22  34  55  83 111 147 178 227 277 331
#     4   9  19  37  56  79 110 145 185 225 274 328
#     4  12  21  34  54  84 118 141 177 222 283 341
#
# _framework density 18.006975000000001
#
# number of rings (size 3 to 8) (size 9 to 14) (size 15 to 20)
#    0.000    1.000    6.000    1.200    2.800    0.000 
#    0.000    1.000    0.000    5.400    0.000    1.400 
#    0.000    0.000    0.000    0.000    0.000    0.000 
#
# Total GULP energy -111560.682073 kJ/mol
# GULP energy per Si atom -5578.034104 kJ/mol
# Density = 1.796599 g / cm^3
# Si number density = 18.006975 Si / 1000 Ang^3
#
#
#
# Elastic Constant Matrix: (Units=GPa)
#
#
# Indices 1 2 3 4 5 6 
#
# 1 139.1639 48.8621 27.8893 0.0000 4.4996 0.0000
# 2 48.8621 95.4285 8.0284 0.0000 -3.9403 0.0000
# 3 27.8893 8.0284 83.7057 0.0000 -5.1330 0.0000
# 4 0.0000 0.0000 0.0000 4.6240 0.0000 1.0622
# 5 4.4996 -3.9403 -5.1330 0.0000 40.0010 0.0000
# 6 0.0000 0.0000 0.0000 1.0622 0.0000 18.3910
#
#
#
# Elastic Compliance Matrix: (Units=1/GPa)
#
#
# Indices 1 2 3 4 5 6 
#
# 1 0.009455 -0.004682 -0.002817 0.000000 -0.001886 0.000000
# 2 -0.004682 0.012917 0.000435 0.000000 0.001855 0.000000
# 3 -0.002817 0.000435 0.012968 0.000000 0.002024 0.000000
# 4 0.000000 0.000000 0.000000 0.219171 0.000000 -0.012659
# 5 -0.001886 0.001855 0.002024 0.000000 0.025654 0.000000
# 6 0.000000 0.000000 0.000000 -0.012659 0.000000 0.055106
#
#
# Mechanical properties :
#
#
# Convention : Reuss Voigt Hill
#
# Bulk Modulus (GPa) = 47.14571 54.20641 50.67606
# Shear Modulus (GPa) = 14.02647 28.17108 21.09877
#
# Velocity S-wave (km/s) = 2.79399 3.95961 3.42672
# Velocity P-wave (km/s) = 6.05370 7.14654 6.62270
#
# Compressibility (1/GPa) = 0.02121084
#
# Stress axis : x y z
#
# Youngs Moduli (GPa) = 105.76083 77.42030 77.11559
#
# Poissons Ratio (x) = 0.36250 0.21723
# Poissons Ratio (y) = 0.49520 -0.03354
# Poissons Ratio (z) = 0.29792 -0.03367
#
# Static dielectric constant tensor:
#      x y z
#    x 1.682610 0.000000 0.007410 
#    y 0.000000 1.644700 0.000000 
#    z 0.007410 0.000000 1.648920 
# 
# From -- ./inp_files/120246.got.cif
#   From: 2010.05.17/outbox.cif.g08.bks.cpg/sg12_61_cif.got.tgz:120246.got - 2010.06.03 13:09:07.
