data_PCOD9219517
_publ_section_title
;
Structure prediction by ZEFSAII (Michael W. Deem and Ramdas Pophale) SiO2 
 PCOD9219517
Probable space group: C 2/M
;
_chemical_formula_sum "Si O2"
_cell_formula_units_Z 56
_cell_length_a 13.736092
_cell_length_b 27.315042
_cell_length_c 9.911110
_cell_angle_alpha 90.000000
_cell_angle_beta 57.170294
_cell_angle_gamma 90.000000
_cell_volume 3124.742956
_symmetry_space_group_name_H-M "C 2/M"
_symmetry_group_IT_number 12
_symmetry_cell_setting 'monoclinic'
loop_
_space_group_symop_operation_xyz
x,y,z
-x,y,-z
-x,-y,-z
x,-y,z
1/2+x,1/2+y,z
1/2-x,1/2+y,-z
1/2-x,1/2-y,-z
1/2+x,1/2-y,z
loop_
_atom_site_type_symbol
_atom_site_label
_atom_site_fract_x
_atom_site_fract_y
_atom_site_fract_z
Si Si1 0.530432 0.155293 0.625983
Si Si2 0.285501 0.306438 0.486516
Si Si3 0.486945 0.054382 0.781013
Si Si4 0.491561 0.320292 0.857340
Si Si5 0.683159 0.342760 0.242050
Si Si6 0.306846 0.055045 0.154534
Si Si7 0.091233 0.709400 0.042966
O O1 0.500000 0.172080 0.500000
O O2 0.665271 0.164175 0.558832
O O3 0.499084 0.098633 0.669953
O O4 0.449832 0.185453 0.788144
O O5 0.250000 0.250000 0.500000
O O6 0.379912 0.314998 0.299566
O O7 0.338109 0.319288 0.594316
O O8 0.595561 0.056931 0.802352
O O9 0.484206 0.000000 0.723045
O O10 0.375263 0.060346 0.961442
O O11 0.418131 0.344106 0.792167
O O12 0.429334 0.267460 0.929201
O O13 0.500000 0.343866 0.000000
O O14 0.725902 0.398278 0.231678
O O15 0.785161 0.309467 0.099295
O O16 0.255309 0.000000 0.197386
O O17 0.000000 0.690780 0.000000
#
# Coordination Sequence:
#
# PCOD9219517 Si02
#       7
#     8   8   8   8   8   8   8
#     4  12  24  34  59  89 124 152 189 242 294 353
#     4  12  24  40  57  83 119 158 198 242 288 348
#     4   9  17  34  56  87 122 150 186 237 298 357
#     4  11  26  40  56  84 118 161 202 239 287 351
#     4  12  22  38  66  83 120 154 200 244 291 351
#     4   9  17  32  62  91 112 146 195 245 292 347
#     4  11  20  40  58  85 116 154 197 236 291 346
#
# _framework density 17.921472999999999
#
# number of rings (size 3 to 8) (size 9 to 14) (size 15 to 20)
#    0.000    1.143    5.714    2.571    4.000    0.286 
#    0.000    0.000    0.000    3.000    0.000    0.000 
#    0.000    0.000    0.000    0.000    0.000    0.000 
#
# Total GULP energy -156273.049270 kJ/mol
# GULP energy per Si atom -5581.180331 kJ/mol
# Density = 1.788068 g / cm^3
# Si number density = 17.921473 Si / 1000 Ang^3
#
#
#
# Elastic Constant Matrix: (Units=GPa)
#
#
# Indices 1 2 3 4 5 6 
#
# 1 44.8463 -5.4494 19.6011 0.0000 16.0570 0.0000
# 2 -5.4494 75.1661 6.7480 0.0000 9.2865 0.0000
# 3 19.6011 6.7480 101.4475 0.0000 18.0545 0.0000
# 4 0.0000 0.0000 0.0000 12.6396 0.0000 -0.1220
# 5 16.0570 9.2865 18.0545 0.0000 33.1929 0.0000
# 6 0.0000 0.0000 0.0000 -0.1220 0.0000 12.0722
#
#
#
# Elastic Compliance Matrix: (Units=1/GPa)
#
#
# Indices 1 2 3 4 5 6 
#
# 1 0.029094 0.004068 -0.003526 0.000000 -0.013294 0.000000
# 2 0.004068 0.014355 -0.000748 0.000000 -0.005577 0.000000
# 3 -0.003526 -0.000748 0.011346 0.000000 -0.004256 0.000000
# 4 0.000000 0.000000 0.000000 0.079124 0.000000 0.000800
# 5 -0.013294 -0.005577 -0.004256 0.000000 0.040433 0.000000
# 6 0.000000 0.000000 0.000000 0.000800 0.000000 0.082843
#
#
# Mechanical properties :
#
#
# Convention : Reuss Voigt Hill
#
# Bulk Modulus (GPa) = 18.38821 29.25102 23.81962
# Shear Modulus (GPa) = 18.13337 24.95163 21.54250
#
# Velocity S-wave (km/s) = 3.18437 3.73537 3.47082
# Velocity P-wave (km/s) = 4.87883 5.91280 5.42052
#
# Compressibility (1/GPa) = 0.05438266
#
# Stress axis : x y z
#
# Youngs Moduli (GPa) = 34.37151 69.66198 88.13803
#
# Poissons Ratio (x) = -0.28340 0.31077
# Poissons Ratio (y) = -0.13983 0.06596
# Poissons Ratio (z) = 0.12119 0.05213
#
# Static dielectric constant tensor:
#      x y z
#    x 1.634840 0.000000 -0.002450 
#    y 0.000000 1.621110 0.000000 
#    z -0.002450 0.000000 1.642450 
# 
# From -- ./inp_files/66858.got.cif
#   From: 2010.05.17/outbox.cif.g08.bks.cpg/sg12_34_cif.got.tgz:66858.got - 2010.06.03 13:09:07.
