data_PCOD9219725
_publ_section_title
;
Structure prediction by ZEFSAII (Michael W. Deem and Ramdas Pophale) SiO2 
 PCOD9219725
Probable space group: C 2/M
;
_chemical_formula_sum "Si O2"
_cell_formula_units_Z 56
_cell_length_a 9.316541
_cell_length_b 27.451072
_cell_length_c 14.665613
_cell_angle_alpha 90.000000
_cell_angle_beta 116.663286
_cell_angle_gamma 90.000000
_cell_volume 3351.861928
_symmetry_space_group_name_H-M "C 2/M"
_symmetry_group_IT_number 12
_symmetry_cell_setting 'monoclinic'
loop_
_space_group_symop_operation_xyz
x,y,z
-x,y,-z
-x,-y,-z
x,-y,z
1/2+x,1/2+y,z
1/2-x,1/2+y,-z
1/2-x,1/2-y,-z
1/2+x,1/2-y,z
loop_
_atom_site_type_symbol
_atom_site_label
_atom_site_fract_x
_atom_site_fract_y
_atom_site_fract_z
Si Si1 0.183386 0.226634 0.072797
Si Si2 0.836033 0.292719 0.400829
Si Si3 0.587624 0.152956 0.766814
Si Si4 0.235273 0.298009 0.258932
Si Si5 0.045587 0.848892 0.408248
Si Si6 0.539838 0.943580 0.662108
Si Si7 0.264961 0.443644 0.547456
O O1 0.280549 0.179007 0.132452
O O2 0.203345 0.267229 0.158089
O O3 0.250000 0.250000 0.000000
O O4 0.000000 0.214648 0.000000
O O5 0.881350 0.324718 0.325092
O O6 0.759478 0.242987 0.343137
O O7 0.706307 0.320417 0.425105
O O8 0.000000 0.283197 0.500000
O O9 0.416270 0.169823 0.756537
O O10 0.587657 0.095178 0.751997
O O11 0.398526 0.329435 0.305045
O O12 0.090811 0.905591 0.410718
O O13 0.000000 0.840086 0.500000
O O14 0.664000 0.939877 0.612738
O O15 0.364557 0.931442 0.569027
O O16 0.537489 0.000000 0.690480
O O17 0.313212 0.500000 0.550117
#
# Coordination Sequence:
#
# PCOD9219725 Si02
#       7
#     8   8   8   8   8   8   8
#     4  11  23  41  61  84 109 138 183 234 286 338
#     4  11  21  34  50  73 112 152 185 220 265 328
#     4  11  21  36  58  80 107 146 185 226 275 331
#     4  11  24  36  53  80 111 143 182 227 279 333
#     4  12  23  33  50  79 114 150 188 226 272 326
#     4   9  17  32  56  81 108 147 193 229 266 321
#     4   9  18  33  52  77 112 153 191 229 266 314
#
# _framework density 16.707132000000001
#
# number of rings (size 3 to 8) (size 9 to 14) (size 15 to 20)
#    0.000    1.429    2.857    5.571    2.000    2.000 
#    0.000    0.714    0.000    0.429    0.000    3.000 
#    0.000    0.000    0.000    0.000    0.000    0.000 
#
# Total GULP energy -156402.413459 kJ/mol
# GULP energy per Si atom -5585.800481 kJ/mol
# Density = 1.666911 g / cm^3
# Si number density = 16.707132 Si / 1000 Ang^3
#
#
#
# Elastic Constant Matrix: (Units=GPa)
#
#
# Indices 1 2 3 4 5 6 
#
# 1 82.0352 39.4458 39.7668 0.0000 8.4132 0.0000
# 2 39.4458 120.1969 55.0673 0.0000 8.4264 0.0000
# 3 39.7668 55.0673 95.9632 0.0000 11.0869 0.0000
# 4 0.0000 0.0000 0.0000 17.6211 0.0000 0.7397
# 5 8.4132 8.4264 11.0869 0.0000 24.4475 0.0000
# 6 0.0000 0.0000 0.0000 0.7397 0.0000 23.4064
#
#
#
# Elastic Compliance Matrix: (Units=1/GPa)
#
#
# Indices 1 2 3 4 5 6 
#
# 1 0.016148 -0.002975 -0.004708 0.000000 -0.002397 0.000000
# 2 -0.002975 0.011858 -0.005507 0.000000 -0.000566 0.000000
# 3 -0.004708 -0.005507 0.015961 0.000000 -0.003720 0.000000
# 4 0.000000 0.000000 0.000000 0.056826 0.000000 -0.001796
# 5 -0.002397 -0.000566 -0.003720 0.000000 0.043611 0.000000
# 6 0.000000 0.000000 0.000000 -0.001796 0.000000 0.042780
#
#
# Mechanical properties :
#
#
# Convention : Reuss Voigt Hill
#
# Bulk Modulus (GPa) = 56.85179 62.97279 59.91229
# Shear Modulus (GPa) = 22.78669 24.02270 23.40469
#
# Velocity S-wave (km/s) = 3.69709 3.79604 3.74689
# Velocity P-wave (km/s) = 7.23374 7.54899 7.39304
#
# Compressibility (1/GPa) = 0.01758960
#
# Stress axis : x y z
#
# Youngs Moduli (GPa) = 61.92663 84.32822 62.65111
#
# Poissons Ratio (x) = 0.25083 0.29496
# Poissons Ratio (y) = 0.18420 0.34500
# Poissons Ratio (z) = 0.29155 0.46437
#
# Static dielectric constant tensor:
#      x y z
#    x 1.549630 0.000000 -0.005070 
#    y 0.000000 1.582040 0.000000 
#    z -0.005070 0.000000 1.545910 
# 
# From -- ./inp_files/199929.got.cif
#   From: 2010.05.17/outbox.cif.g08.bks.cpg/sg12_100_cif.got.tgz:199929.got - 2010.06.03 13:09:07.
