data_PCOD9219399
_publ_section_title
;
Structure prediction by ZEFSAII (Michael W. Deem and Ramdas Pophale) SiO2 
 PCOD9219399
Probable space group: C 2/M
;
_chemical_formula_sum "Si O2"
_cell_formula_units_Z 54
_cell_length_a 18.433811
_cell_length_b 17.430798
_cell_length_c 17.378630
_cell_angle_alpha 90.000000
_cell_angle_beta 22.691759
_cell_angle_gamma 90.000000
_cell_volume 2154.170909
_symmetry_space_group_name_H-M "C 2/M"
_symmetry_group_IT_number 12
_symmetry_cell_setting 'monoclinic'
loop_
_space_group_symop_operation_xyz
x,y,z
-x,y,-z
-x,-y,-z
x,-y,z
1/2+x,1/2+y,z
1/2-x,1/2+y,-z
1/2-x,1/2-y,-z
1/2+x,1/2-y,z
loop_
_atom_site_type_symbol
_atom_site_label
_atom_site_fract_x
_atom_site_fract_y
_atom_site_fract_z
Si Si1 0.014633 0.693446 0.180944
Si Si2 0.257143 0.149525 0.187159
Si Si3 0.841959 0.378521 0.552310
Si Si4 0.352343 0.301633 0.536982
Si Si5 0.769166 0.087392 0.173268
Si Si6 0.881161 0.000000 0.332421
Si Si7 0.867639 0.860030 0.915409
Si Si8 0.000000 0.500000 0.000000
O O1 0.152753 0.641355 0.096101
O O2 0.803696 0.667425 0.369694
O O3 0.112033 0.692646 0.001692
O O4 0.035740 0.778394 0.195416
O O5 0.229410 0.190665 0.296158
O O6 0.050020 0.154138 0.350532
O O7 0.353533 0.068024 0.111561
O O8 0.867751 0.289290 0.506297
O O9 0.719230 0.384477 0.750943
O O10 0.749377 0.432374 0.579939
O O11 0.047506 0.409806 0.371650
O O12 0.862786 0.132588 0.012448
O O13 0.837741 0.000000 0.099552
O O14 0.026077 0.932880 0.220008
#
# Coordination Sequence:
#
# PCOD9219399 Si02
#       8
#     8   8   8   8   8   4   8   2
#     4  11  23  47  64  92 136 184 224 279 334 402
#     4  11  24  45  72 105 130 167 223 288 337 401
#     4  11  21  38  66  97 133 171 217 279 327 389
#     4  11  22  43  74 101 129 174 226 271 345 409
#     4  11  20  37  57  93 135 169 211 274 328 390
#     4  12  22  39  59  99 132 172 227 276 332 386
#     4  11  25  40  62  90 136 183 229 271 332 407
#     4  12  24  44  74 104 136 160 210 304 346 382
#
# _framework density 25.067648999999999
#
# number of rings (size 3 to 8) (size 9 to 14) (size 15 to 20)
#    0.000    0.889    5.185    4.000    0.000    2.963 
#    2.667    2.222    0.000    0.000    0.000    0.000 
#    0.000    0.000    0.000    0.000    0.000    0.000 
#
# Total GULP energy -150461.979403 kJ/mol
# GULP energy per Si atom -5572.665904 kJ/mol
# Density = 2.501059 g / cm^3
# Si number density = 25.067649 Si / 1000 Ang^3
#
#
#
# Elastic Constant Matrix: (Units=GPa)
#
#
# Indices 1 2 3 4 5 6 
#
# 1 131.1713 61.3643 77.2525 -0.0886 -50.0122 0.0111
# 2 61.3643 179.8777 47.9706 -0.3110 -21.8028 0.0482
# 3 77.2525 47.9706 103.0994 -0.4092 -39.7677 0.0730
# 4 -0.0886 -0.3110 -0.4092 -123.2669 0.1272 12.9343
# 5 -50.0122 -21.8028 -39.7677 0.1272 78.2626 -0.0179
# 6 0.0111 0.0482 0.0730 12.9343 -0.0179 31.4614
#
#
#
# Elastic Compliance Matrix: (Units=1/GPa)
#
#
# Indices 1 2 3 4 5 6 
#
# 1 0.015867 -0.002456 -0.008830 0.000030 0.004969 0.000009
# 2 -0.002456 0.006734 -0.001461 -0.000011 -0.000436 -0.000002
# 3 -0.008830 -0.001461 0.018236 -0.000049 0.003217 -0.000015
# 4 0.000030 -0.000011 -0.000049 -0.007777 0.000005 0.003197
# 5 0.004969 -0.000436 0.003217 0.000005 0.017466 -0.000001
# 6 0.000009 -0.000002 -0.000015 0.003197 -0.000001 0.030471
#
#
# Mechanical properties :
#
#
# Convention : Reuss Voigt Hill
#
# Bulk Modulus (GPa) = 65.17547 87.48036 76.32792
# Shear Modulus (GPa) = 44.80043 12.46215 28.63129
#
# Velocity S-wave (km/s) = 4.23209 2.23208 3.38325
# Velocity P-wave (km/s) = 7.06662 6.45108 6.76585
#
# Compressibility (1/GPa) = 0.01534319
#
# Stress axis : x y z
#
# Youngs Moduli (GPa) = 63.02199 148.50062 54.83578
#
# Poissons Ratio (x) = 0.36471 0.48421
# Poissons Ratio (y) = 0.15478 0.08012
# Poissons Ratio (z) = 0.55650 0.21698
#
# Static dielectric constant tensor:
#      x y z
#    x 2.032780 -0.000010 0.041430 
#    y -0.000010 1.875310 0.000030 
#    z 0.041430 0.000030 2.049930 
# 
# From -- ./inp_files/322689.got.cif
#   From: 2010.05.17/outbox.cif.g08.bks.cpg/sg12_162_cif.got.tgz:322689.got - 2010.06.03 13:09:07.
