data_PCOD9219880
_publ_section_title
;
Structure prediction by ZEFSAII (Michael W. Deem and Ramdas Pophale) SiO2 
 PCOD9219880
Probable space group: C 2/M
;
_chemical_formula_sum "Si O2"
_cell_formula_units_Z 48
_cell_length_a 30.867275
_cell_length_b 7.445498
_cell_length_c 9.737760
_cell_angle_alpha 90.000000
_cell_angle_beta 100.364873
_cell_angle_gamma 90.000000
_cell_volume 2201.434739
_symmetry_space_group_name_H-M "C 2/M"
_symmetry_group_IT_number 12
_symmetry_cell_setting 'monoclinic'
loop_
_space_group_symop_operation_xyz
x,y,z
-x,y,-z
-x,-y,-z
x,-y,z
1/2+x,1/2+y,z
1/2-x,1/2+y,-z
1/2-x,1/2-y,-z
1/2+x,1/2-y,z
loop_
_atom_site_type_symbol
_atom_site_label
_atom_site_fract_x
_atom_site_fract_y
_atom_site_fract_z
Si Si1 0.541976 0.719263 0.614764
Si Si2 0.542003 0.280998 0.933373
Si Si3 0.782257 0.804611 0.898024
Si Si4 0.221855 0.786853 0.618362
Si Si5 0.375290 0.280823 0.521250
Si Si6 0.126028 0.220254 0.161819
O O1 0.500000 0.774352 0.500000
O O2 0.541906 0.500000 0.617536
O O3 0.540497 0.777561 0.773206
O O4 0.585513 0.775911 0.556776
O O5 0.541507 0.500000 0.930437
O O6 0.500000 0.224476 0.000000
O O7 0.586123 0.227285 0.039648
O O8 0.749365 0.805913 0.751950
O O9 0.827318 0.713248 0.872999
O O10 0.798283 0.000000 0.950222
O O11 0.750000 0.750000 0.000000
O O12 0.250000 0.750000 0.500000
O O13 0.172081 0.725572 0.564681
O O14 0.220886 0.000000 0.647009
O O15 0.375490 0.500000 0.523384
O O16 0.380016 0.222813 0.682858
O O17 0.126578 0.000000 0.168231
#
# Coordination Sequence:
#
# PCOD9219880 Si02
#       6
#     8   8   8   8   8   8
#     4   9  16  25  40  64  95 131 171 214 265 324
#     4   9  16  25  40  63  95 134 171 211 265 325
#     4  11  23  38  55  79 111 148 187 230 276 326
#     4  11  21  36  57  81 111 148 187 228 273 325
#     4   9  17  29  46  69  99 135 173 217 269 320
#     4   9  17  30  46  67  99 136 173 216 270 323
#
# _framework density 21.803964000000001
#
# number of rings (size 3 to 8) (size 9 to 14) (size 15 to 20)
#    0.000    2.333    1.667    2.000    2.333    4.000 
#    0.000    0.000    0.000    0.000    0.000    0.000 
#    0.000    8.000    0.000    0.000    0.000    0.000 
#
# Total GULP energy -133965.630838 kJ/mol
# GULP energy per Si atom -5581.901285 kJ/mol
# Density = 2.175434 g / cm^3
# Si number density = 21.803964 Si / 1000 Ang^3
#
#
#
# Elastic Constant Matrix: (Units=GPa)
#
#
# Indices 1 2 3 4 5 6 
#
# 1 248.8693 2.7667 139.5317 0.0000 -10.1439 0.0000
# 2 2.7667 62.0901 -4.0111 0.0000 -3.5964 0.0000
# 3 139.5317 -4.0111 195.7883 0.0000 -20.2338 0.0000
# 4 0.0000 0.0000 0.0000 5.0341 0.0000 -0.9971
# 5 -10.1439 -3.5964 -20.2338 0.0000 44.9702 0.0000
# 6 0.0000 0.0000 0.0000 -0.9971 0.0000 8.9842
#
#
#
# Elastic Compliance Matrix: (Units=1/GPa)
#
#
# Indices 1 2 3 4 5 6 
#
# 1 0.006738 -0.000659 -0.004891 0.000000 -0.000734 0.000000
# 2 -0.000659 0.016290 0.000967 0.000000 0.001589 0.000000
# 3 -0.004891 0.000967 0.008922 0.000000 0.002988 0.000000
# 4 0.000000 0.000000 0.000000 0.203111 0.000000 0.022543
# 5 -0.000734 0.001589 0.002988 0.000000 0.023543 0.000000
# 6 0.000000 0.000000 0.000000 0.022543 0.000000 0.113809
#
#
# Mechanical properties :
#
#
# Convention : Reuss Voigt Hill
#
# Bulk Modulus (GPa) = 43.88947 87.03581 65.46264
# Shear Modulus (GPa) = 12.84780 36.36171 24.60476
#
# Velocity S-wave (km/s) = 2.43006 4.08814 3.36289
# Velocity P-wave (km/s) = 5.29589 7.89227 6.72065
#
# Compressibility (1/GPa) = 0.02278451
#
# Stress axis : x y z
#
# Youngs Moduli (GPa) = 148.41424 61.38910 112.08258
#
# Poissons Ratio (x) = 0.04044 0.54822
# Poissons Ratio (y) = 0.09776 -0.10843
# Poissons Ratio (z) = 0.72592 -0.05939
#
# Static dielectric constant tensor:
#      x y z
#    x 1.775790 0.000000 -0.018880 
#    y 0.000000 1.871150 0.000000 
#    z -0.018880 0.000000 1.718220 
# 
# From -- ./inp_files/108748.got.cif
#   From: 2010.05.17/outbox.cif.g08.bks.cpg/sg12_55_cif.got.tgz:108748.got - 2010.06.03 13:09:07.
