data_PCOD9219524
_publ_section_title
;
Structure prediction by ZEFSAII (Michael W. Deem and Ramdas Pophale) SiO2 
 PCOD9219524
Probable space group: C 2/M
;
_chemical_formula_sum "Si O2"
_cell_formula_units_Z 44
_cell_length_a 17.497775
_cell_length_b 17.813695
_cell_length_c 8.625851
_cell_angle_alpha 90.000000
_cell_angle_beta 128.440448
_cell_angle_gamma 90.000000
_cell_volume 2105.919840
_symmetry_space_group_name_H-M "C 2/M"
_symmetry_group_IT_number 12
_symmetry_cell_setting 'monoclinic'
loop_
_space_group_symop_operation_xyz
x,y,z
-x,y,-z
-x,-y,-z
x,-y,z
1/2+x,1/2+y,z
1/2-x,1/2+y,-z
1/2-x,1/2-y,-z
1/2+x,1/2-y,z
loop_
_atom_site_type_symbol
_atom_site_label
_atom_site_fract_x
_atom_site_fract_y
_atom_site_fract_z
Si Si1 0.000000 0.243725 0.500000
Si Si2 0.205104 0.317358 0.843893
Si Si3 0.089512 0.588514 0.926787
Si Si4 0.878501 0.356083 0.687214
Si Si5 0.557418 0.303403 0.236127
Si Si6 0.197156 0.913982 0.281019
O O1 0.103870 0.288124 0.638369
O O2 0.004164 0.201022 0.336943
O O3 0.169675 0.384628 0.908458
O O4 0.285665 0.353472 0.833583
O O5 0.250000 0.250000 0.000000
O O6 0.077001 0.500000 0.915386
O O7 0.985768 0.625853 0.755897
O O8 0.117951 0.618864 0.130646
O O9 0.866983 0.266595 0.664869
O O10 0.797796 0.404533 0.500937
O O11 0.611374 0.382071 0.280228
O O12 0.500000 0.290385 0.000000
O O13 0.182223 0.000000 0.214440
#
# Coordination Sequence:
#
# PCOD9219524 Si02
#       6
#     4   8   8   8   8   8
#     4  12  24  44  70 100 130 176 236 290 326 402
#     4  12  24  42  67  98 133 180 232 282 343 414
#     4  11  21  36  62  97 137 173 217 280 352 414
#     4  11  20  40  64  95 134 175 221 277 341 411
#     4  12  24  46  71  99 132 185 239 277 336 409
#     4  12  26  42  66 101 139 175 219 286 353 403
#
# _framework density 20.893481999999999
#
# number of rings (size 3 to 8) (size 9 to 14) (size 15 to 20)
#    0.000    0.364    5.455    5.455    2.545    0.364 
#    0.000    3.182    0.000    0.000    0.000    0.000 
#    0.000    0.000    0.000    0.000    0.000    0.000 
#
# Total GULP energy -122855.030159 kJ/mol
# GULP energy per Si atom -5584.319553 kJ/mol
# Density = 2.084593 g / cm^3
# Si number density = 20.893482 Si / 1000 Ang^3
#
#
#
# Elastic Constant Matrix: (Units=GPa)
#
#
# Indices 1 2 3 4 5 6 
#
# 1 81.9673 30.4712 15.8661 0.0000 -31.8161 0.0000
# 2 30.4712 103.5608 32.8631 0.0000 -9.2128 0.0000
# 3 15.8661 32.8631 80.4790 0.0000 -18.3172 0.0000
# 4 0.0000 0.0000 0.0000 8.4753 0.0000 11.3152
# 5 -31.8161 -9.2128 -18.3172 0.0000 22.7833 0.0000
# 6 0.0000 0.0000 0.0000 11.3152 0.0000 4.4729
#
#
#
# Elastic Compliance Matrix: (Units=1/GPa)
#
#
# Indices 1 2 3 4 5 6 
#
# 1 0.032228 -0.007653 0.007724 0.000000 0.048120 0.000000
# 2 -0.007653 0.012931 -0.006137 0.000000 -0.010392 0.000000
# 3 0.007724 -0.006137 0.018725 0.000000 0.023359 0.000000
# 4 0.000000 0.000000 0.000000 -0.049630 0.000000 0.125550
# 5 0.048120 -0.010392 0.023359 0.000000 0.125668 0.000000
# 6 0.000000 0.000000 0.000000 0.125550 0.000000 -0.094040
#
#
# Mechanical properties :
#
#
# Convention : Reuss Voigt Hill
#
# Bulk Modulus (GPa) = 19.32276 47.15642 33.23959
# Shear Modulus (GPa) = 66.43253 19.60009 43.01631
#
# Velocity S-wave (km/s) = 5.64490 3.06616 4.54237
# Velocity P-wave (km/s) = 7.19408 5.92908 6.59199
#
# Compressibility (1/GPa) = 0.05175243
#
# Stress axis : x y z
#
# Youngs Moduli (GPa) = 31.02894 77.33494 53.40363
#
# Poissons Ratio (x) = 0.59182 -0.41247
# Poissons Ratio (y) = 0.23746 0.32772
# Poissons Ratio (z) = -0.23965 0.47458
#
# Static dielectric constant tensor:
#      x y z
#    x 1.710300 0.000000 -0.012950 
#    y 0.000000 1.770510 0.000000 
#    z -0.012950 0.000000 1.788170 
# 
# From -- ./inp_files/73745.got.cif
#   From: 2010.05.17/outbox.cif.g08.bks.cpg/sg12_37_cif.got.tgz:73745.got - 2010.06.03 13:09:07.
