data_PCOD9219698
_publ_section_title
;
Structure prediction by ZEFSAII (Michael W. Deem and Ramdas Pophale) SiO2 
 PCOD9219698
Probable space group: C 2/M
;
_chemical_formula_sum "Si O2"
_cell_formula_units_Z 64
_cell_length_a 27.221834
_cell_length_b 21.085202
_cell_length_c 10.631748
_cell_angle_alpha 90.000000
_cell_angle_beta 27.926935
_cell_angle_gamma 90.000000
_cell_volume 2858.024306
_symmetry_space_group_name_H-M "C 2/M"
_symmetry_group_IT_number 12
_symmetry_cell_setting 'monoclinic'
loop_
_space_group_symop_operation_xyz
x,y,z
-x,y,-z
-x,-y,-z
x,-y,z
1/2+x,1/2+y,z
1/2-x,1/2+y,-z
1/2-x,1/2-y,-z
1/2+x,1/2-y,z
loop_
_atom_site_type_symbol
_atom_site_label
_atom_site_fract_x
_atom_site_fract_y
_atom_site_fract_z
Si Si1 0.589997 0.835457 0.041234
Si Si2 0.117146 0.924179 0.246325
Si Si3 0.859640 0.927599 0.086078
Si Si4 0.567293 0.932542 0.721228
Si Si5 0.061713 0.245547 0.730229
Si Si6 0.065011 0.096028 0.728230
Si Si7 0.781603 0.663859 0.505933
Si Si8 0.764811 0.426696 0.143462
O O1 0.671724 0.827311 0.738771
O O2 0.653492 0.870611 0.007897
O O3 0.501978 0.887334 0.205734
O O4 0.515228 0.773029 0.204740
O O5 0.194869 0.905189 0.182624
O O6 0.000000 0.895773 0.500000
O O7 0.107009 0.000000 0.284693
O O8 0.170151 0.914410 0.990722
O O9 0.835610 0.863158 0.223113
O O10 0.828019 0.000000 0.196505
O O11 0.987036 0.929460 0.798004
O O12 0.669295 0.899240 0.543124
O O13 0.587008 0.000000 0.616813
O O14 0.500000 0.939162 0.000000
O O15 0.076307 0.171407 0.689216
O O16 0.173058 0.280996 0.506391
O O17 0.000000 0.261238 0.000000
O O18 0.181364 0.069808 0.447573
O O19 0.000000 0.078415 0.000000
O O20 0.805025 0.500000 0.035304
#
# Coordination Sequence:
#
# PCOD9219698 Si02
#       8
#     8   8   8   8   8   8   8   8
#     4   9  17  30  50  75 104 134 166 206 246 297
#     4   9  18  36  54  68  96 140 178 201 241 314
#     4  11  21  33  53  78 102 130 167 214 262 304
#     4   8  13  23  41  67 100 133 159 190 242 300
#     4   8  18  36  52  72 104 146 180 192 234 311
#     4  11  22  33  50  76 107 138 165 208 256 300
#     4   9  17  30  50  75 104 134 166 206 246 297
#     4  11  21  33  53  78 102 130 167 214 262 304
#
# _framework density 22.393090999999998
#
# number of rings (size 3 to 8) (size 9 to 14) (size 15 to 20)
#    0.000    2.500    1.250    3.375    0.000    4.500 
#    0.000    3.750    0.000    7.500    0.000   11.375 
#    0.000    0.000    0.000    0.000    0.000    0.000 
#
# Total GULP energy -178183.273262 kJ/mol
# GULP energy per Si atom -5568.227289 kJ/mol
# Density = 2.234212 g / cm^3
# Si number density = 22.393091 Si / 1000 Ang^3
#
#
#
# Elastic Constant Matrix: (Units=GPa)
#
#
# Indices 1 2 3 4 5 6 
#
# 1 89.2415 14.6331 -3.0955 0.0000 -11.0260 0.0000
# 2 14.6331 106.9407 8.3322 0.0000 -7.8376 0.0000
# 3 -3.0955 8.3322 21.1198 0.0000 -6.8811 0.0000
# 4 0.0000 0.0000 0.0000 10.0887 0.0000 -11.5125
# 5 -11.0260 -7.8376 -6.8811 0.0000 22.9593 0.0000
# 6 0.0000 0.0000 0.0000 -11.5125 0.0000 28.0497
#
#
#
# Elastic Compliance Matrix: (Units=1/GPa)
#
#
# Indices 1 2 3 4 5 6 
#
# 1 0.012472 -0.001569 0.004681 0.000000 0.006857 0.000000
# 2 -0.001569 0.009964 -0.003655 0.000000 0.001553 0.000000
# 3 0.004681 -0.003655 0.055193 0.000000 0.017542 0.000000
# 4 0.000000 0.000000 0.000000 0.186443 0.000000 0.076522
# 5 0.006857 0.001553 0.017542 0.000000 0.052636 0.000000
# 6 0.000000 0.000000 0.000000 0.076522 0.000000 0.067058
#
#
# Mechanical properties :
#
#
# Convention : Reuss Voigt Hill
#
# Bulk Modulus (GPa) = 13.06447 28.56019 20.81233
# Shear Modulus (GPa) = 12.18421 25.38167 18.78294
#
# Velocity S-wave (km/s) = 2.33514 3.37034 2.89932
# Velocity P-wave (km/s) = 3.62178 5.28463 4.53016
#
# Compressibility (1/GPa) = 0.07654347
#
# Stress axis : x y z
#
# Youngs Moduli (GPa) = 80.17719 100.35905 18.11837
#
# Poissons Ratio (x) = 0.15744 -0.08481
# Poissons Ratio (y) = 0.12578 0.06623
# Poissons Ratio (z) = -0.37532 0.36683
#
# Static dielectric constant tensor:
#      x y z
#    x 1.868100 0.000000 0.124270 
#    y 0.000000 1.865590 0.000000 
#    z 0.124270 0.000000 1.440900 
# 
# From -- ./inp_files/184946.got.cif
#   From: 2010.05.17/outbox.cif.g08.bks.cpg/sg12_93_cif.got.tgz:184946.got - 2010.06.03 13:09:07.
