data_PCOD9219282
_publ_section_title
;
Structure prediction by ZEFSAII (Michael W. Deem and Ramdas Pophale) SiO2 
 PCOD9219282
Probable space group: C 2/M
;
_chemical_formula_sum "Si O2"
_cell_formula_units_Z 56
_cell_length_a 21.137023
_cell_length_b 8.812516
_cell_length_c 20.486696
_cell_angle_alpha 90.000000
_cell_angle_beta 50.716139
_cell_angle_gamma 90.000000
_cell_volume 2953.704553
_symmetry_space_group_name_H-M "C 2/M"
_symmetry_group_IT_number 12
_symmetry_cell_setting 'monoclinic'
loop_
_space_group_symop_operation_xyz
x,y,z
-x,y,-z
-x,-y,-z
x,-y,z
1/2+x,1/2+y,z
1/2-x,1/2+y,-z
1/2-x,1/2-y,-z
1/2+x,1/2-y,z
loop_
_atom_site_type_symbol
_atom_site_label
_atom_site_fract_x
_atom_site_fract_y
_atom_site_fract_z
Si Si1 0.604291 0.329041 0.363393
Si Si2 0.590556 0.328966 0.516758
Si Si3 0.369574 0.822449 0.785601
Si Si4 0.971270 0.685059 0.231929
Si Si5 0.667168 0.824106 0.581670
Si Si6 0.466697 0.185000 0.950840
Si Si7 0.219506 0.680594 0.952559
O O1 0.634051 0.500000 0.327073
O O2 0.630371 0.294893 0.420475
O O3 0.506223 0.337185 0.428552
O O4 0.622181 0.208463 0.296381
O O5 0.616985 0.500000 0.519960
O O6 0.608102 0.204081 0.558902
O O7 0.450015 0.770609 0.774465
O O8 0.288916 0.732094 0.857785
O O9 0.359260 0.000000 0.806959
O O10 0.969791 0.500000 0.234146
O O11 0.886374 0.736472 0.321784
O O12 0.986351 0.732043 0.146716
O O13 0.750000 0.750000 0.500000
O O14 0.682919 0.000000 0.583759
O O15 0.469613 0.000000 0.949193
O O16 0.500000 0.235246 0.000000
O O17 0.372091 0.231725 0.004829
O O18 0.216853 0.500000 0.959626
O O19 0.250000 0.750000 0.000000
#
# Coordination Sequence:
#
# PCOD9219282 Si02
#       7
#     8   8   8   8   8   8   8
#     4   9  18  33  54  81 111 142 181 231 287 342
#     4   9  18  34  55  79 108 141 183 237 288 339
#     4  11  20  34  56  84 117 149 188 237 286 347
#     4   9  18  34  56  82 108 144 192 238 286 343
#     4  11  22  37  56  79 112 152 197 244 290 346
#     4   9  18  36  61  85 112 148 194 242 288 347
#     4  11  21  35  58  90 119 148 190 241 298 352
#
# _framework density 18.959243000000001
#
# number of rings (size 3 to 8) (size 9 to 14) (size 15 to 20)
#    0.000    2.143    2.857    2.143    0.000    0.571 
#    2.571    1.429    0.000    1.714    0.000    0.000 
#    0.000    0.000    0.000    0.000    0.000    0.000 
#
# Total GULP energy -155917.344932 kJ/mol
# GULP energy per Si atom -5568.476605 kJ/mol
# Density = 1.891609 g / cm^3
# Si number density = 18.959243 Si / 1000 Ang^3
#
#
#
# Elastic Constant Matrix: (Units=GPa)
#
#
# Indices 1 2 3 4 5 6 
#
# 1 66.1794 14.8644 57.5148 0.0000 -2.0387 0.0001
# 2 14.8644 18.9239 23.8341 0.0002 -3.9692 0.0000
# 3 57.5148 23.8341 148.9881 0.0001 -3.8131 0.0000
# 4 0.0000 0.0002 0.0001 27.6155 0.0000 -0.0110
# 5 -2.0387 -3.9692 -3.8131 0.0000 28.2504 0.0001
# 6 0.0001 0.0000 0.0000 -0.0110 0.0001 22.8649
#
#
#
# Elastic Compliance Matrix: (Units=1/GPa)
#
#
# Indices 1 2 3 4 5 6 
#
# 1 0.023903 -0.009093 -0.007788 0.000000 -0.000604 0.000000
# 2 -0.009093 0.071439 -0.007705 0.000000 0.008341 0.000000
# 3 -0.007788 -0.007705 0.010947 0.000000 -0.000167 0.000000
# 4 0.000000 0.000000 0.000000 0.036212 0.000000 0.000017
# 5 -0.000604 0.008341 -0.000167 0.000000 0.036503 0.000000
# 6 0.000000 0.000000 0.000000 0.000017 0.000000 0.043735
#
#
# Mechanical properties :
#
#
# Convention : Reuss Voigt Hill
#
# Bulk Modulus (GPa) = 17.50800 47.39089 32.44945
# Shear Modulus (GPa) = 17.18519 24.93805 21.06162
#
# Velocity S-wave (km/s) = 3.01396 3.63071 3.33662
# Velocity P-wave (km/s) = 4.62240 6.52890 5.65655
#
# Compressibility (1/GPa) = 0.05711675
#
# Stress axis : x y z
#
# Youngs Moduli (GPa) = 41.83643 13.99804 91.35180
#
# Poissons Ratio (x) = 0.12728 0.71146
# Poissons Ratio (y) = 0.38041 0.70383
# Poissons Ratio (z) = 0.32583 0.10785
#
# Static dielectric constant tensor:
#      x y z
#    x 1.686980 0.000000 -0.024950 
#    y 0.000000 1.666990 0.000000 
#    z -0.024950 0.000000 1.315590 
# 
# From -- ./inp_files/319675.got.cif
#   From: 2010.05.17/outbox.cif.g08.bks.cpg/sg12_160_cif.got.tgz:319675.got - 2010.06.03 13:09:07.
