data_PCOD9219396
_publ_section_title
;
Structure prediction by ZEFSAII (Michael W. Deem and Ramdas Pophale) SiO2 
 PCOD9219396
Probable space group: C 2/M
;
_chemical_formula_sum "Si O2"
_cell_formula_units_Z 64
_cell_length_a 29.520545
_cell_length_b 18.349660
_cell_length_c 8.162438
_cell_angle_alpha 90.000000
_cell_angle_beta 141.285732
_cell_angle_gamma 90.000000
_cell_volume 2765.386548
_symmetry_space_group_name_H-M "C 2/M"
_symmetry_group_IT_number 12
_symmetry_cell_setting 'monoclinic'
loop_
_space_group_symop_operation_xyz
x,y,z
-x,y,-z
-x,-y,-z
x,-y,z
1/2+x,1/2+y,z
1/2-x,1/2+y,-z
1/2-x,1/2-y,-z
1/2+x,1/2-y,z
loop_
_atom_site_type_symbol
_atom_site_label
_atom_site_fract_x
_atom_site_fract_y
_atom_site_fract_z
Si Si1 0.386914 0.664094 0.966710
Si Si2 0.309460 0.080399 0.804846
Si Si3 0.337231 0.414372 0.499716
Si Si4 0.524532 0.585180 0.262281
Si Si5 0.077194 0.358901 0.669773
Si Si6 0.924113 0.581855 0.690668
Si Si7 0.165513 0.298075 0.376547
Si Si8 0.295658 0.259800 0.962222
O O1 0.352628 0.613295 0.726957
O O2 0.383469 0.743327 0.868137
O O3 0.340175 0.672329 0.001315
O O4 0.468411 0.633227 0.207396
O O5 0.248207 0.092426 0.771356
O O6 0.301273 0.142490 0.650091
O O7 0.296261 0.000000 0.701344
O O8 0.389924 0.087382 0.100995
O O9 0.354061 0.500000 0.546308
O O10 0.393598 0.383498 0.525714
O O11 0.521966 0.500000 0.308177
O O12 0.500000 0.587320 0.000000
O O13 0.067370 0.403686 0.476785
O O14 0.000000 0.326821 0.500000
O O15 0.139455 0.298084 0.837750
O O16 0.893119 0.500000 0.630058
O O17 0.878359 0.650967 0.623761
O O18 0.000000 0.584096 0.000000
O O19 0.229448 0.254139 0.644531
O O20 0.250000 0.250000 0.000000
#
# Coordination Sequence:
#
# PCOD9219396 Si02
#       8
#     8   8   8   8   8   8   8   8
#     4  11  20  36  67  99 137 189 229 286 353 415
#     4  11  22  40  72 107 139 188 238 288 355 421
#     4   9  18  35  62 106 149 181 234 291 346 425
#     4   8  16  33  58 101 147 179 225 286 345 419
#     4  12  26  48  70  99 142 186 233 298 364 428
#     4  11  26  47  71 102 138 188 243 297 356 421
#     4  12  23  42  68 101 141 180 239 296 346 429
#     4  12  25  46  68  94 140 187 231 296 361 421
#
# _framework density 23.143239000000001
#
# number of rings (size 3 to 8) (size 9 to 14) (size 15 to 20)
#    0.000    1.250    3.750    3.750    0.000    3.500 
#    0.000    0.000    0.000    0.000    0.000    0.000 
#    0.000   37.000    0.000    0.000    0.000    0.000 
#
# Total GULP energy -178509.080824 kJ/mol
# GULP energy per Si atom -5578.408776 kJ/mol
# Density = 2.309056 g / cm^3
# Si number density = 23.143239 Si / 1000 Ang^3
#
#
#
# Elastic Constant Matrix: (Units=GPa)
#
#
# Indices 1 2 3 4 5 6 
#
# 1 142.7169 45.8642 45.8823 0.0000 23.2317 0.0000
# 2 45.8642 108.8510 33.2383 0.0000 12.1625 0.0000
# 3 45.8823 33.2383 94.3347 0.0000 9.2954 0.0000
# 4 0.0000 0.0000 0.0000 7.5311 0.0000 17.8484
# 5 23.2317 12.1625 9.2954 0.0000 43.1594 0.0000
# 6 0.0000 0.0000 0.0000 17.8484 0.0000 32.1672
#
#
#
# Elastic Compliance Matrix: (Units=1/GPa)
#
#
# Indices 1 2 3 4 5 6 
#
# 1 0.009510 -0.002572 -0.003358 0.000000 -0.003671 0.000000
# 2 -0.002572 0.011192 -0.002573 0.000000 -0.001216 0.000000
# 3 -0.003358 -0.002573 0.013170 0.000000 -0.000304 0.000000
# 4 0.000000 0.000000 0.000000 -0.421530 0.000000 0.233892
# 5 -0.003671 -0.001216 -0.000304 0.000000 0.025554 0.000000
# 6 0.000000 0.000000 0.000000 0.233892 0.000000 -0.098691
#
#
# Mechanical properties :
#
#
# Convention : Reuss Voigt Hill
#
# Bulk Modulus (GPa) = 59.28401 66.20803 62.74602
# Shear Modulus (GPa) = -11.41119 31.29940 9.94411
#
# Velocity S-wave (km/s) = -2.22292 3.68152 2.07511
# Velocity P-wave (km/s) = 4.36843 6.83677 5.73693
#
# Compressibility (1/GPa) = 0.01686795
#
# Stress axis : x y z
#
# Youngs Moduli (GPa) = 105.14736 89.35046 75.92906
#
# Poissons Ratio (x) = 0.22978 0.25495
# Poissons Ratio (y) = 0.27040 0.19535
# Poissons Ratio (z) = 0.35306 0.22988
#
# Static dielectric constant tensor:
#      x y z
#    x 1.947770 0.000000 0.032680 
#    y 0.000000 1.892750 0.000000 
#    z 0.032680 0.000000 1.902050 
# 
# From -- ./inp_files/112871.got.cif
#   From: 2010.05.17/outbox.cif.g08.bks.cpg/sg12_57_cif.got.tgz:112871.got - 2010.06.03 13:09:07.
