data_PCOD9219107
_publ_section_title
;
Structure prediction by ZEFSAII (Michael W. Deem and Ramdas Pophale) SiO2 
 PCOD9219107
Probable space group: C 2/M
;
_chemical_formula_sum "Si O2"
_cell_formula_units_Z 40
_cell_length_a 8.526478
_cell_length_b 25.511842
_cell_length_c 8.746416
_cell_angle_alpha 90.000000
_cell_angle_beta 93.788630
_cell_angle_gamma 90.000000
_cell_volume 1898.416397
_symmetry_space_group_name_H-M "C 2/M"
_symmetry_group_IT_number 12
_symmetry_cell_setting 'monoclinic'
loop_
_space_group_symop_operation_xyz
x,y,z
-x,y,-z
-x,-y,-z
x,-y,z
1/2+x,1/2+y,z
1/2-x,1/2+y,-z
1/2-x,1/2-y,-z
1/2+x,1/2-y,z
loop_
_atom_site_type_symbol
_atom_site_label
_atom_site_fract_x
_atom_site_fract_y
_atom_site_fract_z
Si Si1 0.172971 0.803635 0.440817
Si Si2 0.697324 0.000000 0.369470
Si Si3 0.116020 0.600744 0.884114
Si Si4 0.676222 0.302261 0.071686
Si Si5 0.323700 0.000000 0.279156
Si Si6 0.125368 0.392681 0.382394
O O1 0.250000 0.750000 0.500000
O O2 0.173141 0.802378 0.256704
O O3 0.275394 0.849885 0.522465
O O4 0.000000 0.807649 0.500000
O O5 0.735466 0.940016 0.326958
O O6 0.513807 0.000000 0.305775
O O7 0.738238 0.000000 0.552560
O O8 0.221446 0.646353 0.960928
O O9 0.213121 0.554164 0.809947
O O10 0.993206 0.626728 0.755789
O O11 0.000000 0.575455 0.000000
O O12 0.500000 0.307167 0.000000
O O13 0.750000 0.250000 0.000000
O O14 0.000000 0.414452 0.500000
#
# Coordination Sequence:
#
# PCOD9219107 Si02
#       6
#     8   4   8   8   4   8
#     4  12  27  43  66  92 123 163 214 262 307 374
#     4   9  14  32  65  92 122 158 209 256 302 364
#     4  11  23  37  66  95 129 163 208 258 308 370
#     4  12  27  45  63  90 128 168 205 256 323 372
#     4   9  15  34  59  96 122 160 206 255 303 362
#     4  11  19  40  67  94 122 166 211 256 308 361
#
# _framework density 21.070194000000001
#
# number of rings (size 3 to 8) (size 9 to 14) (size 15 to 20)
#    0.000    1.000    6.000    2.700    8.400    0.000 
#    0.000    1.000    0.000    0.000    0.000    0.000 
#    0.000    0.000    0.000    0.000    0.000    0.000 
#
# Total GULP energy -111511.401711 kJ/mol
# GULP energy per Si atom -5575.570086 kJ/mol
# Density = 2.102224 g / cm^3
# Si number density = 21.070194 Si / 1000 Ang^3
#
#
#
# Elastic Constant Matrix: (Units=GPa)
#
#
# Indices 1 2 3 4 5 6 
#
# 1 79.3325 57.0436 33.2750 0.0000 17.1852 0.0000
# 2 57.0436 163.6185 14.9136 0.0000 26.6550 0.0000
# 3 33.2750 14.9136 48.9411 0.0000 17.0002 0.0000
# 4 0.0000 0.0000 0.0000 40.5888 0.0000 14.1260
# 5 17.1852 26.6550 17.0002 0.0000 34.4702 0.0000
# 6 0.0000 0.0000 0.0000 14.1260 0.0000 21.7931
#
#
#
# Elastic Compliance Matrix: (Units=1/GPa)
#
#
# Indices 1 2 3 4 5 6 
#
# 1 0.023332 -0.006966 -0.013963 0.000000 0.000641 0.000000
# 2 -0.006966 0.009076 0.003864 0.000000 -0.005451 0.000000
# 3 -0.013963 0.003864 0.033027 0.000000 -0.012315 0.000000
# 4 0.000000 0.000000 0.000000 0.031814 0.000000 -0.020622
# 5 0.000641 -0.005451 -0.012315 0.000000 0.038980 0.000000
# 6 0.000000 0.000000 0.000000 -0.020622 0.000000 0.059253
#
#
# Mechanical properties :
#
#
# Convention : Reuss Voigt Hill
#
# Bulk Modulus (GPa) = 31.94482 55.81739 43.88110
# Shear Modulus (GPa) = 20.82928 31.81443 26.32185
#
# Velocity S-wave (km/s) = 3.14756 3.88999 3.53830
# Velocity P-wave (km/s) = 5.32950 6.83555 6.12896
#
# Compressibility (1/GPa) = 0.03130398
#
# Stress axis : x y z
#
# Youngs Moduli (GPa) = 42.85963 110.17749 30.27867
#
# Poissons Ratio (x) = 0.76751 0.42279
# Poissons Ratio (y) = 0.29856 -0.11700
# Poissons Ratio (z) = 0.59846 -0.42572
#
# Static dielectric constant tensor:
#      x y z
#    x 1.762890 0.000000 -0.046550 
#    y 0.000000 1.826730 0.000000 
#    z -0.046550 0.000000 1.856470 
# 
# From -- ./inp_files/40462.got.cif
#   From: 2010.05.17/outbox.cif.g08.bks.cpg/sg12_21_cif.got.tgz:40462.got - 2010.06.03 13:09:07.
