data_PCOD9219488
_publ_section_title
;
Structure prediction by ZEFSAII (Michael W. Deem and Ramdas Pophale) SiO2 
 PCOD9219488
Probable space group: C 2/M
;
_chemical_formula_sum "Si O2"
_cell_formula_units_Z 40
_cell_length_a 12.834883
_cell_length_b 18.185076
_cell_length_c 10.817524
_cell_angle_alpha 90.000000
_cell_angle_beta 56.793998
_cell_angle_gamma 90.000000
_cell_volume 2112.556232
_symmetry_space_group_name_H-M "C 2/M"
_symmetry_group_IT_number 12
_symmetry_cell_setting 'monoclinic'
loop_
_space_group_symop_operation_xyz
x,y,z
-x,y,-z
-x,-y,-z
x,-y,z
1/2+x,1/2+y,z
1/2-x,1/2+y,-z
1/2-x,1/2-y,-z
1/2+x,1/2-y,z
loop_
_atom_site_type_symbol
_atom_site_label
_atom_site_fract_x
_atom_site_fract_y
_atom_site_fract_z
Si Si1 0.363857 0.084421 0.477039
Si Si2 0.386932 0.414953 0.977789
Si Si3 0.628710 0.865898 0.254784
Si Si4 0.398684 0.698977 0.745946
Si Si5 0.818363 0.184271 0.528607
O O1 0.363608 0.134340 0.600531
O O2 0.494362 0.096704 0.321498
O O3 0.248270 0.109962 0.471634
O O4 0.356039 0.000000 0.521835
O O5 0.405406 0.500000 0.927318
O O6 0.251994 0.406640 0.129483
O O7 0.500000 0.397111 0.000000
O O8 0.383698 0.358634 0.865783
O O9 0.622759 0.783917 0.204075
O O10 0.313424 0.687958 0.680022
O O11 0.539655 0.689624 0.606684
O O12 0.750000 0.250000 0.500000
#
# Coordination Sequence:
#
# PCOD9219488 Si02
#       5
#     8   8   8   8   8
#     4  11  21  35  65  94 120 161 206 258 314 359
#     4  11  25  42  60  87 129 170 208 255 309 368
#     4  11  20  39  61  91 122 158 213 258 302 366
#     4  11  23  38  65  91 120 162 207 255 308 373
#     4  11  20  40  62  91 124 153 200 258 310 368
#
# _framework density 18.934407
#
# number of rings (size 3 to 8) (size 9 to 14) (size 15 to 20)
#    0.000    1.000    4.000    5.400    0.000    3.200 
#    0.000    3.000    0.000    2.400    0.000    0.000 
#    0.000    0.000    0.000    0.000    0.000    0.000 
#
# Total GULP energy -111617.023135 kJ/mol
# GULP energy per Si atom -5580.851157 kJ/mol
# Density = 1.889131 g / cm^3
# Si number density = 18.934407 Si / 1000 Ang^3
#
#
#
# Elastic Constant Matrix: (Units=GPa)
#
#
# Indices 1 2 3 4 5 6 
#
# 1 97.8616 44.3847 26.7404 0.0000 7.6672 0.0000
# 2 44.3847 118.1234 33.9361 0.0000 15.5509 0.0000
# 3 26.7404 33.9361 71.2150 0.0000 5.0788 0.0000
# 4 0.0000 0.0000 0.0000 17.7957 0.0000 8.5522
# 5 7.6672 15.5509 5.0788 0.0000 28.2059 0.0000
# 6 0.0000 0.0000 0.0000 8.5522 0.0000 24.7220
#
#
#
# Elastic Compliance Matrix: (Units=1/GPa)
#
#
# Indices 1 2 3 4 5 6 
#
# 1 0.012838 -0.003878 -0.002914 0.000000 -0.000827 0.000000
# 2 -0.003878 0.011614 -0.003745 0.000000 -0.004675 0.000000
# 3 -0.002914 -0.003745 0.016934 0.000000 -0.000192 0.000000
# 4 0.000000 0.000000 0.000000 0.067398 0.000000 -0.023315
# 5 -0.000827 -0.004675 -0.000192 0.000000 0.038290 0.000000
# 6 0.000000 0.000000 0.000000 -0.023315 0.000000 0.048515
#
#
# Mechanical properties :
#
#
# Convention : Reuss Voigt Hill
#
# Bulk Modulus (GPa) = 49.22816 55.25806 52.24311
# Shear Modulus (GPa) = 22.37780 26.28730 24.33255
#
# Velocity S-wave (km/s) = 3.44155 3.73008 3.58871
# Velocity P-wave (km/s) = 6.46901 6.91365 6.69502
#
# Compressibility (1/GPa) = 0.02031357
#
# Stress axis : x y z
#
# Youngs Moduli (GPa) = 77.89174 86.10123 59.05155
#
# Poissons Ratio (x) = 0.33390 0.17206
# Poissons Ratio (y) = 0.30207 0.22115
# Poissons Ratio (z) = 0.22695 0.32245
#
# Static dielectric constant tensor:
#      x y z
#    x 1.676750 0.000000 -0.003340 
#    y 0.000000 1.665700 0.000000 
#    z -0.003340 0.000000 1.655890 
# 
# From -- ./inp_files/130865.got.cif
#   From: 2010.05.17/outbox.cif.g08.bks.cpg/sg12_66_cif.got.tgz:130865.got - 2010.06.03 13:09:07.
