data_PCOD9219564
_publ_section_title
;
Structure prediction by ZEFSAII (Michael W. Deem and Ramdas Pophale) SiO2 
 PCOD9219564
Probable space group: C 2/M
;
_chemical_formula_sum "Si O2"
_cell_formula_units_Z 56
_cell_length_a 12.365719
_cell_length_b 26.917130
_cell_length_c 9.629021
_cell_angle_alpha 90.000000
_cell_angle_beta 56.673364
_cell_angle_gamma 90.000000
_cell_volume 2677.958004
_symmetry_space_group_name_H-M "C 2/M"
_symmetry_group_IT_number 12
_symmetry_cell_setting 'monoclinic'
loop_
_space_group_symop_operation_xyz
x,y,z
-x,y,-z
-x,-y,-z
x,-y,z
1/2+x,1/2+y,z
1/2-x,1/2+y,-z
1/2-x,1/2-y,-z
1/2+x,1/2-y,z
loop_
_atom_site_type_symbol
_atom_site_label
_atom_site_fract_x
_atom_site_fract_y
_atom_site_fract_z
Si Si1 0.779235 0.798161 0.071708
Si Si2 0.855586 0.218762 0.335604
Si Si3 0.001920 0.304825 0.334416
Si Si4 0.584339 0.611169 0.576475
Si Si5 0.402616 0.599926 0.940268
Si Si6 0.355543 0.058197 0.750100
Si Si7 0.136867 0.595189 0.569645
O O1 0.822509 0.783564 0.196664
O O2 0.640726 0.824546 0.192327
O O3 0.750000 0.750000 0.000000
O O4 0.870999 0.841104 0.948398
O O5 0.750000 0.250000 0.500000
O O6 0.978000 0.254115 0.270962
O O7 0.878144 0.164084 0.379728
O O8 0.898333 0.347324 0.378597
O O9 0.000000 0.294650 0.500000
O O10 0.500000 0.620368 0.500000
O O11 0.486562 0.583421 0.749621
O O12 0.723928 0.584470 0.460140
O O13 0.500000 0.593882 0.000000
O O14 0.266304 0.573536 0.068834
O O15 0.502267 0.067555 0.702177
O O16 0.346010 0.086561 0.608266
O O17 0.344720 0.000000 0.726298
#
# Coordination Sequence:
#
# PCOD9219564 Si02
#       7
#     8   8   8   8   8   8   8
#     4  12  26  40  59  94 137 182 229 283 335 391
#     4  12  23  36  58  91 131 186 234 273 320 404
#     4  12  20  35  61  84 127 178 224 269 331 393
#     4  12  26  43  67  99 141 188 232 277 349 413
#     4  12  23  45  67  99 142 177 224 296 346 397
#     4  11  23  43  76 107 130 172 230 291 358 425
#     4  11  20  41  66 100 136 168 223 282 344 408
#
# _framework density 20.911456999999999
#
# number of rings (size 3 to 8) (size 9 to 14) (size 15 to 20)
#    0.000    0.286    8.571    2.143    2.000    0.286 
#    0.000    0.714    0.000    4.714    0.000    0.000 
#    0.000    0.000    0.000    0.000    0.000    0.000 
#
# Total GULP energy -156355.248611 kJ/mol
# GULP energy per Si atom -5584.116022 kJ/mol
# Density = 2.086386 g / cm^3
# Si number density = 20.911457 Si / 1000 Ang^3
#
#
#
# Elastic Constant Matrix: (Units=GPa)
#
#
# Indices 1 2 3 4 5 6 
#
# 1 125.7020 0.8682 56.4476 0.0000 -24.0434 0.0000
# 2 0.8682 44.5986 8.9734 0.0000 -10.4765 0.0000
# 3 56.4476 8.9734 73.2146 0.0000 -25.4468 0.0000
# 4 0.0000 0.0000 0.0000 6.8970 0.0000 -7.1702
# 5 -24.0434 -10.4765 -25.4468 0.0000 48.5486 0.0000
# 6 0.0000 0.0000 0.0000 -7.1702 0.0000 11.7117
#
#
#
# Elastic Compliance Matrix: (Units=1/GPa)
#
#
# Indices 1 2 3 4 5 6 
#
# 1 0.012412 0.002024 -0.009206 0.000000 0.001758 0.000000
# 2 0.002024 0.024063 -0.002881 0.000000 0.004685 0.000000
# 3 -0.009206 -0.002881 0.023610 0.000000 0.007194 0.000000
# 4 0.000000 0.000000 0.000000 0.398847 0.000000 0.244185
# 5 0.001758 0.004685 0.007194 0.000000 0.026250 0.000000
# 6 0.000000 0.000000 0.000000 0.244185 0.000000 0.234882
#
#
# Mechanical properties :
#
#
# Convention : Reuss Voigt Hill
#
# Bulk Modulus (GPa) = 25.02690 41.78818 33.40754
# Shear Modulus (GPa) = 6.63560 25.24654 15.94107
#
# Velocity S-wave (km/s) = 1.78328 3.47840 2.76400
# Velocity P-wave (km/s) = 4.02916 6.01325 5.11826
#
# Compressibility (1/GPa) = 0.03995701
#
# Stress axis : x y z
#
# Youngs Moduli (GPa) = 80.56846 41.55759 42.35496
#
# Poissons Ratio (x) = -0.08410 0.38993
# Poissons Ratio (y) = -0.16305 0.12204
# Poissons Ratio (z) = 0.74174 0.11974
#
# Static dielectric constant tensor:
#      x y z
#    x 1.808610 0.000000 -0.079970 
#    y 0.000000 1.747860 0.000000 
#    z -0.079970 0.000000 1.764870 
# 
# From -- ./inp_files/54577.got.cif
#   From: 2010.05.17/outbox.cif.g08.bks.cpg/sg12_28_cif.got.tgz:54577.got - 2010.06.03 13:09:07.
