data_PCOD9219879
_publ_section_title
;
Structure prediction by ZEFSAII (Michael W. Deem and Ramdas Pophale) SiO2 
 PCOD9219879
Probable space group: C 2/M
;
_chemical_formula_sum "Si O2"
_cell_formula_units_Z 48
_cell_length_a 20.592175
_cell_length_b 7.624923
_cell_length_c 14.762902
_cell_angle_alpha 90.000000
_cell_angle_beta 100.436418
_cell_angle_gamma 90.000000
_cell_volume 2279.631180
_symmetry_space_group_name_H-M "C 2/M"
_symmetry_group_IT_number 12
_symmetry_cell_setting 'monoclinic'
loop_
_space_group_symop_operation_xyz
x,y,z
-x,y,-z
-x,-y,-z
x,-y,z
1/2+x,1/2+y,z
1/2-x,1/2+y,-z
1/2-x,1/2-y,-z
1/2+x,1/2-y,z
loop_
_atom_site_type_symbol
_atom_site_label
_atom_site_fract_x
_atom_site_fract_y
_atom_site_fract_z
Si Si1 0.811077 0.209426 0.582010
Si Si2 0.367900 0.284632 0.269561
Si Si3 0.591461 0.293914 0.081535
Si Si4 0.075850 0.214357 0.522078
Si Si5 0.220412 0.298174 0.221283
Si Si6 0.955264 0.785392 0.124193
O O1 0.750000 0.250000 0.500000
O O2 0.877971 0.270878 0.549469
O O3 0.798945 0.285725 0.677985
O O4 0.815095 0.000000 0.593920
O O5 0.366655 0.500000 0.270299
O O6 0.390609 0.230974 0.375280
O O7 0.293787 0.221467 0.230485
O O8 0.419047 0.226616 0.205731
O O9 0.578496 0.500000 0.070127
O O10 0.661879 0.274594 0.145342
O O11 0.530924 0.226503 0.128202
O O12 0.583119 0.227512 0.976757
O O13 0.000000 0.271611 0.500000
O O14 0.075723 0.000000 0.520508
O O15 0.225590 0.500000 0.196236
O O16 0.954343 0.000000 0.128827
#
# Coordination Sequence:
#
# PCOD9219879 Si02
#       6
#     8   8   8   8   8   8
#     4  11  21  36  57  80 107 140 174 217 263 310
#     4   9  17  31  50  75 107 140 175 216 258 307
#     4   9  18  34  56  83 104 131 176 224 270 311
#     4   9  18  31  51  80 105 133 176 216 254 306
#     4  11  22  35  52  78 109 144 178 211 259 318
#     4   8  16  32  55  79 106 135 174 225 266 307
#
# _framework density 21.056037
#
# number of rings (size 3 to 8) (size 9 to 14) (size 15 to 20)
#    0.000    2.500    1.667    2.000    2.333    0.667 
#    0.000    1.667    0.000    7.000    0.000    0.000 
#    0.000    0.000    0.000    0.000    0.000    0.000 
#
# Total GULP energy -133967.321852 kJ/mol
# GULP energy per Si atom -5581.971744 kJ/mol
# Density = 2.100811 g / cm^3
# Si number density = 21.056037 Si / 1000 Ang^3
#
#
#
# Elastic Constant Matrix: (Units=GPa)
#
#
# Indices 1 2 3 4 5 6 
#
# 1 99.0720 -0.9487 3.1871 0.0000 2.4160 0.0000
# 2 -0.9487 35.0985 -3.9711 0.0000 -1.2733 0.0000
# 3 3.1871 -3.9711 27.5805 0.0000 -5.3359 0.0000
# 4 0.0000 0.0000 0.0000 3.1008 0.0000 18.8949
# 5 2.4160 -1.2733 -5.3359 0.0000 42.6836 0.0000
# 6 0.0000 0.0000 0.0000 18.8949 0.0000 6.1619
#
#
#
# Elastic Compliance Matrix: (Units=1/GPa)
#
#
# Indices 1 2 3 4 5 6 
#
# 1 0.010154 0.000101 -0.001301 0.000000 -0.000734 0.000000
# 2 0.000101 0.029048 0.004445 0.000000 0.001416 0.000000
# 3 -0.001301 0.004445 0.038007 0.000000 0.004958 0.000000
# 4 0.000000 0.000000 0.000000 -0.018235 0.000000 0.055917
# 5 -0.000734 0.001416 0.004958 0.000000 0.024132 0.000000
# 6 0.000000 0.000000 0.000000 0.055917 0.000000 -0.009176
#
#
# Mechanical properties :
#
#
# Convention : Reuss Voigt Hill
#
# Bulk Modulus (GPa) = 11.94765 17.58730 14.76748
# Shear Modulus (GPa) = 52.44386 21.28817 36.86602
#
# Velocity S-wave (km/s) = 4.99609 3.18311 4.18886
# Velocity P-wave (km/s) = 6.24241 4.67764 5.51580
#
# Compressibility (1/GPa) = 0.08369845
#
# Stress axis : x y z
#
# Youngs Moduli (GPa) = 98.47949 34.42553 26.31100
#
# Poissons Ratio (x) = -0.00346 0.03423
# Poissons Ratio (y) = -0.00991 -0.11695
# Poissons Ratio (z) = 0.12812 -0.15302
#
# Static dielectric constant tensor:
#      x y z
#    x 1.755320 0.000000 -0.005820 
#    y 0.000000 1.819110 0.000000 
#    z -0.005820 0.000000 1.681570 
# 
# From -- ./inp_files/221521.got.cif
#   From: 2010.05.17/outbox.cif.g08.bks.cpg/sg12_111_cif.got.tgz:221521.got - 2010.06.03 13:09:07.
