data_PCOD9219956
_publ_section_title
;
Structure prediction by ZEFSAII (Michael W. Deem and Ramdas Pophale) SiO2 
 PCOD9219956
Probable space group: C 2/M
;
_chemical_formula_sum "Si O2"
_cell_formula_units_Z 64
_cell_length_a 13.530609
_cell_length_b 18.504260
_cell_length_c 22.430897
_cell_angle_alpha 90.000000
_cell_angle_beta 33.507682
_cell_angle_gamma 90.000000
_cell_volume 3100.367427
_symmetry_space_group_name_H-M "C 2/M"
_symmetry_group_IT_number 12
_symmetry_cell_setting 'monoclinic'
loop_
_space_group_symop_operation_xyz
x,y,z
-x,y,-z
-x,-y,-z
x,-y,z
1/2+x,1/2+y,z
1/2-x,1/2+y,-z
1/2-x,1/2-y,-z
1/2+x,1/2-y,z
loop_
_atom_site_type_symbol
_atom_site_label
_atom_site_fract_x
_atom_site_fract_y
_atom_site_fract_z
Si Si1 0.280723 0.202162 0.669973
Si Si2 0.780246 0.585378 0.377216
Si Si3 0.185619 0.585519 0.173057
Si Si4 0.429896 0.584564 0.165463
Si Si5 0.789006 0.665804 0.964380
Si Si6 0.053417 0.913929 0.604651
Si Si7 0.703442 0.199981 0.467736
Si Si8 0.689868 0.153746 0.768705
O O1 0.191161 0.126096 0.726604
O O2 0.491584 0.194560 0.570537
O O3 0.234403 0.230310 0.627231
O O4 0.214286 0.260391 0.751071
O O5 0.753869 0.500000 0.380186
O O6 0.626729 0.607212 0.501181
O O7 0.783737 0.621882 0.311210
O O8 0.983040 0.594449 0.300494
O O9 0.198562 0.500000 0.146390
O O10 0.334576 0.596345 0.148802
O O11 0.205040 0.641835 0.108784
O O12 0.437243 0.500000 0.171683
O O13 0.624565 0.619518 0.071024
O O14 0.984664 0.642287 0.890364
O O15 0.750000 0.750000 0.000000
O O16 0.199941 0.876292 0.572197
O O17 0.858590 0.881234 0.716940
O O18 0.050722 0.000000 0.609396
O O19 0.750000 0.250000 0.500000
#
# Coordination Sequence:
#
# PCOD9219956 Si02
#       8
#     8   8   8   8   8   8   8   8
#     4  11  24  40  64  95 124 168 212 261 322 377
#     4   9  18  32  57  92 126 158 196 253 314 376
#     4   9  19  37  64  94 124 165 211 264 324 379
#     4  11  23  42  65  91 125 167 218 273 324 375
#     4  11  22  39  59  92 129 163 215 271 325 375
#     4  11  22  37  60  91 126 163 203 251 314 383
#     4  11  23  41  64  93 132 169 209 255 314 389
#     4  11  21  37  57  87 126 160 210 255 315 376
#
# _framework density 20.642714000000002
#
# number of rings (size 3 to 8) (size 9 to 14) (size 15 to 20)
#    0.000    1.500    2.500    3.000    1.750    6.500 
#    0.000    1.250    0.000    0.000    0.000    1.750 
#    0.000    0.000    0.000    0.000    0.000    0.000 
#
# Total GULP energy -178670.781891 kJ/mol
# GULP energy per Si atom -5583.461934 kJ/mol
# Density = 2.059573 g / cm^3
# Si number density = 20.642714 Si / 1000 Ang^3
#
#
#
# Elastic Constant Matrix: (Units=GPa)
#
#
# Indices 1 2 3 4 5 6 
#
# 1 63.8787 33.6599 29.1808 -0.0008 -11.6919 0.0005
# 2 33.6599 100.2410 38.0126 -0.0002 -4.7261 0.0004
# 3 29.1808 38.0126 79.1911 -0.0008 -17.0830 0.0009
# 4 -0.0008 -0.0002 -0.0008 29.9697 0.0007 -1.6536
# 5 -11.6919 -4.7261 -17.0830 0.0007 26.1814 -0.0006
# 6 0.0005 0.0004 0.0009 -1.6536 -0.0006 31.7973
#
#
#
# Elastic Compliance Matrix: (Units=1/GPa)
#
#
# Indices 1 2 3 4 5 6 
#
# 1 0.021423 -0.005388 -0.004020 0.000000 0.005972 0.000000
# 2 -0.005388 0.013631 -0.005291 0.000000 -0.003398 0.000000
# 3 -0.004020 -0.005291 0.018685 0.000000 0.009442 0.000000
# 4 0.000000 0.000000 0.000000 0.033463 -0.000001 0.001740
# 5 0.005972 -0.003398 0.009442 -0.000001 0.046409 0.000001
# 6 0.000000 0.000000 0.000000 0.001740 0.000001 0.031540
#
#
# Mechanical properties :
#
#
# Convention : Reuss Voigt Hill
#
# Bulk Modulus (GPa) = 41.07951 49.44639 45.26295
# Shear Modulus (GPa) = 24.67162 27.08685 25.87924
#
# Velocity S-wave (km/s) = 3.46088 3.62633 3.54457
# Velocity P-wave (km/s) = 5.99280 6.44508 6.22305
#
# Compressibility (1/GPa) = 0.02434303
#
# Stress axis : x y z
#
# Youngs Moduli (GPa) = 46.67903 73.36082 53.51804
#
# Poissons Ratio (x) = 0.39525 0.21513
# Poissons Ratio (y) = 0.25149 0.28315
# Poissons Ratio (z) = 0.18764 0.38814
#
# Static dielectric constant tensor:
#      x y z
#    x 1.804860 0.000000 0.025560 
#    y 0.000000 1.744380 0.000000 
#    z 0.025560 0.000000 1.765240 
# 
# From -- ./inp_files/340786.got.cif
#   From: 2010.05.17/outbox.cif.g08.bks.cpg/sg12_171_cif.got.tgz:340786.got - 2010.06.03 13:09:07.
