data_PCOD9219189
_publ_section_title
;
Structure prediction by ZEFSAII (Michael W. Deem and Ramdas Pophale) SiO2 
 PCOD9219189
Probable space group: C 2/M
;
_chemical_formula_sum "Si O2"
_cell_formula_units_Z 56
_cell_length_a 20.238387
_cell_length_b 8.662055
_cell_length_c 27.231428
_cell_angle_alpha 90.000000
_cell_angle_beta 30.447077
_cell_angle_gamma 90.000000
_cell_volume 2419.103152
_symmetry_space_group_name_H-M "C 2/M"
_symmetry_group_IT_number 12
_symmetry_cell_setting 'monoclinic'
loop_
_space_group_symop_operation_xyz
x,y,z
-x,y,-z
-x,-y,-z
x,-y,z
1/2+x,1/2+y,z
1/2-x,1/2+y,-z
1/2-x,1/2-y,-z
1/2+x,1/2-y,z
loop_
_atom_site_type_symbol
_atom_site_label
_atom_site_fract_x
_atom_site_fract_y
_atom_site_fract_z
Si Si1 0.316444 0.680750 0.887520
Si Si2 0.041528 0.819222 0.659156
Si Si3 0.256286 0.312322 0.391114
Si Si4 0.978887 0.317913 0.595227
Si Si5 0.652607 0.675704 0.914565
Si Si6 0.292107 0.821666 0.218612
Si Si7 0.025562 0.814381 0.825861
O O1 0.281050 0.500000 0.915744
O O2 0.431294 0.689382 0.772397
O O3 0.198692 0.775225 0.939112
O O4 0.389355 0.740758 0.889851
O O5 0.175143 0.774019 0.601066
O O6 0.010433 0.716062 0.632229
O O7 0.047756 0.000000 0.639921
O O8 0.254259 0.500000 0.389826
O O9 0.356940 0.259424 0.285226
O O10 0.107226 0.260143 0.484452
O O11 0.964353 0.500000 0.595998
O O12 0.841262 0.240187 0.672635
O O13 0.696620 0.500000 0.877264
O O14 0.717022 0.788649 0.833517
O O15 0.500000 0.682793 0.000000
O O16 0.419019 0.735107 0.157622
O O17 0.307711 0.000000 0.218099
O O18 0.019173 0.000000 0.827797
#
# Coordination Sequence:
#
# PCOD9219189 Si02
#       7
#     8   8   8   8   8   8   8
#     4   9  18  35  62  90 118 153 189 232 289 347
#     4   9  16  30  51  79 114 150 191 238 288 342
#     4   8  17  32  52  79 113 155 199 240 287 339
#     4  11  20  31  51  80 114 155 200 244 290 338
#     4  11  24  42  66  94 119 144 183 235 288 350
#     4  12  25  40  58  84 118 156 196 241 291 343
#     4   9  19  39  62  84 117 159 199 238 285 340
#
# _framework density 23.149075
#
# number of rings (size 3 to 8) (size 9 to 14) (size 15 to 20)
#    0.000    2.143    1.429    4.286    0.000    2.286 
#    0.000    7.857    0.000    0.000    0.000    0.000 
#    0.000    0.000    0.000    0.000    0.000    0.000 
#
# Total GULP energy -156503.647893 kJ/mol
# GULP energy per Si atom -5589.415996 kJ/mol
# Density = 2.309639 g / cm^3
# Si number density = 23.149075 Si / 1000 Ang^3
#
#
#
# Elastic Constant Matrix: (Units=GPa)
#
#
# Indices 1 2 3 4 5 6 
#
# 1 133.4389 5.7584 24.7619 -0.0010 -29.0281 -0.0001
# 2 5.7584 23.2783 9.2752 -0.0027 -15.3162 0.0035
# 3 24.7619 9.2752 83.6568 -0.0002 -25.7732 0.0003
# 4 -0.0010 -0.0027 -0.0002 10.7177 0.0007 -6.1999
# 5 -29.0281 -15.3162 -25.7732 0.0007 40.2165 -0.0007
# 6 -0.0001 0.0035 0.0003 -6.1999 -0.0007 31.5896
#
#
#
# Elastic Compliance Matrix: (Units=1/GPa)
#
#
# Indices 1 2 3 4 5 6 
#
# 1 0.009063 0.002727 -0.000809 0.000001 0.007061 0.000000
# 2 0.002727 0.058157 0.000218 0.000011 0.024256 -0.000004
# 3 -0.000809 0.000218 0.014970 0.000000 0.009093 0.000000
# 4 0.000001 0.000011 0.000000 0.105253 0.000003 0.020658
# 5 0.007061 0.024256 0.009093 0.000003 0.045027 -0.000001
# 6 0.000000 -0.000004 0.000000 0.020658 -0.000001 0.035710
#
#
# Mechanical properties :
#
#
# Convention : Reuss Voigt Hill
#
# Bulk Modulus (GPa) = 11.56606 35.55168 23.55887
# Shear Modulus (GPa) = 17.08055 29.87665 23.47860
#
# Velocity S-wave (km/s) = 2.71929 3.59642 3.18816
# Velocity P-wave (km/s) = 3.85572 5.71285 4.87356
#
# Compressibility (1/GPa) = 0.08645990
#
# Stress axis : x y z
#
# Youngs Moduli (GPa) = 110.34286 17.19488 66.79897
#
# Poissons Ratio (x) = -0.04688 0.05407
# Poissons Ratio (y) = -0.30086 -0.01455
# Poissons Ratio (z) = 0.08931 -0.00375
#
# Static dielectric constant tensor:
#      x y z
#    x 1.880010 0.000000 0.008800 
#    y 0.000000 1.775030 0.000000 
#    z 0.008800 0.000000 1.911700 
# 
# From -- ./inp_files/380589.got.cif
#   From: 2010.05.17/outbox.cif.g08.bks.cpg/sg12_191_cif.got.tgz:380589.got - 2010.06.03 13:09:07.
