data_PCOD9219619
_publ_section_title
;
Structure prediction by ZEFSAII (Michael W. Deem and Ramdas Pophale) SiO2 
 PCOD9219619
Probable space group: C 2/M
;
_chemical_formula_sum "Si O2"
_cell_formula_units_Z 64
_cell_length_a 24.046020
_cell_length_b 8.336021
_cell_length_c 18.791208
_cell_angle_alpha 90.000000
_cell_angle_beta 93.397620
_cell_angle_gamma 90.000000
_cell_volume 3760.041762
_symmetry_space_group_name_H-M "C 2/M"
_symmetry_group_IT_number 12
_symmetry_cell_setting 'monoclinic'
loop_
_space_group_symop_operation_xyz
x,y,z
-x,y,-z
-x,-y,-z
x,-y,z
1/2+x,1/2+y,z
1/2-x,1/2+y,-z
1/2-x,1/2-y,-z
1/2+x,1/2-y,z
loop_
_atom_site_type_symbol
_atom_site_label
_atom_site_fract_x
_atom_site_fract_y
_atom_site_fract_z
Si Si1 0.247909 0.691379 0.918100
Si Si2 0.549446 0.188814 0.741289
Si Si3 0.427990 0.310140 0.562797
Si Si4 0.627738 0.308256 0.873506
Si Si5 0.422622 0.305579 0.717201
Si Si6 0.361120 0.696045 0.852692
Si Si7 0.563430 0.695785 0.010173
Si Si8 0.562130 0.689634 0.589735
O O1 0.251499 0.500000 0.921001
O O2 0.190019 0.741081 0.877912
O O3 0.301142 0.750346 0.876911
O O4 0.250000 0.750000 0.000000
O O5 0.589076 0.259791 0.804812
O O6 0.486761 0.260240 0.738854
O O7 0.574486 0.226185 0.664973
O O8 0.544967 0.000000 0.750706
O O9 0.414717 0.500000 0.558957
O O10 0.406761 0.244743 0.636717
O O11 0.413262 0.245619 0.483160
O O12 0.495051 0.298571 0.575665
O O13 0.631184 0.500000 0.876545
O O14 0.598472 0.251860 0.944380
O O15 0.421173 0.500000 0.714481
O O16 0.381912 0.250432 0.776892
O O17 0.360343 0.500000 0.851135
O O18 0.406494 0.744948 0.915119
O O19 0.562904 0.500000 0.009607
O O20 0.500000 0.750809 0.000000
O O21 0.574924 0.500000 0.597324
#
# Coordination Sequence:
#
# PCOD9219619 Si02
#       8
#     8   8   8   8   8   8   8   8
#     4  11  21  36  54  73  96 124 162 207 246 283
#     4  11  21  31  44  70 104 131 159 198 244 289
#     4   7  11  21  42  69  93 121 161 199 227 269
#     4  11  21  35  53  70  92 126 166 203 246 288
#     4   9  16  30  51  72  97 131 165 196 233 284
#     4   9  17  30  50  74  95 123 163 200 235 281
#     4   9  16  27  47  72  93 118 156 193 226 278
#     4   8  13  25  43  64  93 129 163 192 228 280
#
# _framework density 17.021087999999999
#
# number of rings (size 3 to 8) (size 9 to 14) (size 15 to 20)
#    0.000    2.625    1.250    4.125    0.000    2.000 
#    0.000    6.250    0.000    1.500    0.000    0.875 
#    0.000    0.000    0.000    0.000    0.000    0.000 
#
# Total GULP energy -178258.841836 kJ/mol
# GULP energy per Si atom -5570.588807 kJ/mol
# Density = 1.698235 g / cm^3
# Si number density = 17.021088 Si / 1000 Ang^3
#
#
#
# Elastic Constant Matrix: (Units=GPa)
#
#
# Indices 1 2 3 4 5 6 
#
# 1 90.1361 6.5536 46.1222 0.0000 -26.1218 0.0000
# 2 6.5536 18.9943 7.1845 0.0000 -5.6915 0.0000
# 3 46.1222 7.1845 117.0222 0.0000 -40.7824 0.0000
# 4 0.0000 0.0000 0.0000 2.8572 0.0000 6.7605
# 5 -26.1218 -5.6915 -40.7824 0.0000 17.8361 0.0000
# 6 0.0000 0.0000 0.0000 6.7605 0.0000 15.9364
#
#
#
# Elastic Compliance Matrix: (Units=1/GPa)
#
#
# Indices 1 2 3 4 5 6 
#
# 1 0.023569 0.007659 0.015367 0.000000 0.072098 0.000000
# 2 0.007659 0.065986 0.020564 0.000000 0.079293 0.000000
# 3 0.015367 0.020564 0.055902 0.000000 0.156889 0.000000
# 4 0.000000 0.000000 0.000000-93.864144 0.000000 39.818662
# 5 0.072098 0.079293 0.156889 0.000000 0.545689 0.000000
# 6 0.000000 0.000000 0.000000 39.818662 0.000000-16.828960
#
#
# Mechanical properties :
#
#
# Convention : Reuss Voigt Hill
#
# Bulk Modulus (GPa) = 4.29855 38.43035 21.36445
# Shear Modulus (GPa) = -0.04545 18.41209 9.18332
#
# Velocity S-wave (km/s) = -0.16358 3.29252 2.32529
# Velocity P-wave (km/s) = 1.57963 6.08945 4.44840
#
# Compressibility (1/GPa) = 0.23263685
#
# Stress axis : x y z
#
# Youngs Moduli (GPa) = 42.42941 15.15476 17.88830
#
# Poissons Ratio (x) = -0.11608 -0.27489
# Poissons Ratio (y) = -0.32498 -0.36785
# Poissons Ratio (z) = -0.65201 -0.31164
#
# Static dielectric constant tensor:
#      x y z
#    x 1.566590 0.000000 -0.029680 
#    y 0.000000 1.586660 0.000000 
#    z -0.029680 0.000000 1.613900 
# 
# From -- ./inp_files/287712.got.cif
#   From: 2010.05.17/outbox.cif.g08.bks.cpg/sg12_144_cif.got.tgz:287712.got - 2010.06.03 13:09:07.
