data_PCOD9219469
_publ_section_title
;
Structure prediction by ZEFSAII (Michael W. Deem and Ramdas Pophale) SiO2 
 PCOD9219469
Probable space group: C 2/M
;
_chemical_formula_sum "Si O2"
_cell_formula_units_Z 48
_cell_length_a 15.713310
_cell_length_b 16.927483
_cell_length_c 8.596150
_cell_angle_alpha 90.000000
_cell_angle_beta 70.241935
_cell_angle_gamma 90.000000
_cell_volume 2151.854724
_symmetry_space_group_name_H-M "C 2/M"
_symmetry_group_IT_number 12
_symmetry_cell_setting 'monoclinic'
loop_
_space_group_symop_operation_xyz
x,y,z
-x,y,-z
-x,-y,-z
x,-y,z
1/2+x,1/2+y,z
1/2-x,1/2+y,-z
1/2-x,1/2-y,-z
1/2+x,1/2-y,z
loop_
_atom_site_type_symbol
_atom_site_label
_atom_site_fract_x
_atom_site_fract_y
_atom_site_fract_z
Si Si1 0.796006 0.910921 0.251851
Si Si2 0.400768 0.872642 0.497958
Si Si3 0.736287 0.657821 0.060694
Si Si4 0.906373 0.373350 0.130150
Si Si5 0.418727 0.299399 0.633241
Si Si6 0.549882 0.302447 0.826577
O O1 0.691473 0.903217 0.367774
O O2 0.867520 0.853028 0.291861
O O3 0.825469 0.000000 0.256438
O O4 0.800329 0.885154 0.069090
O O5 0.500000 0.898576 0.500000
O O6 0.396204 0.893259 0.318061
O O7 0.397976 0.778447 0.543865
O O8 0.824724 0.611666 0.064122
O O9 0.670065 0.659180 0.250384
O O10 0.750000 0.750000 0.000000
O O11 0.908971 0.277762 0.132622
O O12 0.000000 0.402305 0.000000
O O13 0.500000 0.346650 0.500000
O O14 0.470847 0.275237 0.759420
O O15 0.500000 0.346011 0.000000
#
# Coordination Sequence:
#
# PCOD9219469 Si02
#       6
#     8   8   8   8   8   8
#     4  12  27  43  63  93 137 180 213 257 326 400
#     4  11  22  40  65 100 129 162 214 275 329 376
#     4  12  21  39  64  93 128 168 221 273 316 373
#     4  11  21  36  66 102 125 156 212 284 330 368
#     4  11  21  35  63 103 128 157 212 280 326 363
#     4  11  20  38  64  97 126 162 210 266 330 373
#
# _framework density 22.306338
#
# number of rings (size 3 to 8) (size 9 to 14) (size 15 to 20)
#    0.000    0.667    8.333    2.000    2.333    2.000 
#    0.000    0.833    0.000    3.000    0.000    0.000 
#    0.000    0.000    0.000    0.000    0.000    0.000 
#
# Total GULP energy -133923.009164 kJ/mol
# GULP energy per Si atom -5580.125382 kJ/mol
# Density = 2.225557 g / cm^3
# Si number density = 22.306338 Si / 1000 Ang^3
#
#
#
# Elastic Constant Matrix: (Units=GPa)
#
#
# Indices 1 2 3 4 5 6 
#
# 1 75.2124 0.5105 -1.2010 0.0000 -0.0347 0.0000
# 2 0.5105 51.3495 -4.8196 0.0000 -9.6213 0.0000
# 3 -1.2010 -4.8196 102.0731 0.0000 -19.0988 0.0000
# 4 0.0000 0.0000 0.0000 4.5753 0.0000 1.6827
# 5 -0.0347 -9.6213 -19.0988 0.0000 51.3818 0.0000
# 6 0.0000 0.0000 0.0000 1.6827 0.0000 0.2622
#
#
#
# Elastic Compliance Matrix: (Units=1/GPa)
#
#
# Indices 1 2 3 4 5 6 
#
# 1 0.013299 -0.000108 0.000160 0.000000 0.000048 0.000000
# 2 -0.000108 0.020490 0.001810 0.000000 0.004510 0.000000
# 3 0.000160 0.001810 0.010691 0.000000 0.004313 0.000000
# 4 0.000000 0.000000 0.000000 -0.160712 0.000000 1.031285
# 5 0.000048 0.004510 0.004313 0.000000 0.021910 0.000000
# 6 0.000000 0.000000 0.000000 1.031285 0.000000 -2.804160
#
#
# Mechanical properties :
#
#
# Convention : Reuss Voigt Hill
#
# Bulk Modulus (GPa) = 20.74466 24.17942 22.46204
# Shear Modulus (GPa) = -1.73242 26.85353 12.56056
#
# Velocity S-wave (km/s) = -0.88223 3.47342 2.37553
# Velocity P-wave (km/s) = 2.87790 5.19129 4.19713
#
# Compressibility (1/GPa) = 0.04820517
#
# Stress axis : x y z
#
# Youngs Moduli (GPa) = 75.19359 48.80360 93.53441
#
# Poissons Ratio (x) = 0.00528 -0.01501
# Poissons Ratio (y) = 0.00813 -0.16930
# Poissons Ratio (z) = -0.01206 -0.08833
#
# Static dielectric constant tensor:
#      x y z
#    x 1.927100 0.000000 -0.019670 
#    y 0.000000 1.823070 0.000000 
#    z -0.019670 0.000000 1.903360 
# 
# From -- ./inp_files/63346.got.cif
#   From: 2010.05.17/outbox.cif.g08.bks.cpg/sg12_32_cif.got.tgz:63346.got - 2010.06.03 13:09:07.
