data_PCOD9219939
_publ_section_title
;
Structure prediction by ZEFSAII (Michael W. Deem and Ramdas Pophale) SiO2 
 PCOD9219939
Probable space group: C 2/M
;
_chemical_formula_sum "Si O2"
_cell_formula_units_Z 40
_cell_length_a 17.485617
_cell_length_b 14.614801
_cell_length_c 14.607379
_cell_angle_alpha 90.000000
_cell_angle_beta 154.662773
_cell_angle_gamma 90.000000
_cell_volume 1597.475884
_symmetry_space_group_name_H-M "C 2/M"
_symmetry_group_IT_number 12
_symmetry_cell_setting 'monoclinic'
loop_
_space_group_symop_operation_xyz
x,y,z
-x,y,-z
-x,-y,-z
x,-y,z
1/2+x,1/2+y,z
1/2-x,1/2+y,-z
1/2-x,1/2-y,-z
1/2+x,1/2-y,z
loop_
_atom_site_type_symbol
_atom_site_label
_atom_site_fract_x
_atom_site_fract_y
_atom_site_fract_z
Si Si1 0.606525 0.602133 0.862281
Si Si2 0.352658 0.104759 0.953055
Si Si3 0.258048 0.798039 0.188819
Si Si4 0.611194 0.102350 0.508627
Si Si5 0.225724 0.648070 0.435193
O O1 0.615587 0.500000 0.911928
O O2 0.763833 0.609693 0.958577
O O3 0.417647 0.615305 0.608141
O O4 0.623263 0.674547 0.962101
O O5 0.261729 0.192110 0.806878
O O6 0.326944 0.000000 0.892529
O O7 0.562413 0.127276 0.191146
O O8 0.242645 0.860959 0.261604
O O9 0.447834 0.827151 0.348451
O O10 0.679086 0.098938 0.479786
O O11 0.550111 0.000000 0.464211
O O12 0.250000 0.750000 0.500000
#
# Coordination Sequence:
#
# PCOD9219939 Si02
#       5
#     8   8   8   8   8
#     4  11  21  36  63  94 123 161 208 256 313 376
#     4  11  23  42  65  92 127 167 212 264 310 368
#     4  11  21  39  62  94 127 168 207 253 319 377
#     4  11  23  40  65  96 131 165 204 264 321 371
#     4  12  23  40  64  94 128 162 209 257 313 375
#
# _framework density 25.039501000000001
#
# number of rings (size 3 to 8) (size 9 to 14) (size 15 to 20)
#    0.000    0.800    4.000    6.000    0.000    0.800 
#    0.000    4.000    0.000    4.800    0.000    0.000 
#    0.000    0.000    0.000    0.000    0.000    0.000 
#
# Total GULP energy -111922.910676 kJ/mol
# GULP energy per Si atom -5596.145534 kJ/mol
# Density = 2.498251 g / cm^3
# Si number density = 25.039501 Si / 1000 Ang^3
#
#
#
# Elastic Constant Matrix: (Units=GPa)
#
#
# Indices 1 2 3 4 5 6 
#
# 1 50.2331 13.2057 4.3432 0.0003 11.9994 0.0001
# 2 13.2057 194.9989 40.8330 0.0008 10.5685 0.0004
# 3 4.3432 40.8330 111.0438 0.0011 21.9384 0.0006
# 4 0.0003 0.0008 0.0011 19.7656 0.0004 -3.0639
# 5 11.9994 10.5685 21.9384 0.0004 18.4384 0.0001
# 6 0.0001 0.0004 0.0006 -3.0639 0.0001 23.7042
#
#
#
# Elastic Compliance Matrix: (Units=1/GPa)
#
#
# Indices 1 2 3 4 5 6 
#
# 1 0.024543 -0.001317 0.003308 0.000000 -0.019154 0.000000
# 2 -0.001317 0.005640 -0.002030 0.000000 0.000040 0.000000
# 3 0.003308 -0.002030 0.012835 0.000000 -0.016261 0.000000
# 4 0.000000 0.000000 0.000000 0.051627 -0.000001 0.006673
# 5 -0.019154 0.000040 -0.016261 -0.000001 0.086024 0.000000
# 6 0.000000 0.000000 0.000000 0.006673 0.000000 0.043049
#
#
# Mechanical properties :
#
#
# Convention : Reuss Voigt Hill
#
# Bulk Modulus (GPa) = 23.28797 52.55995 37.92396
# Shear Modulus (GPa) = 20.99869 32.24125 26.61997
#
# Velocity S-wave (km/s) = 2.89904 3.59223 3.26409
# Velocity P-wave (km/s) = 4.53063 6.18400 5.42072
#
# Compressibility (1/GPa) = 0.04294062
#
# Stress axis : x y z
#
# Youngs Moduli (GPa) = 40.74540 177.29145 77.91031
#
# Poissons Ratio (x) = 0.23345 -0.25776
# Poissons Ratio (y) = 0.05365 0.15819
# Poissons Ratio (z) = -0.13480 0.35998
#
# Static dielectric constant tensor:
#      x y z
#    x 1.942630 0.000000 -0.013010 
#    y 0.000000 2.024320 0.000000 
#    z -0.013010 0.000000 2.043130 
# 
# From -- ./inp_files/284425.got.cif
#   From: 2010.05.17/outbox.cif.g08.bks.cpg/sg12_143_cif.got.tgz:284425.got - 2010.06.03 13:09:07.
