data_PCOD9219708
_publ_section_title
;
Structure prediction by ZEFSAII (Michael W. Deem and Ramdas Pophale) SiO2 
 PCOD9219708
Probable space group: C 2/M
;
_chemical_formula_sum "Si O2"
_cell_formula_units_Z 32
_cell_length_a 16.039254
_cell_length_b 9.082414
_cell_length_c 21.152038
_cell_angle_alpha 90.000000
_cell_angle_beta 153.337616
_cell_angle_gamma 90.000000
_cell_volume 1382.690850
_symmetry_space_group_name_H-M "C 2/M"
_symmetry_group_IT_number 12
_symmetry_cell_setting 'monoclinic'
loop_
_space_group_symop_operation_xyz
x,y,z
-x,y,-z
-x,-y,-z
x,-y,z
1/2+x,1/2+y,z
1/2-x,1/2+y,-z
1/2-x,1/2-y,-z
1/2+x,1/2-y,z
loop_
_atom_site_type_symbol
_atom_site_label
_atom_site_fract_x
_atom_site_fract_y
_atom_site_fract_z
Si Si1 0.367556 0.328043 0.825448
Si Si2 0.458169 0.673515 0.320896
Si Si3 0.321879 0.167687 0.427020
Si Si4 0.787620 0.328070 0.091814
O O1 0.308756 0.500000 0.795009
O O2 0.228581 0.222254 0.767966
O O3 0.340608 0.294993 0.732260
O O4 0.584156 0.319010 0.987567
O O5 0.466602 0.500000 0.319449
O O6 0.624345 0.731738 0.477786
O O7 0.434956 0.750789 0.237483
O O8 0.500000 0.170176 0.500000
O O9 0.297431 0.000000 0.432855
O O10 0.831615 0.500000 0.112854
O O11 0.750000 0.250000 0.000000
#
# Coordination Sequence:
#
# PCOD9219708 Si02
#       4
#     8   8   8   8
#     4   9  19  36  58  81 106 139 177 218 265 314
#     4  11  21  33  54  84 112 139 175 216 260 314
#     4   8  15  31  54  79 106 136 172 216 265 311
#     4  11  23  39  56  76 106 142 180 221 266 314
#
# _framework density 23.143277999999999
#
# number of rings (size 3 to 8) (size 9 to 14) (size 15 to 20)
#    0.000    2.250    0.000    5.250    0.000    9.500 
#    0.000    1.250    0.000    0.000    0.000    0.000 
#    0.000    0.000    0.000    0.000    0.000    0.000 
#
# Total GULP energy -89500.656935 kJ/mol
# GULP energy per Si atom -5593.791058 kJ/mol
# Density = 2.309060 g / cm^3
# Si number density = 23.143278 Si / 1000 Ang^3
#
#
#
# Elastic Constant Matrix: (Units=GPa)
#
#
# Indices 1 2 3 4 5 6 
#
# 1 83.2149 46.6219 15.2377 -0.0003 -18.3576 -0.0002
# 2 46.6219 170.8528 86.0502 0.0000 -46.3572 -0.0001
# 3 15.2377 86.0502 159.4109 -0.0001 -31.1423 -0.0001
# 4 -0.0003 0.0000 -0.0001 29.3071 -0.0002 -19.8262
# 5 -18.3576 -46.3572 -31.1423 -0.0002 44.5807 -0.0002
# 6 -0.0002 -0.0001 -0.0001 -19.8262 -0.0002 20.2601
#
#
#
# Elastic Compliance Matrix: (Units=1/GPa)
#
#
# Indices 1 2 3 4 5 6 
#
# 1 0.014564 -0.003807 0.001229 0.000001 0.002897 0.000001
# 2 -0.003807 0.010826 -0.004154 0.000000 0.006788 0.000000
# 3 0.001229 -0.004154 0.008862 0.000000 0.002378 0.000000
# 4 0.000001 0.000000 0.000000 0.100955 0.000001 0.098793
# 5 0.002897 0.006788 0.002378 0.000001 0.032343 0.000002
# 6 0.000001 0.000000 0.000000 0.098793 0.000002 0.146035
#
#
# Mechanical properties :
#
#
# Convention : Reuss Voigt Hill
#
# Bulk Modulus (GPa) = 48.10467 78.81090 63.45779
# Shear Modulus (GPa) = 14.97103 36.53417 25.75260
#
# Velocity S-wave (km/s) = 2.54615 3.97748 3.33940
# Velocity P-wave (km/s) = 5.42905 7.43110 6.50753
#
# Compressibility (1/GPa) = 0.02078800
#
# Stress axis : x y z
#
# Youngs Moduli (GPa) = 68.66200 92.37373 112.83743
#
# Poissons Ratio (x) = 0.35168 -0.13866
# Poissons Ratio (y) = 0.26141 0.46870
# Poissons Ratio (z) = -0.08438 0.38370
#
# Static dielectric constant tensor:
#      x y z
#    x 1.965600 0.000000 0.030930 
#    y 0.000000 1.771880 0.000000 
#    z 0.030930 0.000000 1.898960 
# 
# From -- ./inp_files/101336.got.cif
#   From: 2010.05.17/outbox.cif.g08.bks.cpg/sg12_51_cif.got.tgz:101336.got - 2010.06.03 13:09:07.
