data_PCOD9219922
_publ_section_title
;
Structure prediction by ZEFSAII (Michael W. Deem and Ramdas Pophale) SiO2 
 PCOD9219922
Probable space group: C 2/M
;
_chemical_formula_sum "Si O2"
_cell_formula_units_Z 56
_cell_length_a 14.139177
_cell_length_b 29.652268
_cell_length_c 11.770334
_cell_angle_alpha 90.000000
_cell_angle_beta 33.066621
_cell_angle_gamma 90.000000
_cell_volume 2692.503083
_symmetry_space_group_name_H-M "C 2/M"
_symmetry_group_IT_number 12
_symmetry_cell_setting 'monoclinic'
loop_
_space_group_symop_operation_xyz
x,y,z
-x,y,-z
-x,-y,-z
x,-y,z
1/2+x,1/2+y,z
1/2-x,1/2+y,-z
1/2-x,1/2-y,-z
1/2+x,1/2-y,z
loop_
_atom_site_type_symbol
_atom_site_label
_atom_site_fract_x
_atom_site_fract_y
_atom_site_fract_z
Si Si1 0.246336 0.278477 0.334646
Si Si2 0.181538 0.319325 0.773402
Si Si3 0.155910 0.949506 0.511771
Si Si4 0.123502 0.280923 0.202815
Si Si5 0.248997 0.050593 0.162093
Si Si6 0.742995 0.855910 0.940549
Si Si7 0.628068 0.358414 0.636410
O O1 0.353985 0.232384 0.225241
O O2 0.204642 0.288235 0.245207
O O3 0.320904 0.322855 0.318392
O O4 0.069294 0.264050 0.577658
O O5 0.290515 0.327519 0.778696
O O6 0.281198 0.341607 0.570513
O O7 0.000000 0.339131 0.000000
O O8 0.255016 0.941871 0.292070
O O9 0.180874 0.911162 0.580929
O O10 0.953798 0.948827 0.673514
O O11 0.195137 0.000000 0.511930
O O12 0.250000 0.250000 0.000000
O O13 0.108263 0.327419 0.149159
O O14 0.321710 0.094302 0.026059
O O15 0.316063 0.000000 0.070742
O O16 0.920940 0.857778 0.831355
#
# Coordination Sequence:
#
# PCOD9219922 Si02
#       7
#     8   8   8   8   8   8   8
#     4  11  26  41  58  83 113 157 202 239 286 351
#     4  12  24  37  56  80 117 158 196 238 287 342
#     4   8  14  28  53  84 118 148 182 235 291 342
#     4  11  23  42  63  78 113 156 199 244 288 346
#     4   8  14  28  53  86 115 146 187 232 288 348
#     4  11  21  36  61  85 117 154 190 242 295 339
#     4  11  22  35  58  91 117 149 196 240 290 349
#
# _framework density 20.798490999999999
#
# number of rings (size 3 to 8) (size 9 to 14) (size 15 to 20)
#    0.000    1.714    2.857    3.429    4.000    0.000 
#    0.000    0.000    0.000    5.143    0.000    6.000 
#    0.000    0.000    0.000    0.000    0.000    0.000 
#
# Total GULP energy -156370.885471 kJ/mol
# GULP energy per Si atom -5584.674481 kJ/mol
# Density = 2.075115 g / cm^3
# Si number density = 20.798491 Si / 1000 Ang^3
#
#
#
# Elastic Constant Matrix: (Units=GPa)
#
#
# Indices 1 2 3 4 5 6 
#
# 1 59.8653 28.6294 8.2475 0.0000 7.8560 0.0000
# 2 28.6294 145.9536 23.5996 0.0000 8.2501 0.0000
# 3 8.2475 23.5996 80.9707 0.0000 7.4081 0.0000
# 4 0.0000 0.0000 0.0000 21.3170 0.0000 5.9641
# 5 7.8560 8.2501 7.4081 0.0000 22.4315 0.0000
# 6 0.0000 0.0000 0.0000 5.9641 0.0000 32.3956
#
#
#
# Elastic Compliance Matrix: (Units=1/GPa)
#
#
# Indices 1 2 3 4 5 6 
#
# 1 0.019073 -0.003365 -0.000478 0.000000 -0.005284 0.000000
# 2 -0.003365 0.007873 -0.001851 0.000000 -0.001106 0.000000
# 3 -0.000478 -0.001851 0.013261 0.000000 -0.003531 0.000000
# 4 0.000000 0.000000 0.000000 0.049458 0.000000 -0.009105
# 5 -0.005284 -0.001106 -0.003531 0.000000 0.048004 0.000000
# 6 0.000000 0.000000 0.000000 -0.009105 0.000000 0.032545
#
#
# Mechanical properties :
#
#
# Convention : Reuss Voigt Hill
#
# Bulk Modulus (GPa) = 34.69969 45.30474 40.00221
# Shear Modulus (GPa) = 26.14932 30.31636 28.23284
#
# Velocity S-wave (km/s) = 3.54965 3.82202 3.68835
# Velocity P-wave (km/s) = 5.78964 6.42706 6.11666
#
# Compressibility (1/GPa) = 0.02881871
#
# Stress axis : x y z
#
# Youngs Moduli (GPa) = 52.43059 127.01064 75.40684
#
# Poissons Ratio (x) = 0.42741 0.03608
# Poissons Ratio (y) = 0.17644 0.13956
# Poissons Ratio (z) = 0.02509 0.23507
#
# Static dielectric constant tensor:
#      x y z
#    x 1.819850 0.000000 -0.055860 
#    y 0.000000 1.794500 0.000000 
#    z -0.055860 0.000000 1.738380 
# 
# From -- ./inp_files/150422.got.cif
#   From: 2010.05.17/outbox.cif.g08.bks.cpg/sg12_76_cif.got.tgz:150422.got - 2010.06.03 13:09:07.
