data_PCOD9219105
_publ_section_title
;
Structure prediction by ZEFSAII (Michael W. Deem and Ramdas Pophale) SiO2 
 PCOD9219105
Probable space group: C 2/M
;
_chemical_formula_sum "Si O2"
_cell_formula_units_Z 36
_cell_length_a 23.328023
_cell_length_b 14.917421
_cell_length_c 9.580443
_cell_angle_alpha 90.000000
_cell_angle_beta 35.582542
_cell_angle_gamma 90.000000
_cell_volume 1939.934712
_symmetry_space_group_name_H-M "C 2/M"
_symmetry_group_IT_number 12
_symmetry_cell_setting 'monoclinic'
loop_
_space_group_symop_operation_xyz
x,y,z
-x,y,-z
-x,-y,-z
x,-y,z
1/2+x,1/2+y,z
1/2-x,1/2+y,-z
1/2-x,1/2-y,-z
1/2+x,1/2-y,z
loop_
_atom_site_type_symbol
_atom_site_label
_atom_site_fract_x
_atom_site_fract_y
_atom_site_fract_z
Si Si1 0.113554 0.000000 0.730353
Si Si2 0.388313 0.841793 0.546851
Si Si3 0.318760 0.356851 0.626391
Si Si4 0.109719 0.608068 0.132487
Si Si5 0.382523 0.500000 0.725586
Si Si6 0.753933 0.000000 0.257901
O O1 0.137664 0.086472 0.587513
O O2 0.184702 0.000000 0.722231
O O3 0.000000 0.000000 0.000000
O O4 0.360081 0.742442 0.556939
O O5 0.377820 0.853350 0.735592
O O6 0.502428 0.864066 0.291144
O O7 0.316220 0.913806 0.619747
O O8 0.347824 0.413525 0.706900
O O9 0.200098 0.358472 0.860280
O O10 0.113923 0.500000 0.134810
O O11 0.500000 0.500000 0.500000
O O12 0.330762 0.500000 0.977326
#
# Coordination Sequence:
#
# PCOD9219105 Si02
#       6
#     4   8   8   8   4   4
#     4  11  27  48  62  84 137 181 219 271 323 379
#     4  11  22  36  69 103 131 163 215 278 329 387
#     4  11  23  42  64  95 128 175 221 271 323 383
#     4  11  19  40  66 101 137 164 207 276 338 380
#     4  11  23  36  61  94 122 166 227 272 321 382
#     4  12  22  41  64  92 129 173 218 268 324 386
#
# _framework density 18.557324999999999
#
# number of rings (size 3 to 8) (size 9 to 14) (size 15 to 20)
#    0.000    0.889    6.667    2.667    3.111    2.667 
#    0.000    2.222    0.000    0.000    0.000    0.000 
#    0.000    0.000    0.000    0.000    0.000    0.000 
#
# Total GULP energy -100640.550484 kJ/mol
# GULP energy per Si atom -5591.141694 kJ/mol
# Density = 1.851509 g / cm^3
# Si number density = 18.557325 Si / 1000 Ang^3
#
#
#
# Elastic Constant Matrix: (Units=GPa)
#
#
# Indices 1 2 3 4 5 6 
#
# 1 106.3419 82.9307 69.4132 0.0000 -14.8604 0.0000
# 2 82.9307 176.4788 62.7476 0.0000 -8.1956 0.0000
# 3 69.4132 62.7476 159.1577 0.0000 -30.2926 0.0000
# 4 0.0000 0.0000 0.0000 15.5119 0.0000 -21.1172
# 5 -14.8604 -8.1956 -30.2926 0.0000 35.4562 0.0000
# 6 0.0000 0.0000 0.0000 -21.1172 0.0000 4.4641
#
#
#
# Elastic Compliance Matrix: (Units=1/GPa)
#
#
# Indices 1 2 3 4 5 6 
#
# 1 0.018046 -0.006654 -0.004897 0.000000 0.001842 0.000000
# 2 -0.006654 0.009064 -0.000960 0.000000 -0.001514 0.000000
# 3 -0.004897 -0.000960 0.009988 0.000000 0.006260 0.000000
# 4 0.000000 0.000000 0.000000 -0.011851 0.000000 -0.056060
# 5 0.001842 -0.001514 0.006260 0.000000 0.033974 0.000000
# 6 0.000000 0.000000 0.000000 -0.056060 0.000000 -0.041180
#
#
# Mechanical properties :
#
#
# Convention : Reuss Voigt Hill
#
# Bulk Modulus (GPa) = 82.79132 96.90682 89.84907
# Shear Modulus (GPa) = 106.18433 26.21224 66.19829
#
# Velocity S-wave (km/s) = 7.57257 3.76240 5.97911
# Velocity P-wave (km/s) = 11.00769 8.43847 9.80757
#
# Compressibility (1/GPa) = 0.01207856
#
# Stress axis : x y z
#
# Youngs Moduli (GPa) = 55.41369 110.32652 100.11620
#
# Poissons Ratio (x) = 0.73407 0.49023
# Poissons Ratio (y) = 0.36870 0.09608
# Poissons Ratio (z) = 0.27134 0.10588
#
# Static dielectric constant tensor:
#      x y z
#    x 1.627040 0.000000 -0.014240 
#    y 0.000000 1.609210 0.000000 
#    z -0.014240 0.000000 1.648100 
# 
# From -- ./inp_files/86289.got.cif
#   From: 2010.05.17/outbox.cif.g08.bks.cpg/sg12_44_cif.got.tgz:86289.got - 2010.06.03 13:09:07.
