data_PCOD9219002
_publ_section_title
;
Structure prediction by ZEFSAII (Michael W. Deem and Ramdas Pophale) SiO2 
 PCOD9219002
Probable space group: C 2/M
;
_chemical_formula_sum "Si O2"
_cell_formula_units_Z 50
_cell_length_a 26.193654
_cell_length_b 14.985971
_cell_length_c 7.719715
_cell_angle_alpha 90.000000
_cell_angle_beta 55.691567
_cell_angle_gamma 90.000000
_cell_volume 2503.054790
_symmetry_space_group_name_H-M "C 2/M"
_symmetry_group_IT_number 12
_symmetry_cell_setting 'monoclinic'
loop_
_space_group_symop_operation_xyz
x,y,z
-x,y,-z
-x,-y,-z
x,-y,z
1/2+x,1/2+y,z
1/2-x,1/2+y,-z
1/2-x,1/2-y,-z
1/2+x,1/2-y,z
loop_
_atom_site_type_symbol
_atom_site_label
_atom_site_fract_x
_atom_site_fract_y
_atom_site_fract_z
Si Si1 0.999030 0.339547 0.292114
Si Si2 0.869913 0.600647 0.010064
Si Si3 0.182612 0.724961 0.194974
Si Si4 0.475545 0.638035 0.807989
Si Si5 0.897330 0.900476 0.617166
Si Si6 0.637293 0.106005 0.577655
Si Si7 0.500000 0.500000 0.000000
O O1 0.016678 0.242555 0.184983
O O2 0.000000 0.331940 0.500000
O O3 0.932742 0.369284 0.348451
O O4 0.055550 0.401905 0.133228
O O5 0.846821 0.500000 0.016373
O O6 0.852013 0.627102 0.240203
O O7 0.850192 0.670804 0.900120
O O8 0.146922 0.815682 0.317804
O O9 0.180713 0.660473 0.364647
O O10 0.250000 0.750000 0.000000
O O11 0.543661 0.601816 0.623958
O O12 0.429874 0.616085 0.739374
O O13 0.455733 0.579056 0.005240
O O14 0.869542 0.000000 0.661353
O O15 0.644730 0.000000 0.542221
#
# Coordination Sequence:
#
# PCOD9219002 Si02
#       7
#     8   8   8   8   8   8   2
#     4  12  20  36  67 100 130 172 202 254 330 399
#     4  11  24  42  67  98 135 166 207 265 326 392
#     4  12  26  44  68  91 119 175 227 269 318 369
#     4  11  19  34  56  86 125 157 198 247 315 380
#     4  11  20  41  58  81 121 163 200 257 315 375
#     4  11  24  42  67  98 135 166 207 265 326 392
#     4  12  24  26  56 100 126 166 200 252 312 400
#
# _framework density 19.97559
#
# number of rings (size 3 to 8) (size 9 to 14) (size 15 to 20)
#    0.000    0.640    8.000    1.920    2.240    3.840 
#    0.000    0.000    0.000    0.000    0.000    0.000 
#    0.000    0.000    0.000    0.000    0.000    0.000 
#
# Total GULP energy -139343.853281 kJ/mol
# GULP energy per Si atom -5573.754131 kJ/mol
# Density = 1.993013 g / cm^3
# Si number density = 19.975590 Si / 1000 Ang^3
#
#
#
# Elastic Constant Matrix: (Units=GPa)
#
#
# Indices 1 2 3 4 5 6 
#
# 1 7.0869 6.1368 1.4149 0.0000 6.0665 0.0000
# 2 6.1368 149.0409 22.2960 0.0000 13.0666 0.0000
# 3 1.4149 22.2960 29.6778 0.0000 10.8578 0.0000
# 4 0.0000 0.0000 0.0000 20.3385 0.0000 6.1940
# 5 6.0665 13.0666 10.8578 0.0000 33.7392 0.0000
# 6 0.0000 0.0000 0.0000 6.1940 0.0000 12.9078
#
#
#
# Elastic Compliance Matrix: (Units=1/GPa)
#
#
# Indices 1 2 3 4 5 6 
#
# 1 0.170837 -0.005404 0.007240 0.000000 -0.030955 0.000000
# 2 -0.005404 0.007777 -0.005484 0.000000 -0.000275 0.000000
# 3 0.007240 -0.005484 0.042130 0.000000 -0.012736 0.000000
# 4 0.000000 0.000000 0.000000 0.057583 0.000000 -0.027632
# 5 -0.030955 -0.000275 -0.012736 0.000000 0.039410 0.000000
# 6 0.000000 0.000000 0.000000 -0.027632 0.000000 0.090732
#
#
# Mechanical properties :
#
#
# Convention : Reuss Voigt Hill
#
# Bulk Modulus (GPa) = 4.68498 27.27788 15.98143
# Shear Modulus (GPa) = 10.26876 23.79429 17.03152
#
# Velocity S-wave (km/s) = 2.26976 3.45507 2.92313
# Velocity P-wave (km/s) = 3.03637 5.44077 4.40576
#
# Compressibility (1/GPa) = 0.21344825
#
# Stress axis : x y z
#
# Youngs Moduli (GPa) = 5.85352 128.59123 23.73631
#
# Poissons Ratio (x) = 0.69485 -0.17185
# Poissons Ratio (y) = 0.03163 0.13017
# Poissons Ratio (z) = -0.04238 0.70519
#
# Static dielectric constant tensor:
#      x y z
#    x 1.743870 0.000000 0.089680 
#    y 0.000000 1.755320 0.000000 
#    z 0.089680 0.000000 1.823250 
# 
# From -- ./inp_files/111060.got.cif
#   From: 2010.05.17/outbox.cif.g08.bks.cpg/sg12_56_cif.got.tgz:111060.got - 2010.06.03 13:09:07.
