data_PCOD9219821
_publ_section_title
;
Structure prediction by ZEFSAII (Michael W. Deem and Ramdas Pophale) SiO2 
 PCOD9219821
Probable space group: C 2/M
;
_chemical_formula_sum "Si O2"
_cell_formula_units_Z 56
_cell_length_a 24.056728
_cell_length_b 19.070258
_cell_length_c 6.849041
_cell_angle_alpha 90.000000
_cell_angle_beta 123.933923
_cell_angle_gamma 90.000000
_cell_volume 2606.960896
_symmetry_space_group_name_H-M "C 2/M"
_symmetry_group_IT_number 12
_symmetry_cell_setting 'monoclinic'
loop_
_space_group_symop_operation_xyz
x,y,z
-x,y,-z
-x,-y,-z
x,-y,z
1/2+x,1/2+y,z
1/2-x,1/2+y,-z
1/2-x,1/2-y,-z
1/2+x,1/2-y,z
loop_
_atom_site_type_symbol
_atom_site_label
_atom_site_fract_x
_atom_site_fract_y
_atom_site_fract_z
Si Si1 0.918342 0.578980 0.336605
Si Si2 0.273236 0.579459 0.536448
Si Si3 0.388713 0.080387 0.781107
Si Si4 0.811173 0.204786 0.884939
Si Si5 0.075914 0.688338 0.904164
Si Si6 0.193780 0.806622 0.671988
Si Si7 0.582782 0.811627 0.413592
O O1 0.887745 0.500000 0.275200
O O2 0.905860 0.670242 0.309805
O O3 0.901556 0.597993 0.551545
O O4 0.000000 0.572995 0.500000
O O5 0.294212 0.500000 0.608925
O O6 0.192418 0.580687 0.368359
O O7 0.296441 0.634103 0.744061
O O8 0.304847 0.615546 0.408472
O O9 0.413074 0.166755 0.827510
O O10 0.415409 0.000000 0.828257
O O11 0.407679 0.097193 0.066858
O O12 0.759600 0.266218 0.723724
O O13 0.883105 0.239102 0.004555
O O14 0.797806 0.189325 0.082506
O O15 0.996669 0.701713 0.736353
O O16 0.131957 0.755767 0.502705
#
# Coordination Sequence:
#
# PCOD9219821 Si02
#       7
#     8   8   8   8   8   8   8
#     4   9  18  32  49  78 123 159 185 228 285 357
#     4  11  24  42  63  89 125 163 209 266 315 360
#     4  11  22  36  54  84 125 166 201 243 298 364
#     4  11  22  40  65  90 119 162 209 256 308 369
#     4  11  21  35  57  87 119 157 200 244 301 368
#     4  11  22  40  65  90 119 162 209 256 308 369
#     4  11  21  35  57  87 119 157 200 244 301 368
#
# _framework density 21.480951999999998
#
# number of rings (size 3 to 8) (size 9 to 14) (size 15 to 20)
#    0.000    1.286    4.286    2.571    0.000    2.857 
#    0.000    0.000    0.000    1.714    0.000    2.000 
#    0.000    0.000    0.000    0.000    0.000    0.000 
#
# Total GULP energy -156151.273879 kJ/mol
# GULP energy per Si atom -5576.831210 kJ/mol
# Density = 2.143206 g / cm^3
# Si number density = 21.480952 Si / 1000 Ang^3
#
#
#
# Elastic Constant Matrix: (Units=GPa)
#
#
# Indices 1 2 3 4 5 6 
#
# 1 64.3744 25.9133 14.9394 0.0000 -15.1899 0.0000
# 2 25.9133 132.8484 46.3585 0.0000 8.8815 0.0000
# 3 14.9394 46.3585 96.1311 0.0000 -21.4043 0.0000
# 4 0.0000 0.0000 0.0000 20.8281 0.0000 1.2143
# 5 -15.1899 8.8815 -21.4043 0.0000 57.4100 0.0000
# 6 0.0000 0.0000 0.0000 1.2143 0.0000 28.3946
#
#
#
# Elastic Compliance Matrix: (Units=1/GPa)
#
#
# Indices 1 2 3 4 5 6 
#
# 1 0.018433 -0.004103 0.000372 0.000000 0.005651 0.000000
# 2 -0.004103 0.010576 -0.005528 0.000000 -0.004783 0.000000
# 3 0.000372 -0.005528 0.014420 0.000000 0.006330 0.000000
# 4 0.000000 0.000000 0.000000 0.048132 0.000000 -0.002058
# 5 0.005651 -0.004783 0.006330 0.000000 0.022013 0.000000
# 6 0.000000 0.000000 0.000000 -0.002058 0.000000 0.035306
#
#
# Mechanical properties :
#
#
# Convention : Reuss Voigt Hill
#
# Bulk Modulus (GPa) = 40.14166 51.97515 46.05841
# Shear Modulus (GPa) = 28.45738 35.06938 31.76338
#
# Velocity S-wave (km/s) = 3.64369 4.04490 3.84953
# Velocity P-wave (km/s) = 6.03570 6.78701 6.42235
#
# Compressibility (1/GPa) = 0.02491177
#
# Stress axis : x y z
#
# Youngs Moduli (GPa) = 54.25130 94.55016 69.34985
#
# Poissons Ratio (x) = 0.38795 -0.02582
# Poissons Ratio (y) = 0.22260 0.38334
# Poissons Ratio (z) = -0.02020 0.52264
#
# Static dielectric constant tensor:
#      x y z
#    x 1.916860 0.000000 -0.271960 
#    y 0.000000 1.734120 0.000000 
#    z -0.271960 0.000000 1.944930 
# 
# From -- ./inp_files/98195.got.cif
#   From: 2010.05.17/outbox.cif.g08.bks.cpg/sg12_50_cif.got.tgz:98195.got - 2010.06.03 13:09:07.
