data_PCOD9219906
_publ_section_title
;
Structure prediction by ZEFSAII (Michael W. Deem and Ramdas Pophale) SiO2 
 PCOD9219906
Probable space group: C 2/M
;
_chemical_formula_sum "Si O2"
_cell_formula_units_Z 32
_cell_length_a 12.853198
_cell_length_b 20.074036
_cell_length_c 8.257237
_cell_angle_alpha 90.000000
_cell_angle_beta 130.148616
_cell_angle_gamma 90.000000
_cell_volume 1628.496699
_symmetry_space_group_name_H-M "C 2/M"
_symmetry_group_IT_number 12
_symmetry_cell_setting 'monoclinic'
loop_
_space_group_symop_operation_xyz
x,y,z
-x,y,-z
-x,-y,-z
x,-y,z
1/2+x,1/2+y,z
1/2-x,1/2+y,-z
1/2-x,1/2-y,-z
1/2+x,1/2-y,z
loop_
_atom_site_type_symbol
_atom_site_label
_atom_site_fract_x
_atom_site_fract_y
_atom_site_fract_z
Si Si1 0.667124 0.162019 0.346596
Si Si2 0.723149 0.324460 0.907188
Si Si3 0.059284 0.577566 0.739675
Si Si4 0.056787 0.808548 0.238806
O O1 0.723584 0.170001 0.222123
O O2 0.559959 0.103466 0.261608
O O3 0.799249 0.155449 0.592627
O O4 0.589261 0.230988 0.309978
O O5 0.562196 0.334904 0.765137
O O6 0.750000 0.250000 0.000000
O O7 0.809815 0.376864 0.097707
O O8 0.089254 0.500000 0.793809
O O9 0.000000 0.587459 0.500000
O O10 0.000000 0.812504 0.000000
#
# Coordination Sequence:
#
# PCOD9219906 Si02
#       4
#     8   8   8   8
#     4  11  23  37  62  94 127 170 209 265 321 373
#     4  12  22  38  62  97 129 166 215 269 320 375
#     4  11  25  44  66  93 131 176 215 260 323 392
#     4  11  21  36  59  94 129 162 205 267 320 370
#
# _framework density 19.650026
#
# number of rings (size 3 to 8) (size 9 to 14) (size 15 to 20)
#    0.000    0.750    5.000    3.000    3.500    2.000 
#    0.000    1.250    0.000    7.500    0.000    0.000 
#    0.000    0.000    0.000    0.000    0.000    0.000 
#
# Total GULP energy -89500.825724 kJ/mol
# GULP energy per Si atom -5593.801608 kJ/mol
# Density = 1.960530 g / cm^3
# Si number density = 19.650026 Si / 1000 Ang^3
#
#
#
# Elastic Constant Matrix: (Units=GPa)
#
#
# Indices 1 2 3 4 5 6 
#
# 1 128.7697 41.8510 43.9177 0.0000 15.6327 0.0000
# 2 41.8510 98.1614 54.3749 0.0000 12.5551 0.0000
# 3 43.9177 54.3749 121.1778 0.0000 20.4836 0.0000
# 4 0.0000 0.0000 0.0000 27.8006 0.0000 4.7450
# 5 15.6327 12.5551 20.4836 0.0000 34.4243 0.0000
# 6 0.0000 0.0000 0.0000 4.7450 0.0000 24.6427
#
#
#
# Elastic Compliance Matrix: (Units=1/GPa)
#
#
# Indices 1 2 3 4 5 6 
#
# 1 0.009567 -0.002770 -0.001846 0.000000 -0.002236 0.000000
# 2 -0.002770 0.014427 -0.005329 0.000000 -0.000833 0.000000
# 3 -0.001846 -0.005329 0.012055 0.000000 -0.004391 0.000000
# 4 0.000000 0.000000 0.000000 0.037193 0.000000 -0.007161
# 5 -0.002236 -0.000833 -0.004391 0.000000 0.032981 0.000000
# 6 0.000000 0.000000 0.000000 -0.007161 0.000000 0.041959
#
#
# Mechanical properties :
#
#
# Convention : Reuss Voigt Hill
#
# Bulk Modulus (GPa) = 61.88889 69.82179 65.85534
# Shear Modulus (GPa) = 28.82532 31.23787 30.03159
#
# Velocity S-wave (km/s) = 3.83421 3.99144 3.91362
# Velocity P-wave (km/s) = 7.15301 7.54002 7.34907
#
# Compressibility (1/GPa) = 0.01615799
#
# Stress axis : x y z
#
# Youngs Moduli (GPa) = 104.52276 69.31590 82.95377
#
# Poissons Ratio (x) = 0.19202 0.15317
# Poissons Ratio (y) = 0.28955 0.44204
# Poissons Ratio (z) = 0.19299 0.36937
#
# Static dielectric constant tensor:
#      x y z
#    x 1.718870 0.000000 -0.010680 
#    y 0.000000 1.654600 0.000000 
#    z -0.010680 0.000000 1.723820 
# 
# From -- ./inp_files/48286.got.cif
#   From: 2010.05.17/outbox.cif.g08.bks.cpg/sg12_25_cif.got.tgz:48286.got - 2010.06.03 13:09:07.
