data_PCOD9219011
_publ_section_title
;
Structure prediction by ZEFSAII (Michael W. Deem and Ramdas Pophale) SiO2 
 PCOD9219011
Probable space group: C 2/M
;
_chemical_formula_sum "Si O2"
_cell_formula_units_Z 44
_cell_length_a 12.387580
_cell_length_b 21.843521
_cell_length_c 12.313118
_cell_angle_alpha 90.000000
_cell_angle_beta 140.875043
_cell_angle_gamma 90.000000
_cell_volume 2102.403162
_symmetry_space_group_name_H-M "C 2/M"
_symmetry_group_IT_number 12
_symmetry_cell_setting 'monoclinic'
loop_
_space_group_symop_operation_xyz
x,y,z
-x,y,-z
-x,-y,-z
x,-y,z
1/2+x,1/2+y,z
1/2-x,1/2+y,-z
1/2-x,1/2-y,-z
1/2+x,1/2-y,z
loop_
_atom_site_type_symbol
_atom_site_label
_atom_site_fract_x
_atom_site_fract_y
_atom_site_fract_z
Si Si1 0.594635 0.935028 0.691742
Si Si2 0.745530 0.712817 0.884287
Si Si3 0.849760 0.184060 0.580399
Si Si4 0.199489 0.682989 0.689852
Si Si5 0.303378 0.932620 0.648009
Si Si6 0.500000 0.114337 0.000000
O O1 0.500000 0.934212 0.500000
O O2 0.699479 0.872795 0.774535
O O3 0.454190 0.933135 0.675958
O O4 0.688781 0.000000 0.773074
O O5 0.549534 0.692709 0.720774
O O6 0.777175 0.757946 0.807213
O O7 0.750000 0.750000 0.000000
O O8 0.879170 0.657936 0.979109
O O9 0.750000 0.250000 0.500000
O O10 0.802134 0.162627 0.664342
O O11 0.793321 0.130710 0.454164
O O12 0.000000 0.695248 0.500000
O O13 0.384024 0.925071 0.829381
O O14 0.216445 0.000000 0.570964
#
# Coordination Sequence:
#
# PCOD9219011 Si02
#       6
#     8   8   8   8   8   4
#     4   9  16  31  58  90 120 156 205 259 317 388
#     4  12  25  41  63  94 133 174 219 270 335 395
#     4  12  22  38  66  97 127 162 221 277 325 387
#     4  11  19  34  61  92 126 158 211 267 326 381
#     4  11  23  42  67  97 129 174 225 273 333 404
#     4  12  27  44  62  90 135 182 220 266 339 404
#
# _framework density 20.928431
#
# number of rings (size 3 to 8) (size 9 to 14) (size 15 to 20)
#    0.000    0.909    5.455    4.636    0.000    0.000 
#    0.000    2.727    0.000    1.091    0.000    5.727 
#    0.000    0.000    0.000    0.000    0.000    0.000 
#
# Total GULP energy -122842.319225 kJ/mol
# GULP energy per Si atom -5583.741783 kJ/mol
# Density = 2.088080 g / cm^3
# Si number density = 20.928431 Si / 1000 Ang^3
#
#
#
# Elastic Constant Matrix: (Units=GPa)
#
#
# Indices 1 2 3 4 5 6 
#
# 1 54.5398 -2.9897 15.6192 0.0000 -3.0080 0.0000
# 2 -2.9897 127.6955 39.5866 0.0000 10.0479 0.0000
# 3 15.6192 39.5866 58.5644 0.0000 -7.7596 0.0000
# 4 0.0000 0.0000 0.0000 23.0664 0.0000 4.0684
# 5 -3.0080 10.0479 -7.7596 0.0000 34.7522 0.0000
# 6 0.0000 0.0000 0.0000 4.0684 0.0000 -17.1855
#
#
#
# Elastic Compliance Matrix: (Units=1/GPa)
#
#
# Indices 1 2 3 4 5 6 
#
# 1 0.020612 0.002877 -0.007539 0.000000 -0.000731 0.000000
# 2 0.002877 0.011040 -0.008882 0.000000 -0.004926 0.000000
# 3 -0.007539 -0.008882 0.026116 0.000000 0.007747 0.000000
# 4 0.000000 0.000000 0.000000 0.041615 0.000000 0.009852
# 5 -0.000731 -0.004926 0.007747 0.000000 0.031866 0.000000
# 6 0.000000 0.000000 0.000000 0.009852 0.000000 -0.055856
#
#
# Mechanical properties :
#
#
# Convention : Reuss Voigt Hill
#
# Bulk Modulus (GPa) = 32.59488 38.35907 35.47698
# Shear Modulus (GPa) = 44.36269 20.69886 32.53078
#
# Velocity S-wave (km/s) = 4.60905 3.14830 3.94684
# Velocity P-wave (km/s) = 6.62818 5.61998 6.14479
#
# Compressibility (1/GPa) = 0.03067966
#
# Stress axis : x y z
#
# Youngs Moduli (GPa) = 48.51627 90.58205 38.29023
#
# Poissons Ratio (x) = -0.26062 0.28867
# Poissons Ratio (y) = -0.13959 0.34011
# Poissons Ratio (z) = 0.36576 0.80458
#
# Static dielectric constant tensor:
#      x y z
#    x 1.754810 0.000000 -0.011480 
#    y 0.000000 1.859890 0.000000 
#    z -0.011480 0.000000 1.765700 
# 
# From -- ./inp_files/136096.got.cif
#   From: 2010.05.17/outbox.cif.g08.bks.cpg/sg12_69_cif.got.tgz:136096.got - 2010.06.03 13:09:07.
