data_PCOD9219568
_publ_section_title
;
Structure prediction by ZEFSAII (Michael W. Deem and Ramdas Pophale) SiO2 
 PCOD9219568
Probable space group: C 2/M
;
_chemical_formula_sum "Si O2"
_cell_formula_units_Z 44
_cell_length_a 29.302102
_cell_length_b 13.773387
_cell_length_c 17.458550
_cell_angle_alpha 90.000000
_cell_angle_beta 163.160513
_cell_angle_gamma 90.000000
_cell_volume 2041.190026
_symmetry_space_group_name_H-M "C 2/M"
_symmetry_group_IT_number 12
_symmetry_cell_setting 'monoclinic'
loop_
_space_group_symop_operation_xyz
x,y,z
-x,y,-z
-x,-y,-z
x,-y,z
1/2+x,1/2+y,z
1/2-x,1/2+y,-z
1/2-x,1/2-y,-z
1/2+x,1/2-y,z
loop_
_atom_site_type_symbol
_atom_site_label
_atom_site_fract_x
_atom_site_fract_y
_atom_site_fract_z
Si Si1 0.957131 0.500000 0.720857
Si Si2 0.695555 0.500000 0.187640
Si Si3 0.143709 0.672748 0.041985
Si Si4 0.824789 0.000000 0.420487
Si Si5 0.684349 0.790847 0.814552
Si Si6 0.768709 0.500000 0.554895
Si Si7 0.209189 0.000000 0.044245
Si Si8 0.969840 0.828182 0.861755
O O1 0.787017 0.500000 0.412857
O O2 0.934030 0.500000 0.775627
O O3 0.043066 0.595723 0.832066
O O4 0.782432 0.500000 0.247589
O O5 0.592980 0.404401 0.025403
O O6 0.263543 0.599208 0.279829
O O7 0.227709 0.744347 0.117968
O O8 0.018251 0.730956 0.893795
O O9 0.747578 0.000000 0.380413
O O10 0.016053 0.000000 0.735495
O O11 0.500000 0.776249 0.500000
O O12 0.750000 0.750000 0.000000
O O13 0.728145 0.903193 0.891708
O O14 0.686684 0.395591 0.399396
O O15 0.000000 0.811559 0.000000
#
# Coordination Sequence:
#
# PCOD9219568 Si02
#       8
#     4   4   8   4   8   4   4   8
#     4  11  26  40  64  99 142 182 229 280 339 411
#     4  11  20  41  67  94 138 171 231 282 329 397
#     4  11  27  44  65 100 141 183 224 286 351 416
#     4  11  24  44  67  96 150 183 223 279 351 419
#     4  12  28  50  77 106 137 181 239 293 360 421
#     4  11  21  40  62  98 140 187 232 279 330 408
#     4  12  24  47  75 104 134 178 226 300 344 408
#     4  11  21  40  65 101 134 185 232 276 338 407
#
# _framework density 21.556055000000001
#
# number of rings (size 3 to 8) (size 9 to 14) (size 15 to 20)
#    0.000    0.727    5.455    1.909    5.091    5.818 
#    0.000    3.182    0.000    0.000    0.000    0.000 
#    0.000    0.000    0.000    0.000    0.000    0.000 
#
# Total GULP energy -122667.621624 kJ/mol
# GULP energy per Si atom -5575.800983 kJ/mol
# Density = 2.150699 g / cm^3
# Si number density = 21.556055 Si / 1000 Ang^3
#
#
#
# Elastic Constant Matrix: (Units=GPa)
#
#
# Indices 1 2 3 4 5 6 
#
# 1 104.6466 50.6681 26.8392 0.0000 -6.6831 0.0000
# 2 50.6681 159.9798 29.8549 0.0000 2.2382 0.0000
# 3 26.8392 29.8549 81.5467 0.0000 1.2745 0.0000
# 4 0.0000 0.0000 0.0000 38.0656 0.0000 77.4483
# 5 -6.6831 2.2382 1.2745 0.0000 27.9142 0.0000
# 6 0.0000 0.0000 0.0000 77.4483 0.0000 166.5102
#
#
#
# Elastic Compliance Matrix: (Units=1/GPa)
#
#
# Indices 1 2 3 4 5 6 
#
# 1 0.012113 -0.003358 -0.002809 0.000000 0.003298 0.000000
# 2 -0.003358 0.007645 -0.001673 0.000000 -0.001341 0.000000
# 3 -0.002809 -0.001673 0.013818 0.000000 -0.001169 0.000000
# 4 0.000000 0.000000 0.000000 0.489628 0.000000 -0.227739
# 5 0.003298 -0.001341 -0.001169 0.000000 0.036774 0.000000
# 6 0.000000 0.000000 0.000000 -0.227739 0.000000 0.111933
#
#
# Mechanical properties :
#
#
# Convention : Reuss Voigt Hill
#
# Bulk Modulus (GPa) = 55.87618 62.32193 59.09905
# Shear Modulus (GPa) = 7.20921 62.41876 34.81399
#
# Velocity S-wave (km/s) = 1.83075 5.38696 4.02312
# Velocity P-wave (km/s) = 5.51783 8.22598 7.00404
#
# Compressibility (1/GPa) = 0.01789671
#
# Stress axis : x y z
#
# Youngs Moduli (GPa) = 82.55605 130.79844 72.36930
#
# Poissons Ratio (x) = 0.43927 0.20327
# Poissons Ratio (y) = 0.27725 0.12106
# Poissons Ratio (z) = 0.23188 0.21879
#
# Static dielectric constant tensor:
#      x y z
#    x 1.754180 0.000000 -0.006360 
#    y 0.000000 1.748020 0.000000 
#    z -0.006360 0.000000 1.829300 
# 
# From -- ./inp_files/296592.got.cif
#   From: 2010.05.17/outbox.cif.g08.bks.cpg/sg12_149_cif.got.tgz:296592.got - 2010.06.03 13:09:07.
