data_PCOD9219444
_publ_section_title
;
Structure prediction by ZEFSAII (Michael W. Deem and Ramdas Pophale) SiO2 
 PCOD9219444
Probable space group: C 2/M
;
_chemical_formula_sum "Si O2"
_cell_formula_units_Z 40
_cell_length_a 14.720416
_cell_length_b 18.612545
_cell_length_c 14.701485
_cell_angle_alpha 90.000000
_cell_angle_beta 151.796401
_cell_angle_gamma 90.000000
_cell_volume 1903.646886
_symmetry_space_group_name_H-M "C 2/M"
_symmetry_group_IT_number 12
_symmetry_cell_setting 'monoclinic'
loop_
_space_group_symop_operation_xyz
x,y,z
-x,y,-z
-x,-y,-z
x,-y,z
1/2+x,1/2+y,z
1/2-x,1/2+y,-z
1/2-x,1/2-y,-z
1/2+x,1/2-y,z
loop_
_atom_site_type_symbol
_atom_site_label
_atom_site_fract_x
_atom_site_fract_y
_atom_site_fract_z
Si Si1 0.728272 0.192081 0.899367
Si Si2 0.562529 0.583826 0.794832
Si Si3 0.734057 0.263224 0.714762
Si Si4 0.715795 0.419102 0.729552
Si Si5 0.285829 0.822556 0.477724
O O1 0.789791 0.232925 0.862183
O O2 0.511814 0.165433 0.687327
O O3 0.750000 0.250000 0.000000
O O4 0.842841 0.124278 0.037323
O O5 0.549189 0.500000 0.797698
O O6 0.684227 0.594996 0.809512
O O7 0.350203 0.617457 0.599855
O O8 0.500000 0.269879 0.500000
O O9 0.806213 0.345931 0.767480
O O10 0.777825 0.202246 0.679197
O O11 0.500000 0.423524 0.500000
O O12 0.798622 0.500000 0.787701
O O13 0.250000 0.750000 0.500000
#
# Coordination Sequence:
#
# PCOD9219444 Si02
#       5
#     8   8   8   8   8
#     4  11  20  38  59  85 117 154 200 241 281 350
#     4  11  23  39  60  89 120 155 196 248 301 343
#     4   9  18  33  56  84 114 153 199 234 291 352
#     4   9  16  30  55  84 116 151 189 238 298 355
#     4  11  21  37  61  87 118 155 199 241 289 355
#
# _framework density 21.0123
#
# number of rings (size 3 to 8) (size 9 to 14) (size 15 to 20)
#    0.000    1.800    4.000    2.400    0.000    1.600 
#    0.000    2.000    0.000    3.600    0.000    9.800 
#    0.000    0.000    0.000    0.000    0.000    0.000 
#
# Total GULP energy -111627.538772 kJ/mol
# GULP energy per Si atom -5581.376939 kJ/mol
# Density = 2.096447 g / cm^3
# Si number density = 21.012300 Si / 1000 Ang^3
#
#
#
# Elastic Constant Matrix: (Units=GPa)
#
#
# Indices 1 2 3 4 5 6 
#
# 1 37.5982 9.4287 12.2269 0.0000 -24.7570 0.0000
# 2 9.4287 121.9759 26.4366 0.0000 -0.3142 0.0000
# 3 12.2269 26.4366 96.1568 0.0000 -13.0800 0.0001
# 4 0.0000 0.0000 0.0000 23.7005 0.0000 -1.8053
# 5 -24.7570 -0.3142 -13.0800 0.0000 40.3627 0.0000
# 6 0.0000 0.0000 0.0001 -1.8053 0.0000 21.2560
#
#
#
# Elastic Compliance Matrix: (Units=1/GPa)
#
#
# Indices 1 2 3 4 5 6 
#
# 1 0.046174 -0.003241 -0.001183 0.000000 0.027913 0.000000
# 2 -0.003241 0.008967 -0.002421 0.000000 -0.002702 0.000000
# 3 -0.001183 -0.002421 0.011627 0.000000 0.003023 0.000000
# 4 0.000000 0.000000 0.000000 0.042468 0.000000 0.003607
# 5 0.027913 -0.002702 0.003023 0.000000 0.042855 0.000000
# 6 0.000000 0.000000 0.000000 0.003607 0.000000 0.047352
#
#
# Mechanical properties :
#
#
# Convention : Reuss Voigt Hill
#
# Bulk Modulus (GPa) = 18.84027 39.10167 28.97097
# Shear Modulus (GPa) = 21.66145 30.90640 26.28392
#
# Velocity S-wave (km/s) = 3.21424 3.83936 3.54062
# Velocity P-wave (km/s) = 4.77083 6.18899 5.52560
#
# Compressibility (1/GPa) = 0.05307779
#
# Stress axis : x y z
#
# Youngs Moduli (GPa) = 21.65712 111.52552 86.00730
#
# Poissons Ratio (x) = 0.36144 0.10178
# Poissons Ratio (y) = 0.07019 0.20820
# Poissons Ratio (z) = 0.02563 0.26997
#
# Static dielectric constant tensor:
#      x y z
#    x 2.022300 0.000000 -0.123290 
#    y 0.000000 1.707950 0.000000 
#    z -0.123290 0.000000 2.012790 
# 
# From -- ./inp_files/112529.got.cif
#   From: 2010.05.17/outbox.cif.g08.bks.cpg/sg12_57_cif.got.tgz:112529.got - 2010.06.03 13:09:07.
