data_PCOD9219272
_publ_section_title
;
Structure prediction by ZEFSAII (Michael W. Deem and Ramdas Pophale) SiO2 
 PCOD9219272
Probable space group: C 2/M
;
_chemical_formula_sum "Si O2"
_cell_formula_units_Z 56
_cell_length_a 28.268431
_cell_length_b 26.479367
_cell_length_c 10.317776
_cell_angle_alpha 90.000000
_cell_angle_beta 159.077784
_cell_angle_gamma 90.000000
_cell_volume 2757.944329
_symmetry_space_group_name_H-M "C 2/M"
_symmetry_group_IT_number 12
_symmetry_cell_setting 'monoclinic'
loop_
_space_group_symop_operation_xyz
x,y,z
-x,y,-z
-x,-y,-z
x,-y,z
1/2+x,1/2+y,z
1/2-x,1/2+y,-z
1/2-x,1/2-y,-z
1/2+x,1/2-y,z
loop_
_atom_site_type_symbol
_atom_site_label
_atom_site_fract_x
_atom_site_fract_y
_atom_site_fract_z
Si Si1 0.156073 0.809993 0.392769
Si Si2 0.770162 0.554720 0.947938
Si Si3 0.270580 0.193860 0.416661
Si Si4 0.506235 0.741337 0.660900
Si Si5 0.281560 0.662485 0.162903
Si Si6 0.945525 0.660582 0.636906
Si Si7 0.039184 0.444375 0.807896
O O1 0.225642 0.828387 0.439267
O O2 0.164205 0.749269 0.404636
O O3 0.230954 0.825777 0.716077
O O4 0.000000 0.824471 0.000000
O O5 0.703996 0.500000 0.788632
O O6 0.679629 0.603248 0.742339
O O7 0.897960 0.554380 0.370199
O O8 0.841963 0.559021 0.992016
O O9 0.363608 0.162837 0.559775
O O10 0.132892 0.205583 0.992386
O O11 0.500000 0.762213 0.500000
O O12 0.380995 0.705811 0.369728
O O13 0.517992 0.786069 0.795718
O O14 0.155107 0.662823 0.744431
O O15 0.028894 0.609310 0.851678
O O16 0.051128 0.500000 0.903556
#
# Coordination Sequence:
#
# PCOD9219272 Si02
#       7
#     8   8   8   8   8   8   8
#     4  11  22  37  51  72 106 147 182 215 254 311
#     4   8  16  31  53  80 105 134 174 219 263 308
#     4  11  22  36  51  73 111 144 178 210 260 320
#     4  12  22  32  52  81 114 136 173 217 265 319
#     4  11  20  34  54  80 105 138 175 217 265 308
#     4  11  21  32  54  83 109 139 172 215 269 314
#     4   8  16  30  51  80 110 135 168 216 267 312
#
# _framework density 20.304977999999998
#
# number of rings (size 3 to 8) (size 9 to 14) (size 15 to 20)
#    0.000    1.714    4.286    2.143    6.000    0.000 
#    0.000    0.000    0.000    2.571    0.000    2.000 
#    0.000    0.000    0.000    0.000    0.000    0.000 
#
# Total GULP energy -156189.010280 kJ/mol
# GULP energy per Si atom -5578.178939 kJ/mol
# Density = 2.025876 g / cm^3
# Si number density = 20.304978 Si / 1000 Ang^3
#
#
#
# Elastic Constant Matrix: (Units=GPa)
#
#
# Indices 1 2 3 4 5 6 
#
# 1 111.2899 21.2257 11.5044 0.0000 -3.9038 0.0000
# 2 21.2257 133.8305 13.7888 0.0000 17.0955 0.0000
# 3 11.5044 13.7888 46.3928 0.0000 -11.2202 0.0000
# 4 0.0000 0.0000 0.0000 10.7135 0.0000 7.6481
# 5 -3.9038 17.0955 -11.2202 0.0000 23.9295 0.0000
# 6 0.0000 0.0000 0.0000 7.6481 0.0000 15.6417
#
#
#
# Elastic Compliance Matrix: (Units=1/GPa)
#
#
# Indices 1 2 3 4 5 6 
#
# 1 0.009511 -0.001632 -0.001372 0.000000 0.002075 0.000000
# 2 -0.001632 0.009366 -0.004581 0.000000 -0.009106 0.000000
# 3 -0.001372 -0.004581 0.027063 0.000000 0.015739 0.000000
# 4 0.000000 0.000000 0.000000 0.143391 0.000000 -0.070112
# 5 0.002075 -0.009106 0.015739 0.000000 0.056013 0.000000
# 6 0.000000 0.000000 0.000000 -0.070112 0.000000 0.098214
#
#
# Mechanical properties :
#
#
# Convention : Reuss Voigt Hill
#
# Bulk Modulus (GPa) = 32.49871 42.72791 37.61331
# Shear Modulus (GPa) = 13.55067 26.38989 19.97028
#
# Velocity S-wave (km/s) = 2.58613 3.60901 3.13951
# Velocity P-wave (km/s) = 4.99574 6.20124 5.63085
#
# Compressibility (1/GPa) = 0.03077045
#
# Stress axis : x y z
#
# Youngs Moduli (GPa) = 105.13688 106.76709 36.95026
#
# Poissons Ratio (x) = 0.17426 0.05069
# Poissons Ratio (y) = 0.17160 0.16928
# Poissons Ratio (z) = 0.14422 0.48913
#
# Static dielectric constant tensor:
#      x y z
#    x 1.758030 0.000000 -0.017320 
#    y 0.000000 1.761150 0.000000 
#    z -0.017320 0.000000 1.763130 
# 
# From -- ./inp_files/190440.got.cif
#   From: 2010.05.17/outbox.cif.g08.bks.cpg/sg12_96_cif.got.tgz:190440.got - 2010.06.03 13:09:07.
