data_PCOD9219601
_publ_section_title
;
Structure prediction by ZEFSAII (Michael W. Deem and Ramdas Pophale) SiO2 
 PCOD9219601
Probable space group: C 2/M
;
_chemical_formula_sum "Si O2"
_cell_formula_units_Z 32
_cell_length_a 16.455796
_cell_length_b 11.843390
_cell_length_c 13.464445
_cell_angle_alpha 90.000000
_cell_angle_beta 32.819326
_cell_angle_gamma 90.000000
_cell_volume 1422.250260
_symmetry_space_group_name_H-M "C 2/M"
_symmetry_group_IT_number 12
_symmetry_cell_setting 'monoclinic'
loop_
_space_group_symop_operation_xyz
x,y,z
-x,y,-z
-x,-y,-z
x,-y,z
1/2+x,1/2+y,z
1/2-x,1/2+y,-z
1/2-x,1/2-y,-z
1/2+x,1/2-y,z
loop_
_atom_site_type_symbol
_atom_site_label
_atom_site_fract_x
_atom_site_fract_y
_atom_site_fract_z
Si Si1 0.597360 0.197222 0.617881
Si Si2 0.750758 0.500000 0.656330
Si Si3 0.104093 0.000000 0.021585
Si Si4 0.090375 0.256837 0.010935
Si Si5 0.097017 0.124970 0.301819
O O1 0.750000 0.250000 0.500000
O O2 0.494754 0.287234 0.668627
O O3 0.652405 0.103945 0.483692
O O4 0.506161 0.169158 0.812013
O O5 0.710958 0.500000 0.812808
O O6 0.579687 0.500000 0.790267
O O7 0.128065 0.865979 0.021664
O O8 0.242635 0.323457 0.836129
O O9 0.000000 0.236834 0.000000
O O10 0.000000 0.112987 0.500000
O O11 0.112243 0.000000 0.238388
#
# Coordination Sequence:
#
# PCOD9219601 Si02
#       5
#     8   4   4   8   8
#     4  12  25  44  71 103 141 185 235 287 353 418
#     4  11  22  41  69 106 131 182 235 284 350 408
#     4  11  20  43  72 103 136 180 232 292 352 396
#     4  12  24  46  73 103 144 186 237 290 353 417
#     4  11  27  47  68 102 143 187 233 291 355 421
#
# _framework density 22.499555999999998
#
# number of rings (size 3 to 8) (size 9 to 14) (size 15 to 20)
#    0.000    0.500    5.000    3.750    5.250    1.500 
#    0.000    2.500    0.000    0.000    0.000    0.000 
#    0.000    0.000    0.000    0.000    0.000    0.000 
#
# Total GULP energy -89259.999883 kJ/mol
# GULP energy per Si atom -5578.749993 kJ/mol
# Density = 2.244835 g / cm^3
# Si number density = 22.499556 Si / 1000 Ang^3
#
#
#
# Elastic Constant Matrix: (Units=GPa)
#
#
# Indices 1 2 3 4 5 6 
#
# 1 67.9433 33.6194 33.5639 0.0000 -12.6572 0.0000
# 2 33.6194 140.6494 73.3274 0.0000 -7.5083 0.0000
# 3 33.5639 73.3274 189.7169 0.0000 0.2334 0.0000
# 4 0.0000 0.0000 0.0000 51.4098 0.0000 10.9617
# 5 -12.6572 -7.5083 0.2334 0.0000 39.7524 0.0000
# 6 0.0000 0.0000 0.0000 10.9617 0.0000 29.0183
#
#
#
# Elastic Compliance Matrix: (Units=1/GPa)
#
#
# Indices 1 2 3 4 5 6 
#
# 1 0.018197 -0.002991 -0.002070 0.000000 0.005241 0.000000
# 2 -0.002991 0.009512 -0.003149 0.000000 0.000863 0.000000
# 3 -0.002070 -0.003149 0.006856 0.000000 -0.001294 0.000000
# 4 0.000000 0.000000 0.000000 0.021156 0.000000 -0.007992
# 5 0.005241 0.000863 -0.001294 0.000000 0.026995 0.000000
# 6 0.000000 0.000000 0.000000 -0.007992 0.000000 0.037480
#
#
# Mechanical properties :
#
#
# Convention : Reuss Voigt Hill
#
# Bulk Modulus (GPa) = 55.10630 75.48122 65.29376
# Shear Modulus (GPa) = 35.04776 41.22269 38.13522
#
# Velocity S-wave (km/s) = 3.95106 4.28501 4.12142
# Velocity P-wave (km/s) = 6.73497 7.62250 7.19244
#
# Compressibility (1/GPa) = 0.01814674
#
# Stress axis : x y z
#
# Youngs Moduli (GPa) = 54.95452 105.12697 145.86330
#
# Poissons Ratio (x) = 0.31440 0.30191
# Poissons Ratio (y) = 0.16435 0.45926
# Poissons Ratio (z) = 0.11375 0.33100
#
# Static dielectric constant tensor:
#      x y z
#    x 1.854550 0.000000 0.067100 
#    y 0.000000 1.876460 0.000000 
#    z 0.067100 0.000000 1.826650 
# 
# From -- ./inp_files/222847.got.cif
#   From: 2010.05.17/outbox.cif.g08.bks.cpg/sg12_112_cif.got.tgz:222847.got - 2010.06.03 13:09:07.
