data_PCOD9219999
_publ_section_title
;
Structure prediction by ZEFSAII (Michael W. Deem and Ramdas Pophale) SiO2 
 PCOD9219999
Probable space group: C 2/M
;
_chemical_formula_sum "Si O2"
_cell_formula_units_Z 44
_cell_length_a 13.197618
_cell_length_b 24.352647
_cell_length_c 12.768723
_cell_angle_alpha 90.000000
_cell_angle_beta 148.958542
_cell_angle_gamma 90.000000
_cell_volume 2116.172636
_symmetry_space_group_name_H-M "C 2/M"
_symmetry_group_IT_number 12
_symmetry_cell_setting 'monoclinic'
loop_
_space_group_symop_operation_xyz
x,y,z
-x,y,-z
-x,-y,-z
x,-y,z
1/2+x,1/2+y,z
1/2-x,1/2+y,-z
1/2-x,1/2-y,-z
1/2+x,1/2-y,z
loop_
_atom_site_type_symbol
_atom_site_label
_atom_site_fract_x
_atom_site_fract_y
_atom_site_fract_z
Si Si1 0.865072 0.500000 0.725795
Si Si2 0.161227 0.887537 0.849546
Si Si3 0.669845 0.305663 0.369401
Si Si4 0.232099 0.828300 0.721404
Si Si5 0.000000 0.765846 0.000000
Si Si6 0.815815 0.000000 0.209578
Si Si7 0.566231 0.118256 0.300382
O O1 0.712748 0.500000 0.689214
O O2 0.857597 0.556752 0.653939
O O3 0.088382 0.500000 0.968996
O O4 0.267953 0.877163 0.833294
O O5 0.083532 0.947861 0.757023
O O6 0.000218 0.840709 0.722927
O O7 0.330995 0.883697 0.085926
O O8 0.750000 0.250000 0.500000
O O9 0.571541 0.294567 0.169447
O O10 0.849861 0.348918 0.526156
O O11 0.316970 0.775239 0.854790
O O12 0.347624 0.843924 0.718654
O O13 0.000000 0.822859 0.500000
#
# Coordination Sequence:
#
# PCOD9219999 Si02
#       7
#     4   8   8   8   4   4   8
#     4   9  18  33  61  93 135 162 185 247 321 386
#     4  11  21  37  62  89 130 161 197 255 310 383
#     4  12  25  43  60  88 117 168 219 255 312 366
#     4  12  20  36  58  89 124 159 198 245 307 379
#     4  12  26  42  60  80 124 168 214 266 306 352
#     4   9  18  31  59  97 125 164 195 239 326 385
#     4  11  21  38  60  93 128 161 200 245 311 382
#
# _framework density 20.792254
#
# number of rings (size 3 to 8) (size 9 to 14) (size 15 to 20)
#    0.000    0.909    7.273    0.000    0.000    5.091 
#    0.000    1.818    0.000    2.182    0.000    3.818 
#    0.000    0.000    0.000    0.000    0.000    0.000 
#
# Total GULP energy -122585.865116 kJ/mol
# GULP energy per Si atom -5572.084778 kJ/mol
# Density = 2.074493 g / cm^3
# Si number density = 20.792254 Si / 1000 Ang^3
#
#
#
# Elastic Constant Matrix: (Units=GPa)
#
#
# Indices 1 2 3 4 5 6 
#
# 1 28.5647 36.7833 22.6865 0.0000 -9.2075 0.0000
# 2 36.7833 162.0959 60.7961 0.0000 -15.9407 0.0000
# 3 22.6865 60.7961 135.3844 0.0000 -3.9394 0.0001
# 4 0.0000 0.0000 0.0000 2.1181 0.0000 -1.7759
# 5 -9.2075 -15.9407 -3.9394 0.0000 41.3653 0.0000
# 6 0.0000 0.0000 0.0001 -1.7759 0.0000 28.8103
#
#
#
# Elastic Compliance Matrix: (Units=1/GPa)
#
#
# Indices 1 2 3 4 5 6 
#
# 1 0.053522 -0.009746 -0.004367 -0.000001 0.007742 0.000000
# 2 -0.009746 0.009471 -0.002584 0.000000 0.001234 0.000000
# 3 -0.004367 -0.002584 0.009247 0.000000 -0.001087 0.000000
# 4 -0.000001 0.000000 0.000000 0.497845 -0.000001 0.030688
# 5 0.007742 0.001234 -0.001087 -0.000001 0.026270 0.000000
# 6 0.000000 0.000000 0.000000 0.030688 0.000000 0.036602
#
#
# Mechanical properties :
#
#
# Convention : Reuss Voigt Hill
#
# Bulk Modulus (GPa) = 25.74249 62.95297 44.34773
# Shear Modulus (GPa) = 7.36050 28.17735 17.76893
#
# Velocity S-wave (km/s) = 1.88354 3.68528 2.92651
# Velocity P-wave (km/s) = 4.13980 6.96069 5.72666
#
# Compressibility (1/GPa) = 0.03884629
#
# Stress axis : x y z
#
# Youngs Moduli (GPa) = 18.68373 105.58034 108.14376
#
# Poissons Ratio (x) = 1.02902 0.47225
# Poissons Ratio (y) = 0.18210 0.27946
# Poissons Ratio (z) = 0.08159 0.27284
#
# Static dielectric constant tensor:
#      x y z
#    x 1.784720 0.000000 -0.018820 
#    y 0.000000 1.834290 0.000000 
#    z -0.018820 0.000000 1.859230 
# 
# From -- ./inp_files/218344.got.cif
#   From: 2010.05.17/outbox.cif.g08.bks.cpg/sg12_110_cif.got.tgz:218344.got - 2010.06.03 13:09:07.
