data_PCOD9219055
_publ_section_title
;
Structure prediction by ZEFSAII (Michael W. Deem and Ramdas Pophale) SiO2 
 PCOD9219055
Probable space group: C 2/M
;
_chemical_formula_sum "Si O2"
_cell_formula_units_Z 40
_cell_length_a 13.273976
_cell_length_b 13.547026
_cell_length_c 10.171255
_cell_angle_alpha 90.000000
_cell_angle_beta 95.902023
_cell_angle_gamma 90.000000
_cell_volume 1819.329233
_symmetry_space_group_name_H-M "C 2/M"
_symmetry_group_IT_number 12
_symmetry_cell_setting 'monoclinic'
loop_
_space_group_symop_operation_xyz
x,y,z
-x,y,-z
-x,-y,-z
x,-y,z
1/2+x,1/2+y,z
1/2-x,1/2+y,-z
1/2-x,1/2-y,-z
1/2+x,1/2-y,z
loop_
_atom_site_type_symbol
_atom_site_label
_atom_site_fract_x
_atom_site_fract_y
_atom_site_fract_z
Si Si1 0.170866 0.000000 0.536439
Si Si2 0.500000 0.820613 0.000000
Si Si3 0.890771 0.500000 0.655420
Si Si4 0.676659 0.713513 0.609314
Si Si5 0.730288 0.500000 0.238081
Si Si6 0.306505 0.719355 0.872829
Si Si7 0.000000 0.659970 0.500000
Si Si8 0.565012 0.000000 0.855006
O O1 0.272964 0.000000 0.636181
O O2 0.129708 0.893723 0.569818
O O3 0.194892 0.000000 0.384283
O O4 0.423176 0.755469 0.902717
O O5 0.573089 0.896965 0.931748
O O6 0.930754 0.406271 0.582725
O O7 0.947696 0.500000 0.798877
O O8 0.750000 0.750000 0.500000
O O9 0.745336 0.725641 0.747627
O O10 0.577928 0.781308 0.600641
O O11 0.697326 0.601914 0.162378
O O12 0.853400 0.500000 0.249912
O O13 0.250000 0.750000 0.000000
#
# Coordination Sequence:
#
# PCOD9219055 Si02
#       8
#     4   4   4   8   4   8   4   4
#     4  12  24  43  70 103 140 178 229 287 346 416
#     4  11  26  41  66 102 134 187 228 289 334 408
#     4  11  19  36  68  96 124 175 231 275 340 402
#     4  12  25  44  70 104 139 176 228 289 343 403
#     4  12  23  45  69  99 137 187 225 284 347 414
#     4  12  26  46  71 101 143 181 229 287 344 406
#     4  11  24  39  68 102 132 177 226 283 344 406
#     4  11  22  39  67  98 135 172 243 281 342 397
#
# _framework density 21.986127
#
# number of rings (size 3 to 8) (size 9 to 14) (size 15 to 20)
#    0.000    0.400    6.000    3.600    0.000    2.400 
#    0.000    0.000    0.000    0.000    0.000    0.000 
#    0.000    0.000    0.000    0.000    0.000    0.000 
#
# Total GULP energy -111752.965239 kJ/mol
# GULP energy per Si atom -5587.648262 kJ/mol
# Density = 2.193609 g / cm^3
# Si number density = 21.986127 Si / 1000 Ang^3
#
#
#
# Elastic Constant Matrix: (Units=GPa)
#
#
# Indices 1 2 3 4 5 6 
#
# 1 57.0877 25.0124 22.7070 0.0000 24.0407 0.0000
# 2 25.0124 171.1547 49.1586 0.0000 5.3995 0.0000
# 3 22.7070 49.1586 140.3329 0.0000 9.9494 0.0000
# 4 0.0000 0.0000 0.0000 60.4395 0.0000 8.9050
# 5 24.0407 5.3995 9.9494 0.0000 37.0457 0.0000
# 6 0.0000 0.0000 0.0000 8.9050 0.0000 13.6229
#
#
#
# Elastic Compliance Matrix: (Units=1/GPa)
#
#
# Indices 1 2 3 4 5 6 
#
# 1 0.026365 -0.002721 -0.002169 0.000000 -0.016130 0.000000
# 2 -0.002721 0.006781 -0.002029 0.000000 0.001322 0.000000
# 3 -0.002169 -0.002029 0.008223 0.000000 -0.000505 0.000000
# 4 0.000000 0.000000 0.000000 0.018309 0.000000 -0.011968
# 5 -0.016130 0.001322 -0.000505 0.000000 0.037404 0.000000
# 6 0.000000 0.000000 0.000000 -0.011968 0.000000 0.081229
#
#
# Mechanical properties :
#
#
# Convention : Reuss Voigt Hill
#
# Bulk Modulus (GPa) = 36.32267 62.48124 49.40196
# Shear Modulus (GPa) = 24.83522 40.33477 32.58500
#
# Velocity S-wave (km/s) = 3.36458 4.28782 3.85394
# Velocity P-wave (km/s) = 5.62587 7.27970 6.50555
#
# Compressibility (1/GPa) = 0.02753101
#
# Stress axis : x y z
#
# Youngs Moduli (GPa) = 37.92963 147.46318 121.60300
#
# Poissons Ratio (x) = 0.40125 0.26379
# Poissons Ratio (y) = 0.10321 0.24673
# Poissons Ratio (z) = 0.08228 0.29920
#
# Static dielectric constant tensor:
#      x y z
#    x 1.796110 0.000000 -0.007410 
#    y 0.000000 1.881490 0.000000 
#    z -0.007410 0.000000 1.813400 
# 
# From -- ./inp_files/141194.got.cif
#   From: 2010.05.17/outbox.cif.g08.bks.cpg/sg12_71_cif.got.tgz:141194.got - 2010.06.03 13:09:07.
