data_PCOD9219623
_publ_section_title
;
Structure prediction by ZEFSAII (Michael W. Deem and Ramdas Pophale) SiO2 
 PCOD9219623
Probable space group: C 2/M
;
_chemical_formula_sum "Si O2"
_cell_formula_units_Z 56
_cell_length_a 21.652601
_cell_length_b 14.131916
_cell_length_c 9.563241
_cell_angle_alpha 90.000000
_cell_angle_beta 43.460174
_cell_angle_gamma 90.000000
_cell_volume 2012.843883
_symmetry_space_group_name_H-M "C 2/M"
_symmetry_group_IT_number 12
_symmetry_cell_setting 'monoclinic'
loop_
_space_group_symop_operation_xyz
x,y,z
-x,y,-z
-x,-y,-z
x,-y,z
1/2+x,1/2+y,z
1/2-x,1/2+y,-z
1/2-x,1/2-y,-z
1/2+x,1/2-y,z
loop_
_atom_site_type_symbol
_atom_site_label
_atom_site_fract_x
_atom_site_fract_y
_atom_site_fract_z
Si Si1 0.876570 0.362982 0.973928
Si Si2 0.570165 0.137400 0.721444
Si Si3 0.144039 0.862129 0.987497
Si Si4 0.684911 0.398370 0.231990
Si Si5 0.735875 0.363938 0.540382
Si Si6 0.544720 0.363426 0.780088
Si Si7 0.902793 0.694913 0.624733
O O1 0.886228 0.366503 0.789522
O O2 0.967170 0.397412 0.900523
O O3 0.865658 0.250712 0.015344
O O4 0.779412 0.404247 0.155979
O O5 0.660908 0.103012 0.646603
O O6 0.556968 0.249911 0.768181
O O7 0.594205 0.132295 0.517705
O O8 0.198521 0.889091 0.758284
O O9 0.193774 0.889565 0.047263
O O10 0.038732 0.890637 0.180618
O O11 0.636824 0.500000 0.332736
O O12 0.651751 0.290877 0.315969
O O13 0.750000 0.250000 0.500000
O O14 0.647840 0.394861 0.595830
O O15 0.500000 0.393015 0.000000
O O16 0.000000 0.736760 0.500000
#
# Coordination Sequence:
#
# PCOD9219623 Si02
#       7
#     8   8   8   8   8   8   8
#     4   9  17  29  46  67  93 127 161 190 231 289
#     4   9  15  25  45  69  96 122 148 193 248 275
#     4   9  16  30  47  65  94 126 155 195 245 283
#     4  11  21  31  46  70 100 133 163 190 230 293
#     4   9  15  24  44  73  93 109 148 205 244 272
#     4   8  15  25  41  68  96 115 145 194 241 290
#     4   9  17  30  49  71  94 123 159 200 243 282
#
# _framework density 27.821332999999999
#
# number of rings (size 3 to 8) (size 9 to 14) (size 15 to 20)
#    0.000    2.857    0.000    4.286    0.000    0.286 
#    0.000    0.000    0.000   14.571    0.000   12.000 
#    0.000  147.429    0.000    0.000    0.000    0.000 
#
# Total GULP energy -156234.054174 kJ/mol
# GULP energy per Si atom -5579.787649 kJ/mol
# Density = 2.775801 g / cm^3
# Si number density = 27.821333 Si / 1000 Ang^3
#
#
#
# Elastic Constant Matrix: (Units=GPa)
#
#
# Indices 1 2 3 4 5 6 
#
# 1 198.3002 6.7720 80.0682 0.0000 -68.0899 0.0000
# 2 6.7720 128.1893 2.1330 0.0000 -20.6321 0.0000
# 3 80.0682 2.1330 166.1242 0.0000 -46.7294 0.0000
# 4 0.0000 0.0000 0.0000 -9.7556 0.0000 -51.3749
# 5 -68.0899 -20.6321 -46.7294 0.0000 89.8334 0.0000
# 6 0.0000 0.0000 0.0000 -51.3749 0.0000 95.7604
#
#
#
# Elastic Compliance Matrix: (Units=1/GPa)
#
#
# Indices 1 2 3 4 5 6 
#
# 1 0.007557 0.000379 -0.002356 0.000000 0.004589 0.000000
# 2 0.000379 0.008154 0.000375 0.000000 0.002355 0.000000
# 3 -0.002356 0.000375 0.007816 0.000000 0.002366 0.000000
# 4 0.000000 0.000000 0.000000 -0.026797 0.000000 -0.014376
# 5 0.004589 0.002355 0.002366 0.000000 0.016382 0.000000
# 6 0.000000 0.000000 0.000000 -0.014376 0.000000 0.002730
#
#
# Mechanical properties :
#
#
# Convention : Reuss Voigt Hill
#
# Bulk Modulus (GPa) = 49.20806 74.50669 61.85738
# Shear Modulus (GPa) = 193.64339 62.07699 127.86019
#
# Velocity S-wave (km/s) = 8.35186 4.72876 6.78656
# Velocity P-wave (km/s) = 10.52285 7.52685 9.14833
#
# Compressibility (1/GPa) = 0.02032187
#
# Stress axis : x y z
#
# Youngs Moduli (GPa) = 132.32502 122.64328 127.94313
#
# Poissons Ratio (x) = -0.04644 0.30148
# Poissons Ratio (y) = -0.05010 -0.04801
# Poissons Ratio (z) = 0.31180 -0.04602
#
# Static dielectric constant tensor:
#      x y z
#    x 2.189810 0.000000 0.013360 
#    y 0.000000 2.102270 0.000000 
#    z 0.013360 0.000000 2.258690 
# 
# From -- ./inp_files/177086.got.cif
#   From: 2010.05.17/outbox.cif.g08.bks.cpg/sg12_89_cif.got.tgz:177086.got - 2010.06.03 13:09:07.
