data_PCOD9219639
_publ_section_title
;
Structure prediction by ZEFSAII (Michael W. Deem and Ramdas Pophale) SiO2 
 PCOD9219639
Probable space group: C 2/M
;
_chemical_formula_sum "Si O2"
_cell_formula_units_Z 40
_cell_length_a 14.061279
_cell_length_b 7.518707
_cell_length_c 15.048501
_cell_angle_alpha 90.000000
_cell_angle_beta 68.810553
_cell_angle_gamma 90.000000
_cell_volume 1483.402536
_symmetry_space_group_name_H-M "C 2/M"
_symmetry_group_IT_number 12
_symmetry_cell_setting 'monoclinic'
loop_
_space_group_symop_operation_xyz
x,y,z
-x,y,-z
-x,-y,-z
x,-y,z
1/2+x,1/2+y,z
1/2-x,1/2+y,-z
1/2-x,1/2-y,-z
1/2+x,1/2-y,z
loop_
_atom_site_type_symbol
_atom_site_label
_atom_site_fract_x
_atom_site_fract_y
_atom_site_fract_z
Si Si1 0.463416 0.198146 0.607929
Si Si2 0.170726 0.799009 0.600763
Si Si3 0.655550 0.786843 0.788902
Si Si4 0.880457 0.286070 0.013037
Si Si5 0.577005 0.783321 0.189801
O O1 0.500000 0.280170 0.500000
O O2 0.573378 0.179545 0.617506
O O3 0.405022 0.280654 0.714552
O O4 0.422299 0.000000 0.601032
O O5 0.250000 0.750000 0.500000
O O6 0.216828 0.775530 0.682635
O O7 0.136318 0.000000 0.601714
O O8 0.677661 0.716122 0.879816
O O9 0.539203 0.736122 0.800889
O O10 0.659390 0.000000 0.791248
O O11 0.867939 0.500000 0.013239
O O12 0.862391 0.218704 0.919059
O O13 0.000000 0.258623 0.000000
O O14 0.583488 0.000000 0.191337
#
# Coordination Sequence:
#
# PCOD9219639 Si02
#       5
#     8   8   8   8   8
#     4   9  17  30  48  69  93 120 150 183 218 259
#     4  11  21  32  46  64  89 119 151 186 224 264
#     4   8  13  23  39  59  83 110 142 178 216 258
#     4   7   9  15  32  57  82 108 137 170 208 254
#     4   7  10  18  35  60  86 111 140 172 208 254
#
# _framework density 26.965035
#
# number of rings (size 3 to 8) (size 9 to 14) (size 15 to 20)
#    0.000    3.600    0.000    5.400    0.000    0.400 
#    0.000    0.000    0.000   15.000    0.000    1.400 
#    0.000    0.000    0.000    0.000    0.000    0.000 
#
# Total GULP energy -111487.897018 kJ/mol
# GULP energy per Si atom -5574.394851 kJ/mol
# Density = 2.690366 g / cm^3
# Si number density = 26.965035 Si / 1000 Ang^3
#
#
#
# Elastic Constant Matrix: (Units=GPa)
#
#
# Indices 1 2 3 4 5 6 
#
# 1 88.7864 4.8423 17.8454 0.0000 32.6034 0.0000
# 2 4.8423 104.6016 16.9810 0.0000 2.3833 0.0000
# 3 17.8454 16.9810 362.2191 0.0000 49.1781 0.0000
# 4 0.0000 0.0000 0.0000 -6.3510 0.0000 -1.0735
# 5 32.6034 2.3833 49.1781 0.0000 34.4670 0.0000
# 6 0.0000 0.0000 0.0000 -1.0735 0.0000 7.8407
#
#
#
# Elastic Compliance Matrix: (Units=1/GPa)
#
#
# Indices 1 2 3 4 5 6 
#
# 1 0.018188 -0.000687 0.001818 0.000000 -0.019750 0.000000
# 2 -0.000687 0.009659 -0.000517 0.000000 0.000719 0.000000
# 3 0.001818 -0.000517 0.003627 0.000000 -0.006858 0.000000
# 4 0.000000 0.000000 0.000000 -0.153895 0.000000 -0.021071
# 5 -0.019750 0.000719 -0.006858 0.000000 0.057431 0.000000
# 6 0.000000 0.000000 0.000000 -0.021071 0.000000 0.124655
#
#
# Mechanical properties :
#
#
# Convention : Reuss Voigt Hill
#
# Bulk Modulus (GPa) = 30.57968 70.54941 50.56454
# Shear Modulus (GPa) = 72.11172 41.58723 56.84947
#
# Velocity S-wave (km/s) = 5.17694 3.93143 4.59657
# Velocity P-wave (km/s) = 6.86290 6.84312 6.85302
#
# Compressibility (1/GPa) = 0.03270146
#
# Stress axis : x y z
#
# Youngs Moduli (GPa) = 54.98245 103.52642 275.74509
#
# Poissons Ratio (x) = 0.07113 -0.50120
# Poissons Ratio (y) = 0.03777 0.14245
# Poissons Ratio (z) = -0.09994 0.05348
#
# Static dielectric constant tensor:
#      x y z
#    x 2.074440 0.000000 -0.132590 
#    y 0.000000 2.054990 0.000000 
#    z -0.132590 0.000000 2.362650 
# 
# From -- ./inp_files/228881.got.cif
#   From: 2010.05.17/outbox.cif.g08.bks.cpg/sg12_115_cif.got.tgz:228881.got - 2010.06.03 13:09:07.
