data_PCOD9219963
_publ_section_title
;
Structure prediction by ZEFSAII (Michael W. Deem and Ramdas Pophale) SiO2 
 PCOD9219963
Probable space group: C 2/M
;
_chemical_formula_sum "Si O2"
_cell_formula_units_Z 40
_cell_length_a 22.030320
_cell_length_b 16.688683
_cell_length_c 12.541602
_cell_angle_alpha 90.000000
_cell_angle_beta 154.544341
_cell_angle_gamma 90.000000
_cell_volume 1981.868738
_symmetry_space_group_name_H-M "C 2/M"
_symmetry_group_IT_number 12
_symmetry_cell_setting 'monoclinic'
loop_
_space_group_symop_operation_xyz
x,y,z
-x,y,-z
-x,-y,-z
x,-y,z
1/2+x,1/2+y,z
1/2-x,1/2+y,-z
1/2-x,1/2-y,-z
1/2+x,1/2-y,z
loop_
_atom_site_type_symbol
_atom_site_label
_atom_site_fract_x
_atom_site_fract_y
_atom_site_fract_z
Si Si1 0.340796 0.662990 0.893942
Si Si2 0.637150 0.907070 0.163807
Si Si3 0.797215 0.174560 0.247476
Si Si4 0.832465 0.832729 0.640561
Si Si5 0.095452 0.094679 0.785385
O O1 0.238088 0.734445 0.773169
O O2 0.302882 0.635860 0.713770
O O3 0.505238 0.685396 0.131787
O O4 0.351305 0.602510 0.009336
O O5 0.669981 0.870819 0.102327
O O6 0.766466 0.891591 0.448732
O O7 0.614653 0.000000 0.114066
O O8 0.500000 0.869153 0.000000
O O9 0.808620 0.147984 0.142741
O O10 0.942263 0.137515 0.526968
O O11 0.750000 0.750000 0.500000
O O12 0.089346 0.000000 0.746521
#
# Coordination Sequence:
#
# PCOD9219963 Si02
#       5
#     8   8   8   8   8
#     4  11  22  36  62  91 123 162 206 255 308 368
#     4  11  22  37  61  88 121 164 209 254 309 368
#     4  11  21  38  61  88 123 164 213 252 299 367
#     4  11  21  37  58  89 127 160 199 256 310 367
#     4  11  23  40  62  90 128 167 207 257 308 365
#
# _framework density 20.182973
#
# number of rings (size 3 to 8) (size 9 to 14) (size 15 to 20)
#    0.000    1.000    4.000    4.200    0.000    0.800 
#    0.000    2.000    0.000    0.000    0.000   15.400 
#    0.000    0.000    0.000    0.000    0.000    0.000 
#
# Total GULP energy -111435.225825 kJ/mol
# GULP energy per Si atom -5571.761291 kJ/mol
# Density = 2.013704 g / cm^3
# Si number density = 20.182973 Si / 1000 Ang^3
#
#
#
# Elastic Constant Matrix: (Units=GPa)
#
#
# Indices 1 2 3 4 5 6 
#
# 1 156.0215 12.6765 17.0206 0.0000 -3.5621 0.0000
# 2 12.6765 45.7314 -9.2415 0.0000 8.3350 0.0000
# 3 17.0206 -9.2415 27.9881 0.0000 0.5214 0.0000
# 4 0.0000 0.0000 0.0000 14.0486 0.0000 1.4396
# 5 -3.5621 8.3350 0.5214 0.0000 41.9515 0.0000
# 6 0.0000 0.0000 0.0000 1.4396 0.0000 19.6521
#
#
#
# Elastic Compliance Matrix: (Units=1/GPa)
#
#
# Indices 1 2 3 4 5 6 
#
# 1 0.007330 -0.003416 -0.005611 0.000000 0.001371 0.000000
# 2 -0.003416 0.026009 0.010769 0.000000 -0.005591 0.000000
# 3 -0.005611 0.010769 0.042756 0.000000 -0.003147 0.000000
# 4 0.000000 0.000000 0.000000 0.071720 0.000000 -0.005254
# 5 0.001371 -0.005591 -0.003147 0.000000 0.025103 0.000000
# 6 0.000000 0.000000 0.000000 -0.005254 0.000000 0.051270
#
#
# Mechanical properties :
#
#
# Convention : Reuss Voigt Hill
#
# Bulk Modulus (GPa) = 12.56584 30.07245 21.31914
# Shear Modulus (GPa) = 20.22401 29.08282 24.65341
#
# Velocity S-wave (km/s) = 3.16892 3.80011 3.49878
# Velocity P-wave (km/s) = 4.43045 5.84694 5.18728
#
# Compressibility (1/GPa) = 0.07958081
#
# Stress axis : x y z
#
# Youngs Moduli (GPa) = 136.41961 38.44821 23.38826
#
# Poissons Ratio (x) = 0.13133 0.13124
# Poissons Ratio (y) = 0.46597 -0.25188
# Poissons Ratio (z) = 0.76548 -0.41406
#
# Static dielectric constant tensor:
#      x y z
#    x 1.750380 0.000000 -0.007600 
#    y 0.000000 1.733960 0.000000 
#    z -0.007600 0.000000 1.758390 
# 
# From -- ./inp_files/129604.got.cif
#   From: 2010.05.17/outbox.cif.g08.bks.cpg/sg12_65_cif.got.tgz:129604.got - 2010.06.03 13:09:07.
