data_PCOD9219835
_publ_section_title
;
Structure prediction by ZEFSAII (Michael W. Deem and Ramdas Pophale) SiO2 
 PCOD9219835
Probable space group: C 2/M
;
_chemical_formula_sum "Si O2"
_cell_formula_units_Z 28
_cell_length_a 10.380620
_cell_length_b 15.322982
_cell_length_c 17.408643
_cell_angle_alpha 90.000000
_cell_angle_beta 147.458284
_cell_angle_gamma 90.000000
_cell_volume 1489.511865
_symmetry_space_group_name_H-M "C 2/M"
_symmetry_group_IT_number 12
_symmetry_cell_setting 'monoclinic'
loop_
_space_group_symop_operation_xyz
x,y,z
-x,y,-z
-x,-y,-z
x,-y,z
1/2+x,1/2+y,z
1/2-x,1/2+y,-z
1/2-x,1/2-y,-z
1/2+x,1/2-y,z
loop_
_atom_site_type_symbol
_atom_site_label
_atom_site_fract_x
_atom_site_fract_y
_atom_site_fract_z
Si Si1 0.500000 0.169339 0.000000
Si Si2 0.327841 0.902565 0.755419
Si Si3 0.260971 0.839029 0.146980
Si Si4 0.507248 0.767266 0.590337
O O1 0.554955 0.113574 0.102173
O O2 0.718413 0.238390 0.096331
O O3 0.532966 0.886043 0.795836
O O4 0.135003 0.826648 0.648865
O O5 0.230366 0.000000 0.700516
O O6 0.336944 0.826739 0.273468
O O7 0.000000 0.879637 0.000000
O O8 0.500000 0.802936 0.500000
O O9 0.250000 0.750000 0.500000
#
# Coordination Sequence:
#
# PCOD9219835 Si02
#       4
#     4   8   8   8
#     4   8  19  34  57  84 112 154 194 232 283 352
#     4  11  21  35  59  90 119 152 195 253 296 338
#     4   9  20  36  62  84 117 154 205 228 291 355
#     4  11  22  39  61  88 114 160 201 241 286 358
#
# _framework density 18.798106000000001
#
# number of rings (size 3 to 8) (size 9 to 14) (size 15 to 20)
#    0.857    1.143    2.857    1.286    0.000    1.143 
#    0.000    0.000    0.000    3.429    0.000    0.000 
#    0.000    0.000    0.000    0.000    0.000    0.000 
#
# Total GULP energy -78028.963837 kJ/mol
# GULP energy per Si atom -5573.497417 kJ/mol
# Density = 1.875532 g / cm^3
# Si number density = 18.798106 Si / 1000 Ang^3
#
#
#
# Elastic Constant Matrix: (Units=GPa)
#
#
# Indices 1 2 3 4 5 6 
#
# 1 91.6721 5.5471 47.6394 0.0001 -5.2974 -0.0007
# 2 5.5471 35.0807 -0.7929 0.0001 -7.7332 -0.0001
# 3 47.6394 -0.7929 112.4179 0.0004 -19.6481 -0.0006
# 4 0.0001 0.0001 0.0004 2.2355 0.0002 7.8358
# 5 -5.2974 -7.7332 -19.6481 0.0002 39.2303 -0.0004
# 6 -0.0007 -0.0001 -0.0006 7.8358 -0.0004 -41.1289
#
#
#
# Elastic Compliance Matrix: (Units=1/GPa)
#
#
# Indices 1 2 3 4 5 6 
#
# 1 0.014298 -0.002808 -0.006398 0.000001 -0.001827 0.000000
# 2 -0.002808 0.030542 0.002621 -0.000001 0.006954 0.000000
# 3 -0.006398 0.002621 0.012674 -0.000001 0.006000 0.000000
# 4 0.000001 -0.000001 -0.000001 0.268218 -0.000002 0.051100
# 5 -0.001827 0.006954 0.006000 -0.000002 0.029620 -0.000001
# 6 0.000000 0.000000 0.000000 0.051100 -0.000001 -0.014578
#
#
# Mechanical properties :
#
#
# Convention : Reuss Voigt Hill
#
# Bulk Modulus (GPa) = 22.55169 38.21753 30.38461
# Shear Modulus (GPa) = 13.56026 12.51918 13.03972
#
# Velocity S-wave (km/s) = 2.68873 2.58346 2.63662
# Velocity P-wave (km/s) = 4.65423 5.41052 5.04656
#
# Compressibility (1/GPa) = 0.04434257
#
# Stress axis : x y z
#
# Youngs Moduli (GPa) = 69.94125 32.74183 78.90215
#
# Poissons Ratio (x) = 0.09195 0.50483
# Poissons Ratio (y) = 0.19641 -0.20679
# Poissons Ratio (z) = 0.44749 -0.08581
#
# Static dielectric constant tensor:
#      x y z
#    x 1.636340 0.000000 -0.005600 
#    y 0.000000 1.616410 0.000000 
#    z -0.005600 0.000000 1.698630 
# 
# From -- ./inp_files/117222.got.cif
#   From: 2010.05.17/outbox.cif.g08.bks.cpg/sg12_59_cif.got.tgz:117222.got - 2010.06.03 13:09:07.
