data_PCOD9219677
_publ_section_title
;
Structure prediction by ZEFSAII (Michael W. Deem and Ramdas Pophale) SiO2 
 PCOD9219677
Probable space group: C 2/M
;
_chemical_formula_sum "Si O2"
_cell_formula_units_Z 48
_cell_length_a 23.234050
_cell_length_b 8.346707
_cell_length_c 20.481614
_cell_angle_alpha 90.000000
_cell_angle_beta 136.176527
_cell_angle_gamma 90.000000
_cell_volume 2750.335439
_symmetry_space_group_name_H-M "C 2/M"
_symmetry_group_IT_number 12
_symmetry_cell_setting 'monoclinic'
loop_
_space_group_symop_operation_xyz
x,y,z
-x,y,-z
-x,-y,-z
x,-y,z
1/2+x,1/2+y,z
1/2-x,1/2+y,-z
1/2-x,1/2-y,-z
1/2+x,1/2-y,z
loop_
_atom_site_type_symbol
_atom_site_label
_atom_site_fract_x
_atom_site_fract_y
_atom_site_fract_z
Si Si1 0.594930 0.196112 0.720286
Si Si2 0.656145 0.192402 0.912633
Si Si3 0.063285 0.187050 0.963755
Si Si4 0.387992 0.812843 0.858011
Si Si5 0.205322 0.694654 0.686128
Si Si6 0.442566 0.814475 0.518251
O O1 0.622953 0.247150 0.814731
O O2 0.661017 0.241914 0.718239
O O3 0.503478 0.255108 0.623083
O O4 0.592239 0.000000 0.717094
O O5 0.600133 0.256482 0.925643
O O6 0.654625 0.000000 0.912064
O O7 0.750000 0.250000 0.000000
O O8 0.964918 0.218986 0.888959
O O9 0.080633 0.000000 0.987519
O O10 0.104827 0.279417 0.058530
O O11 0.298334 0.757701 0.760208
O O12 0.400499 0.000000 0.856145
O O13 0.206017 0.500000 0.685177
O O14 0.144982 0.753573 0.578203
O O15 0.500000 0.816333 0.500000
O O16 0.426833 0.000000 0.523302
#
# Coordination Sequence:
#
# PCOD9219677 Si02
#       6
#     8   8   8   8   8   8
#     4   8  15  27  46  72 101 132 163 198 238 282
#     4  11  21  33  50  74 104 135 167 200 240 290
#     4  11  22  37  53  70  95 128 167 205 245 289
#     4  11  21  34  52  74  99 125 158 201 249 298
#     4   9  15  27  50  77 101 127 162 199 238 287
#     4   7  11  22  43  71  98 125 161 200 235 277
#
# _framework density 17.452414999999998
#
# number of rings (size 3 to 8) (size 9 to 14) (size 15 to 20)
#    0.000    2.500    0.000    7.500    0.000    1.333 
#    0.000    0.833    0.000    7.500    0.000    0.000 
#    0.000    0.000    0.000    0.000    0.000    0.000 
#
# Total GULP energy -133795.557762 kJ/mol
# GULP energy per Si atom -5574.814907 kJ/mol
# Density = 1.741269 g / cm^3
# Si number density = 17.452415 Si / 1000 Ang^3
#
#
#
# Elastic Constant Matrix: (Units=GPa)
#
#
# Indices 1 2 3 4 5 6 
#
# 1 60.9641 -1.8711 50.7794 0.0000 -4.9743 0.0000
# 2 -1.8711 20.2093 -6.0897 0.0000 -1.7344 0.0000
# 3 50.7794 -6.0897 149.3642 0.0000 10.4653 0.0000
# 4 0.0000 0.0000 0.0000 12.4253 0.0000 1.1003
# 5 -4.9743 -1.7344 10.4653 0.0000 24.9425 0.0000
# 6 0.0000 0.0000 0.0000 1.1003 0.0000 18.5623
#
#
#
# Elastic Compliance Matrix: (Units=1/GPa)
#
#
# Indices 1 2 3 4 5 6 
#
# 1 0.024576 0.000323 -0.008950 0.000000 0.008679 0.000000
# 2 0.000323 0.050280 0.001742 0.000000 0.002830 0.000000
# 3 -0.008950 0.001742 0.010226 0.000000 -0.005954 0.000000
# 4 0.000000 0.000000 0.000000 0.080905 0.000000 -0.004796
# 5 0.008679 0.002830 -0.005954 0.000000 0.044518 0.000000
# 6 0.000000 0.000000 0.000000 -0.004796 0.000000 0.054157
#
#
# Mechanical properties :
#
#
# Convention : Reuss Voigt Hill
#
# Bulk Modulus (GPa) = 14.02289 35.13055 24.57672
# Shear Modulus (GPa) = 16.54518 23.70063 20.12290
#
# Velocity S-wave (km/s) = 3.08233 3.68912 3.39929
# Velocity P-wave (km/s) = 4.55193 6.19025 5.43320
#
# Compressibility (1/GPa) = 0.07131195
#
# Stress axis : x y z
#
# Youngs Moduli (GPa) = 40.69013 19.88868 97.78997
#
# Poissons Ratio (x) = -0.00643 0.87522
# Poissons Ratio (y) = -0.01316 -0.17032
# Poissons Ratio (z) = 0.36418 -0.03464
#
# Static dielectric constant tensor:
#      x y z
#    x 1.555120 0.000000 0.007230 
#    y 0.000000 1.606330 0.000000 
#    z 0.007230 0.000000 1.623160 
# 
# From -- ./inp_files/323868.got.cif
#   From: 2010.05.17/outbox.cif.g08.bks.cpg/sg12_162_cif.got.tgz:323868.got - 2010.06.03 13:09:07.
