data_PCOD9219711
_publ_section_title
;
Structure prediction by ZEFSAII (Michael W. Deem and Ramdas Pophale) SiO2 
 PCOD9219711
Probable space group: C 2/M
;
_chemical_formula_sum "Si O2"
_cell_formula_units_Z 48
_cell_length_a 18.310677
_cell_length_b 18.859054
_cell_length_c 13.846556
_cell_angle_alpha 90.000000
_cell_angle_beta 151.452701
_cell_angle_gamma 90.000000
_cell_volume 2285.012797
_symmetry_space_group_name_H-M "C 2/M"
_symmetry_group_IT_number 12
_symmetry_cell_setting 'monoclinic'
loop_
_space_group_symop_operation_xyz
x,y,z
-x,y,-z
-x,-y,-z
x,-y,z
1/2+x,1/2+y,z
1/2-x,1/2+y,-z
1/2-x,1/2-y,-z
1/2+x,1/2-y,z
loop_
_atom_site_type_symbol
_atom_site_label
_atom_site_fract_x
_atom_site_fract_y
_atom_site_fract_z
Si Si1 0.696789 0.201192 0.566878
Si Si2 0.745126 0.349842 0.075975
Si Si3 0.500000 0.237781 0.000000
Si Si4 0.322761 0.188310 0.955193
Si Si5 0.388442 0.647780 0.623329
Si Si6 0.161887 0.076439 0.635148
Si Si7 0.500000 0.870642 0.500000
O O1 0.846468 0.219070 0.804264
O O2 0.763597 0.148387 0.563375
O O3 0.626968 0.272234 0.438002
O O4 0.572521 0.171181 0.494698
O O5 0.749451 0.265961 0.110424
O O6 0.562850 0.364837 0.860679
O O7 0.812021 0.351523 0.044622
O O8 0.845871 0.397813 0.265993
O O9 0.481430 0.198490 0.081547
O O10 0.236847 0.141904 0.776259
O O11 0.355276 0.595241 0.496861
O O12 0.000000 0.071396 0.500000
O O13 0.240867 0.000000 0.738847
#
# Coordination Sequence:
#
# PCOD9219711 Si02
#       7
#     8   8   4   8   8   8   4
#     4  11  22  32  55  88 125 158 200 253 314 367
#     4  11  22  33  56  84 121 163 195 257 317 355
#     4  12  20  34  53  86 123 162 196 244 312 372
#     4  11  21  33  55  83 124 161 203 244 300 368
#     4  11  21  37  56  89 122 163 202 253 307 372
#     4  11  23  39  62  92 127 169 205 242 297 379
#     4  12  22  34  52  86 120 152 194 248 320 374
#
# _framework density 21.006447000000001
#
# number of rings (size 3 to 8) (size 9 to 14) (size 15 to 20)
#    0.000    0.833    6.667    2.000    4.667    0.000 
#    0.000    0.417    0.000    0.000    0.000    9.333 
#    0.000    0.000    0.000    0.000    0.000    0.000 
#
# Total GULP energy -133770.712606 kJ/mol
# GULP energy per Si atom -5573.779692 kJ/mol
# Density = 2.095864 g / cm^3
# Si number density = 21.006447 Si / 1000 Ang^3
#
#
#
# Elastic Constant Matrix: (Units=GPa)
#
#
# Indices 1 2 3 4 5 6 
#
# 1 165.2512 6.5682 8.0552 0.0000 0.4789 0.0000
# 2 6.5682 33.8929 3.2456 0.0000 -2.7728 0.0000
# 3 8.0552 3.2456 113.2171 0.0000 -8.0739 0.0000
# 4 0.0000 0.0000 0.0000 -21.1584 0.0000 33.6005
# 5 0.4789 -2.7728 -8.0739 0.0000 32.1750 0.0000
# 6 0.0000 0.0000 0.0000 33.6005 0.0000 -9.2052
#
#
#
# Elastic Compliance Matrix: (Units=1/GPa)
#
#
# Indices 1 2 3 4 5 6 
#
# 1 0.006119 -0.001170 -0.000423 0.000000 -0.000298 0.000000
# 2 -0.001170 0.029990 -0.000602 0.000000 0.002451 0.000000
# 3 -0.000423 -0.000602 0.009038 0.000000 0.002223 0.000000
# 4 0.000000 0.000000 0.000000 0.009853 0.000000 0.035966
# 5 -0.000298 0.002451 0.002223 0.000000 0.031853 0.000000
# 6 0.000000 0.000000 0.000000 0.035966 0.000000 0.022648
#
#
# Mechanical properties :
#
#
# Convention : Reuss Voigt Hill
#
# Bulk Modulus (GPa) = 24.53495 38.67769 31.60632
# Shear Modulus (GPa) = 39.22264 19.99509 29.60886
#
# Velocity S-wave (km/s) = 4.32577 3.08856 3.75842
# Velocity P-wave (km/s) = 6.05432 5.58312 5.82349
#
# Compressibility (1/GPa) = 0.04075819
#
# Stress axis : x y z
#
# Youngs Moduli (GPa) = 163.41534 33.34498 110.63863
#
# Poissons Ratio (x) = 0.03901 0.04681
# Poissons Ratio (y) = 0.19116 0.06657
# Poissons Ratio (z) = 0.06914 0.02006
#
# Static dielectric constant tensor:
#      x y z
#    x 28.987500 0.000000 26.860330 
#    y 0.000000 1.782320 0.000000 
#    z 26.860330 0.000000 28.407190 
# 
# From -- ./inp_files/294038.got.cif
#   From: 2010.05.17/outbox.cif.g08.bks.cpg/sg12_148_cif.got.tgz:294038.got - 2010.06.03 13:09:07.
