data_PCOD9219328
_publ_section_title
;
Structure prediction by ZEFSAII (Michael W. Deem and Ramdas Pophale) SiO2 
 PCOD9219328
Probable space group: C 2/M
;
_chemical_formula_sum "Si O2"
_cell_formula_units_Z 64
_cell_length_a 25.689864
_cell_length_b 21.437630
_cell_length_c 11.873365
_cell_angle_alpha 90.000000
_cell_angle_beta 150.411032
_cell_angle_gamma 90.000000
_cell_volume 3228.798930
_symmetry_space_group_name_H-M "C 2/M"
_symmetry_group_IT_number 12
_symmetry_cell_setting 'monoclinic'
loop_
_space_group_symop_operation_xyz
x,y,z
-x,y,-z
-x,-y,-z
x,-y,z
1/2+x,1/2+y,z
1/2-x,1/2+y,-z
1/2-x,1/2-y,-z
1/2+x,1/2-y,z
loop_
_atom_site_type_symbol
_atom_site_label
_atom_site_fract_x
_atom_site_fract_y
_atom_site_fract_z
Si Si1 0.688072 0.259921 0.264634
Si Si2 0.243353 0.351666 0.050208
Si Si3 0.874826 0.429113 0.743886
Si Si4 0.605760 0.071948 0.625292
Si Si5 0.410952 0.734613 0.244250
Si Si6 0.019546 0.791302 0.216232
Si Si7 0.733740 0.633236 0.652838
Si Si8 0.864933 0.336601 0.525432
O O1 0.750000 0.250000 0.500000
O O2 0.684400 0.190316 0.211535
O O3 0.757178 0.298673 0.304521
O O4 0.575232 0.292685 0.052541
O O5 0.339683 0.316355 0.172643
O O6 0.272556 0.379254 0.226642
O O7 0.196760 0.403094 0.878814
O O8 0.157615 0.296400 0.907657
O O9 0.868319 0.500000 0.692110
O O10 0.792497 0.419517 0.691302
O O11 0.842029 0.381445 0.586174
O O12 0.000000 0.417040 0.000000
O O13 0.500000 0.073432 0.500000
O O14 0.598537 0.121083 0.508950
O O15 0.622376 0.000000 0.619101
O O16 0.500000 0.754614 0.500000
O O17 0.464731 0.704918 0.235682
O O18 0.119338 0.838671 0.398185
O O19 0.060439 0.719692 0.295288
#
# Coordination Sequence:
#
# PCOD9219328 Si02
#       8
#     8   8   8   8   8   8   8   8
#     4  11  22  39  61  97 127 165 202 255 327 389
#     4  11  22  36  63  90 132 166 207 259 315 383
#     4  11  25  43  65  87 119 167 219 272 321 381
#     4  11  25  41  60  90 123 167 215 261 316 375
#     4  11  20  35  59  97 127 165 206 250 325 386
#     4  11  22  36  64  95 134 164 203 266 324 392
#     4  11  23  39  60  98 125 165 210 266 325 385
#     4  11  23  40  63  89 129 163 210 260 321 381
#
# _framework density 19.821612999999999
#
# number of rings (size 3 to 8) (size 9 to 14) (size 15 to 20)
#    0.000    1.000    3.750    3.750    5.250    2.000 
#    0.000    0.000    0.000    4.875    0.000    0.000 
#    0.000    0.000    0.000    0.000    0.000    0.000 
#
# Total GULP energy -178590.302267 kJ/mol
# GULP energy per Si atom -5580.946946 kJ/mol
# Density = 1.977650 g / cm^3
# Si number density = 19.821613 Si / 1000 Ang^3
#
#
#
# Elastic Constant Matrix: (Units=GPa)
#
#
# Indices 1 2 3 4 5 6 
#
# 1 88.9305 8.4957 18.8713 0.0000 6.5915 0.0000
# 2 8.4957 65.3883 6.9869 0.0000 1.1845 0.0000
# 3 18.8713 6.9869 85.3571 0.0000 9.8767 0.0000
# 4 0.0000 0.0000 0.0000 41.4600 0.0000 28.6960
# 5 6.5915 1.1845 9.8767 0.0000 34.5032 0.0000
# 6 0.0000 0.0000 0.0000 28.6960 0.0000 43.0978
#
#
#
# Elastic Compliance Matrix: (Units=1/GPa)
#
#
# Indices 1 2 3 4 5 6 
#
# 1 0.011985 -0.001276 -0.002364 0.000000 -0.001569 0.000000
# 2 -0.001276 0.015565 -0.000991 0.000000 -0.000007 0.000000
# 3 -0.002364 -0.000991 0.012683 0.000000 -0.003145 0.000000
# 4 0.000000 0.000000 0.000000 0.044736 0.000000 -0.029787
# 5 -0.001569 -0.000007 -0.003145 0.000000 0.030183 0.000000
# 6 0.000000 0.000000 0.000000 -0.029787 0.000000 0.043036
#
#
# Mechanical properties :
#
#
# Convention : Reuss Voigt Hill
#
# Bulk Modulus (GPa) = 32.28831 34.26484 33.27658
# Shear Modulus (GPa) = 28.12558 37.50032 32.81295
#
# Velocity S-wave (km/s) = 3.77096 4.35431 4.07309
# Velocity P-wave (km/s) = 5.94012 6.52718 6.24056
#
# Compressibility (1/GPa) = 0.03097096
#
# Stress axis : x y z
#
# Youngs Moduli (GPa) = 83.44107 64.24630 78.84514
#
# Poissons Ratio (x) = 0.08199 0.18636
# Poissons Ratio (y) = 0.10648 0.07815
# Poissons Ratio (z) = 0.19722 0.06368
#
# Static dielectric constant tensor:
#      x y z
#    x 1.773230 0.000000 0.011620 
#    y 0.000000 1.652260 0.000000 
#    z 0.011620 0.000000 1.831720 
# 
# From -- ./inp_files/184717.got.cif
#   From: 2010.05.17/outbox.cif.g08.bks.cpg/sg12_93_cif.got.tgz:184717.got - 2010.06.03 13:09:07.
