data_PCOD9219352
_publ_section_title
;
Structure prediction by ZEFSAII (Michael W. Deem and Ramdas Pophale) SiO2 
 PCOD9219352
Probable space group: C 2/M
;
_chemical_formula_sum "Si O2"
_cell_formula_units_Z 32
_cell_length_a 9.581608
_cell_length_b 14.421443
_cell_length_c 10.833797
_cell_angle_alpha 90.000000
_cell_angle_beta 96.720150
_cell_angle_gamma 90.000000
_cell_volume 1486.735522
_symmetry_space_group_name_H-M "C 2/M"
_symmetry_group_IT_number 12
_symmetry_cell_setting 'monoclinic'
loop_
_space_group_symop_operation_xyz
x,y,z
-x,y,-z
-x,-y,-z
x,-y,z
1/2+x,1/2+y,z
1/2-x,1/2+y,-z
1/2-x,1/2-y,-z
1/2+x,1/2-y,z
loop_
_atom_site_type_symbol
_atom_site_label
_atom_site_fract_x
_atom_site_fract_y
_atom_site_fract_z
Si Si1 0.014927 0.798858 0.726135
Si Si2 0.180100 0.500000 0.163021
Si Si3 0.192425 0.500000 0.447444
Si Si4 0.537746 0.500000 0.672689
Si Si5 0.500000 0.841091 0.500000
Si Si6 0.690326 0.203284 0.116094
O O1 0.965210 0.900983 0.679176
O O2 0.992781 0.724250 0.617317
O O3 0.931975 0.764208 0.837110
O O4 0.180905 0.801680 0.772846
O O5 0.126894 0.500000 0.300493
O O6 0.349619 0.500000 0.200549
O O7 0.142675 0.596573 0.095545
O O8 0.357404 0.500000 0.434754
O O9 0.133746 0.409747 0.509198
O O10 0.750000 0.250000 0.000000
#
# Coordination Sequence:
#
# PCOD9219352 Si02
#       6
#     8   4   4   4   4   8
#     4  11  22  40  61  91 120 160 203 243 305 354
#     4   8  17  41  57  82 121 158 196 232 311 359
#     4   9  18  38  58  87 121 167 186 239 315 368
#     4   8  19  36  56  81 129 149 192 240 301 362
#     4  11  20  35  68  86 120 159 206 245 292 366
#     4  11  23  41  64  87 121 162 205 248 294 357
#
# _framework density 21.523665999999999
#
# number of rings (size 3 to 8) (size 9 to 14) (size 15 to 20)
#    0.750    1.250    2.500    0.750    0.000    5.500 
#    0.000   12.500    0.000    0.000    0.000    0.000 
#    0.000    0.000    0.000    0.000    0.000    0.000 
#
# Total GULP energy -89346.051390 kJ/mol
# GULP energy per Si atom -5584.128212 kJ/mol
# Density = 2.147468 g / cm^3
# Si number density = 21.523666 Si / 1000 Ang^3
#
#
#
# Elastic Constant Matrix: (Units=GPa)
#
#
# Indices 1 2 3 4 5 6 
#
# 1 76.0658 40.0171 10.4208 0.0000 -11.5837 0.0000
# 2 40.0171 221.8019 50.5093 0.0000 -33.2199 0.0000
# 3 10.4208 50.5093 71.5331 0.0000 -24.9140 0.0000
# 4 0.0000 0.0000 0.0000 22.6311 0.0000 -4.0149
# 5 -11.5837 -33.2199 -24.9140 0.0000 40.7057 0.0000
# 6 0.0000 0.0000 0.0000 -4.0149 0.0000 12.2025
#
#
#
# Elastic Compliance Matrix: (Units=1/GPa)
#
#
# Indices 1 2 3 4 5 6 
#
# 1 0.014720 -0.002373 0.000401 0.000000 0.002498 0.000000
# 2 -0.002373 0.005984 -0.003068 0.000000 0.002331 0.000000
# 3 0.000401 -0.003068 0.019388 0.000000 0.009477 0.000000
# 4 0.000000 0.000000 0.000000 0.046926 0.000000 0.015440
# 5 0.002498 0.002331 0.009477 0.000000 0.032980 0.000000
# 6 0.000000 0.000000 0.000000 0.015440 0.000000 0.087031
#
#
# Mechanical properties :
#
#
# Convention : Reuss Voigt Hill
#
# Bulk Modulus (GPa) = 33.31904 63.47725 48.39814
# Shear Modulus (GPa) = 22.01536 33.00475 27.51005
#
# Velocity S-wave (km/s) = 3.20166 3.92013 3.57897
# Velocity P-wave (km/s) = 5.40197 7.07431 6.29393
#
# Compressibility (1/GPa) = 0.03001287
#
# Stress axis : x y z
#
# Youngs Moduli (GPa) = 67.93310 167.10015 51.57795
#
# Poissons Ratio (x) = 0.39654 -0.02069
# Poissons Ratio (y) = 0.16121 0.15825
# Poissons Ratio (z) = -0.02725 0.51268
#
# Static dielectric constant tensor:
#      x y z
#    x 1.810320 0.000000 0.082320 
#    y 0.000000 1.784490 0.000000 
#    z 0.082320 0.000000 1.798470 
# 
# From -- ./inp_files/85489.got.cif
#   From: 2010.05.17/outbox.cif.g08.bks.cpg/sg12_43_cif.got.tgz:85489.got - 2010.06.03 13:09:07.
