data_PCOD9219865
_publ_section_title
;
Structure prediction by ZEFSAII (Michael W. Deem and Ramdas Pophale) SiO2 
 PCOD9219865
Probable space group: C 2/M
;
_chemical_formula_sum "Si O2"
_cell_formula_units_Z 48
_cell_length_a 29.541719
_cell_length_b 7.629348
_cell_length_c 10.168129
_cell_angle_alpha 90.000000
_cell_angle_beta 80.039537
_cell_angle_gamma 90.000000
_cell_volume 2257.191624
_symmetry_space_group_name_H-M "C 2/M"
_symmetry_group_IT_number 12
_symmetry_cell_setting 'monoclinic'
loop_
_space_group_symop_operation_xyz
x,y,z
-x,y,-z
-x,-y,-z
x,-y,z
1/2+x,1/2+y,z
1/2-x,1/2+y,-z
1/2-x,1/2-y,-z
1/2+x,1/2-y,z
loop_
_atom_site_type_symbol
_atom_site_label
_atom_site_fract_x
_atom_site_fract_y
_atom_site_fract_z
Si Si1 0.707579 0.203980 0.616275
Si Si2 0.239342 0.292346 0.155876
Si Si3 0.111333 0.715116 0.553449
Si Si4 0.961725 0.713870 0.200760
Si Si5 0.063479 0.713767 0.076491
Si Si6 0.363848 0.785436 0.748722
O O1 0.750000 0.250000 0.500000
O O2 0.722777 0.233503 0.758323
O O3 0.658725 0.280738 0.596746
O O4 0.701071 0.000000 0.600987
O O5 0.237161 0.500000 0.170660
O O6 0.188743 0.223066 0.218652
O O7 0.250000 0.250000 0.000000
O O8 0.110362 0.500000 0.555898
O O9 0.067759 0.773381 0.660368
O O10 0.113106 0.766676 0.400257
O O11 0.962036 0.500000 0.201583
O O12 0.014894 0.767924 0.165303
O O13 0.937880 0.767514 0.075210
O O14 0.064099 0.500000 0.076201
O O15 0.106294 0.772808 0.141743
O O16 0.362903 0.000000 0.751416
#
# Coordination Sequence:
#
# PCOD9219865 Si02
#       6
#     8   8   8   8   8   8
#     4  11  21  36  56  78 108 145 179 219 265 313
#     4  11  23  38  54  78 108 141 181 222 266 318
#     4   9  17  28  44  68  97 132 170 208 257 310
#     4   8  14  24  39  62  92 128 168 205 253 314
#     4   8  14  24  39  61  93 130 165 206 255 309
#     4   9  17  29  44  66  98 132 167 211 260 308
#
# _framework density 21.265363000000001
#
# number of rings (size 3 to 8) (size 9 to 14) (size 15 to 20)
#    0.000    2.667    1.667    2.000    2.333    0.667 
#    0.000    3.333    0.000    0.000    0.000    0.000 
#    0.000    8.000    0.000    0.000    0.000    0.000 
#
# Total GULP energy -133955.670217 kJ/mol
# GULP energy per Si atom -5581.486259 kJ/mol
# Density = 2.121696 g / cm^3
# Si number density = 21.265363 Si / 1000 Ang^3
#
#
#
# Elastic Constant Matrix: (Units=GPa)
#
#
# Indices 1 2 3 4 5 6 
#
# 1 19.6328 -3.6944 -11.4041 0.0000 2.5478 0.0000
# 2 -3.6944 37.9929 -11.4465 0.0000 -2.5928 0.0000
# 3 -11.4041 -11.4465 54.6992 0.0000 -15.0744 0.0000
# 4 0.0000 0.0000 0.0000 13.1212 0.0000 2.4226
# 5 2.5478 -2.5928 -15.0744 0.0000 42.2994 0.0000
# 6 0.0000 0.0000 0.0000 2.4226 0.0000 7.0099
#
#
#
# Elastic Compliance Matrix: (Units=1/GPa)
#
#
# Indices 1 2 3 4 5 6 
#
# 1 0.061921 0.011001 0.015935 0.000000 0.002623 0.000000
# 2 0.011001 0.030747 0.010052 0.000000 0.004804 0.000000
# 3 0.015935 0.010052 0.026184 0.000000 0.008988 0.000000
# 4 0.000000 0.000000 0.000000 0.081407 0.000000 -0.028134
# 5 0.002623 0.004804 0.008988 0.000000 0.026980 0.000000
# 6 0.000000 0.000000 0.000000 -0.028134 0.000000 0.152379
#
#
# Mechanical properties :
#
#
# Convention : Reuss Voigt Hill
#
# Bulk Modulus (GPa) = 5.18598 6.58164 5.88381
# Shear Modulus (GPa) = 13.51647 21.74409 17.63028
#
# Velocity S-wave (km/s) = 2.52387 3.20114 2.88247
# Velocity P-wave (km/s) = 3.30714 4.09449 3.72169
#
# Compressibility (1/GPa) = 0.19282762
#
# Stress axis : x y z
#
# Youngs Moduli (GPa) = 16.14960 32.52380 38.19070
#
# Poissons Ratio (x) = -0.35780 -0.60856
# Poissons Ratio (y) = -0.17766 -0.38388
# Poissons Ratio (z) = -0.25734 -0.32692
#
# Static dielectric constant tensor:
#      x y z
#    x 1.809290 0.000000 0.033720 
#    y 0.000000 0.576290 0.000000 
#    z 0.033720 0.000000 1.743770 
# 
# From -- ./inp_files/108586.got.cif
#   From: 2010.05.17/outbox.cif.g08.bks.cpg/sg12_55_cif.got.tgz:108586.got - 2010.06.03 13:09:07.
