data_PCOD9219234
_publ_section_title
;
Structure prediction by ZEFSAII (Michael W. Deem and Ramdas Pophale) SiO2 
 PCOD9219234
Probable space group: C 2/M
;
_chemical_formula_sum "Si O2"
_cell_formula_units_Z 64
_cell_length_a 13.115248
_cell_length_b 27.044935
_cell_length_c 15.716226
_cell_angle_alpha 90.000000
_cell_angle_beta 37.339363
_cell_angle_gamma 90.000000
_cell_volume 3381.165341
_symmetry_space_group_name_H-M "C 2/M"
_symmetry_group_IT_number 12
_symmetry_cell_setting 'monoclinic'
loop_
_space_group_symop_operation_xyz
x,y,z
-x,y,-z
-x,-y,-z
x,-y,z
1/2+x,1/2+y,z
1/2-x,1/2+y,-z
1/2-x,1/2-y,-z
1/2+x,1/2-y,z
loop_
_atom_site_type_symbol
_atom_site_label
_atom_site_fract_x
_atom_site_fract_y
_atom_site_fract_z
Si Si1 0.124855 0.300023 0.991295
Si Si2 0.124163 0.799843 0.493077
Si Si3 0.072314 0.443877 0.812447
Si Si4 0.943383 0.196088 0.125341
Si Si5 0.528414 0.345756 0.248715
Si Si6 0.773767 0.056125 0.851238
Si Si7 0.551714 0.195576 0.375537
Si Si8 0.967202 0.654601 0.253025
O O1 0.064188 0.244269 0.048006
O O2 0.104544 0.329898 0.092093
O O3 0.314828 0.308522 0.837049
O O4 0.000000 0.319639 0.000000
O O5 0.314031 0.807410 0.337841
O O6 0.000000 0.816707 0.500000
O O7 0.104003 0.832481 0.590805
O O8 0.067721 0.743962 0.550823
O O9 0.092034 0.500000 0.767168
O O10 0.204174 0.436233 0.801730
O O11 0.087664 0.400744 0.733681
O O12 0.889323 0.440641 0.979172
O O13 0.747563 0.210945 0.249043
O O14 0.965302 0.165456 0.196348
O O15 0.000000 0.169985 0.000000
O O16 0.597756 0.400871 0.211916
O O17 0.839127 0.000000 0.814199
O O18 0.500000 0.171686 0.500000
O O19 0.527030 0.162629 0.308896
#
# Coordination Sequence:
#
# PCOD9219234 Si02
#       8
#     8   8   8   8   8   8   8   8
#     4  11  20  33  53  81 110 140 181 227 278 332
#     4  11  22  35  53  83 114 144 184 226 273 331
#     4   9  18  34  57  87 113 135 175 229 283 339
#     4  11  23  36  51  78 113 146 188 233 269 310
#     4  12  21  35  56  79 111 149 183 223 278 333
#     4   9  18  34  57  85 114 140 171 223 289 344
#     4  11  23  40  53  74 114 156 193 226 262 317
#     4  12  21  35  60  81 106 152 191 222 272 331
#
# _framework density 18.928386
#
# number of rings (size 3 to 8) (size 9 to 14) (size 15 to 20)
#    0.000    1.250    1.250    9.000    0.000    0.000 
#    0.000    0.625    0.000    3.750    0.000    0.000 
#    0.000    0.000    0.000    0.000    0.000    0.000 
#
# Total GULP energy -178885.370737 kJ/mol
# GULP energy per Si atom -5590.167836 kJ/mol
# Density = 1.888530 g / cm^3
# Si number density = 18.928386 Si / 1000 Ang^3
#
#
#
# Elastic Constant Matrix: (Units=GPa)
#
#
# Indices 1 2 3 4 5 6 
#
# 1 85.0441 50.4106 9.6276 -0.0010 26.7474 0.0003
# 2 50.4106 117.1152 13.2536 -0.0001 12.7731 0.0000
# 3 9.6276 13.2536 49.5072 -0.0014 10.1567 0.0006
# 4 -0.0010 -0.0001 -0.0014 16.8890 0.0010 -0.1204
# 5 26.7474 12.7731 10.1567 0.0010 41.0689 -0.0004
# 6 0.0003 0.0000 0.0006 -0.1204 -0.0004 20.0007
#
#
#
# Elastic Compliance Matrix: (Units=1/GPa)
#
#
# Indices 1 2 3 4 5 6 
#
# 1 0.019248 -0.007188 0.000310 0.000002 -0.010377 0.000000
# 2 -0.007188 0.011696 -0.002051 -0.000001 0.001551 0.000000
# 3 0.000310 -0.002051 0.021699 0.000002 -0.004930 -0.000001
# 4 0.000002 -0.000001 0.000002 0.059213 -0.000003 0.000356
# 5 -0.010377 0.001551 -0.004930 -0.000003 0.031844 0.000001
# 6 0.000000 0.000000 -0.000001 0.000356 0.000001 0.050000
#
#
# Mechanical properties :
#
#
# Convention : Reuss Voigt Hill
#
# Bulk Modulus (GPa) = 28.74894 44.25001 36.49948
# Shear Modulus (GPa) = 22.40595 27.48337 24.94466
#
# Velocity S-wave (km/s) = 3.44426 3.81460 3.63415
# Velocity P-wave (km/s) = 5.57122 6.54446 6.07735
#
# Compressibility (1/GPa) = 0.03478389
#
# Stress axis : x y z
#
# Youngs Moduli (GPa) = 51.95298 85.50146 46.08412
#
# Poissons Ratio (x) = 0.61462 -0.01429
# Poissons Ratio (y) = 0.37346 0.09454
# Poissons Ratio (z) = -0.01611 0.17540
#
# Static dielectric constant tensor:
#      x y z
#    x 1.680330 0.000000 0.002120 
#    y 0.000000 1.649460 0.000000 
#    z 0.002120 0.000000 1.657150 
# 
# From -- ./inp_files/209376.got.cif
#   From: 2010.05.17/outbox.cif.g08.bks.cpg/sg12_105_cif.got.tgz:209376.got - 2010.06.03 13:09:07.
