data_PCOD9219097
_publ_section_title
;
Structure prediction by ZEFSAII (Michael W. Deem and Ramdas Pophale) SiO2 
 PCOD9219097
Probable space group: C 2/M
;
_chemical_formula_sum "Si O2"
_cell_formula_units_Z 58
_cell_length_a 17.608669
_cell_length_b 20.959763
_cell_length_c 11.755078
_cell_angle_alpha 90.000000
_cell_angle_beta 137.657076
_cell_angle_gamma 90.000000
_cell_volume 2922.259957
_symmetry_space_group_name_H-M "C 2/M"
_symmetry_group_IT_number 12
_symmetry_cell_setting 'monoclinic'
loop_
_space_group_symop_operation_xyz
x,y,z
-x,y,-z
-x,-y,-z
x,-y,z
1/2+x,1/2+y,z
1/2-x,1/2+y,-z
1/2-x,1/2-y,-z
1/2+x,1/2-y,z
loop_
_atom_site_type_symbol
_atom_site_label
_atom_site_fract_x
_atom_site_fract_y
_atom_site_fract_z
Si Si1 0.363440 0.378037 0.254335
Si Si2 0.098105 0.072510 0.201549
Si Si3 0.962293 0.312269 0.738390
Si Si4 0.797082 0.678375 0.084385
Si Si5 0.283306 0.825924 0.334236
Si Si6 0.500000 0.500000 0.500000
Si Si7 0.052497 0.172427 0.329250
Si Si8 0.781538 0.684823 0.708864
O O1 0.415484 0.443729 0.354823
O O2 0.470541 0.332163 0.346407
O O3 0.273336 0.350933 0.245234
O O4 0.295973 0.372193 0.060803
O O5 0.202449 0.115290 0.275296
O O6 0.045976 0.107200 0.253446
O O7 0.132008 0.000000 0.264394
O O8 0.000000 0.072348 0.000000
O O9 0.883807 0.321271 0.538693
O O10 0.977509 0.235964 0.771311
O O11 0.895161 0.337927 0.773534
O O12 0.086842 0.336032 0.852271
O O13 0.820968 0.672425 0.244810
O O14 0.750000 0.750000 0.000000
O O15 0.212328 0.760103 0.260972
O O16 0.182495 0.178751 0.506292
#
# Coordination Sequence:
#
# PCOD9219097 Si02
#       8
#     8   8   8   8   8   2   8   8
#     4  12  25  42  67 100 133 181 228 278 346 408
#     4  11  24  37  59  95 135 182 227 279 343 413
#     4  11  22  39  68 100 134 178 214 288 360 403
#     4  12  24  40  66 103 135 171 227 291 346 408
#     4  11  21  42  63  94 138 177 222 287 348 416
#     4  12  28  48  72  94 144 192 224 284 344 428
#     4  11  19  39  62  97 133 168 226 277 340 409
#     4  11  20  38  66  98 131 171 231 280 343 418
#
# _framework density 19.847652
#
# number of rings (size 3 to 8) (size 9 to 14) (size 15 to 20)
#    0.000    0.690    6.897    2.069    0.966    2.759 
#    1.241    0.000    1.517    1.655    0.000    0.000 
#    0.000    0.000    0.000    0.000    0.000    0.000 
#
# Total GULP energy -161589.771813 kJ/mol
# GULP energy per Si atom -5572.061097 kJ/mol
# Density = 1.980248 g / cm^3
# Si number density = 19.847652 Si / 1000 Ang^3
#
#
#
# Elastic Constant Matrix: (Units=GPa)
#
#
# Indices 1 2 3 4 5 6 
#
# 1 149.6056 33.2818 26.1442 0.0000 17.9289 0.0000
# 2 33.2818 107.5953 39.5321 0.0000 1.2375 0.0000
# 3 26.1442 39.5321 63.4587 0.0000 12.8303 0.0000
# 4 0.0000 0.0000 0.0000 23.8240 0.0000 4.2971
# 5 17.9289 1.2375 12.8303 0.0000 32.3750 0.0000
# 6 0.0000 0.0000 0.0000 4.2971 0.0000 8.7448
#
#
#
# Elastic Compliance Matrix: (Units=1/GPa)
#
#
# Indices 1 2 3 4 5 6 
#
# 1 0.007775 -0.001896 -0.001267 0.000000 -0.003731 0.000000
# 2 -0.001896 0.012742 -0.007904 0.000000 0.003695 0.000000
# 3 -0.001267 -0.007904 0.022830 0.000000 -0.008044 0.000000
# 4 0.000000 0.000000 0.000000 0.046056 0.000000 -0.022631
# 5 -0.003731 0.003695 -0.008044 0.000000 0.036001 0.000000
# 6 0.000000 0.000000 0.000000 -0.022631 0.000000 0.125474
#
#
# Mechanical properties :
#
#
# Convention : Reuss Voigt Hill
#
# Bulk Modulus (GPa) = 47.14240 57.61954 52.38097
# Shear Modulus (GPa) = 17.85177 27.76885 22.81031
#
# Velocity S-wave (km/s) = 3.00232 3.74451 3.39377
# Velocity P-wave (km/s) = 5.98517 6.91297 6.46573
#
# Compressibility (1/GPa) = 0.02121233
#
# Stress axis : x y z
#
# Youngs Moduli (GPa) = 128.62236 78.48017 43.80127
#
# Poissons Ratio (x) = 0.14882 0.05552
# Poissons Ratio (y) = 0.24391 0.34619
# Poissons Ratio (z) = 0.16302 0.62028
#
# Static dielectric constant tensor:
#      x y z
#    x 1.775630 0.000000 -0.049290 
#    y 0.000000 1.668610 0.000000 
#    z -0.049290 0.000000 1.750240 
# 
# From -- ./inp_files/159783.got.cif
#   From: 2010.05.17/outbox.cif.g08.bks.cpg/sg12_80_cif.got.tgz:159783.got - 2010.06.03 13:09:07.
