data_PCOD9219380
_publ_section_title
;
Structure prediction by ZEFSAII (Michael W. Deem and Ramdas Pophale) SiO2 
 PCOD9219380
Probable space group: C 2/M
;
_chemical_formula_sum "Si O2"
_cell_formula_units_Z 56
_cell_length_a 14.172086
_cell_length_b 19.581968
_cell_length_c 11.664320
_cell_angle_alpha 90.000000
_cell_angle_beta 124.989138
_cell_angle_gamma 90.000000
_cell_volume 2651.988881
_symmetry_space_group_name_H-M "C 2/M"
_symmetry_group_IT_number 12
_symmetry_cell_setting 'monoclinic'
loop_
_space_group_symop_operation_xyz
x,y,z
-x,y,-z
-x,-y,-z
x,-y,z
1/2+x,1/2+y,z
1/2-x,1/2+y,-z
1/2-x,1/2-y,-z
1/2+x,1/2-y,z
loop_
_atom_site_type_symbol
_atom_site_label
_atom_site_fract_x
_atom_site_fract_y
_atom_site_fract_z
Si Si1 0.608222 0.134917 0.496059
Si Si2 0.099529 0.795698 0.147424
Si Si3 0.132614 0.639756 0.902553
Si Si4 0.772018 0.921165 0.799399
Si Si5 0.498515 0.262082 0.315921
Si Si6 0.272629 0.677897 0.219198
Si Si7 0.607261 0.079603 0.239680
O O1 0.500000 0.115346 0.500000
O O2 0.715023 0.111497 0.646003
O O3 0.586929 0.215149 0.450445
O O4 0.610266 0.095570 0.377664
O O5 0.124467 0.868893 0.109454
O O6 0.210914 0.748261 0.212128
O O7 0.061428 0.797088 0.252775
O O8 0.000000 0.762154 0.000000
O O9 0.185168 0.588740 0.845161
O O10 0.085822 0.705360 0.800893
O O11 0.019540 0.607507 0.882416
O O12 0.229411 0.660681 0.060610
O O13 0.800415 0.000000 0.804084
O O14 0.409988 0.312205 0.317992
O O15 0.211488 0.621138 0.255072
O O16 0.616275 0.000000 0.221941
#
# Coordination Sequence:
#
# PCOD9219380 Si02
#       7
#     8   8   8   8   8   8   8
#     4  11  21  41  63  90 122 163 209 260 314 360
#     4  12  22  41  67  93 129 164 210 264 310 379
#     4  11  20  36  63  92 123 161 208 262 315 367
#     4  12  26  41  63  94 130 172 208 255 319 378
#     4  11  22  38  62  97 117 163 211 262 308 368
#     4  12  21  40  64  93 128 164 210 258 322 372
#     4  11  23  37  59  93 130 169 209 257 316 377
#
# _framework density 21.116226000000001
#
# number of rings (size 3 to 8) (size 9 to 14) (size 15 to 20)
#    0.000    0.571    8.571    2.571    0.000    3.143 
#    2.571    0.714    0.000    0.000    0.000    2.000 
#    0.000    0.000    0.000    0.000    0.000    0.000 
#
# Total GULP energy -156518.167152 kJ/mol
# GULP energy per Si atom -5589.934541 kJ/mol
# Density = 2.106816 g / cm^3
# Si number density = 21.116226 Si / 1000 Ang^3
#
#
#
# Elastic Constant Matrix: (Units=GPa)
#
#
# Indices 1 2 3 4 5 6 
#
# 1 112.2869 54.6359 7.9302 0.0000 -10.0902 0.0000
# 2 54.6359 132.4590 9.6837 0.0000 -9.1211 0.0000
# 3 7.9302 9.6837 55.9408 0.0000 -8.6486 0.0000
# 4 0.0000 0.0000 0.0000 13.3076 0.0000 -1.3145
# 5 -10.0902 -9.1211 -8.6486 0.0000 17.6968 0.0000
# 6 0.0000 0.0000 0.0000 -1.3145 0.0000 31.9123
#
#
#
# Elastic Compliance Matrix: (Units=1/GPa)
#
#
# Indices 1 2 3 4 5 6 
#
# 1 0.011443 -0.004419 -0.000217 0.000000 0.004141 0.000000
# 2 -0.004419 0.009566 -0.000710 0.000000 0.002064 0.000000
# 3 -0.000217 -0.000710 0.019421 0.000000 0.009002 0.000000
# 4 0.000000 0.000000 0.000000 0.075452 0.000000 0.003108
# 5 0.004141 0.002064 0.009002 0.000000 0.064331 0.000000
# 6 0.000000 0.000000 0.000000 0.003108 0.000000 0.031464
#
#
# Mechanical properties :
#
#
# Convention : Reuss Voigt Hill
#
# Bulk Modulus (GPa) = 33.62712 49.46517 41.54614
# Shear Modulus (GPa) = 21.52534 27.81245 24.66889
#
# Velocity S-wave (km/s) = 3.19623 3.63314 3.42167
# Velocity P-wave (km/s) = 5.43880 6.40903 5.94374
#
# Compressibility (1/GPa) = 0.02973790
#
# Stress axis : x y z
#
# Youngs Moduli (GPa) = 87.38648 104.53338 51.48949
#
# Poissons Ratio (x) = 0.46194 0.01118
# Poissons Ratio (y) = 0.38617 0.03658
# Poissons Ratio (z) = 0.01897 0.07427
#
# Static dielectric constant tensor:
#      x y z
#    x 1.775890 0.000000 0.010120 
#    y 0.000000 1.742000 0.000000 
#    z 0.010120 0.000000 1.817050 
# 
# From -- ./inp_files/146239.got.cif
#   From: 2010.05.17/outbox.cif.g08.bks.cpg/sg12_74_cif.got.tgz:146239.got - 2010.06.03 13:09:07.
