data_PCOD9219366
_publ_section_title
;
Structure prediction by ZEFSAII (Michael W. Deem and Ramdas Pophale) SiO2 
 PCOD9219366
Probable space group: C 2/M
;
_chemical_formula_sum "Si O2"
_cell_formula_units_Z 64
_cell_length_a 15.033177
_cell_length_b 20.410110
_cell_length_c 8.880703
_cell_angle_alpha 90.000000
_cell_angle_beta 100.544192
_cell_angle_gamma 90.000000
_cell_volume 2678.843660
_symmetry_space_group_name_H-M "C 2/M"
_symmetry_group_IT_number 12
_symmetry_cell_setting 'monoclinic'
loop_
_space_group_symop_operation_xyz
x,y,z
-x,y,-z
-x,-y,-z
x,-y,z
1/2+x,1/2+y,z
1/2-x,1/2+y,-z
1/2-x,1/2-y,-z
1/2+x,1/2-y,z
loop_
_atom_site_type_symbol
_atom_site_label
_atom_site_fract_x
_atom_site_fract_y
_atom_site_fract_z
Si Si1 0.112307 0.240741 0.403755
Si Si2 0.378343 0.925865 0.317493
Si Si3 0.394742 0.429397 0.912889
Si Si4 0.475806 0.613549 0.642487
Si Si5 0.295978 0.207573 0.287216
Si Si6 0.406386 0.926406 0.680991
Si Si7 0.620095 0.307929 0.903598
Si Si8 0.926425 0.688692 0.877575
O O1 0.079872 0.171935 0.450589
O O2 0.199614 0.223291 0.330923
O O3 0.134631 0.283975 0.552291
O O4 0.043279 0.274394 0.266554
O O5 0.320398 0.864944 0.237244
O O6 0.370762 0.923556 0.498113
O O7 0.484306 0.918408 0.305253
O O8 0.351237 0.000000 0.263884
O O9 0.355376 0.500000 0.939940
O O10 0.408345 0.420809 0.738974
O O11 0.500000 0.429792 0.000000
O O12 0.350256 0.367089 0.978339
O O13 0.500000 0.573356 0.500000
O O14 0.550225 0.651574 0.771558
O O15 0.312289 0.267292 0.178785
O O16 0.369064 0.869379 0.779980
O O17 0.389046 0.000000 0.732934
O O18 0.595022 0.249351 0.015633
O O19 0.000000 0.651354 0.000000
#
# Coordination Sequence:
#
# PCOD9219366 Si02
#       8
#     8   8   8   8   8   8   8   8
#     4  11  23  38  57  91 119 153 202 256 304 352
#     4   9  18  34  58  85 117 161 200 244 304 357
#     4   9  19  36  57  84 119 150 185 243 308 360
#     4  11  20  36  60  88 116 146 203 254 294 360
#     4  11  23  38  60  87 123 157 201 253 302 365
#     4   9  19  33  55  89 122 155 201 248 296 351
#     4  11  21  35  61  89 116 158 192 241 306 362
#     4  12  20  34  57  86 120 155 200 248 302 350
#
# _framework density 23.890903999999999
#
# number of rings (size 3 to 8) (size 9 to 14) (size 15 to 20)
#    0.000    1.625    5.000    1.875    0.000    1.000 
#    0.000    1.250    0.000    3.750    0.000    0.000 
#    0.000    0.000    0.000    0.000    0.000    0.000 
#
# Total GULP energy -178216.796954 kJ/mol
# GULP energy per Si atom -5569.274905 kJ/mol
# Density = 2.383653 g / cm^3
# Si number density = 23.890904 Si / 1000 Ang^3
#
#
#
# Elastic Constant Matrix: (Units=GPa)
#
#
# Indices 1 2 3 4 5 6 
#
# 1 42.4350 32.9608 22.9494 0.0000 -9.3121 0.0000
# 2 32.9608 205.1521 36.3886 0.0000 -23.4786 0.0000
# 3 22.9494 36.3886 113.7931 0.0000 -4.9631 0.0000
# 4 0.0000 0.0000 0.0000 -61.2373 0.0000 -34.4687
# 5 -9.3121 -23.4786 -4.9631 0.0000 37.9852 0.0000
# 6 0.0000 0.0000 0.0000 -34.4687 0.0000 -18.6205
#
#
#
# Elastic Compliance Matrix: (Units=1/GPa)
#
#
# Indices 1 2 3 4 5 6 
#
# 1 0.029776 -0.003426 -0.004710 0.000000 0.004567 0.000000
# 2 -0.003426 0.005924 -0.001087 0.000000 0.002680 0.000000
# 3 -0.004710 -0.001087 0.010063 0.000000 -0.000512 0.000000
# 4 0.000000 0.000000 0.000000 0.389369 0.000000 -0.720767
# 5 0.004567 0.002680 -0.000512 0.000000 0.029035 0.000000
# 6 0.000000 0.000000 0.000000 -0.720767 0.000000 1.280520
#
#
# Mechanical properties :
#
#
# Convention : Reuss Voigt Hill
#
# Bulk Modulus (GPa) = 36.60660 60.66420 48.63540
# Shear Modulus (GPa) = 2.82129 9.56426 6.19277
#
# Velocity S-wave (km/s) = 1.08787 2.00300 1.61175
# Velocity P-wave (km/s) = 4.11505 5.54947 4.88519
#
# Compressibility (1/GPa) = 0.02731748
#
# Stress axis : x y z
#
# Youngs Moduli (GPa) = 33.58409 168.79627 99.37357
#
# Poissons Ratio (x) = 0.57827 0.46809
# Poissons Ratio (y) = 0.11505 0.10799
# Poissons Ratio (z) = 0.15820 0.18343
#
# Static dielectric constant tensor:
#      x y z
#    x 2.035720 0.000000 0.014130 
#    y 0.000000 1.933360 0.000000 
#    z 0.014130 0.000000 1.968620 
# 
# From -- ./inp_files/77493.got.cif
#   From: 2010.05.17/outbox.cif.g08.bks.cpg/sg12_39_cif.got.tgz:77493.got - 2010.06.03 13:09:07.
