data_PCOD9219048
_publ_section_title
;
Structure prediction by ZEFSAII (Michael W. Deem and Ramdas Pophale) SiO2 
 PCOD9219048
Probable space group: C 2/M
;
_chemical_formula_sum "Si O2"
_cell_formula_units_Z 52
_cell_length_a 9.389314
_cell_length_b 31.243659
_cell_length_c 11.228675
_cell_angle_alpha 90.000000
_cell_angle_beta 43.715186
_cell_angle_gamma 90.000000
_cell_volume 2276.401285
_symmetry_space_group_name_H-M "C 2/M"
_symmetry_group_IT_number 12
_symmetry_cell_setting 'monoclinic'
loop_
_space_group_symop_operation_xyz
x,y,z
-x,y,-z
-x,-y,-z
x,-y,z
1/2+x,1/2+y,z
1/2-x,1/2+y,-z
1/2-x,1/2-y,-z
1/2+x,1/2-y,z
loop_
_atom_site_type_symbol
_atom_site_label
_atom_site_fract_x
_atom_site_fract_y
_atom_site_fract_z
Si Si1 0.874970 0.683779 0.956891
Si Si2 0.177312 0.259827 0.677598
Si Si3 0.702301 0.604446 0.570093
Si Si4 0.513110 0.911148 0.806299
Si Si5 0.500000 0.331305 0.500000
Si Si6 0.916934 0.829413 0.181221
Si Si7 0.194277 0.050406 0.166080
O O1 0.946469 0.721109 0.824643
O O2 0.955584 0.638151 0.861423
O O3 0.632772 0.677666 0.120655
O O4 0.000000 0.693876 0.000000
O O5 0.250000 0.250000 0.500000
O O6 0.319611 0.298016 0.639914
O O7 0.192846 0.216132 0.741270
O O8 0.896551 0.585600 0.381056
O O9 0.595962 0.637661 0.541137
O O10 0.720101 0.633555 0.677163
O O11 0.536445 0.567791 0.697029
O O12 0.688211 0.925507 0.796091
O O13 0.315542 0.937569 0.971483
O O14 0.000000 0.839661 0.000000
O O15 0.206360 0.000000 0.179764
#
# Coordination Sequence:
#
# PCOD9219048 Si02
#       7
#     8   8   8   8   4   8   8
#     4  12  22  41  67  89 122 177 223 271 333 396
#     4  12  25  38  60  92 128 178 228 287 328 392
#     4  12  22  43  66  92 132 187 214 272 340 411
#     4  11  19  36  62  96 132 169 210 261 337 402
#     4  12  22  40  65  90 136 174 235 268 334 402
#     4  12  27  44  61  95 135 177 237 284 332 385
#     4  11  22  36  64 107 142 161 206 281 347 407
#
# _framework density 22.843074000000001
#
# number of rings (size 3 to 8) (size 9 to 14) (size 15 to 20)
#    0.000    0.308    7.692    2.769    2.154    1.846 
#    0.000    0.000    0.000    0.462    0.000    1.077 
#    0.000    0.000    0.000    0.000    0.000    0.000 
#
# Total GULP energy -145445.049767 kJ/mol
# GULP energy per Si atom -5594.040376 kJ/mol
# Density = 2.279108 g / cm^3
# Si number density = 22.843074 Si / 1000 Ang^3
#
#
#
# Elastic Constant Matrix: (Units=GPa)
#
#
# Indices 1 2 3 4 5 6 
#
# 1 45.6653 -4.9511 16.3581 0.0000 5.0781 0.0000
# 2 -4.9511 78.7221 37.2967 0.0000 -6.2707 0.0000
# 3 16.3581 37.2967 157.7552 0.0000 3.1067 0.0000
# 4 0.0000 0.0000 0.0000 25.5905 0.0000 -3.6700
# 5 5.0781 -6.2707 3.1067 0.0000 30.7421 0.0000
# 6 0.0000 0.0000 0.0000 -3.6700 0.0000 5.8864
#
#
#
# Elastic Compliance Matrix: (Units=1/GPa)
#
#
# Indices 1 2 3 4 5 6 
#
# 1 0.023609 0.002673 -0.003020 0.000000 -0.003050 0.000000
# 2 0.002673 0.014943 -0.003869 0.000000 0.002997 0.000000
# 3 -0.003020 -0.003869 0.007588 0.000000 -0.001057 0.000000
# 4 0.000000 0.000000 0.000000 0.042914 0.000000 0.026755
# 5 -0.003050 0.002997 -0.001057 0.000000 0.033751 0.000000
# 6 0.000000 0.000000 0.000000 0.026755 0.000000 0.186564
#
#
# Mechanical properties :
#
#
# Convention : Reuss Voigt Hill
#
# Bulk Modulus (GPa) = 26.52014 42.17221 34.34618
# Shear Modulus (GPa) = 15.13457 28.00640 21.57049
#
# Velocity S-wave (km/s) = 2.57679 3.50528 3.07626
# Velocity P-wave (km/s) = 4.52637 5.90630 5.26177
#
# Compressibility (1/GPa) = 0.03770719
#
# Stress axis : x y z
#
# Youngs Moduli (GPa) = 42.35647 66.92191 131.79391
#
# Poissons Ratio (x) = -0.17886 0.39801
# Poissons Ratio (y) = -0.11321 0.50991
# Poissons Ratio (z) = 0.12791 0.25892
#
# Static dielectric constant tensor:
#      x y z
#    x 1.925910 0.000000 -0.003180 
#    y 0.000000 1.791540 0.000000 
#    z -0.003180 0.000000 1.959510 
# 
# From -- ./inp_files/137548.got.cif
#   From: 2010.05.17/outbox.cif.g08.bks.cpg/sg12_69_cif.got.tgz:137548.got - 2010.06.03 13:09:07.
