data_PCOD9219416
_publ_section_title
;
Structure prediction by ZEFSAII (Michael W. Deem and Ramdas Pophale) SiO2 
 PCOD9219416
Probable space group: C 2/M
;
_chemical_formula_sum "Si O2"
_cell_formula_units_Z 64
_cell_length_a 19.334213
_cell_length_b 20.218981
_cell_length_c 9.968177
_cell_angle_alpha 90.000000
_cell_angle_beta 117.651380
_cell_angle_gamma 90.000000
_cell_volume 3451.685195
_symmetry_space_group_name_H-M "C 2/M"
_symmetry_group_IT_number 12
_symmetry_cell_setting 'monoclinic'
loop_
_space_group_symop_operation_xyz
x,y,z
-x,y,-z
-x,-y,-z
x,-y,z
1/2+x,1/2+y,z
1/2-x,1/2+y,-z
1/2-x,1/2-y,-z
1/2+x,1/2-y,z
loop_
_atom_site_type_symbol
_atom_site_label
_atom_site_fract_x
_atom_site_fract_y
_atom_site_fract_z
Si Si1 0.771060 0.574663 0.339482
Si Si2 0.938133 0.617276 0.553637
Si Si3 0.587503 0.271012 0.541077
Si Si4 0.043948 0.381759 0.908469
Si Si5 0.211534 0.574704 0.964254
Si Si6 0.811725 0.804031 0.109524
Si Si7 0.815912 0.798468 0.621485
Si Si8 0.084535 0.232321 0.032632
O O1 0.739704 0.500000 0.326936
O O2 0.857702 0.578367 0.479223
O O3 0.781845 0.588094 0.189748
O O4 0.720887 0.632702 0.361621
O O5 0.917382 0.692779 0.495068
O O6 0.000000 0.591572 0.500000
O O7 0.981729 0.618346 0.733475
O O8 0.500000 0.292446 0.500000
O O9 0.645750 0.281145 0.717571
O O10 0.621094 0.306332 0.439985
O O11 0.122282 0.417582 0.931228
O O12 0.069565 0.306252 0.963841
O O13 0.000000 0.408571 0.000000
O O14 0.237599 0.500000 0.011993
O O15 0.264760 0.628447 0.085229
O O16 0.750000 0.750000 0.000000
O O17 0.875782 0.809106 0.049696
O O18 0.750000 0.750000 0.500000
O O19 0.858457 0.766106 0.788147
O O20 0.000000 0.205934 0.000000
#
# Coordination Sequence:
#
# PCOD9219416 Si02
#       8
#     8   8   8   8   8   8   8   8
#     4  11  24  41  63  90 123 169 211 253 304 369
#     4  11  20  37  61  92 127 168 205 243 300 385
#     4  11  23  37  62  94 128 156 200 259 318 364
#     4  11  23  36  60  93 131 164 202 248 309 377
#     4  11  24  42  62  89 126 169 209 252 307 370
#     4  12  21  38  65  91 119 163 207 255 307 357
#     4  12  23  39  64  95 125 161 208 260 305 357
#     4  11  22  37  61  92 126 158 202 257 309 359
#
# _framework density 18.541667
#
# number of rings (size 3 to 8) (size 9 to 14) (size 15 to 20)
#    0.000    0.750    5.000    5.250    0.000    1.000 
#    0.000    1.875    0.000    4.500    0.000    0.000 
#    0.000    0.000    0.000    0.000    0.000    0.000 
#
# Total GULP energy -178919.897255 kJ/mol
# GULP energy per Si atom -5591.246789 kJ/mol
# Density = 1.849947 g / cm^3
# Si number density = 18.541667 Si / 1000 Ang^3
#
#
#
# Elastic Constant Matrix: (Units=GPa)
#
#
# Indices 1 2 3 4 5 6 
#
# 1 80.6122 30.1538 -0.4395 0.0000 -15.7424 0.0000
# 2 30.1538 67.5100 12.4815 0.0000 -3.8873 0.0000
# 3 -0.4395 12.4815 113.0174 0.0000 -6.3501 0.0000
# 4 0.0000 0.0000 0.0000 4.7205 0.0000 -3.0582
# 5 -15.7424 -3.8873 -6.3501 0.0000 28.4063 0.0000
# 6 0.0000 0.0000 0.0000 -3.0582 0.0000 19.6577
#
#
#
# Elastic Compliance Matrix: (Units=1/GPa)
#
#
# Indices 1 2 3 4 5 6 
#
# 1 0.016814 -0.007263 0.001352 0.000000 0.008626 0.000000
# 2 -0.007263 0.018342 -0.002166 0.000000 -0.001999 0.000000
# 3 0.001352 -0.002166 0.009234 0.000000 0.002517 0.000000
# 4 0.000000 0.000000 0.000000 0.235586 0.000000 0.036650
# 5 0.008626 -0.001999 0.002517 0.000000 0.040273 0.000000
# 6 0.000000 0.000000 0.000000 0.036650 0.000000 0.056572
#
#
# Mechanical properties :
#
#
# Convention : Reuss Voigt Hill
#
# Bulk Modulus (GPa) = 35.41640 38.39236 36.90438
# Shear Modulus (GPa) = 12.42579 25.15315 18.78947
#
# Velocity S-wave (km/s) = 2.59154 3.68717 3.18679
# Velocity P-wave (km/s) = 5.30068 6.23521 5.78684
#
# Compressibility (1/GPa) = 0.02823550
#
# Stress axis : x y z
#
# Youngs Moduli (GPa) = 59.47425 54.51898 108.29400
#
# Poissons Ratio (x) = 0.39599 -0.14644
# Poissons Ratio (y) = 0.43198 0.23459
# Poissons Ratio (z) = -0.08042 0.11810
#
# Static dielectric constant tensor:
#      x y z
#    x 1.673100 0.000000 -0.015730 
#    y 0.000000 1.644330 0.000000 
#    z -0.015730 0.000000 1.633390 
# 
# From -- ./inp_files/89636.got.cif
#   From: 2010.05.17/outbox.cif.g08.bks.cpg/sg12_45_cif.got.tgz:89636.got - 2010.06.03 13:09:07.
