data_PCOD9219314
_publ_section_title
;
Structure prediction by ZEFSAII (Michael W. Deem and Ramdas Pophale) SiO2 
 PCOD9219314
Probable space group: C 2/M
;
_chemical_formula_sum "Si O2"
_cell_formula_units_Z 60
_cell_length_a 18.319545
_cell_length_b 22.933156
_cell_length_c 12.038301
_cell_angle_alpha 90.000000
_cell_angle_beta 41.950932
_cell_angle_gamma 90.000000
_cell_volume 3380.968905
_symmetry_space_group_name_H-M "C 2/M"
_symmetry_group_IT_number 12
_symmetry_cell_setting 'monoclinic'
loop_
_space_group_symop_operation_xyz
x,y,z
-x,y,-z
-x,-y,-z
x,-y,z
1/2+x,1/2+y,z
1/2-x,1/2+y,-z
1/2-x,1/2-y,-z
1/2+x,1/2-y,z
loop_
_atom_site_type_symbol
_atom_site_label
_atom_site_fract_x
_atom_site_fract_y
_atom_site_fract_z
Si Si1 0.500000 0.232317 0.000000
Si Si2 0.282030 0.344557 0.935060
Si Si3 0.024517 0.145878 0.603442
Si Si4 0.926312 0.357083 0.262175
Si Si5 0.263559 0.569084 0.604244
Si Si6 0.720332 0.735653 0.853102
Si Si7 0.360756 0.932107 0.018299
Si Si8 0.077258 0.278585 0.520902
O O1 0.570444 0.192775 0.835611
O O2 0.593118 0.264988 0.964626
O O3 0.408133 0.362229 0.792468
O O4 0.254596 0.299087 0.864905
O O5 0.210479 0.401032 0.994944
O O6 0.255650 0.309418 0.075655
O O7 0.119641 0.100860 0.525301
O O8 0.057420 0.213021 0.587401
O O9 0.000000 0.140542 0.500000
O O10 0.816210 0.394576 0.385549
O O11 0.945703 0.325304 0.357499
O O12 0.024475 0.399294 0.114545
O O13 0.270977 0.500000 0.571249
O O14 0.204871 0.574780 0.791613
O O15 0.798619 0.720595 0.662530
O O16 0.377628 0.000000 0.980762
O O17 0.000000 0.286364 0.500000
#
# Coordination Sequence:
#
# PCOD9219314 Si02
#       8
#     4   8   8   8   8   8   8   8
#     4  12  22  34  57  92 117 158 184 234 300 360
#     4  11  20  38  59  83 119 156 189 244 287 345
#     4  11  20  35  55  87 119 149 188 237 295 348
#     4  12  22  37  59  85 124 154 190 241 290 356
#     4  11  23  38  58  85 119 156 194 241 294 347
#     4  11  22  36  58  85 119 154 196 233 291 349
#     4  11  21  36  59  87 117 154 198 241 291 346
#     4  11  22  37  59  88 118 155 194 239 293 344
#
# _framework density 17.746392
#
# number of rings (size 3 to 8) (size 9 to 14) (size 15 to 20)
#    0.000    0.800    6.667    2.800    0.000    5.067 
#    0.000    0.000    0.000    7.200    0.000    1.400 
#    0.000    0.000    0.000    0.000    0.000    0.000 
#
# Total GULP energy -167583.156671 kJ/mol
# GULP energy per Si atom -5586.105222 kJ/mol
# Density = 1.770600 g / cm^3
# Si number density = 17.746392 Si / 1000 Ang^3
#
#
#
# Elastic Constant Matrix: (Units=GPa)
#
#
# Indices 1 2 3 4 5 6 
#
# 1 67.1137 34.1674 14.4917 0.0002 -8.9755 0.0003
# 2 34.1674 62.9285 -1.2078 0.0002 6.3661 0.0001
# 3 14.4917 -1.2078 28.4695 0.0003 -14.3989 0.0003
# 4 0.0002 0.0002 0.0003 -10.1551 -0.0002 -20.3500
# 5 -8.9755 6.3661 -14.3989 -0.0002 30.4690 -0.0002
# 6 0.0003 0.0001 0.0003 -20.3500 -0.0002 2.6633
#
#
#
# Elastic Compliance Matrix: (Units=1/GPa)
#
#
# Indices 1 2 3 4 5 6 
#
# 1 0.025338 -0.014510 -0.010782 0.000000 0.005401 0.000000
# 2 -0.014510 0.024584 0.004822 0.000000 -0.007132 0.000000
# 3 -0.010782 0.004822 0.050858 0.000000 0.019851 0.000000
# 4 0.000000 0.000000 0.000000 -0.006037 0.000000 -0.046128
# 5 0.005401 -0.007132 0.019851 0.000000 0.045282 0.000000
# 6 0.000000 0.000000 0.000000 -0.046128 0.000000 0.023019
#
#
# Mechanical properties :
#
#
# Convention : Reuss Voigt Hill
#
# Bulk Modulus (GPa) = 16.71162 28.15714 22.43438
# Shear Modulus (GPa) = 22.32845 11.99947 17.16396
#
# Velocity S-wave (km/s) = 3.55095 2.60314 3.11333
# Velocity P-wave (km/s) = 5.12345 4.99359 5.05894
#
# Compressibility (1/GPa) = 0.05983861
#
# Stress axis : x y z
#
# Youngs Moduli (GPa) = 39.46700 40.67747 19.66266
#
# Poissons Ratio (x) = 0.59025 0.21200
# Poissons Ratio (y) = 0.57268 -0.09481
# Poissons Ratio (z) = 0.42552 -0.19614
#
# Static dielectric constant tensor:
#      x y z
#    x 1.569350 0.000000 -0.003730 
#    y 0.000000 1.592890 0.000000 
#    z -0.003730 0.000000 1.605600 
# 
# From -- ./inp_files/160478.got.cif
#   From: 2010.05.17/outbox.cif.g08.bks.cpg/sg12_81_cif.got.tgz:160478.got - 2010.06.03 13:09:07.
