data_PCOD9219098
_publ_section_title
;
Structure prediction by ZEFSAII (Michael W. Deem and Ramdas Pophale) SiO2 
 PCOD9219098
Probable space group: C 2/M
;
_chemical_formula_sum "Si O2"
_cell_formula_units_Z 64
_cell_length_a 17.011724
_cell_length_b 24.995635
_cell_length_c 14.459924
_cell_angle_alpha 90.000000
_cell_angle_beta 148.574093
_cell_angle_gamma 90.000000
_cell_volume 3205.869278
_symmetry_space_group_name_H-M "C 2/M"
_symmetry_group_IT_number 12
_symmetry_cell_setting 'monoclinic'
loop_
_space_group_symop_operation_xyz
x,y,z
-x,y,-z
-x,-y,-z
x,-y,z
1/2+x,1/2+y,z
1/2-x,1/2+y,-z
1/2-x,1/2-y,-z
1/2+x,1/2-y,z
loop_
_atom_site_type_symbol
_atom_site_label
_atom_site_fract_x
_atom_site_fract_y
_atom_site_fract_z
Si Si1 0.848952 0.646905 0.294405
Si Si2 0.360668 0.198177 0.112235
Si Si3 0.181213 0.242749 0.677177
Si Si4 0.806074 0.144214 0.189783
Si Si5 0.325503 0.442980 0.357219
Si Si6 0.584096 0.563414 0.984619
Si Si7 0.308234 0.200967 0.616046
Si Si8 0.100842 0.106006 0.382002
O O1 0.898882 0.681403 0.254976
O O2 0.768588 0.695385 0.271141
O O3 0.732211 0.600781 0.147796
O O4 0.000000 0.628508 0.500000
O O5 0.513414 0.205689 0.209822
O O6 0.250000 0.250000 0.000000
O O7 0.289947 0.144032 0.998896
O O8 0.223039 0.203793 0.802851
O O9 0.244079 0.211103 0.653005
O O10 0.000000 0.242790 0.500000
O O11 0.764927 0.103914 0.230555
O O12 0.974071 0.135196 0.319369
O O13 0.500000 0.445266 0.500000
O O14 0.253415 0.500000 0.262851
O O15 0.329702 0.434348 0.471703
O O16 0.617564 0.500000 0.002397
O O17 0.500000 0.567148 0.000000
O O18 0.480814 0.583676 0.792808
O O19 0.250000 0.250000 0.500000
O O20 0.234570 0.147887 0.498460
#
# Coordination Sequence:
#
# PCOD9219098 Si02
#       8
#     8   8   8   8   8   8   8   8
#     4  11  25  43  68  92 129 180 226 277 343 412
#     4  12  25  42  61  95 142 178 222 272 331 409
#     4  11  20  38  63  99 136 170 212 262 334 410
#     4  11  19  39  64  96 138 171 211 273 331 406
#     4   9  18  34  63  97 126 168 220 267 324 401
#     4  11  27  47  70  98 128 171 236 302 344 396
#     4  12  25  37  65 100 133 180 219 271 335 408
#     4  11  21  41  70  96 134 176 220 277 346 403
#
# _framework density 19.963383
#
# number of rings (size 3 to 8) (size 9 to 14) (size 15 to 20)
#    0.000    1.000    5.000    3.000    3.500    1.250 
#    0.000    0.000    0.000    2.250    0.000    0.000 
#    0.000    0.000    0.000    0.000    0.000    0.000 
#
# Total GULP energy -178171.324747 kJ/mol
# GULP energy per Si atom -5567.853898 kJ/mol
# Density = 1.991795 g / cm^3
# Si number density = 19.963383 Si / 1000 Ang^3
#
#
#
# Elastic Constant Matrix: (Units=GPa)
#
#
# Indices 1 2 3 4 5 6 
#
# 1 88.8201 37.5798 44.6078 0.0000 -10.6777 0.0000
# 2 37.5798 134.7619 67.6603 0.0000 -5.3596 0.0000
# 3 44.6078 67.6603 106.2783 0.0000 -13.2425 0.0000
# 4 0.0000 0.0000 0.0000 29.9059 0.0000 -8.9548
# 5 -10.6777 -5.3596 -13.2425 0.0000 39.8880 0.0000
# 6 0.0000 0.0000 0.0000 -8.9548 0.0000 18.8703
#
#
#
# Elastic Compliance Matrix: (Units=1/GPa)
#
#
# Indices 1 2 3 4 5 6 
#
# 1 0.014619 -0.001534 -0.004900 0.000000 0.002080 0.000000
# 2 -0.001534 0.011097 -0.006558 0.000000 -0.001097 0.000000
# 3 -0.004900 -0.006558 0.016031 0.000000 0.003129 0.000000
# 4 0.000000 0.000000 0.000000 0.038977 0.000000 0.018496
# 5 0.002080 -0.001097 0.003129 0.000000 0.026519 0.000000
# 6 0.000000 0.000000 0.000000 0.018496 0.000000 0.061770
#
#
# Mechanical properties :
#
#
# Convention : Reuss Voigt Hill
#
# Bulk Modulus (GPa) = 63.43808 69.95068 66.69438
# Shear Modulus (GPa) = 24.96884 29.73368 27.35126
#
# Velocity S-wave (km/s) = 3.54041 3.86348 3.70546
# Velocity P-wave (km/s) = 6.96842 7.41738 7.19640
#
# Compressibility (1/GPa) = 0.01576340
#
# Stress axis : x y z
#
# Youngs Moduli (GPa) = 68.40542 90.11490 62.38000
#
# Poissons Ratio (x) = 0.13819 0.30568
# Poissons Ratio (y) = 0.10490 0.40907
# Poissons Ratio (z) = 0.33521 0.59094
#
# Static dielectric constant tensor:
#      x y z
#    x 1.679050 0.000000 0.004400 
#    y 0.000000 1.737090 0.000000 
#    z 0.004400 0.000000 1.212110 
# 
# From -- ./inp_files/228197.got.cif
#   From: 2010.05.17/outbox.cif.g08.bks.cpg/sg12_115_cif.got.tgz:228197.got - 2010.06.03 13:09:07.
