data_PCOD9219668
_publ_section_title
;
Structure prediction by ZEFSAII (Michael W. Deem and Ramdas Pophale) SiO2 
 PCOD9219668
Probable space group: C 2/M
;
_chemical_formula_sum "Si O2"
_cell_formula_units_Z 50
_cell_length_a 14.211241
_cell_length_b 14.066925
_cell_length_c 13.918467
_cell_angle_alpha 90.000000
_cell_angle_beta 58.269440
_cell_angle_gamma 90.000000
_cell_volume 2366.533099
_symmetry_space_group_name_H-M "C 2/M"
_symmetry_group_IT_number 12
_symmetry_cell_setting 'monoclinic'
loop_
_space_group_symop_operation_xyz
x,y,z
-x,y,-z
-x,-y,-z
x,-y,z
1/2+x,1/2+y,z
1/2-x,1/2+y,-z
1/2-x,1/2-y,-z
1/2+x,1/2-y,z
loop_
_atom_site_type_symbol
_atom_site_label
_atom_site_fract_x
_atom_site_fract_y
_atom_site_fract_z
Si Si1 0.609359 0.892340 0.878347
Si Si2 0.272107 0.861427 0.995169
Si Si3 0.972413 0.894643 0.912391
Si Si4 0.404723 0.250841 0.286903
Si Si5 0.418674 0.110391 0.736677
Si Si6 0.718962 0.893396 0.367845
Si Si7 0.500000 0.000000 0.500000
O O1 0.627588 0.820995 0.781685
O O2 0.599069 0.000000 0.846407
O O3 0.500000 0.870795 0.000000
O O4 0.703152 0.887493 0.908865
O O5 0.371039 0.890714 0.870561
O O6 0.250000 0.750000 0.000000
O O7 0.157957 0.903992 0.022626
O O8 0.016158 0.829659 0.803943
O O9 0.022596 0.000000 0.883955
O O10 0.000000 0.849080 0.000000
O O11 0.481768 0.186197 0.314602
O O12 0.296340 0.313123 0.372958
O O13 0.313918 0.134625 0.724675
O O14 0.449269 0.000000 0.687305
O O15 0.595997 0.916662 0.470933
O O16 0.771608 0.000000 0.341525
#
# Coordination Sequence:
#
# PCOD9219668 Si02
#       7
#     8   8   8   8   8   8   2
#     4  11  21  33  47  74 118 169 201 228 262 311
#     4  12  20  33  49  71 113 166 203 232 264 320
#     4  11  22  33  46  71 111 155 201 242 278 310
#     4  12  21  33  56  86 113 148 200 243 280 332
#     4  11  21  35  56  85 116 154 202 235 278 339
#     4   9  21  41  66  84 112 141 182 243 308 372
#     4   8  20  48  72  84 108 140 180 236 338 388
#
# _framework density 21.127953000000002
#
# number of rings (size 3 to 8) (size 9 to 14) (size 15 to 20)
#    0.480    0.640    3.200    5.760    0.000    2.560 
#    0.000    0.800    0.000    0.000    0.000    2.240 
#    0.000    0.000    0.000    0.000    0.000    0.000 
#
# Total GULP energy -139236.434731 kJ/mol
# GULP energy per Si atom -5569.457389 kJ/mol
# Density = 2.107987 g / cm^3
# Si number density = 21.127953 Si / 1000 Ang^3
#
#
#
# Elastic Constant Matrix: (Units=GPa)
#
#
# Indices 1 2 3 4 5 6 
#
# 1 61.0479 20.3441 2.4300 0.0000 -16.6263 0.0000
# 2 20.3441 155.3138 22.7049 0.0000 -14.5719 0.0000
# 3 2.4300 22.7049 48.1714 0.0000 -21.1569 0.0000
# 4 0.0000 0.0000 0.0000 39.8134 0.0000 -5.4325
# 5 -16.6263 -14.5719 -21.1569 0.0000 37.0126 0.0000
# 6 0.0000 0.0000 0.0000 -5.4325 0.0000 38.7086
#
#
#
# Elastic Compliance Matrix: (Units=1/GPa)
#
#
# Indices 1 2 3 4 5 6 
#
# 1 0.019892 -0.002298 0.004816 0.000000 0.010784 0.000000
# 2 -0.002298 0.007217 -0.003326 0.000000 -0.000092 0.000000
# 3 0.004816 -0.003326 0.029988 0.000000 0.017995 0.000000
# 4 0.000000 0.000000 0.000000 0.025608 0.000000 0.003594
# 5 0.010784 -0.000092 0.017995 0.000000 0.042112 0.000000
# 6 0.000000 0.000000 0.000000 0.003594 0.000000 0.026338
#
#
# Mechanical properties :
#
#
# Convention : Reuss Voigt Hill
#
# Bulk Modulus (GPa) = 18.02464 39.49900 28.76182
# Shear Modulus (GPa) = 29.19473 37.71052 33.45263
#
# Velocity S-wave (km/s) = 3.72130 4.22935 3.98343
# Velocity P-wave (km/s) = 5.19748 6.52576 5.89912
#
# Compressibility (1/GPa) = 0.05547961
#
# Stress axis : x y z
#
# Youngs Moduli (GPa) = 50.27266 138.55833 33.34722
#
# Poissons Ratio (x) = 0.31838 -0.16059
# Poissons Ratio (y) = 0.11552 0.11092
# Poissons Ratio (z) = -0.24210 0.46088
#
# Static dielectric constant tensor:
#      x y z
#    x 1.780630 0.000000 0.010000 
#    y 0.000000 1.871300 0.000000 
#    z 0.010000 0.000000 1.767700 
# 
# From -- ./inp_files/214385.got.cif
#   From: 2010.05.17/outbox.cif.g08.bks.cpg/sg12_108_cif.got.tgz:214385.got - 2010.06.03 13:09:07.
