data_PCOD9219774
_publ_section_title
;
Structure prediction by ZEFSAII (Michael W. Deem and Ramdas Pophale) SiO2 
 PCOD9219774
Probable space group: C 2/M
;
_chemical_formula_sum "Si O2"
_cell_formula_units_Z 32
_cell_length_a 9.845611
_cell_length_b 17.591184
_cell_length_c 12.325789
_cell_angle_alpha 90.000000
_cell_angle_beta 130.520108
_cell_angle_gamma 90.000000
_cell_volume 1622.810341
_symmetry_space_group_name_H-M "C 2/M"
_symmetry_group_IT_number 12
_symmetry_cell_setting 'monoclinic'
loop_
_space_group_symop_operation_xyz
x,y,z
-x,y,-z
-x,-y,-z
x,-y,z
1/2+x,1/2+y,z
1/2-x,1/2+y,-z
1/2-x,1/2-y,-z
1/2+x,1/2-y,z
loop_
_atom_site_type_symbol
_atom_site_label
_atom_site_fract_x
_atom_site_fract_y
_atom_site_fract_z
Si Si1 0.919837 0.085520 0.838542
Si Si2 0.784154 0.588122 0.608274
Si Si3 0.421633 0.367253 0.292018
Si Si4 0.582578 0.193369 0.662355
O O1 0.766768 0.148165 0.746286
O O2 0.067322 0.099470 0.822401
O O3 0.846232 0.000000 0.785129
O O4 0.000000 0.090704 0.000000
O O5 0.823994 0.500000 0.606978
O O6 0.724079 0.598724 0.701654
O O7 0.612713 0.612873 0.447250
O O8 0.946508 0.642210 0.660703
O O9 0.397365 0.276704 0.277124
O O10 0.500000 0.204398 0.500000
#
# Coordination Sequence:
#
# PCOD9219774 Si02
#       4
#     8   8   8   8
#     4  11  25  43  61  85 122 163 198 239 295 356
#     4  11  21  34  59  93 120 151 194 248 298 343
#     4  11  21  38  60  88 122 156 192 245 300 348
#     4  12  22  38  63  92 120 152 200 249 293 347
#
# _framework density 19.718879000000001
#
# number of rings (size 3 to 8) (size 9 to 14) (size 15 to 20)
#    0.000    0.750    5.000    6.000    0.000    2.000 
#    0.000    1.250    0.000    4.500    0.000    0.000 
#    0.000    0.000    0.000    0.000    0.000    0.000 
#
# Total GULP energy -89492.890085 kJ/mol
# GULP energy per Si atom -5593.305630 kJ/mol
# Density = 1.967400 g / cm^3
# Si number density = 19.718879 Si / 1000 Ang^3
#
#
#
# Elastic Constant Matrix: (Units=GPa)
#
#
# Indices 1 2 3 4 5 6 
#
# 1 76.2135 -3.5684 15.1096 0.0000 -34.2027 0.0000
# 2 -3.5684 130.9905 11.1669 0.0000 -7.6097 0.0000
# 3 15.1096 11.1669 39.4883 0.0000 -30.3996 0.0000
# 4 0.0000 0.0000 0.0000 15.8068 0.0000 -25.9022
# 5 -34.2027 -7.6097 -30.3996 0.0000 33.4571 0.0000
# 6 0.0000 0.0000 0.0000 -25.9022 0.0000 50.2444
#
#
#
# Elastic Compliance Matrix: (Units=1/GPa)
#
#
# Indices 1 2 3 4 5 6 
#
# 1 0.051241 0.002257 0.068140 0.000001 0.114810 0.000001
# 2 0.002257 0.007928 0.000195 0.000000 0.004288 0.000000
# 3 0.068140 0.000195 0.175887 0.000002 0.229517 0.000001
# 4 0.000001 0.000000 0.000002 0.407566 0.000004 0.210110
# 5 0.114810 0.004288 0.229517 0.000004 0.356776 0.000002
# 6 0.000001 0.000000 0.000001 0.210110 0.000002 0.128219
#
#
# Mechanical properties :
#
#
# Convention : Reuss Voigt Hill
#
# Bulk Modulus (GPa) = 2.65787 32.45650 17.55718
# Shear Modulus (GPa) = 4.49702 34.83393 19.66547
#
# Velocity S-wave (km/s) = 1.51179 4.20757 3.16142
# Velocity P-wave (km/s) = 2.09718 6.33247 4.71690
#
# Compressibility (1/GPa) = 0.37624145
#
# Stress axis : x y z
#
# Youngs Moduli (GPa) = 19.51543 126.13450 5.68547
#
# Poissons Ratio (x) = -0.28464 -0.38741
# Poissons Ratio (y) = -0.04404 -0.00111
# Poissons Ratio (z) = -1.32979 -0.02464
#
# Static dielectric constant tensor:
#      x y z
#    x 1.701110 0.000000 -0.016330 
#    y 0.000000 1.676890 0.000000 
#    z -0.016330 0.000000 1.674100 
# 
# From -- ./inp_files/37741.got.cif
#   From: 2010.05.17/outbox.cif.g08.bks.cpg/sg12_19_cif.got.tgz:37741.got - 2010.06.03 13:09:07.
