data_PCOD9219131
_publ_section_title
;
Structure prediction by ZEFSAII (Michael W. Deem and Ramdas Pophale) SiO2 
 PCOD9219131
Probable space group: C 2/M
;
_chemical_formula_sum "Si O2"
_cell_formula_units_Z 56
_cell_length_a 20.078413
_cell_length_b 7.470427
_cell_length_c 20.010450
_cell_angle_alpha 90.000000
_cell_angle_beta 112.917005
_cell_angle_gamma 90.000000
_cell_volume 2764.548690
_symmetry_space_group_name_H-M "C 2/M"
_symmetry_group_IT_number 12
_symmetry_cell_setting 'monoclinic'
loop_
_space_group_symop_operation_xyz
x,y,z
-x,y,-z
-x,-y,-z
x,-y,z
1/2+x,1/2+y,z
1/2-x,1/2+y,-z
1/2-x,1/2-y,-z
1/2+x,1/2-y,z
loop_
_atom_site_type_symbol
_atom_site_label
_atom_site_fract_x
_atom_site_fract_y
_atom_site_fract_z
Si Si1 0.171730 0.781317 0.208058
Si Si2 0.918451 0.782391 0.545371
Si Si3 0.040015 0.209441 0.806569
Si Si4 0.674046 0.795495 0.770295
Si Si5 0.912023 0.216640 0.395624
Si Si6 0.893732 0.781376 0.680066
Si Si7 0.521232 0.281602 0.081589
O O1 0.246603 0.713844 0.206901
O O2 0.158575 0.725771 0.279999
O O3 0.101476 0.730915 0.137656
O O4 0.173834 0.000000 0.209912
O O5 0.890169 0.724326 0.461791
O O6 0.881117 0.721164 0.599186
O O7 0.003683 0.734261 0.581577
O O8 0.916417 0.000000 0.543601
O O9 0.116485 0.223842 0.800706
O O10 0.974295 0.278638 0.734689
O O11 0.031435 0.278630 0.878636
O O12 0.023705 0.000000 0.805480
O O13 0.636465 0.786622 0.683074
O O14 0.684648 0.000000 0.794118
O O15 0.909013 0.000000 0.391299
O O16 0.892552 0.000000 0.677809
O O17 0.519835 0.500000 0.077980
O O18 0.500000 0.216802 0.000000
#
# Coordination Sequence:
#
# PCOD9219131 Si02
#       7
#     8   8   8   8   8   8   8
#     4   8  16  27  41  64  94 123 147 178 226 274
#     4   8  13  23  44  68  84 106 151 204 235 254
#     4   9  16  28  50  72  88 113 152 192 222 256
#     4  11  20  29  41  64  98 128 148 175 224 280
#     4   9  16  27  44  66  88 113 152 196 232 262
#     4   8  12  24  46  66  81 109 157 196 217 252
#     4   8  14  28  52  77  92 108 148 198 225 246
#
# _framework density 20.256471000000001
#
# number of rings (size 3 to 8) (size 9 to 14) (size 15 to 20)
#    0.000    3.286    1.429    3.000    0.000    0.000 
#    0.000    2.857    0.000    7.286    0.000    0.000 
#    0.000    0.000    0.000    0.000    0.000    0.000 
#
# Total GULP energy -156026.064849 kJ/mol
# GULP energy per Si atom -5572.359459 kJ/mol
# Density = 2.021037 g / cm^3
# Si number density = 20.256471 Si / 1000 Ang^3
#
#
#
# Elastic Constant Matrix: (Units=GPa)
#
#
# Indices 1 2 3 4 5 6 
#
# 1 116.9801 -5.3514 59.1024 0.0000 -21.6040 0.0000
# 2 -5.3514 50.4762 -4.2954 0.0000 -1.9378 0.0000
# 3 59.1024 -4.2954 137.9534 0.0000 -31.4086 0.0000
# 4 0.0000 0.0000 0.0000 -38.9128 0.0000 12.9801
# 5 -21.6040 -1.9378 -31.4086 0.0000 22.4225 0.0000
# 6 0.0000 0.0000 0.0000 12.9801 0.0000 6.2876
#
#
#
# Elastic Compliance Matrix: (Units=1/GPa)
#
#
# Indices 1 2 3 4 5 6 
#
# 1 0.011521 0.001173 -0.003449 0.000000 0.006371 0.000000
# 2 0.001173 0.020205 0.001148 0.000000 0.004483 0.000000
# 3 -0.003449 0.001148 0.011787 0.000000 0.013287 0.000000
# 4 0.000000 0.000000 0.000000 -0.015219 0.000000 0.031417
# 5 0.006371 0.004483 0.013287 0.000000 0.069736 0.000000
# 6 0.000000 0.000000 0.000000 0.031417 0.000000 0.094186
#
#
# Mechanical properties :
#
#
# Convention : Reuss Voigt Hill
#
# Bulk Modulus (GPa) = 24.23881 44.92454 34.58168
# Shear Modulus (GPa) = 24.01225 15.02306 19.51766
#
# Velocity S-wave (km/s) = 3.44672 2.72627 3.10744
# Velocity P-wave (km/s) = 5.27558 5.66887 5.47576
#
# Compressibility (1/GPa) = 0.04125616
#
# Stress axis : x y z
#
# Youngs Moduli (GPa) = 86.79655 49.49176 84.83630
#
# Poissons Ratio (x) = -0.05803 0.29260
# Poissons Ratio (y) = -0.10177 -0.09735
# Poissons Ratio (z) = 0.29936 -0.05679
#
# Static dielectric constant tensor:
#      x y z
#    x 1.719550 0.000000 -0.028730 
#    y 0.000000 1.775850 0.000000 
#    z -0.028730 0.000000 1.710760 
# 
# From -- ./inp_files/313321.got.cif
#   From: 2010.05.17/outbox.cif.g08.bks.cpg/sg12_157_cif.got.tgz:313321.got - 2010.06.03 13:09:07.
