data_PCOD9219718
_publ_section_title
;
Structure prediction by ZEFSAII (Michael W. Deem and Ramdas Pophale) SiO2 
 PCOD9219718
Probable space group: C 2/M
;
_chemical_formula_sum "Si O2"
_cell_formula_units_Z 32
_cell_length_a 10.630211
_cell_length_b 17.358462
_cell_length_c 7.608461
_cell_angle_alpha 90.000000
_cell_angle_beta 77.374337
_cell_angle_gamma 90.000000
_cell_volume 1369.995680
_symmetry_space_group_name_H-M "C 2/M"
_symmetry_group_IT_number 12
_symmetry_cell_setting 'monoclinic'
loop_
_space_group_symop_operation_xyz
x,y,z
-x,y,-z
-x,-y,-z
x,-y,z
1/2+x,1/2+y,z
1/2-x,1/2+y,-z
1/2-x,1/2-y,-z
1/2+x,1/2-y,z
loop_
_atom_site_type_symbol
_atom_site_label
_atom_site_fract_x
_atom_site_fract_y
_atom_site_fract_z
Si Si1 0.899372 0.809327 0.811103
Si Si2 0.205067 0.090882 0.439886
Si Si3 0.753676 0.842723 0.189531
Si Si4 0.477696 0.838623 0.296814
O O1 0.897799 0.870512 0.657608
O O2 0.788108 0.747135 0.791751
O O3 0.016799 0.748235 0.783713
O O4 0.854248 0.850561 0.002063
O O5 0.203002 0.124712 0.637514
O O6 0.346525 0.115005 0.319224
O O7 0.192415 0.000000 0.449482
O O8 0.610484 0.877981 0.189338
O O9 0.500000 0.828426 0.500000
#
# Coordination Sequence:
#
# PCOD9219718 Si02
#       4
#     8   8   8   8
#     4   9  18  37  52  76 110 155 183 220 266 333
#     4  11  21  33  57  88 115 141 175 229 292 328
#     4   8  18  35  53  73 114 149 187 218 264 329
#     4   8  17  32  53  80 108 141 188 225 261 323
#
# _framework density 23.357737
#
# number of rings (size 3 to 8) (size 9 to 14) (size 15 to 20)
#    1.500    1.500    0.000    0.750    0.000    6.500 
#    0.000    1.250    0.000    0.750    0.000    1.750 
#    0.000    0.000    0.000    0.000    0.000    0.000 
#
# Total GULP energy -89274.844068 kJ/mol
# GULP energy per Si atom -5579.677754 kJ/mol
# Density = 2.330457 g / cm^3
# Si number density = 23.357737 Si / 1000 Ang^3
#
#
#
# Elastic Constant Matrix: (Units=GPa)
#
#
# Indices 1 2 3 4 5 6 
#
# 1 92.8597 18.3605 31.7291 0.0000 -13.6286 0.0000
# 2 18.3605 93.8241 54.8204 0.0000 3.9936 0.0000
# 3 31.7291 54.8204 120.4077 0.0000 -12.2791 0.0000
# 4 0.0000 0.0000 0.0000 -0.1149 0.0000 -13.3263
# 5 -13.6286 3.9936 -12.2791 0.0000 27.1560 0.0000
# 6 0.0000 0.0000 0.0000 -13.3263 0.0000 15.9728
#
#
#
# Elastic Compliance Matrix: (Units=1/GPa)
#
#
# Indices 1 2 3 4 5 6 
#
# 1 0.012593 -0.001496 -0.002066 0.000000 0.005606 0.000000
# 2 -0.001496 0.015487 -0.007303 0.000000 -0.006330 0.000000
# 3 -0.002066 -0.007303 0.012767 0.000000 0.005810 0.000000
# 4 0.000000 0.000000 0.000000 -0.089022 0.000000 -0.074272
# 5 0.005606 -0.006330 0.005810 0.000000 0.043196 0.000000
# 6 0.000000 0.000000 0.000000 -0.074272 0.000000 0.000641
#
#
# Mechanical properties :
#
#
# Convention : Reuss Voigt Hill
#
# Bulk Modulus (GPa) = 52.30458 57.43460 54.86959
# Shear Modulus (GPa) = 210.41444 22.08156 116.24800
#
# Velocity S-wave (km/s) = 9.50152 3.07801 7.06233
# Velocity P-wave (km/s) = 11.95046 6.10530 9.48915
#
# Compressibility (1/GPa) = 0.01911879
#
# Stress axis : x y z
#
# Youngs Moduli (GPa) = 79.40702 64.56929 78.32886
#
# Poissons Ratio (x) = 0.09660 0.16180
# Poissons Ratio (y) = 0.11880 0.57200
# Poissons Ratio (z) = 0.16403 0.47152
#
# Static dielectric constant tensor:
#      x y z
#    x 2.075290 0.000000 -0.048760 
#    y 0.000000 1.787700 0.000000 
#    z -0.048760 0.000000 1.898070 
# 
# From -- ./inp_files/57718.got.cif
#   From: 2010.05.17/outbox.cif.g08.bks.cpg/sg12_29_cif.got.tgz:57718.got - 2010.06.03 13:09:07.
