data_PCOD9219128
_publ_section_title
;
Structure prediction by ZEFSAII (Michael W. Deem and Ramdas Pophale) SiO2 
 PCOD9219128
Probable space group: C 2/M
;
_chemical_formula_sum "Si O2"
_cell_formula_units_Z 64
_cell_length_a 19.578771
_cell_length_b 7.547386
_cell_length_c 21.134342
_cell_angle_alpha 90.000000
_cell_angle_beta 95.286833
_cell_angle_gamma 90.000000
_cell_volume 3109.705389
_symmetry_space_group_name_H-M "C 2/M"
_symmetry_group_IT_number 12
_symmetry_cell_setting 'monoclinic'
loop_
_space_group_symop_operation_xyz
x,y,z
-x,y,-z
-x,-y,-z
x,-y,z
1/2+x,1/2+y,z
1/2-x,1/2+y,-z
1/2-x,1/2-y,-z
1/2+x,1/2-y,z
loop_
_atom_site_type_symbol
_atom_site_label
_atom_site_fract_x
_atom_site_fract_y
_atom_site_fract_z
Si Si1 0.702672 0.787894 0.934757
Si Si2 0.922942 0.710657 0.000705
Si Si3 0.511299 0.291887 0.343756
Si Si4 0.221908 0.215688 0.384566
Si Si5 0.874833 0.295855 0.390321
Si Si6 0.894685 0.785197 0.533933
Si Si7 0.622025 0.284353 0.260672
Si Si8 0.671100 0.285183 0.128794
O O1 0.751479 0.723303 0.882032
O O2 0.696269 0.000000 0.927167
O O3 0.750000 0.750000 0.000000
O O4 0.627268 0.718718 0.947631
O O5 0.929532 0.500000 0.012464
O O6 0.880528 0.735363 0.932179
O O7 0.000000 0.783344 0.000000
O O8 0.526854 0.500000 0.345778
O O9 0.430774 0.273641 0.346188
O O10 0.549599 0.221751 0.409975
O O11 0.549430 0.223649 0.284331
O O12 0.298911 0.284946 0.386332
O O13 0.178497 0.270383 0.442482
O O14 0.177905 0.262437 0.318892
O O15 0.223549 0.000000 0.387518
O O16 0.866144 0.500000 0.373316
O O17 0.903620 0.279724 0.463896
O O18 0.897600 0.000000 0.530927
O O19 0.621363 0.500000 0.256054
O O20 0.643094 0.219713 0.193482
O O21 0.673332 0.500000 0.130204
#
# Coordination Sequence:
#
# PCOD9219128 Si02
#       8
#     8   8   8   8   8   8   8   8
#     4   8  14  25  42  65  89 113 144 177 208 246
#     4   9  17  29  44  66 100 131 146 167 215 272
#     4   9  18  32  48  63  84 118 153 181 216 270
#     4   8  16  30  46  65  88 114 146 184 224 266
#     4  11  20  28  43  69  95 113 137 185 239 272
#     4   9  17  31  49  64  82 116 156 183 213 269
#     4   8  15  31  51  65  81 113 156 191 216 254
#     4   9  16  28  50  72  85 109 154 197 221 243
#
# _framework density 20.580729000000002
#
# number of rings (size 3 to 8) (size 9 to 14) (size 15 to 20)
#    0.000    3.125    0.000    2.625    0.000    2.250 
#    0.000    2.500    0.000    6.750    0.000    0.000 
#    0.000    0.000    0.000    0.000    0.000    0.000 
#
# Total GULP energy -178288.250359 kJ/mol
# GULP energy per Si atom -5571.507824 kJ/mol
# Density = 2.053389 g / cm^3
# Si number density = 20.580729 Si / 1000 Ang^3
#
#
#
# Elastic Constant Matrix: (Units=GPa)
#
#
# Indices 1 2 3 4 5 6 
#
# 1 148.0730 5.3879 57.7519 0.0000 -55.9050 0.0000
# 2 5.3879 43.0136 -4.7444 0.0000 -2.5528 0.0000
# 3 57.7519 -4.7444 100.9625 0.0000 -46.2507 0.0000
# 4 0.0000 0.0000 0.0000 7.2777 0.0000 -2.0242
# 5 -55.9050 -2.5528 -46.2507 0.0000 34.5378 0.0000
# 6 0.0000 0.0000 0.0000 -2.0242 0.0000 1.7270
#
#
#
# Elastic Compliance Matrix: (Units=1/GPa)
#
#
# Indices 1 2 3 4 5 6 
#
# 1 0.020021 0.001131 0.009016 0.000000 0.044565 0.000000
# 2 0.001131 0.024384 0.005596 0.000000 0.011128 0.000000
# 3 0.009016 0.005596 0.030747 0.000000 0.056182 0.000000
# 4 0.000000 0.000000 0.000000 0.203868 0.000000 0.238955
# 5 0.044565 0.011128 0.056182 0.000000 0.177147 0.000000
# 6 0.000000 0.000000 0.000000 0.238955 0.000000 0.859134
#
#
# Mechanical properties :
#
#
# Convention : Reuss Voigt Hill
#
# Bulk Modulus (GPa) = 9.37730 45.42666 27.40198
# Shear Modulus (GPa) = 3.78971 24.28540 14.03755
#
# Velocity S-wave (km/s) = 1.35845 3.43885 2.61449
# Velocity P-wave (km/s) = 2.65080 6.15532 4.73892
#
# Compressibility (1/GPa) = 0.10664047
#
# Stress axis : x y z
#
# Youngs Moduli (GPa) = 49.94665 41.00968 32.52307
#
# Poissons Ratio (x) = -0.04640 -0.29322
# Poissons Ratio (y) = -0.05651 -0.18201
# Poissons Ratio (z) = -0.45030 -0.22951
#
# Static dielectric constant tensor:
#      x y z
#    x 1.783470 0.000000 -0.050190 
#    y 0.000000 1.778070 0.000000 
#    z -0.050190 0.000000 1.714770 
# 
# From -- ./inp_files/319094.got.cif
#   From: 2010.05.17/outbox.cif.g08.bks.cpg/sg12_160_cif.got.tgz:319094.got - 2010.06.03 13:09:07.
