data_PCOD9219010
_publ_section_title
;
Structure prediction by ZEFSAII (Michael W. Deem and Ramdas Pophale) SiO2 
 PCOD9219010
Probable space group: C 2/M
;
_chemical_formula_sum "Si O2"
_cell_formula_units_Z 46
_cell_length_a 18.545963
_cell_length_b 25.253043
_cell_length_c 11.209821
_cell_angle_alpha 90.000000
_cell_angle_beta 25.618388
_cell_angle_gamma 90.000000
_cell_volume 2269.982523
_symmetry_space_group_name_H-M "C 2/M"
_symmetry_group_IT_number 12
_symmetry_cell_setting 'monoclinic'
loop_
_space_group_symop_operation_xyz
x,y,z
-x,y,-z
-x,-y,-z
x,-y,z
1/2+x,1/2+y,z
1/2-x,1/2+y,-z
1/2-x,1/2-y,-z
1/2+x,1/2-y,z
loop_
_atom_site_type_symbol
_atom_site_label
_atom_site_fract_x
_atom_site_fract_y
_atom_site_fract_z
Si Si1 0.803160 0.854823 0.570806
Si Si2 0.000000 0.000000 0.000000
Si Si3 0.244921 0.402532 0.397672
Si Si4 0.091503 0.560169 0.993671
Si Si5 0.869605 0.315643 0.604924
Si Si6 0.048221 0.770249 0.177679
Si Si7 0.500000 0.772649 0.000000
O O1 0.806178 0.879873 0.433985
O O2 0.745090 0.900128 0.748533
O O3 0.971319 0.823603 0.346861
O O4 0.656721 0.810805 0.788823
O O5 0.144083 0.953197 0.796550
O O6 0.240922 0.356808 0.304680
O O7 0.051367 0.418988 0.705675
O O8 0.140258 0.500000 0.947371
O O9 0.000000 0.560244 0.000000
O O10 0.000000 0.342315 0.500000
O O11 0.978675 0.279574 0.353430
O O12 0.744206 0.277648 0.865363
O O13 0.974045 0.762375 0.155225
#
# Coordination Sequence:
#
# PCOD9219010 Si02
#       7
#     8   2   8   8   8   8   4
#     4  11  19  34  61  91 125 157 194 260 331 375
#     4  12  24  38  64  96 120 150 204 274 326 386
#     4  11  21  38  59  91 126 154 200 261 327 368
#     4   9  17  32  57  85 118 154 188 249 323 377
#     4  12  26  43  60  87 130 178 218 250 294 376
#     4  12  23  39  61  92 125 171 212 257 309 376
#     4  12  18  35  61  92 129 157 200 264 328 372
#
# _framework density 20.264472999999999
#
# number of rings (size 3 to 8) (size 9 to 14) (size 15 to 20)
#    0.000    0.870    6.957    3.130    1.217    0.000 
#    0.000    0.435    0.000    0.000    0.000    1.217 
#    0.000    0.000    0.000    0.000    0.000    0.000 
#
# Total GULP energy -128238.380452 kJ/mol
# GULP energy per Si atom -5575.581759 kJ/mol
# Density = 2.021835 g / cm^3
# Si number density = 20.264473 Si / 1000 Ang^3
#
#
#
# Elastic Constant Matrix: (Units=GPa)
#
#
# Indices 1 2 3 4 5 6 
#
# 1 26.1924 16.8045 21.2354 -0.0117 0.2875 0.0101
# 2 16.8045 111.7156 34.3865 -0.0194 7.3222 0.0081
# 3 21.2354 34.3865 83.1419 -0.0424 9.1744 0.0079
# 4 -0.0117 -0.0194 -0.0424 37.4616 0.0065 -3.6621
# 5 0.2875 7.3222 9.1744 0.0065 8.7548 -0.0108
# 6 0.0101 0.0081 0.0079 -3.6621 -0.0108 4.3484
#
#
#
# Elastic Compliance Matrix: (Units=1/GPa)
#
#
# Indices 1 2 3 4 5 6 
#
# 1 0.051584 -0.004819 -0.012935 -0.000009 0.015892 -0.000055
# 2 -0.004819 0.010879 -0.002580 0.000000 -0.006237 -0.000020
# 3 -0.012935 -0.002580 0.018221 0.000016 -0.016511 -0.000026
# 4 -0.000009 0.000000 0.000016 0.029089 -0.000008 0.024498
# 5 0.015892 -0.006237 -0.016511 -0.000008 0.136220 0.000338
# 6 -0.000055 -0.000020 -0.000026 0.024498 0.000338 0.250602
#
#
# Mechanical properties :
#
#
# Convention : Reuss Voigt Hill
#
# Bulk Modulus (GPa) = 24.99172 40.65587 32.82379
# Shear Modulus (GPa) = 9.08095 20.02119 14.55107
#
# Velocity S-wave (km/s) = 2.11919 3.14665 2.68257
# Velocity P-wave (km/s) = 4.28340 5.77131 5.08210
#
# Compressibility (1/GPa) = 0.04001325
#
# Stress axis : x y z
#
# Youngs Moduli (GPa) = 19.38588 91.91774 54.88281
#
# Poissons Ratio (x) = 0.44299 0.70994
# Poissons Ratio (y) = 0.09343 0.14162
# Poissons Ratio (z) = 0.25077 0.23719
#
# Static dielectric constant tensor:
#      x y z
#    x 1.734460 -0.000020 -0.005350 
#    y -0.000020 1.708680 0.000030 
#    z -0.005350 0.000030 1.778660 
# 
# From -- ./inp_files/123910.got.cif
#   From: 2010.05.17/outbox.cif.g08.bks.cpg/sg12_62_cif.got.tgz:123910.got - 2010.06.03 13:09:07.
