data_PCOD9219592
_publ_section_title
;
Structure prediction by ZEFSAII (Michael W. Deem and Ramdas Pophale) SiO2 
 PCOD9219592
Probable space group: C 2/M
;
_chemical_formula_sum "Si O2"
_cell_formula_units_Z 48
_cell_length_a 18.863361
_cell_length_b 10.396472
_cell_length_c 11.472521
_cell_angle_alpha 90.000000
_cell_angle_beta 111.994868
_cell_angle_gamma 90.000000
_cell_volume 2086.149849
_symmetry_space_group_name_H-M "C 2/M"
_symmetry_group_IT_number 12
_symmetry_cell_setting 'monoclinic'
loop_
_space_group_symop_operation_xyz
x,y,z
-x,y,-z
-x,-y,-z
x,-y,z
1/2+x,1/2+y,z
1/2-x,1/2+y,-z
1/2-x,1/2-y,-z
1/2+x,1/2-y,z
loop_
_atom_site_type_symbol
_atom_site_label
_atom_site_fract_x
_atom_site_fract_y
_atom_site_fract_z
Si Si1 0.655564 0.847507 0.615757
Si Si2 0.496753 0.000000 0.808908
Si Si3 0.520540 0.246846 0.686715
Si Si4 0.360571 0.648597 0.591776
Si Si5 0.307834 0.725501 0.818198
Si Si6 0.631505 0.000000 0.072808
Si Si7 0.061161 0.142959 0.948201
O O1 0.575618 0.797805 0.618484
O O2 0.673278 0.753469 0.518400
O O3 0.721212 0.819777 0.751259
O O4 0.653413 0.000000 0.588223
O O5 0.482924 0.879882 0.717424
O O6 0.435400 0.000000 0.872550
O O7 0.582316 0.000000 0.920856
O O8 0.451782 0.345072 0.623982
O O9 0.568130 0.296608 0.826601
O O10 0.334006 0.500000 0.561533
O O11 0.344126 0.695663 0.713064
O O12 0.319857 0.871576 0.870588
O O13 0.358594 0.644800 0.938668
O O14 0.030651 0.000000 0.910578
O O15 0.000000 0.209080 0.000000
#
# Coordination Sequence:
#
# PCOD9219592 Si02
#       7
#     8   4   8   8   8   4   8
#     4  12  30  48  68  99 143 190 230 282 350 413
#     4  11  20  42  70 107 134 168 231 278 339 413
#     4  12  24  44  72 103 139 176 228 284 342 414
#     4  12  27  48  75 100 134 184 240 290 337 406
#     4  12  25  45  71 103 141 178 231 289 346 414
#     4  11  22  40  75 106 134 177 229 288 341 407
#     4  11  21  40  72 105 135 176 224 285 347 405
#
# _framework density 23.008894000000002
#
# number of rings (size 3 to 8) (size 9 to 14) (size 15 to 20)
#    0.000    0.333    5.833    3.000    3.500    3.333 
#    0.000    0.000    0.000    0.000    0.000    0.000 
#    0.000    0.000    0.000    0.000    0.000    0.000 
#
# Total GULP energy -134187.056489 kJ/mol
# GULP energy per Si atom -5591.127354 kJ/mol
# Density = 2.295652 g / cm^3
# Si number density = 23.008894 Si / 1000 Ang^3
#
#
#
# Elastic Constant Matrix: (Units=GPa)
#
#
# Indices 1 2 3 4 5 6 
#
# 1 74.3427 3.5653 -1.1590 0.0000 11.1496 0.0000
# 2 3.5653 149.7156 21.8720 0.0000 -9.7945 0.0000
# 3 -1.1590 21.8720 68.7716 0.0000 15.3101 0.0000
# 4 0.0000 0.0000 0.0000 34.9859 0.0000 6.5351
# 5 11.1496 -9.7945 15.3101 0.0000 35.5981 0.0000
# 6 0.0000 0.0000 0.0000 6.5351 0.0000 22.7944
#
#
#
# Elastic Compliance Matrix: (Units=1/GPa)
#
#
# Indices 1 2 3 4 5 6 
#
# 1 0.014354 -0.000963 0.001778 0.000000 -0.005526 0.000000
# 2 -0.000963 0.007413 -0.003202 0.000000 0.003718 0.000000
# 3 0.001778 -0.003202 0.017594 0.000000 -0.009005 0.000000
# 4 0.000000 0.000000 0.000000 0.030200 0.000000 -0.008658
# 5 -0.005526 0.003718 -0.009005 0.000000 0.034718 0.000000
# 6 0.000000 0.000000 0.000000 -0.008658 0.000000 0.046353
#
#
# Mechanical properties :
#
#
# Convention : Reuss Voigt Hill
#
# Bulk Modulus (GPa) = 28.91187 37.93183 33.42185
# Shear Modulus (GPa) = 29.95194 36.57911 33.26552
#
# Velocity S-wave (km/s) = 3.61190 3.99153 3.80645
# Velocity P-wave (km/s) = 5.47606 6.14529 5.82030
#
# Compressibility (1/GPa) = 0.03458787
#
# Stress axis : x y z
#
# Youngs Moduli (GPa) = 69.66781 134.89331 56.83823
#
# Poissons Ratio (x) = 0.12992 -0.10108
# Poissons Ratio (y) = 0.06710 0.18198
# Poissons Ratio (z) = -0.12389 0.43189
#
# Static dielectric constant tensor:
#      x y z
#    x 1.879220 0.000000 0.020750 
#    y 0.000000 1.944200 0.000000 
#    z 0.020750 0.000000 1.872810 
# 
# From -- ./inp_files/154339.got.cif
#   From: 2010.05.17/outbox.cif.g08.bks.cpg/sg12_78_cif.got.tgz:154339.got - 2010.06.03 13:09:07.
