data_PCOD9219959
_publ_section_title
;
Structure prediction by ZEFSAII (Michael W. Deem and Ramdas Pophale) SiO2 
 PCOD9219959
Probable space group: C 2/M
;
_chemical_formula_sum "Si O2"
_cell_formula_units_Z 56
_cell_length_a 17.715712
_cell_length_b 27.204527
_cell_length_c 8.988787
_cell_angle_alpha 90.000000
_cell_angle_beta 44.052891
_cell_angle_gamma 90.000000
_cell_volume 3012.221620
_symmetry_space_group_name_H-M "C 2/M"
_symmetry_group_IT_number 12
_symmetry_cell_setting 'monoclinic'
loop_
_space_group_symop_operation_xyz
x,y,z
-x,y,-z
-x,-y,-z
x,-y,z
1/2+x,1/2+y,z
1/2-x,1/2+y,-z
1/2-x,1/2-y,-z
1/2+x,1/2-y,z
loop_
_atom_site_type_symbol
_atom_site_label
_atom_site_fract_x
_atom_site_fract_y
_atom_site_fract_z
Si Si1 0.108509 0.347011 0.937847
Si Si2 0.972521 0.189533 0.692656
Si Si3 0.833487 0.556851 0.657636
Si Si4 0.109108 0.296050 0.258716
Si Si5 0.198348 0.198383 0.526848
Si Si6 0.053137 0.556955 0.179250
Si Si7 0.195640 0.848841 0.847041
O O1 0.214299 0.331544 0.695197
O O2 0.111808 0.319447 0.091494
O O3 0.097583 0.404399 0.997536
O O4 0.000000 0.333024 0.000000
O O5 0.901261 0.237476 0.749572
O O6 0.000000 0.162599 0.500000
O O7 0.085950 0.207034 0.600931
O O8 0.907287 0.157684 0.901919
O O9 0.802909 0.500000 0.679647
O O10 0.882514 0.561247 0.755156
O O11 0.739370 0.596064 0.778036
O O12 0.929309 0.568568 0.403810
O O13 0.209499 0.315200 0.213210
O O14 0.000000 0.311887 0.500000
O O15 0.250000 0.250000 0.500000
O O16 0.173750 0.170015 0.713483
O O17 0.058874 0.500000 0.123437
#
# Coordination Sequence:
#
# PCOD9219959 Si02
#       7
#     8   8   8   8   8   8   8
#     4  12  22  34  57  88 120 157 198 244 297 361
#     4  11  24  40  58  84 116 156 203 247 296 350
#     4   9  18  35  62  92 119 153 196 245 303 362
#     4  11  21  37  58  85 116 154 201 245 295 354
#     4  12  25  41  57  85 124 161 201 248 299 351
#     4   9  18  34  56  87 124 153 189 246 306 361
#     4  12  22  39  64  84 116 161 202 243 297 359
#
# _framework density 18.590928999999999
#
# number of rings (size 3 to 8) (size 9 to 14) (size 15 to 20)
#    0.000    1.143    1.429    8.571    0.000    0.286 
#    0.000    0.714    0.000    3.000    0.000    0.000 
#    0.000    0.000    0.000    0.000    0.000    0.000 
#
# Total GULP energy -156561.156910 kJ/mol
# GULP energy per Si atom -5591.469890 kJ/mol
# Density = 1.854862 g / cm^3
# Si number density = 18.590929 Si / 1000 Ang^3
#
#
#
# Elastic Constant Matrix: (Units=GPa)
#
#
# Indices 1 2 3 4 5 6 
#
# 1 56.4169 10.1635 13.6190 0.0000 8.9072 0.0000
# 2 10.1635 98.0392 54.4233 0.0000 2.1264 0.0000
# 3 13.6190 54.4233 130.5399 0.0000 18.3367 0.0000
# 4 0.0000 0.0000 0.0000 32.0424 0.0000 0.2388
# 5 8.9072 2.1264 18.3367 0.0000 31.8869 0.0000
# 6 0.0000 0.0000 0.0000 0.2388 0.0000 24.0411
#
#
#
# Elastic Compliance Matrix: (Units=1/GPa)
#
#
# Indices 1 2 3 4 5 6 
#
# 1 0.018913 -0.001477 -0.000684 0.000000 -0.004791 0.000000
# 2 -0.001477 0.013572 -0.005913 0.000000 0.002908 0.000000
# 3 -0.000684 -0.005913 0.011004 0.000000 -0.005742 0.000000
# 4 0.000000 0.000000 0.000000 0.031211 0.000000 -0.000310
# 5 -0.004791 0.002908 -0.005742 0.000000 0.035807 0.000000
# 6 0.000000 0.000000 0.000000 -0.000310 0.000000 0.041599
#
#
# Mechanical properties :
#
#
# Convention : Reuss Voigt Hill
#
# Bulk Modulus (GPa) = 36.57551 49.04528 42.81039
# Shear Modulus (GPa) = 28.19010 31.38009 29.78509
#
# Velocity S-wave (km/s) = 3.89824 4.11289 4.00700
# Velocity P-wave (km/s) = 6.32284 6.99951 6.66976
#
# Compressibility (1/GPa) = 0.02734070
#
# Stress axis : x y z
#
# Youngs Moduli (GPa) = 52.87401 73.67940 90.87945
#
# Poissons Ratio (x) = 0.10881 0.06221
# Poissons Ratio (y) = 0.07808 0.53735
# Poissons Ratio (z) = 0.03619 0.43565
#
# Static dielectric constant tensor:
#      x y z
#    x 1.643160 0.000000 0.012320 
#    y 0.000000 1.642120 0.000000 
#    z 0.012320 0.000000 1.645920 
# 
# From -- ./inp_files/53186.got.cif
#   From: 2010.05.17/outbox.cif.g08.bks.cpg/sg12_27_cif.got.tgz:53186.got - 2010.06.03 13:09:07.
