data_PCOD9219040
_publ_section_title
;
Structure prediction by ZEFSAII (Michael W. Deem and Ramdas Pophale) SiO2 
 PCOD9219040
Probable space group: C 2/M
;
_chemical_formula_sum "Si O2"
_cell_formula_units_Z 56
_cell_length_a 10.386248
_cell_length_b 31.915458
_cell_length_c 10.898851
_cell_angle_alpha 90.000000
_cell_angle_beta 56.765760
_cell_angle_gamma 90.000000
_cell_volume 3021.855472
_symmetry_space_group_name_H-M "C 2/M"
_symmetry_group_IT_number 12
_symmetry_cell_setting 'monoclinic'
loop_
_space_group_symop_operation_xyz
x,y,z
-x,y,-z
-x,-y,-z
x,-y,z
1/2+x,1/2+y,z
1/2-x,1/2+y,-z
1/2-x,1/2-y,-z
1/2+x,1/2-y,z
loop_
_atom_site_type_symbol
_atom_site_label
_atom_site_fract_x
_atom_site_fract_y
_atom_site_fract_z
Si Si1 0.918375 0.666011 0.173666
Si Si2 0.463529 0.590078 0.376088
Si Si3 0.142936 0.452620 0.496094
Si Si4 0.747618 0.050001 0.902817
Si Si5 0.554761 0.684607 0.338931
Si Si6 0.482840 0.924318 0.194799
Si Si7 0.065362 0.245452 0.103807
O O1 0.736796 0.673605 0.252019
O O2 0.950990 0.624762 0.236172
O O3 0.993706 0.709442 0.176015
O O4 0.000000 0.656568 0.000000
O O5 0.500000 0.578024 0.500000
O O6 0.300587 0.572325 0.419447
O O7 0.593910 0.571312 0.219270
O O8 0.469055 0.640249 0.369192
O O9 0.169549 0.500000 0.436130
O O10 0.000000 0.432393 0.500000
O O11 0.076587 0.453138 0.666823
O O12 0.628759 0.063023 0.858338
O O13 0.762404 0.000000 0.901787
O O14 0.659959 0.067262 0.068408
O O15 0.500000 0.702646 0.500000
O O16 0.529013 0.713177 0.232577
O O17 0.250000 0.250000 0.000000
O O18 0.000000 0.235288 0.000000
#
# Coordination Sequence:
#
# PCOD9219040 Si02
#       7
#     8   8   8   8   8   8   8
#     4  11  19  39  64  88 124 163 202 252 323 367
#     4  11  21  39  64  90 121 162 208 261 304 368
#     4  11  24  42  59  84 129 173 202 245 314 379
#     4  11  20  30  58  96 116 144 205 264 295 347
#     4  11  22  41  65  94 126 159 211 266 320 360
#     4  11  19  36  59  88 121 161 202 255 305 364
#     4  11  23  42  68  92 123 167 213 255 310 395
#
# _framework density 18.531662000000001
#
# number of rings (size 3 to 8) (size 9 to 14) (size 15 to 20)
#    0.000    1.000    7.143    3.000    0.000    1.143 
#    2.571    1.429    0.000    2.571    0.000    0.000 
#    0.000    0.000    0.000    0.000    0.000    0.000 
#
# Total GULP energy -156166.426301 kJ/mol
# GULP energy per Si atom -5577.372368 kJ/mol
# Density = 1.848948 g / cm^3
# Si number density = 18.531662 Si / 1000 Ang^3
#
#
#
# Elastic Constant Matrix: (Units=GPa)
#
#
# Indices 1 2 3 4 5 6 
#
# 1 102.3730 34.6973 31.9643 0.0000 -12.4667 0.0000
# 2 34.6973 107.8657 15.6823 0.0000 8.1269 0.0000
# 3 31.9643 15.6823 81.1227 0.0000 -9.4149 0.0000
# 4 0.0000 0.0000 0.0000 28.3180 0.0000 0.8082
# 5 -12.4667 8.1269 -9.4149 0.0000 16.2700 0.0000
# 6 0.0000 0.0000 0.0000 0.8082 0.0000 20.6400
#
#
#
# Elastic Compliance Matrix: (Units=1/GPa)
#
#
# Indices 1 2 3 4 5 6 
#
# 1 0.013738 -0.004787 -0.003204 0.000000 0.011064 0.000000
# 2 -0.004787 0.011839 -0.001624 0.000000 -0.010521 0.000000
# 3 -0.003204 -0.001624 0.014700 0.000000 0.006862 0.000000
# 4 0.000000 0.000000 0.000000 0.035353 0.000000 -0.001384
# 5 0.011064 -0.010521 0.006862 0.000000 0.079167 0.000000
# 6 0.000000 0.000000 0.000000 -0.001384 0.000000 0.048504
#
#
# Mechanical properties :
#
#
# Convention : Reuss Voigt Hill
#
# Bulk Modulus (GPa) = 47.50916 50.67214 49.09065
# Shear Modulus (GPa) = 21.78214 26.98010 24.38112
#
# Velocity S-wave (km/s) = 3.43213 3.81976 3.63112
# Velocity P-wave (km/s) = 6.43416 6.84521 6.64287
#
# Compressibility (1/GPa) = 0.02104857
#
# Stress axis : x y z
#
# Youngs Moduli (GPa) = 72.78901 84.46377 68.02879
#
# Poissons Ratio (x) = 0.40433 0.21795
# Poissons Ratio (y) = 0.34844 0.11045
# Poissons Ratio (z) = 0.23320 0.13714
#
# Static dielectric constant tensor:
#      x y z
#    x 1.717700 0.000000 0.085730 
#    y 0.000000 1.652380 0.000000 
#    z 0.085730 0.000000 1.741150 
# 
# From -- ./inp_files/125588.got.cif
#   From: 2010.05.17/outbox.cif.g08.bks.cpg/sg12_63_cif.got.tgz:125588.got - 2010.06.03 13:09:07.
