data_PCOD9219207
_publ_section_title
;
Structure prediction by ZEFSAII (Michael W. Deem and Ramdas Pophale) SiO2 
 PCOD9219207
Probable space group: C 2/M
;
_chemical_formula_sum "Si O2"
_cell_formula_units_Z 56
_cell_length_a 19.870016
_cell_length_b 8.942858
_cell_length_c 25.204107
_cell_angle_alpha 90.000000
_cell_angle_beta 46.695257
_cell_angle_gamma 90.000000
_cell_volume 3259.175744
_symmetry_space_group_name_H-M "C 2/M"
_symmetry_group_IT_number 12
_symmetry_cell_setting 'monoclinic'
loop_
_space_group_symop_operation_xyz
x,y,z
-x,y,-z
-x,-y,-z
x,-y,z
1/2+x,1/2+y,z
1/2-x,1/2+y,-z
1/2-x,1/2-y,-z
1/2+x,1/2-y,z
loop_
_atom_site_type_symbol
_atom_site_label
_atom_site_fract_x
_atom_site_fract_y
_atom_site_fract_z
Si Si1 0.797804 0.681677 0.808281
Si Si2 0.988259 0.679854 0.317523
Si Si3 0.052579 0.179032 0.553111
Si Si4 0.524593 0.179747 0.795880
Si Si5 0.808463 0.679991 0.921332
Si Si6 0.805278 0.820729 0.240605
Si Si7 0.643763 0.680079 0.396271
O O1 0.798214 0.500000 0.808512
O O2 0.903441 0.726530 0.738116
O O3 0.775844 0.729527 0.880144
O O4 0.729434 0.730271 0.798808
O O5 0.985378 0.500000 0.322234
O O6 0.955097 0.722551 0.276514
O O7 0.936056 0.747624 0.395857
O O8 0.123679 0.223071 0.468172
O O9 0.950185 0.215661 0.585517
O O10 0.056728 0.000000 0.555816
O O11 0.417626 0.217077 0.865338
O O12 0.595936 0.257251 0.796279
O O13 0.533709 0.000000 0.794358
O O14 0.801260 0.500000 0.927539
O O15 0.750000 0.750000 0.000000
O O16 0.729751 0.760364 0.323114
O O17 0.806225 0.000000 0.240936
O O18 0.656040 0.500000 0.387653
#
# Coordination Sequence:
#
# PCOD9219207 Si02
#       7
#     8   8   8   8   8   8   8
#     4   8  16  31  51  75 101 130 163 203 250 293
#     4   9  16  31  52  71  95 131 173 212 250 297
#     4   9  17  29  47  72 100 131 169 213 257 298
#     4   9  20  36  53  73 104 140 163 197 258 307
#     4   9  18  36  59  79 102 131 164 201 243 296
#     4  11  20  32  52  77 102 131 172 214 247 293
#     4   9  18  31  46  69 104 138 164 204 263 307
#
# _framework density 17.182257
#
# number of rings (size 3 to 8) (size 9 to 14) (size 15 to 20)
#    0.000    2.857    1.429    3.000    0.000    1.714 
#    0.000    6.429    0.000    4.286    0.000    0.000 
#    0.000    0.000    0.000    0.000    0.000    0.000 
#
# Total GULP energy -156050.307249 kJ/mol
# GULP energy per Si atom -5573.225259 kJ/mol
# Density = 1.714315 g / cm^3
# Si number density = 17.182257 Si / 1000 Ang^3
#
#
#
# Elastic Constant Matrix: (Units=GPa)
#
#
# Indices 1 2 3 4 5 6 
#
# 1 120.7937 31.3945 59.9044 0.0000 14.9527 0.0001
# 2 31.3945 15.5193 30.3242 0.0000 1.4094 0.0002
# 3 59.9044 30.3242 124.2991 0.0000 23.3074 0.0000
# 4 0.0000 0.0000 0.0000 32.2230 0.0000 1.3266
# 5 14.9527 1.4094 23.3074 0.0000 19.8180 0.0000
# 6 0.0001 0.0002 0.0000 1.3266 0.0000 25.3987
#
#
#
# Elastic Compliance Matrix: (Units=1/GPa)
#
#
# Indices 1 2 3 4 5 6 
#
# 1 0.022073 -0.056666 0.007125 0.000000 -0.021003 0.000000
# 2 -0.056666 0.289625 -0.060942 0.000000 0.093828 -0.000002
# 3 0.007125 -0.060942 0.025240 0.000000 -0.030726 0.000000
# 4 0.000000 0.000000 0.000000 0.031101 0.000000 -0.001624
# 5 -0.021003 0.093828 -0.030726 0.000000 0.095769 -0.000001
# 6 0.000000 -0.000002 0.000000 -0.001624 -0.000001 0.039457
#
#
# Mechanical properties :
#
#
# Convention : Reuss Voigt Hill
#
# Bulk Modulus (GPa) = 8.62277 55.98426 32.30351
# Shear Modulus (GPa) = 6.55405 24.75388 15.65396
#
# Velocity S-wave (km/s) = 1.95517 3.79973 3.02164
# Velocity P-wave (km/s) = 3.18218 7.20444 5.56912
#
# Compressibility (1/GPa) = 0.11597208
#
# Stress axis : x y z
#
# Youngs Moduli (GPa) = 45.30483 3.45274 39.61956
#
# Poissons Ratio (x) = 0.19565 -0.28229
# Poissons Ratio (y) = 2.56726 2.41448
# Poissons Ratio (z) = -0.32280 0.21042
#
# Static dielectric constant tensor:
#      x y z
#    x 1.590500 0.000000 0.014730 
#    y 0.000000 1.575830 0.000000 
#    z 0.014730 0.000000 1.569310 
# 
# From -- ./inp_files/280177.got.cif
#   From: 2010.05.17/outbox.cif.g08.bks.cpg/sg12_141_cif.got.tgz:280177.got - 2010.06.03 13:09:07.
