data_PCOD9219885
_publ_section_title
;
Structure prediction by ZEFSAII (Michael W. Deem and Ramdas Pophale) SiO2 
 PCOD9219885
Probable space group: C 2/M
;
_chemical_formula_sum "Si O2"
_cell_formula_units_Z 56
_cell_length_a 24.289722
_cell_length_b 8.362196
_cell_length_c 32.668548
_cell_angle_alpha 90.000000
_cell_angle_beta 25.622801
_cell_angle_gamma 90.000000
_cell_volume 2869.479976
_symmetry_space_group_name_H-M "C 2/M"
_symmetry_group_IT_number 12
_symmetry_cell_setting 'monoclinic'
loop_
_space_group_symop_operation_xyz
x,y,z
-x,y,-z
-x,-y,-z
x,-y,z
1/2+x,1/2+y,z
1/2-x,1/2+y,-z
1/2-x,1/2-y,-z
1/2+x,1/2-y,z
loop_
_atom_site_type_symbol
_atom_site_label
_atom_site_fract_x
_atom_site_fract_y
_atom_site_fract_z
Si Si1 0.619250 0.812859 0.181889
Si Si2 0.985569 0.693247 0.576151
Si Si3 0.009354 0.810811 0.810624
Si Si4 0.087680 0.694262 0.902765
Si Si5 0.128404 0.809000 0.266730
Si Si6 0.888386 0.309975 0.970240
Si Si7 0.296111 0.805384 0.632471
O O1 0.530755 0.721988 0.208846
O O2 0.598352 0.761895 0.242616
O O3 0.597373 0.000000 0.191846
O O4 0.764346 0.771731 0.072126
O O5 0.983984 0.500000 0.579299
O O6 0.968290 0.762306 0.632653
O O7 0.867338 0.744865 0.626338
O O8 0.112673 0.741500 0.466429
O O9 0.152003 0.750056 0.724107
O O10 0.911954 0.728480 0.907197
O O11 0.004926 0.000000 0.821424
O O12 0.092298 0.500000 0.899231
O O13 0.231347 0.751012 0.812967
O O14 0.013669 0.744379 0.911496
O O15 0.000000 0.741359 0.000000
O O16 0.134499 0.000000 0.258600
O O17 0.872946 0.500000 0.986350
O O18 0.294638 0.000000 0.633753
#
# Coordination Sequence:
#
# PCOD9219885 Si02
#       7
#     8   8   8   8   8   8   8
#     4  12  25  40  55  77 109 150 193 234 275 326
#     4   9  17  35  61  89 116 145 178 222 277 333
#     4  11  22  38  58  82 110 146 190 232 273 325
#     4   9  17  32  54  79 110 145 177 216 269 325
#     4  11  21  36  57  84 115 149 184 225 279 333
#     4  11  21  37  59  83 112 148 185 228 278 330
#     4   8  17  35  61  87 115 146 181 224 275 329
#
# _framework density 19.515732
#
# number of rings (size 3 to 8) (size 9 to 14) (size 15 to 20)
#    0.000    1.857    1.429    4.714    0.000    0.000 
#    0.000    7.143    0.000    0.000    0.000    0.000 
#    0.000    0.000    0.000    0.000    0.000    0.000 
#
# Total GULP energy -156431.156497 kJ/mol
# GULP energy per Si atom -5586.827018 kJ/mol
# Density = 1.947131 g / cm^3
# Si number density = 19.515732 Si / 1000 Ang^3
#
#
#
# Elastic Constant Matrix: (Units=GPa)
#
#
# Indices 1 2 3 4 5 6 
#
# 1 77.4658 -15.1192 28.4918 0.0006 16.1371 -0.0025
# 2 -15.1192 13.4646 -6.8194 -0.0013 -1.9531 -0.0074
# 3 28.4918 -6.8194 54.0909 0.0007 20.9254 -0.0044
# 4 0.0006 -0.0013 0.0007 17.5166 0.0001 5.7158
# 5 16.1371 -1.9531 20.9254 0.0001 28.1463 0.0037
# 6 -0.0025 -0.0074 -0.0044 5.7158 0.0037 13.5161
#
#
#
# Elastic Compliance Matrix: (Units=1/GPa)
#
#
# Indices 1 2 3 4 5 6 
#
# 1 0.019893 0.018502 -0.005938 -0.000004 -0.005707 0.000015
# 2 0.018502 0.096691 0.005548 -0.000016 -0.008023 0.000067
# 3 -0.005938 0.005548 0.029266 -0.000007 -0.017968 0.000019
# 4 -0.000004 -0.000016 -0.000007 0.066227 0.000010 -0.028007
# 5 -0.005707 -0.008023 -0.017968 0.000010 0.051602 -0.000030
# 6 0.000015 0.000067 0.000019 -0.028007 -0.000030 0.085830
#
#
# Mechanical properties :
#
#
# Convention : Reuss Voigt Hill
#
# Bulk Modulus (GPa) = 5.49229 17.56975 11.53102
# Shear Modulus (GPa) = 13.36985 21.06702 17.21844
#
# Velocity S-wave (km/s) = 2.62024 3.28912 2.97355
# Velocity P-wave (km/s) = 3.46044 4.84219 4.20841
#
# Compressibility (1/GPa) = 0.18207356
#
# Stress axis : x y z
#
# Youngs Moduli (GPa) = 50.26947 10.34225 34.16963
#
# Poissons Ratio (x) = -0.19135 0.20290
# Poissons Ratio (y) = -0.93009 -0.18957
# Poissons Ratio (z) = 0.29850 -0.05738
#
# Static dielectric constant tensor:
#      x y z
#    x 1.679660 0.000000 -0.016260 
#    y 0.000000 1.665960 0.000000 
#    z -0.016260 0.000000 1.669940 
# 
# From -- ./inp_files/380593.got.cif
#   From: 2010.05.17/outbox.cif.g08.bks.cpg/sg12_191_cif.got.tgz:380593.got - 2010.06.03 13:09:07.
