data_PCOD9219561
_publ_section_title
;
Structure prediction by ZEFSAII (Michael W. Deem and Ramdas Pophale) SiO2 
 PCOD9219561
Probable space group: C 2/M
;
_chemical_formula_sum "Si O2"
_cell_formula_units_Z 56
_cell_length_a 11.108298
_cell_length_b 25.645245
_cell_length_c 12.483114
_cell_angle_alpha 90.000000
_cell_angle_beta 46.199175
_cell_angle_gamma 90.000000
_cell_volume 2566.635880
_symmetry_space_group_name_H-M "C 2/M"
_symmetry_group_IT_number 12
_symmetry_cell_setting 'monoclinic'
loop_
_space_group_symop_operation_xyz
x,y,z
-x,y,-z
-x,-y,-z
x,-y,z
1/2+x,1/2+y,z
1/2-x,1/2+y,-z
1/2-x,1/2-y,-z
1/2+x,1/2-y,z
loop_
_atom_site_type_symbol
_atom_site_label
_atom_site_fract_x
_atom_site_fract_y
_atom_site_fract_z
Si Si1 0.689134 0.748032 0.856087
Si Si2 0.276500 0.388054 0.445757
Si Si3 0.188380 0.137750 0.934496
Si Si4 0.200862 0.940706 0.353323
Si Si5 0.664902 0.940606 0.323339
Si Si6 0.651319 0.359420 0.206308
Si Si7 0.325611 0.779628 0.554418
O O1 0.749000 0.697746 0.885977
O O2 0.790153 0.800641 0.809992
O O3 0.696389 0.727726 0.730156
O O4 0.500000 0.759863 0.000000
O O5 0.221463 0.418945 0.584571
O O6 0.300328 0.426774 0.331243
O O7 0.455493 0.361984 0.353967
O O8 0.158840 0.340145 0.486327
O O9 0.302172 0.099552 0.792862
O O10 0.181586 0.125519 0.064227
O O11 0.000000 0.136200 0.000000
O O12 0.233698 0.900576 0.237275
O O13 0.000000 0.941799 0.500000
O O14 0.252336 0.000000 0.299412
O O15 0.500000 0.935776 0.500000
O O16 0.675417 0.000000 0.279182
O O17 0.500000 0.761487 0.500000
O O18 0.250000 0.750000 0.500000
#
# Coordination Sequence:
#
# PCOD9219561 Si02
#       7
#     8   8   8   8   8   8   8
#     4  11  24  44  64  96 137 184 223 278 354 418
#     4  11  20  41  64  97 133 174 227 285 341 418
#     4  11  22  42  64  96 130 172 226 279 341 415
#     4   9  20  38  64  95 130 173 227 290 348 405
#     4  11  24  43  66  96 131 171 216 279 353 409
#     4  11  22  40  65  96 135 180 235 281 345 419
#     4  12  25  41  68 103 139 180 237 290 343 416
#
# _framework density 21.818442999999998
#
# number of rings (size 3 to 8) (size 9 to 14) (size 15 to 20)
#    0.000    1.143    2.857    3.857    0.000    3.714 
#    2.571    0.000    0.000    0.429    0.000    0.000 
#    0.000    0.000    0.000    0.000    0.000    0.000 
#
# Total GULP energy -156513.703976 kJ/mol
# GULP energy per Si atom -5589.775142 kJ/mol
# Density = 2.176878 g / cm^3
# Si number density = 21.818443 Si / 1000 Ang^3
#
#
#
# Elastic Constant Matrix: (Units=GPa)
#
#
# Indices 1 2 3 4 5 6 
#
# 1 56.5871 41.7503 23.3500 0.0000 17.5009 0.0000
# 2 41.7503 175.6116 59.6786 0.0000 8.0066 0.0000
# 3 23.3500 59.6786 81.7840 0.0000 28.5871 0.0000
# 4 0.0000 0.0000 0.0000 2.0848 0.0000 0.7247
# 5 17.5009 8.0066 28.5871 0.0000 48.5009 0.0000
# 6 0.0000 0.0000 0.0000 0.7247 0.0000 19.5886
#
#
#
# Elastic Compliance Matrix: (Units=1/GPa)
#
#
# Indices 1 2 3 4 5 6 
#
# 1 0.024042 -0.005236 -0.000394 0.000000 -0.007578 0.000000
# 2 -0.005236 0.008967 -0.006538 0.000000 0.004263 0.000000
# 3 -0.000394 -0.006538 0.021013 0.000000 -0.011164 0.000000
# 4 0.000000 0.000000 0.000000 0.485912 0.000000 -0.017976
# 5 -0.007578 0.004263 -0.011164 0.000000 0.029229 0.000000
# 6 0.000000 0.000000 0.000000 -0.017976 0.000000 0.051715
#
#
# Mechanical properties :
#
#
# Convention : Reuss Voigt Hill
#
# Bulk Modulus (GPa) = 33.68785 62.61561 48.15173
# Shear Modulus (GPa) = 7.63231 26.64845 17.14038
#
# Velocity S-wave (km/s) = 1.87235 3.49861 2.80588
# Velocity P-wave (km/s) = 4.48864 6.71425 5.71091
#
# Compressibility (1/GPa) = 0.02968429
#
# Stress axis : x y z
#
# Youngs Moduli (GPa) = 41.59447 111.52218 47.58919
#
# Poissons Ratio (x) = 0.58396 0.01876
# Poissons Ratio (y) = 0.21780 0.31115
# Poissons Ratio (z) = 0.01639 0.72916
#
# Static dielectric constant tensor:
#      x y z
#    x 1.903550 0.000000 -0.044890 
#    y 0.000000 1.791900 0.000000 
#    z -0.044890 0.000000 1.806300 
# 
# From -- ./inp_files/136929.got.cif
#   From: 2010.05.17/outbox.cif.g08.bks.cpg/sg12_69_cif.got.tgz:136929.got - 2010.06.03 13:09:07.
