data_PCOD9219071
_publ_section_title
;
Structure prediction by ZEFSAII (Michael W. Deem and Ramdas Pophale) SiO2 
 PCOD9219071
Probable space group: C 2/M
;
_chemical_formula_sum "Si O2"
_cell_formula_units_Z 40
_cell_length_a 19.776492
_cell_length_b 11.707989
_cell_length_c 17.642353
_cell_angle_alpha 90.000000
_cell_angle_beta 29.013821
_cell_angle_gamma 90.000000
_cell_volume 1981.290882
_symmetry_space_group_name_H-M "C 2/M"
_symmetry_group_IT_number 12
_symmetry_cell_setting 'monoclinic'
loop_
_space_group_symop_operation_xyz
x,y,z
-x,y,-z
-x,-y,-z
x,-y,z
1/2+x,1/2+y,z
1/2-x,1/2+y,-z
1/2-x,1/2-y,-z
1/2+x,1/2-y,z
loop_
_atom_site_type_symbol
_atom_site_label
_atom_site_fract_x
_atom_site_fract_y
_atom_site_fract_z
Si Si1 0.000000 0.668762 0.000000
Si Si2 0.016801 0.500000 0.696445
Si Si3 0.887487 0.000000 0.826924
Si Si4 0.630827 0.247871 0.183657
Si Si5 0.236640 0.186831 0.790773
Si Si6 0.553354 0.500000 0.054662
Si Si7 0.579428 0.000000 0.052487
Si Si8 0.219339 0.500000 0.361953
O O1 0.138618 0.732700 0.837648
O O2 0.944344 0.603498 0.981136
O O3 0.940576 0.622655 0.755704
O O4 0.033447 0.500000 0.770279
O O5 0.147438 0.500000 0.513033
O O6 0.945067 0.872280 0.750000
O O7 0.894267 0.000000 0.910953
O O8 0.731126 0.000000 0.943691
O O9 0.682523 0.244949 0.219946
O O10 0.750000 0.250000 0.000000
O O11 0.321079 0.107921 0.650555
O O12 0.123598 0.107176 0.944724
O O13 0.387172 0.500000 0.208700
#
# Coordination Sequence:
#
# PCOD9219071 Si02
#       8
#     4   4   4   8   8   4   4   4
#     4  11  20  35  66  98 126 159 218 271 314 379
#     4  12  25  44  63  94 135 164 212 272 328 389
#     4  12  22  36  66  96 121 163 216 263 318 371
#     4  12  21  39  66  97 124 163 214 270 319 373
#     4  11  19  37  65  92 127 166 216 269 309 376
#     4  11  20  36  60  95 126 163 223 264 306 375
#     4  11  22  38  62 100 124 165 213 269 325 375
#     4  11  25  38  61  95 127 173 213 265 333 380
#
# _framework density 20.188858
#
# number of rings (size 3 to 8) (size 9 to 14) (size 15 to 20)
#    0.000    0.600    8.000    1.800    0.000    1.600 
#    0.000    4.000    0.000    3.600    0.000    0.000 
#    0.000    0.000    0.000    0.000    0.000    0.000 
#
# Total GULP energy -111367.891594 kJ/mol
# GULP energy per Si atom -5568.394580 kJ/mol
# Density = 2.014291 g / cm^3
# Si number density = 20.188858 Si / 1000 Ang^3
#
#
#
# Elastic Constant Matrix: (Units=GPa)
#
#
# Indices 1 2 3 4 5 6 
#
# 1 109.4721 16.8860 7.7607 0.0000 15.3528 0.0000
# 2 16.8860 117.8124 13.3901 0.0000 -1.4818 0.0000
# 3 7.7607 13.3901 59.8158 0.0000 17.3135 0.0000
# 4 0.0000 0.0000 0.0000 6.4949 0.0000 8.8287
# 5 15.3528 -1.4818 17.3135 0.0000 19.0019 0.0000
# 6 0.0000 0.0000 0.0000 8.8287 0.0000 58.5576
#
#
#
# Elastic Compliance Matrix: (Units=1/GPa)
#
#
# Indices 1 2 3 4 5 6 
#
# 1 0.010801 -0.001932 0.002174 0.000000 -0.010859 0.000000
# 2 -0.001932 0.009214 -0.003357 0.000000 0.005338 0.000000
# 3 0.002174 -0.003357 0.024137 0.000000 -0.024011 0.000000
# 4 0.000000 0.000000 0.000000 0.193657 0.000000 -0.029198
# 5 -0.010859 0.005338 -0.024011 0.000000 0.083693 0.000000
# 6 0.000000 0.000000 0.000000 -0.029198 0.000000 0.021479
#
#
# Mechanical properties :
#
#
# Convention : Reuss Voigt Hill
#
# Bulk Modulus (GPa) = 26.36931 40.35264 33.36097
# Shear Modulus (GPa) = 13.81780 33.41512 23.61646
#
# Velocity S-wave (km/s) = 2.61899 4.07274 3.42391
# Velocity P-wave (km/s) = 4.71542 6.49209 5.67373
#
# Compressibility (1/GPa) = 0.03792287
#
# Stress axis : x y z
#
# Youngs Moduli (GPa) = 92.58004 108.53479 41.42974
#
# Poissons Ratio (x) = 0.20967 -0.09007
# Poissons Ratio (y) = 0.17885 0.13908
# Poissons Ratio (z) = -0.20127 0.36434
#
# Static dielectric constant tensor:
#      x y z
#    x 1.709270 0.000000 -0.030580 
#    y 0.000000 1.907580 0.000000 
#    z -0.030580 0.000000 1.689410 
# 
# From -- ./inp_files/283205.got.cif
#   From: 2010.05.17/outbox.cif.g08.bks.cpg/sg12_142_cif.got.tgz:283205.got - 2010.06.03 13:09:07.
