data_PCOD9219305
_publ_section_title
;
Structure prediction by ZEFSAII (Michael W. Deem and Ramdas Pophale) SiO2 
 PCOD9219305
Probable space group: C 2/M
;
_chemical_formula_sum "Si O2"
_cell_formula_units_Z 40
_cell_length_a 10.908729
_cell_length_b 21.092033
_cell_length_c 12.490045
_cell_angle_alpha 90.000000
_cell_angle_beta 34.786875
_cell_angle_gamma 90.000000
_cell_volume 1639.576251
_symmetry_space_group_name_H-M "C 2/M"
_symmetry_group_IT_number 12
_symmetry_cell_setting 'monoclinic'
loop_
_space_group_symop_operation_xyz
x,y,z
-x,y,-z
-x,-y,-z
x,-y,z
1/2+x,1/2+y,z
1/2-x,1/2+y,-z
1/2-x,1/2-y,-z
1/2+x,1/2-y,z
loop_
_atom_site_type_symbol
_atom_site_label
_atom_site_fract_x
_atom_site_fract_y
_atom_site_fract_z
Si Si1 0.130805 0.684975 0.062376
Si Si2 0.150327 0.000000 0.060889
Si Si3 0.297062 0.638425 0.727009
Si Si4 0.000000 0.903667 0.000000
Si Si5 0.634829 0.000000 0.783706
Si Si6 0.073236 0.365999 0.342830
Si Si7 0.819527 0.500000 0.496974
O O1 0.070098 0.658740 0.224366
O O2 0.896784 0.682956 0.175220
O O3 0.250000 0.750000 0.000000
O O4 0.291146 0.649934 0.860675
O O5 0.373938 0.000000 0.962825
O O6 0.138672 0.056957 0.984544
O O7 0.918985 0.000000 0.283207
O O8 0.500000 0.646692 0.500000
O O9 0.221318 0.565500 0.768466
O O10 0.175035 0.867763 0.809783
O O11 0.709744 0.000000 0.607944
O O12 0.000000 0.327776 0.500000
O O13 0.949610 0.434920 0.431007
#
# Coordination Sequence:
#
# PCOD9219305 Si02
#       7
#     8   4   8   4   4   8   4
#     4  11  28  52  77 112 148 202 275 331 380 449
#     4  11  21  35  65 102 168 207 233 296 360 471
#     4  11  27  52  86 117 154 203 258 324 400 471
#     4  11  20  34  64 100 150 214 244 291 370 454
#     4  12  24  46  76 122 159 199 247 316 401 483
#     4  12  24  42  70 114 158 204 254 312 391 471
#     4  12  21  38  68 110 159 202 246 294 386 480
#
# _framework density 24.396547000000002
#
# number of rings (size 3 to 8) (size 9 to 14) (size 15 to 20)
#    0.000    0.600    6.000    1.200    0.000   12.000 
#    0.000    0.000    0.000    0.000    0.000    0.000 
#    0.000    0.000    0.000    0.000    0.000    0.000 
#
# Total GULP energy -111556.749728 kJ/mol
# GULP energy per Si atom -5577.837486 kJ/mol
# Density = 2.434102 g / cm^3
# Si number density = 24.396547 Si / 1000 Ang^3
#
#
#
# Elastic Constant Matrix: (Units=GPa)
#
#
# Indices 1 2 3 4 5 6 
#
# 1 88.5742 60.5087 70.0426 0.0040 22.1516 -0.0132
# 2 60.5087 101.8589 58.0060 0.0007 7.8365 -0.0037
# 3 70.0426 58.0060 273.4576 0.0073 10.1362 -0.0106
# 4 0.0040 0.0007 0.0073 -6.3010 -0.0041 -31.4837
# 5 22.1516 7.8365 10.1362 -0.0041 70.9034 0.0119
# 6 -0.0132 -0.0037 -0.0106 -31.4837 0.0119 39.1044
#
#
#
# Elastic Compliance Matrix: (Units=1/GPa)
#
#
# Indices 1 2 3 4 5 6 
#
# 1 0.023037 -0.011396 -0.003281 -0.000005 -0.005469 0.000004
# 2 -0.011396 0.016861 -0.000724 0.000001 0.001800 -0.000002
# 3 -0.003281 -0.000724 0.004634 0.000001 0.000442 0.000000
# 4 -0.000005 0.000001 0.000001 -0.031596 0.000004 -0.025439
# 5 -0.005469 0.001800 0.000442 0.000004 0.015550 -0.000003
# 6 0.000004 -0.000002 0.000000 -0.025439 -0.000003 0.005091
#
#
# Mechanical properties :
#
#
# Convention : Reuss Voigt Hill
#
# Bulk Modulus (GPa) = 72.83009 93.44506 83.13757
# Shear Modulus (GPa) = 72.50962 39.09692 55.80327
#
# Velocity S-wave (km/s) = 5.45764 4.00754 4.78781
# Velocity P-wave (km/s) = 8.34457 7.73302 8.04461
#
# Compressibility (1/GPa) = 0.01373059
#
# Stress axis : x y z
#
# Youngs Moduli (GPa) = 43.40857 59.30747 215.77711
#
# Poissons Ratio (x) = 0.67587 0.70787
# Poissons Ratio (y) = 0.49469 0.15631
# Poissons Ratio (z) = 0.14240 0.04296
#
# Static dielectric constant tensor:
#      x y z
#    x 2.079080 0.000010 0.183780 
#    y 0.000010 2.016070 0.000050 
#    z 0.183780 0.000050 2.498570 
# 
# From -- ./inp_files/135174.got.cif
#   From: 2010.05.17/outbox.cif.g08.bks.cpg/sg12_68_cif.got.tgz:135174.got - 2010.06.03 13:09:07.
