data_PCOD9219606
_publ_section_title
;
Structure prediction by ZEFSAII (Michael W. Deem and Ramdas Pophale) SiO2 
 PCOD9219606
Probable space group: C 2/M
;
_chemical_formula_sum "Si O2"
_cell_formula_units_Z 36
_cell_length_a 9.407747
_cell_length_b 28.387436
_cell_length_c 6.956214
_cell_angle_alpha 90.000000
_cell_angle_beta 130.581616
_cell_angle_gamma 90.000000
_cell_volume 1410.915866
_symmetry_space_group_name_H-M "C 2/M"
_symmetry_group_IT_number 12
_symmetry_cell_setting 'monoclinic'
loop_
_space_group_symop_operation_xyz
x,y,z
-x,y,-z
-x,-y,-z
x,-y,z
1/2+x,1/2+y,z
1/2-x,1/2+y,-z
1/2-x,1/2-y,-z
1/2+x,1/2-y,z
loop_
_atom_site_type_symbol
_atom_site_label
_atom_site_fract_x
_atom_site_fract_y
_atom_site_fract_z
Si Si1 0.719539 0.897624 0.519388
Si Si2 0.138513 0.000000 0.248285
Si Si3 0.000000 0.321771 0.500000
Si Si4 0.030254 0.758577 0.251899
Si Si5 0.000000 0.842385 0.500000
Si Si6 0.657981 0.500000 0.757939
Si Si7 0.500000 0.071222 0.000000
O O1 0.677097 0.855363 0.623442
O O2 0.869460 0.878246 0.501008
O O3 0.763341 0.948169 0.651672
O O4 0.535597 0.901650 0.226461
O O5 0.082563 0.000000 0.446533
O O6 0.103619 0.000000 0.965878
O O7 0.948771 0.288029 0.278344
O O8 0.250000 0.750000 0.500000
O O9 0.949396 0.804420 0.289301
O O10 0.000000 0.760169 0.000000
O O11 0.808339 0.457419 0.871178
#
# Coordination Sequence:
#
# PCOD9219606 Si02
#       7
#     8   4   4   8   4   4   4
#     4  12  26  49  73 115 156 210 271 323 399 471
#     4  12  28  47  69 104 160 209 260 323 385 469
#     4  11  28  47  74 120 156 199 266 331 394 486
#     4  11  26  53  82 118 160 205 262 338 416 496
#     4  11  26  51  84 116 156 215 264 331 408 498
#     4  11  20  47  70 102 142 203 272 327 397 456
#     4  11  24  40  80 102 146 206 264 338 394 469
#
# _framework density 25.515339000000001
#
# number of rings (size 3 to 8) (size 9 to 14) (size 15 to 20)
#    0.000    0.667    4.444    2.000    4.667    6.667 
#    4.000    0.000    0.000    0.000    0.000    0.000 
#    0.000    0.000    0.000    0.000    0.000    0.000 
#
# Total GULP energy -100479.395204 kJ/mol
# GULP energy per Si atom -5582.188622 kJ/mol
# Density = 2.545727 g / cm^3
# Si number density = 25.515339 Si / 1000 Ang^3
#
#
#
# Elastic Constant Matrix: (Units=GPa)
#
#
# Indices 1 2 3 4 5 6 
#
# 1 133.0562 46.6510 49.4215 0.0000 -17.6518 0.0000
# 2 46.6510 209.1137 85.5075 0.0000 -10.0970 0.0000
# 3 49.4215 85.5075 223.5580 0.0000 -16.6759 0.0000
# 4 0.0000 0.0000 0.0000 6.2185 0.0000 -16.3993
# 5 -17.6518 -10.0970 -16.6759 0.0000 47.0981 0.0000
# 6 0.0000 0.0000 0.0000 -16.3993 0.0000 24.1625
#
#
#
# Elastic Compliance Matrix: (Units=1/GPa)
#
#
# Indices 1 2 3 4 5 6 
#
# 1 0.008783 -0.001327 -0.001242 0.000000 0.002567 0.000000
# 2 -0.001327 0.005879 -0.001950 0.000000 0.000073 0.000000
# 3 -0.001242 -0.001950 0.005575 0.000000 0.001090 0.000000
# 4 0.000000 0.000000 0.000000 -0.203594 0.000000 -0.138180
# 5 0.002567 0.000073 0.001090 0.000000 0.022596 0.000000
# 6 0.000000 0.000000 0.000000 -0.138180 0.000000 -0.052397
#
#
# Mechanical properties :
#
#
# Convention : Reuss Voigt Hill
#
# Bulk Modulus (GPa) = 89.30399 103.20976 96.25688
# Shear Modulus (GPa) = -24.95180 41.10569 8.07695
#
# Velocity S-wave (km/s) = -3.13055 4.01810 1.78112
# Velocity P-wave (km/s) = 4.69137 7.87812 6.48358
#
# Compressibility (1/GPa) = 0.01119771
#
# Stress axis : x y z
#
# Youngs Moduli (GPa) = 113.85496 170.09736 179.37691
#
# Poissons Ratio (x) = 0.22579 0.22287
# Poissons Ratio (y) = 0.15113 0.34974
# Poissons Ratio (z) = 0.14146 0.33165
#
# Static dielectric constant tensor:
#      x y z
#    x 2.204050 0.000000 -0.072600 
#    y 0.000000 2.009180 0.000000 
#    z -0.072600 0.000000 2.160330 
# 
# From -- ./inp_files/7834.got.cif
#   From: 2010.05.17/outbox.cif.g08.bks.cpg/sg12_4_cif.got.tgz:7834.got - 2010.06.03 13:09:07.
