data_PCOD9219846
_publ_section_title
;
Structure prediction by ZEFSAII (Michael W. Deem and Ramdas Pophale) SiO2 
 PCOD9219846
Probable space group: C 2/M
;
_chemical_formula_sum "Si O2"
_cell_formula_units_Z 56
_cell_length_a 14.550646
_cell_length_b 22.604384
_cell_length_c 17.004428
_cell_angle_alpha 90.000000
_cell_angle_beta 31.920473
_cell_angle_gamma 90.000000
_cell_volume 2957.198698
_symmetry_space_group_name_H-M "C 2/M"
_symmetry_group_IT_number 12
_symmetry_cell_setting 'monoclinic'
loop_
_space_group_symop_operation_xyz
x,y,z
-x,y,-z
-x,-y,-z
x,-y,z
1/2+x,1/2+y,z
1/2-x,1/2+y,-z
1/2-x,1/2-y,-z
1/2+x,1/2-y,z
loop_
_atom_site_type_symbol
_atom_site_label
_atom_site_fract_x
_atom_site_fract_y
_atom_site_fract_z
Si Si1 0.688109 0.225408 0.330115
Si Si2 0.281835 0.678426 0.823221
Si Si3 0.347572 0.566443 0.992489
Si Si4 0.448895 0.144831 0.869604
Si Si5 0.595561 0.255266 0.675112
Si Si6 0.332104 0.067499 0.179530
Si Si7 0.657063 0.617072 0.842035
O O1 0.500000 0.241118 0.500000
O O2 0.742812 0.274435 0.228044
O O3 0.822887 0.222275 0.303123
O O4 0.690696 0.160716 0.289629
O O5 0.450847 0.700847 0.746689
O O6 0.293136 0.613641 0.774696
O O7 0.124115 0.677621 0.999720
O O8 0.331750 0.500000 0.974913
O O9 0.216896 0.608723 0.041956
O O10 0.298211 0.571179 0.121467
O O11 0.549537 0.586976 0.849546
O O12 0.513287 0.191717 0.758403
O O13 0.597459 0.099924 0.792783
O O14 0.750000 0.250000 0.500000
O O15 0.270582 0.000000 0.236477
O O16 0.500000 0.063972 0.000000
O O17 0.500000 0.653716 0.000000
#
# Coordination Sequence:
#
# PCOD9219846 Si02
#       7
#     8   8   8   8   8   8   8
#     4  12  23  39  58  84 124 158 189 248 302 355
#     4  11  23  39  58  90 120 156 202 245 297 362
#     4   9  18  35  60  89 119 150 193 248 297 350
#     4  11  21  35  61  92 116 155 202 247 290 359
#     4  12  25  37  58  87 123 161 198 242 307 360
#     4   9  19  36  59  88 120 153 195 250 298 346
#     4   8  20  33  57  89 113 153 192 239 291 357
#
# _framework density 18.936838999999999
#
# number of rings (size 3 to 8) (size 9 to 14) (size 15 to 20)
#    0.857    0.714    2.857    3.429    2.000    0.571 
#    0.000    0.000    0.000    6.429    0.000    0.000 
#    0.000    0.000    0.000    0.000    0.000    0.000 
#
# Total GULP energy -156001.533968 kJ/mol
# GULP energy per Si atom -5571.483356 kJ/mol
# Density = 1.889374 g / cm^3
# Si number density = 18.936839 Si / 1000 Ang^3
#
#
#
# Elastic Constant Matrix: (Units=GPa)
#
#
# Indices 1 2 3 4 5 6 
#
# 1 109.3859 41.8197 20.2597 0.0024 -9.5065 -0.0070
# 2 41.8197 123.2616 43.4452 0.0019 -3.6644 -0.0063
# 3 20.2597 43.4452 58.3439 0.0204 7.9118 -0.0034
# 4 0.0024 0.0019 0.0204 1.3429 -0.0036 0.0078
# 5 -9.5065 -3.6644 7.9118 -0.0036 20.3390 0.0003
# 6 -0.0070 -0.0063 -0.0034 0.0078 0.0003 26.6906
#
#
#
# Elastic Compliance Matrix: (Units=1/GPa)
#
#
# Indices 1 2 3 4 5 6 
#
# 1 0.011160 -0.002675 -0.002666 0.000039 0.005771 0.000002
# 2 -0.002675 0.012246 -0.008783 0.000133 0.004373 0.000001
# 3 -0.002666 -0.008783 0.026381 -0.000419 -0.013091 0.000001
# 4 0.000039 0.000133 -0.000419 0.744667 0.000335 -0.000216
# 5 0.005771 0.004373 -0.013091 0.000335 0.057744 0.000000
# 6 0.000002 0.000001 0.000001 -0.000216 0.000000 0.037466
#
#
# Mechanical properties :
#
#
# Convention : Reuss Voigt Hill
#
# Bulk Modulus (GPa) = 46.42737 55.78228 51.10482
# Shear Modulus (GPa) = 5.40487 22.03896 13.72191
#
# Velocity S-wave (km/s) = 1.69126 3.41517 2.69479
# Velocity P-wave (km/s) = 5.32766 6.71358 6.06037
#
# Compressibility (1/GPa) = 0.02153902
#
# Stress axis : x y z
#
# Youngs Moduli (GPa) = 89.60568 81.65872 37.90619
#
# Poissons Ratio (x) = 0.21845 0.10105
# Poissons Ratio (y) = 0.23971 0.33293
# Poissons Ratio (z) = 0.23888 0.71721
#
# Static dielectric constant tensor:
#      x y z
#    x 1.703030 0.000000 -0.000430 
#    y 0.000000 1.664120 0.000010 
#    z -0.000430 0.000010 1.632870 
# 
# From -- ./inp_files/272328.got.cif
#   From: 2010.05.17/outbox.cif.g08.bks.cpg/sg12_137_cif.got.tgz:272328.got - 2010.06.03 13:09:07.
