data_PCOD9219077
_publ_section_title
;
Structure prediction by ZEFSAII (Michael W. Deem and Ramdas Pophale) SiO2 
 PCOD9219077
Probable space group: C 2/M
;
_chemical_formula_sum "Si O2"
_cell_formula_units_Z 56
_cell_length_a 16.886140
_cell_length_b 23.958711
_cell_length_c 9.729956
_cell_angle_alpha 90.000000
_cell_angle_beta 127.519292
_cell_angle_gamma 90.000000
_cell_volume 3122.188498
_symmetry_space_group_name_H-M "C 2/M"
_symmetry_group_IT_number 12
_symmetry_cell_setting 'monoclinic'
loop_
_space_group_symop_operation_xyz
x,y,z
-x,y,-z
-x,-y,-z
x,-y,z
1/2+x,1/2+y,z
1/2-x,1/2+y,-z
1/2-x,1/2-y,-z
1/2+x,1/2-y,z
loop_
_atom_site_type_symbol
_atom_site_label
_atom_site_fract_x
_atom_site_fract_y
_atom_site_fract_z
Si Si1 0.206455 0.612935 0.224510
Si Si2 0.574986 0.696440 0.963441
Si Si3 0.040074 0.500000 0.390265
Si Si4 0.875944 0.620424 0.573824
Si Si5 0.399200 0.000000 0.982759
Si Si6 0.395216 0.328549 0.314515
Si Si7 0.307791 0.796417 0.259348
Si Si8 0.072602 0.319925 0.886355
O O1 0.201905 0.620174 0.383245
O O2 0.314307 0.627352 0.280243
O O3 0.164554 0.553932 0.126921
O O4 0.128478 0.656787 0.077379
O O5 0.687972 0.704157 0.137416
O O6 0.500000 0.673533 0.000000
O O7 0.586975 0.665980 0.830076
O O8 0.535861 0.757704 0.878331
O O9 0.104627 0.556061 0.441870
O O10 0.000000 0.500000 0.500000
O O11 0.945821 0.500000 0.185061
O O12 0.847446 0.662101 0.419746
O O13 0.981278 0.642163 0.744336
O O14 0.500000 0.000000 0.000000
O O15 0.500000 0.334371 0.500000
O O16 0.350994 0.266791 0.306818
O O17 0.347443 0.818050 0.153577
#
# Coordination Sequence:
#
# PCOD9219077 Si02
#       8
#     8   8   4   8   4   8   8   8
#     4  12  22  39  63  88 122 160 205 251 305 365
#     4  11  22  38  60  87 124 163 208 251 306 372
#     4  12  24  38  60  94 129 160 201 252 310 366
#     4  12  24  35  62  92 126 163 202 249 310 375
#     4  12  22  44  65  94 124 160 206 252 310 372
#     4  11  24  41  60  88 124 164 209 258 302 366
#     4  11  22  39  57  89 129 161 203 252 310 371
#     4  11  19  38  57  87 121 163 198 245 306 368
#
# _framework density 17.936136999999999
#
# number of rings (size 3 to 8) (size 9 to 14) (size 15 to 20)
#    0.000    0.571    5.714    5.143    2.000    0.571 
#    0.000    0.357    0.000    0.000    0.000    1.000 
#    0.000    0.000    0.000    0.000    0.000    0.000 
#
# Total GULP energy -156415.637802 kJ/mol
# GULP energy per Si atom -5586.272779 kJ/mol
# Density = 1.789531 g / cm^3
# Si number density = 17.936137 Si / 1000 Ang^3
#
#
#
# Elastic Constant Matrix: (Units=GPa)
#
#
# Indices 1 2 3 4 5 6 
#
# 1 143.5695 51.2125 48.6392 0.0000 -10.4058 0.0000
# 2 51.2125 75.5065 27.0382 0.0000 -6.7791 0.0000
# 3 48.6392 27.0382 87.1460 0.0000 -8.3698 0.0000
# 4 0.0000 0.0000 0.0000 24.8643 0.0000 -0.6776
# 5 -10.4058 -6.7791 -8.3698 0.0000 43.0580 0.0000
# 6 0.0000 0.0000 0.0000 -0.6776 0.0000 19.3005
#
#
#
# Elastic Compliance Matrix: (Units=1/GPa)
#
#
# Indices 1 2 3 4 5 6 
#
# 1 0.010342 -0.005512 -0.003980 0.000000 0.000858 0.000000
# 2 -0.005512 0.017930 -0.002388 0.000000 0.001027 0.000000
# 3 -0.003980 -0.002388 0.014581 0.000000 0.001497 0.000000
# 4 0.000000 0.000000 0.000000 0.040257 0.000000 0.001413
# 5 0.000858 0.001027 0.001497 0.000000 0.023884 0.000000
# 6 0.000000 0.000000 0.000000 0.001413 0.000000 0.051862
#
#
# Mechanical properties :
#
#
# Convention : Reuss Voigt Hill
#
# Bulk Modulus (GPa) = 52.37464 62.22243 57.29853
# Shear Modulus (GPa) = 26.45796 29.40004 27.92900
#
# Velocity S-wave (km/s) = 3.84490 4.05304 3.95034
# Velocity P-wave (km/s) = 6.99821 7.52790 7.26788
#
# Compressibility (1/GPa) = 0.01909321
#
# Stress axis : x y z
#
# Youngs Moduli (GPa) = 96.69339 55.77277 68.58406
#
# Poissons Ratio (x) = 0.30744 0.27293
# Poissons Ratio (y) = 0.53301 0.16376
# Poissons Ratio (z) = 0.38479 0.13317
#
# Static dielectric constant tensor:
#      x y z
#    x 1.642440 0.000000 0.014810 
#    y 0.000000 1.490090 0.000000 
#    z 0.014810 0.000000 1.700690 
# 
# From -- ./inp_files/65819.got.cif
#   From: 2010.05.17/outbox.cif.g08.bks.cpg/sg12_33_cif.got.tgz:65819.got - 2010.06.03 13:09:07.
