data_PCOD9219462
_publ_section_title
;
Structure prediction by ZEFSAII (Michael W. Deem and Ramdas Pophale) SiO2 
 PCOD9219462
Probable space group: C 2/M
;
_chemical_formula_sum "Si O2"
_cell_formula_units_Z 36
_cell_length_a 17.656760
_cell_length_b 9.876208
_cell_length_c 15.602175
_cell_angle_alpha 90.000000
_cell_angle_beta 150.610425
_cell_angle_gamma 90.000000
_cell_volume 1335.188157
_symmetry_space_group_name_H-M "C 2/M"
_symmetry_group_IT_number 12
_symmetry_cell_setting 'monoclinic'
loop_
_space_group_symop_operation_xyz
x,y,z
-x,y,-z
-x,-y,-z
x,-y,z
1/2+x,1/2+y,z
1/2-x,1/2+y,-z
1/2-x,1/2-y,-z
1/2+x,1/2-y,z
loop_
_atom_site_type_symbol
_atom_site_label
_atom_site_fract_x
_atom_site_fract_y
_atom_site_fract_z
Si Si1 0.844895 0.296190 0.798351
Si Si2 0.250300 0.500000 0.736503
Si Si3 0.714884 0.850999 0.087794
Si Si4 0.272152 0.500000 0.465165
Si Si5 0.004830 0.777691 0.755189
Si Si6 0.974776 0.500000 0.330911
O O1 0.723658 0.329770 0.756041
O O2 0.797059 0.380226 0.668654
O O3 0.838915 0.134581 0.795833
O O4 0.000000 0.343555 0.000000
O O5 0.186542 0.500000 0.773564
O O6 0.101026 0.500000 0.528815
O O7 0.858764 0.842070 0.166830
O O8 0.649518 0.000000 0.013076
O O9 0.584122 0.747647 0.925563
O O10 0.363737 0.379557 0.609999
O O11 0.991707 0.629736 0.696505
#
# Coordination Sequence:
#
# PCOD9219462 Si02
#       6
#     8   4   8   4   8   4
#     4  12  26  44  67  94 134 178 230 268 315 387
#     4  11  23  39  66  97 126 165 213 273 333 380
#     4  11  23  39  67 100 132 170 210 273 340 391
#     4  12  25  42  68  99 131 177 227 273 318 392
#     4  11  23  40  66  99 134 163 213 276 341 391
#     4  11  20  38  64 100 127 156 209 279 332 392
#
# _framework density 26.962492000000001
#
# number of rings (size 3 to 8) (size 9 to 14) (size 15 to 20)
#    0.000    0.667    7.778    0.667    0.000    2.667 
#    0.000    1.111    4.889    0.000    0.000    0.000 
#    0.000    0.000    0.000    0.000    0.000    0.000 
#
# Total GULP energy -100300.168292 kJ/mol
# GULP energy per Si atom -5572.231572 kJ/mol
# Density = 2.690112 g / cm^3
# Si number density = 26.962492 Si / 1000 Ang^3
#
#
#
# Elastic Constant Matrix: (Units=GPa)
#
#
# Indices 1 2 3 4 5 6 
#
# 1 109.3235 31.6213 27.2257 0.0000 -14.7738 0.0000
# 2 31.6213 230.4236 26.8857 -0.0001 6.1170 0.0000
# 3 27.2257 26.8857 82.4742 -0.0002 -11.0200 0.0000
# 4 0.0000 -0.0001 -0.0002 14.4405 -0.0001 -54.6190
# 5 -14.7738 6.1170 -11.0200 -0.0001 31.7578 0.0000
# 6 0.0000 0.0000 0.0000 -54.6190 0.0000 -48.5268
#
#
#
# Elastic Compliance Matrix: (Units=1/GPa)
#
#
# Indices 1 2 3 4 5 6 
#
# 1 0.010744 -0.001294 -0.002542 0.000000 0.004365 0.000000
# 2 -0.001294 0.004731 -0.001382 0.000000 -0.001993 0.000000
# 3 -0.002542 -0.001382 0.013938 0.000000 0.003920 0.000000
# 4 0.000000 0.000000 0.000000 0.013172 0.000000 -0.014826
# 5 0.004365 -0.001993 0.003920 0.000000 0.035263 0.000000
# 6 0.000000 0.000000 0.000000 -0.014826 0.000000 -0.003920
#
#
# Mechanical properties :
#
#
# Convention : Reuss Voigt Hill
#
# Bulk Modulus (GPa) = 52.68744 65.96517 59.32631
# Shear Modulus (GPa) = 55.13245 21.96688 38.54967
#
# Velocity S-wave (km/s) = 4.52683 2.85743 3.78531
# Velocity P-wave (km/s) = 6.84882 5.95022 6.41528
#
# Compressibility (1/GPa) = 0.01897985
#
# Stress axis : x y z
#
# Youngs Moduli (GPa) = 93.07241 211.35044 71.74494
#
# Poissons Ratio (x) = 0.27344 0.18236
# Poissons Ratio (y) = 0.12041 0.09912
# Poissons Ratio (z) = 0.23657 0.29200
#
# Static dielectric constant tensor:
#      x y z
#    x 2.426630 0.000000 0.121270 
#    y 0.000000 2.153360 0.000000 
#    z 0.121270 0.000000 2.051330 
# 
# From -- ./inp_files/282357.got.cif
#   From: 2010.05.17/outbox.cif.g08.bks.cpg/sg12_142_cif.got.tgz:282357.got - 2010.06.03 13:09:07.
