data_PCOD9219278
_publ_section_title
;
Structure prediction by ZEFSAII (Michael W. Deem and Ramdas Pophale) SiO2 
 PCOD9219278
Probable space group: C 2/M
;
_chemical_formula_sum "Si O2"
_cell_formula_units_Z 56
_cell_length_a 16.318406
_cell_length_b 15.753052
_cell_length_c 16.130398
_cell_angle_alpha 90.000000
_cell_angle_beta 138.960984
_cell_angle_gamma 90.000000
_cell_volume 2722.515823
_symmetry_space_group_name_H-M "C 2/M"
_symmetry_group_IT_number 12
_symmetry_cell_setting 'monoclinic'
loop_
_space_group_symop_operation_xyz
x,y,z
-x,y,-z
-x,-y,-z
x,-y,z
1/2+x,1/2+y,z
1/2-x,1/2+y,-z
1/2-x,1/2-y,-z
1/2+x,1/2-y,z
loop_
_atom_site_type_symbol
_atom_site_label
_atom_site_fract_x
_atom_site_fract_y
_atom_site_fract_z
Si Si1 0.936291 0.260704 0.261196
Si Si2 0.324492 0.000000 0.292080
Si Si3 0.159533 0.721790 0.079285
Si Si4 0.919115 0.136304 0.110272
Si Si5 0.841511 0.147807 0.791957
Si Si6 0.639764 0.094558 0.929809
Si Si7 0.316782 0.183116 0.490588
Si Si8 0.608565 0.000000 0.459240
O O1 0.808870 0.227587 0.203319
O O2 0.977954 0.181903 0.235384
O O3 0.911347 0.340301 0.179386
O O4 0.040124 0.286236 0.406044
O O5 0.240088 0.916124 0.213501
O O6 0.456848 0.000000 0.346501
O O7 0.353954 0.000000 0.413580
O O8 0.113728 0.766711 0.127748
O O9 0.132868 0.787716 0.985532
O O10 0.118901 0.634096 0.006015
O O11 0.035552 0.099766 0.148222
O O12 0.791095 0.090109 0.035069
O O13 0.755388 0.176737 0.650574
O O14 0.588155 0.000000 0.881918
O O15 0.250000 0.250000 0.500000
O O16 0.332852 0.085608 0.533315
#
# Coordination Sequence:
#
# PCOD9219278 Si02
#       8
#     8   4   8   8   8   8   8   4
#     4   9  18  35  54  80 110 145 196 225 277 347
#     4   9  20  34  51  82 114 149 177 230 293 333
#     4   9  19  35  54  77 112 152 187 232 276 339
#     4   9  18  34  53  80 113 143 188 233 271 337
#     4  11  20  34  55  83 118 150 185 235 288 342
#     4   9  19  35  60  84 108 151 189 235 285 331
#     4  11  21  35  58  83 111 157 193 233 295 342
#     4   9  20  36  52  78 122 143 189 234 268 358
#
# _framework density 20.569210999999999
#
# number of rings (size 3 to 8) (size 9 to 14) (size 15 to 20)
#    0.000    2.429    1.429    3.000    2.000    1.714 
#    5.143    0.714    1.571    6.857    0.000    4.000 
#    0.000    0.000    0.000    0.000    0.000    0.000 
#
# Total GULP energy -156004.476733 kJ/mol
# GULP energy per Si atom -5571.588455 kJ/mol
# Density = 2.052239 g / cm^3
# Si number density = 20.569211 Si / 1000 Ang^3
#
#
#
# Elastic Constant Matrix: (Units=GPa)
#
#
# Indices 1 2 3 4 5 6 
#
# 1 60.0079 34.7548 12.0514 0.0000 5.4917 0.0000
# 2 34.7548 96.7236 -4.4960 0.0000 -3.3508 0.0000
# 3 12.0514 -4.4960 77.7442 0.0000 7.7815 0.0000
# 4 0.0000 0.0000 0.0000 17.2485 0.0000 0.0490
# 5 5.4917 -3.3508 7.7815 0.0000 20.0967 0.0000
# 6 0.0000 0.0000 0.0000 0.0490 0.0000 21.5108
#
#
#
# Elastic Compliance Matrix: (Units=1/GPa)
#
#
# Indices 1 2 3 4 5 6 
#
# 1 0.022924 -0.008617 -0.003413 0.000000 -0.006380 0.000000
# 2 -0.008617 0.013653 0.001729 0.000000 0.003962 0.000000
# 3 -0.003413 0.001729 0.013909 0.000000 -0.004164 0.000000
# 4 0.000000 0.000000 0.000000 0.057976 0.000000 -0.000132
# 5 -0.006380 0.003962 -0.004164 0.000000 0.053776 0.000000
# 6 0.000000 0.000000 0.000000 -0.000132 0.000000 0.046489
#
#
# Mechanical properties :
#
#
# Convention : Reuss Voigt Hill
#
# Bulk Modulus (GPa) = 33.46434 35.45511 34.45972
# Shear Modulus (GPa) = 20.89512 24.58224 22.73868
#
# Velocity S-wave (km/s) = 3.19069 3.46077 3.32847
# Velocity P-wave (km/s) = 5.46612 5.76573 5.61792
#
# Compressibility (1/GPa) = 0.02988256
#
# Stress axis : x y z
#
# Youngs Moduli (GPa) = 43.62154 73.24625 71.89791
#
# Poissons Ratio (x) = 0.63116 0.24542
# Poissons Ratio (y) = 0.37588 -0.12429
# Poissons Ratio (z) = 0.14890 -0.12662
#
# Static dielectric constant tensor:
#      x y z
#    x 1.828910 0.000000 0.017370 
#    y 0.000000 1.790630 0.000000 
#    z 0.017370 0.000000 1.759590 
# 
# From -- ./inp_files/277916.got.cif
#   From: 2010.05.17/outbox.cif.g08.bks.cpg/sg12_139_cif.got.tgz:277916.got - 2010.06.03 13:09:07.
