data_PCOD9219773
_publ_section_title
;
Structure prediction by ZEFSAII (Michael W. Deem and Ramdas Pophale) SiO2 
 PCOD9219773
Probable space group: C 2/M
;
_chemical_formula_sum "Si O2"
_cell_formula_units_Z 56
_cell_length_a 8.989034
_cell_length_b 15.394090
_cell_length_c 25.298022
_cell_angle_alpha 90.000000
_cell_angle_beta 51.803961
_cell_angle_gamma 90.000000
_cell_volume 2751.190746
_symmetry_space_group_name_H-M "C 2/M"
_symmetry_group_IT_number 12
_symmetry_cell_setting 'monoclinic'
loop_
_space_group_symop_operation_xyz
x,y,z
-x,y,-z
-x,-y,-z
x,-y,z
1/2+x,1/2+y,z
1/2-x,1/2+y,-z
1/2-x,1/2-y,-z
1/2+x,1/2-y,z
loop_
_atom_site_type_symbol
_atom_site_label
_atom_site_fract_x
_atom_site_fract_y
_atom_site_fract_z
Si Si1 0.452659 0.153445 0.925337
Si Si2 0.470573 0.752086 0.445184
Si Si3 0.816075 0.847658 0.208030
Si Si4 0.456129 0.846235 0.209182
Si Si5 0.723099 0.901842 0.344548
Si Si6 0.928006 0.098900 0.653840
Si Si7 0.692025 0.346785 0.073732
O O1 0.488954 0.113453 0.859869
O O2 0.375030 0.250154 0.928995
O O3 0.648227 0.159136 0.915579
O O4 0.297472 0.113638 0.999426
O O5 0.500000 0.759092 0.500000
O O6 0.250000 0.750000 0.500000
O O7 0.563075 0.833178 0.394819
O O8 0.548406 0.667260 0.398366
O O9 0.638448 0.842907 0.207277
O O10 0.879210 0.750918 0.213009
O O11 0.764429 0.895807 0.273279
O O12 0.000189 0.887465 0.138516
O O13 0.280238 0.892848 0.275485
O O14 0.913486 0.880369 0.336186
O O15 0.667554 0.000000 0.370642
O O16 0.959835 0.000000 0.629399
#
# Coordination Sequence:
#
# PCOD9219773 Si02
#       7
#     8   8   8   8   8   8   8
#     4   9  16  27  47  79 118 162 212 266 317 373
#     4  12  26  46  73 101 129 164 208 257 316 379
#     4  11  21  34  58  88 124 170 215 264 319 375
#     4  11  21  34  58  88 125 169 215 264 320 375
#     4  11  25  45  69  96 130 172 215 258 316 383
#     4  11  25  45  68  97 131 170 213 261 318 379
#     4   9  16  27  47  79 118 162 213 264 318 373
#
# _framework density 20.354821999999999
#
# number of rings (size 3 to 8) (size 9 to 14) (size 15 to 20)
#    0.000    1.429    2.857    5.143    2.000    3.429 
#    0.000    0.000    0.000    0.857    0.000    6.000 
#    0.000    0.000    0.000    0.000    0.000    0.000 
#
# Total GULP energy -156191.855409 kJ/mol
# GULP energy per Si atom -5578.280550 kJ/mol
# Density = 2.030849 g / cm^3
# Si number density = 20.354822 Si / 1000 Ang^3
#
#
#
# Elastic Constant Matrix: (Units=GPa)
#
#
# Indices 1 2 3 4 5 6 
#
# 1 308.9591 85.5060 152.7937 0.0000 49.2117 0.0001
# 2 85.5060 98.7198 83.5898 -0.0001 14.3816 0.0001
# 3 152.7937 83.5898 233.0222 0.0000 22.4387 0.0000
# 4 0.0000 -0.0001 0.0000 -19.1112 0.0000 2.5328
# 5 49.2117 14.3816 22.4387 0.0000 62.6026 0.0000
# 6 0.0001 0.0001 0.0000 2.5328 0.0000 12.6785
#
#
#
# Elastic Compliance Matrix: (Units=1/GPa)
#
#
# Indices 1 2 3 4 5 6 
#
# 1 0.005608 -0.002231 -0.002591 0.000000 -0.002967 0.000000
# 2 -0.002231 0.015578 -0.004091 0.000000 -0.000359 0.000000
# 3 -0.002591 -0.004091 0.007428 0.000000 0.000314 0.000000
# 4 0.000000 0.000000 0.000000 -0.050976 0.000000 0.010183
# 5 -0.002967 -0.000359 0.000314 0.000000 0.018276 0.000000
# 6 0.000000 0.000000 0.000000 0.010183 0.000000 0.076839
#
#
# Mechanical properties :
#
#
# Convention : Reuss Voigt Hill
#
# Bulk Modulus (GPa) = 92.69671 142.72002 117.70836
# Shear Modulus (GPa) = 53.09193 32.48808 42.79001
#
# Velocity S-wave (km/s) = 5.11271 3.99944 4.58995
# Velocity P-wave (km/s) = 8.97176 9.57056 9.27599
#
# Compressibility (1/GPa) = 0.01078787
#
# Stress axis : x y z
#
# Youngs Moduli (GPa) = 178.30675 64.19216 134.63159
#
# Poissons Ratio (x) = 0.14323 0.34887
# Poissons Ratio (y) = 0.39784 0.55073
# Poissons Ratio (z) = 0.46204 0.26259
#
# Static dielectric constant tensor:
#      x y z
#    x 1.678430 0.000000 -0.002370 
#    y 0.000000 1.774850 0.000000 
#    z -0.002370 0.000000 1.725180 
# 
# From -- ./inp_files/332854.got.cif
#   From: 2010.05.17/outbox.cif.g08.bks.cpg/sg12_167_cif.got.tgz:332854.got - 2010.06.03 13:09:07.
