data_PCOD9219468
_publ_section_title
;
Structure prediction by ZEFSAII (Michael W. Deem and Ramdas Pophale) SiO2 
 PCOD9219468
Probable space group: C 2/M
;
_chemical_formula_sum "Si O2"
_cell_formula_units_Z 58
_cell_length_a 9.534655
_cell_length_b 16.993192
_cell_length_c 17.227466
_cell_angle_alpha 90.000000
_cell_angle_beta 110.515289
_cell_angle_gamma 90.000000
_cell_volume 2614.241040
_symmetry_space_group_name_H-M "C 2/M"
_symmetry_group_IT_number 12
_symmetry_cell_setting 'monoclinic'
loop_
_space_group_symop_operation_xyz
x,y,z
-x,y,-z
-x,-y,-z
x,-y,z
1/2+x,1/2+y,z
1/2-x,1/2+y,-z
1/2-x,1/2-y,-z
1/2+x,1/2-y,z
loop_
_atom_site_type_symbol
_atom_site_label
_atom_site_fract_x
_atom_site_fract_y
_atom_site_fract_z
Si Si1 0.221639 0.282776 0.365188
Si Si2 0.665663 0.209707 0.055792
Si Si3 0.116356 0.090578 0.815808
Si Si4 0.689196 0.321391 0.204495
Si Si5 0.500000 0.000000 0.500000
Si Si6 0.453167 0.908848 0.308898
Si Si7 0.765382 0.614303 0.429562
Si Si8 0.919898 0.916212 0.372376
O O1 0.220540 0.241468 0.279787
O O2 0.077245 0.340009 0.341295
O O3 0.245879 0.207652 0.424733
O O4 0.359030 0.341293 0.404494
O O5 0.764996 0.141242 0.113428
O O6 0.650594 0.275318 0.119568
O O7 0.500000 0.182722 0.000000
O O8 0.750000 0.250000 0.000000
O O9 0.141821 0.092050 0.727693
O O10 0.952894 0.127772 0.797130
O O11 0.117483 0.000000 0.840275
O O12 0.836286 0.375282 0.222665
O O13 0.619542 0.930873 0.493269
O O14 0.344608 0.911338 0.363636
O O15 0.501228 0.000000 0.304216
O O16 0.597915 0.583976 0.402127
O O17 0.870329 0.000000 0.395478
#
# Coordination Sequence:
#
# PCOD9219468 Si02
#       8
#     8   8   8   8   2   8   8   8
#     4  11  22  36  64 100 129 155 212 272 318 368
#     4  12  25  42  62  87 128 174 215 261 335 397
#     4  11  22  38  63  92 120 163 214 270 315 378
#     4  11  21  38  63  90 122 168 215 265 318 382
#     4  12  24  44  68  98 130 176 220 248 312 386
#     4  11  21  38  64 100 127 156 211 278 315 354
#     4  11  22  40  66  89 125 170 211 252 299 386
#     4  11  20  38  64  96 126 161 209 263 323 367
#
# _framework density 22.186171999999999
#
# number of rings (size 3 to 8) (size 9 to 14) (size 15 to 20)
#    0.000    0.828    6.897    3.310    0.000    0.276 
#    0.000    4.828    0.000    0.828    0.000    0.000 
#    0.000    0.000    0.000    0.000    0.000    0.000 
#
# Total GULP energy -161880.760801 kJ/mol
# GULP energy per Si atom -5582.095200 kJ/mol
# Density = 2.213567 g / cm^3
# Si number density = 22.186172 Si / 1000 Ang^3
#
#
#
# Elastic Constant Matrix: (Units=GPa)
#
#
# Indices 1 2 3 4 5 6 
#
# 1 92.2029 55.9019 15.3882 0.0000 40.1530 0.0000
# 2 55.9019 215.9025 32.3919 0.0000 24.7013 0.0000
# 3 15.3882 32.3919 74.5894 0.0000 15.1586 0.0000
# 4 0.0000 0.0000 0.0000 -4.0259 0.0000 -8.9150
# 5 40.1530 24.7013 15.1586 0.0000 46.0834 0.0000
# 6 0.0000 0.0000 0.0000 -8.9150 0.0000 24.8548
#
#
#
# Elastic Compliance Matrix: (Units=1/GPa)
#
#
# Indices 1 2 3 4 5 6 
#
# 1 0.019482 -0.003373 0.000566 0.000000 -0.015353 0.000000
# 2 -0.003373 0.005733 -0.001893 0.000000 0.000488 0.000000
# 3 0.000566 -0.001893 0.015009 0.000000 -0.004415 0.000000
# 4 0.000000 0.000000 0.000000 -0.138435 0.000000 -0.049655
# 5 -0.015353 0.000488 -0.004415 0.000000 0.036268 0.000000
# 6 0.000000 0.000000 0.000000 -0.049655 0.000000 0.022423
#
#
# Mechanical properties :
#
#
# Convention : Reuss Voigt Hill
#
# Bulk Modulus (GPa) = 32.44192 65.56211 49.00201
# Shear Modulus (GPa) = -251.96953 31.98330 -109.99312
#
# Velocity S-wave (km/s) = -10.66851 3.80094 -7.04876
# Velocity P-wave (km/s) = 11.70905 6.99128 6.64168
#
# Compressibility (1/GPa) = 0.03082432
#
# Stress axis : x y z
#
# Youngs Moduli (GPa) = 51.32886 174.42452 66.62454
#
# Poissons Ratio (x) = 0.58827 -0.03768
# Poissons Ratio (y) = 0.17311 0.12613
# Poissons Ratio (z) = -0.02903 0.33022
#
# Static dielectric constant tensor:
#      x y z
#    x 1.840920 0.000000 0.020380 
#    y 0.000000 1.897540 0.000000 
#    z 0.020380 0.000000 1.952100 
# 
# From -- ./inp_files/300849.got.cif
#   From: 2010.05.17/outbox.cif.g08.bks.cpg/sg12_151_cif.got.tgz:300849.got - 2010.06.03 13:09:07.
