data_PCOD9219654
_publ_section_title
;
Structure prediction by ZEFSAII (Michael W. Deem and Ramdas Pophale) SiO2 
 PCOD9219654
Probable space group: C 2/M
;
_chemical_formula_sum "Si O2"
_cell_formula_units_Z 56
_cell_length_a 14.842958
_cell_length_b 7.943326
_cell_length_c 32.504199
_cell_angle_alpha 90.000000
_cell_angle_beta 49.026953
_cell_angle_gamma 90.000000
_cell_volume 2893.474688
_symmetry_space_group_name_H-M "C 2/M"
_symmetry_group_IT_number 12
_symmetry_cell_setting 'monoclinic'
loop_
_space_group_symop_operation_xyz
x,y,z
-x,y,-z
-x,-y,-z
x,-y,z
1/2+x,1/2+y,z
1/2-x,1/2+y,-z
1/2-x,1/2-y,-z
1/2+x,1/2-y,z
loop_
_atom_site_type_symbol
_atom_site_label
_atom_site_fract_x
_atom_site_fract_y
_atom_site_fract_z
Si Si1 0.051711 0.303223 0.644213
Si Si2 0.426945 0.202581 0.150333
Si Si3 0.687503 0.294520 0.432474
Si Si4 0.408218 0.205757 0.062135
Si Si5 0.137756 0.797536 0.148527
Si Si6 0.460586 0.296150 0.446158
Si Si7 0.159993 0.799164 0.234281
O O1 0.053399 0.500000 0.653059
O O2 0.181341 0.231326 0.617828
O O3 0.045143 0.277200 0.597330
O O4 0.938262 0.233469 0.701981
O O5 0.443519 0.258176 0.097915
O O6 0.532557 0.250528 0.149245
O O7 0.294378 0.263682 0.203190
O O8 0.424207 0.000000 0.150488
O O9 0.689891 0.500000 0.432453
O O10 0.584165 0.247727 0.431584
O O11 0.643938 0.242272 0.491084
O O12 0.271039 0.258445 0.095581
O O13 0.409547 0.000000 0.061274
O O14 0.500000 0.264483 0.000000
O O15 0.120694 0.736142 0.200741
O O16 0.140743 0.000000 0.148746
O O17 0.457386 0.500000 0.444219
O O18 0.170491 0.000000 0.227478
#
# Coordination Sequence:
#
# PCOD9219654 Si02
#       7
#     8   8   8   8   8   8   8
#     4  11  21  32  49  76 101 121 156 208 251 279
#     4   9  18  33  53  73  96 130 168 202 240 289
#     4   8  17  33  52  72  96 127 161 193 234 293
#     4   8  15  30  51  75 104 136 166 195 235 294
#     4   9  18  33  53  74  98 130 167 205 243 284
#     4   9  17  34  55  71  94 131 163 188 232 299
#     4   9  20  37  50  65  94 133 169 196 236 298
#
# _framework density 19.353891999999998
#
# number of rings (size 3 to 8) (size 9 to 14) (size 15 to 20)
#    0.000    3.000    0.000    3.429    0.000    2.857 
#    0.000   10.000    0.000    0.857    0.000    0.000 
#    0.000    0.000    0.000    0.000    0.000    0.000 
#
# Total GULP energy -156088.783400 kJ/mol
# GULP energy per Si atom -5574.599407 kJ/mol
# Density = 1.930984 g / cm^3
# Si number density = 19.353892 Si / 1000 Ang^3
#
#
#
# Elastic Constant Matrix: (Units=GPa)
#
#
# Indices 1 2 3 4 5 6 
#
# 1 127.5471 3.8722 45.6267 0.0003 -14.8077 0.0004
# 2 3.8722 13.9966 3.6887 0.0009 -2.8883 0.0003
# 3 45.6267 3.6887 87.0166 0.0005 -23.1691 0.0008
# 4 0.0003 0.0009 0.0005 11.5835 0.0002 3.4540
# 5 -14.8077 -2.8883 -23.1691 0.0002 15.1547 0.0003
# 6 0.0004 0.0003 0.0008 3.4540 0.0003 21.0522
#
#
#
# Elastic Compliance Matrix: (Units=1/GPa)
#
#
# Indices 1 2 3 4 5 6 
#
# 1 0.009738 -0.000996 -0.004353 0.000000 0.002670 0.000000
# 2 -0.000996 0.074529 0.001494 -0.000006 0.015515 0.000000
# 3 -0.004353 0.001494 0.021342 -0.000001 0.028661 -0.000001
# 4 0.000000 -0.000006 -0.000001 0.090770 -0.000004 -0.014892
# 5 0.002670 0.015515 0.028661 -0.000004 0.115369 -0.000002
# 6 0.000000 0.000000 -0.000001 -0.014892 -0.000002 0.049944
#
#
# Mechanical properties :
#
#
# Convention : Reuss Voigt Hill
#
# Bulk Modulus (GPa) = 10.21450 37.21502 23.71476
# Shear Modulus (GPa) = 12.43672 21.24962 16.84317
#
# Velocity S-wave (km/s) = 2.53770 3.31713 2.95324
# Velocity P-wave (km/s) = 3.72502 5.82594 4.88965
#
# Compressibility (1/GPa) = 0.09790006
#
# Stress axis : x y z
#
# Youngs Moduli (GPa) = 102.69558 13.41753 46.85557
#
# Poissons Ratio (x) = 0.01336 0.20394
# Poissons Ratio (y) = 0.10226 -0.07000
# Poissons Ratio (z) = 0.44699 -0.02004
#
# Static dielectric constant tensor:
#      x y z
#    x 1.675590 0.000000 -0.021500 
#    y 0.000000 1.701890 0.000000 
#    z -0.021500 0.000000 1.671300 
# 
# From -- ./inp_files/374930.got.cif
#   From: 2010.05.17/outbox.cif.g08.bks.cpg/sg12_188_cif.got.tgz:374930.got - 2010.06.03 13:09:07.
