data_PCOD9219669
_publ_section_title
;
Structure prediction by ZEFSAII (Michael W. Deem and Ramdas Pophale) SiO2 
 PCOD9219669
Probable space group: C 2/M
;
_chemical_formula_sum "Si O2"
_cell_formula_units_Z 48
_cell_length_a 23.458380
_cell_length_b 8.215089
_cell_length_c 30.081223
_cell_angle_alpha 90.000000
_cell_angle_beta 151.649425
_cell_angle_gamma 90.000000
_cell_volume 2752.809403
_symmetry_space_group_name_H-M "C 2/M"
_symmetry_group_IT_number 12
_symmetry_cell_setting 'monoclinic'
loop_
_space_group_symop_operation_xyz
x,y,z
-x,y,-z
-x,-y,-z
x,-y,z
1/2+x,1/2+y,z
1/2-x,1/2+y,-z
1/2-x,1/2-y,-z
1/2+x,1/2-y,z
loop_
_atom_site_type_symbol
_atom_site_label
_atom_site_fract_x
_atom_site_fract_y
_atom_site_fract_z
Si Si1 0.547924 0.800907 0.781881
Si Si2 0.959341 0.304279 0.818993
Si Si3 0.690454 0.698690 0.643288
Si Si4 0.796522 0.194276 0.983509
Si Si5 0.113115 0.306100 0.410383
Si Si6 0.968970 0.196545 0.549587
O O1 0.492993 0.749000 0.791857
O O2 0.468541 0.742355 0.686323
O O3 0.545875 0.000000 0.780547
O O4 0.688371 0.751404 0.876982
O O5 0.955654 0.500000 0.814878
O O6 0.827087 0.244570 0.741142
O O7 0.068016 0.257365 0.926215
O O8 0.691462 0.500000 0.644503
O O9 0.597085 0.750297 0.617335
O O10 0.631791 0.746412 0.555746
O O11 0.800782 0.000000 0.985363
O O12 0.750000 0.250000 0.000000
O O13 0.112529 0.500000 0.406752
O O14 0.250000 0.250000 0.500000
O O15 0.060434 0.256981 0.421797
O O16 0.968579 0.000000 0.550079
#
# Coordination Sequence:
#
# PCOD9219669 Si02
#       6
#     8   8   8   8   8   8
#     4   8  16  29  45  63  90 122 149 177 221 273
#     4   9  15  27  47  70  90 114 148 187 225 267
#     4   8  15  29  51  70  91 123 154 182 224 277
#     4   9  16  28  44  64  88 117 149 185 224 267
#     4  11  21  33  48  68  93 123 153 186 225 271
#     4   9  17  32  50  69  91 122 158 187 218 268
#
# _framework density 17.436733
#
# number of rings (size 3 to 8) (size 9 to 14) (size 15 to 20)
#    0.000    3.000    0.000    4.000    0.000    2.667 
#    0.000   15.000    0.000    1.000    0.000    7.000 
#    0.000    0.000    0.000    0.000    0.000    0.000 
#
# Total GULP energy -133668.285849 kJ/mol
# GULP energy per Si atom -5569.511910 kJ/mol
# Density = 1.739705 g / cm^3
# Si number density = 17.436733 Si / 1000 Ang^3
#
#
#
# Elastic Constant Matrix: (Units=GPa)
#
#
# Indices 1 2 3 4 5 6 
#
# 1 89.4238 12.4118 84.1475 0.0000 9.8004 0.0001
# 2 12.4118 11.8541 16.5750 0.0000 3.2900 -0.0006
# 3 84.1475 16.5750 191.7595 0.0000 24.7686 0.0000
# 4 0.0000 0.0000 0.0000 22.3246 0.0000 -0.1913
# 5 9.8004 3.2900 24.7686 0.0000 30.9859 0.0000
# 6 0.0001 -0.0006 0.0000 -0.1913 0.0000 20.6931
#
#
#
# Elastic Compliance Matrix: (Units=1/GPa)
#
#
# Indices 1 2 3 4 5 6 
#
# 1 0.020053 -0.010018 -0.008087 0.000000 0.001185 0.000000
# 2 -0.010018 0.101401 -0.003777 0.000000 -0.004579 0.000003
# 3 -0.008087 -0.003777 0.009710 0.000000 -0.004803 0.000000
# 4 0.000000 0.000000 0.000000 0.044797 0.000000 0.000414
# 5 0.001185 -0.004579 -0.004803 0.000000 0.036223 0.000000
# 6 0.000000 0.000003 0.000000 0.000414 0.000000 0.048329
#
#
# Mechanical properties :
#
#
# Convention : Reuss Voigt Hill
#
# Bulk Modulus (GPa) = 11.44165 57.70068 34.57116
# Shear Modulus (GPa) = 14.99649 26.79425 20.89537
#
# Velocity S-wave (km/s) = 2.93585 3.92427 3.46548
# Velocity P-wave (km/s) = 4.25068 7.32779 5.99019
#
# Compressibility (1/GPa) = 0.08740002
#
# Stress axis : x y z
#
# Youngs Moduli (GPa) = 49.86813 9.86185 102.98255
#
# Poissons Ratio (x) = 0.09880 0.83280
# Poissons Ratio (y) = 0.49958 0.38899
# Poissons Ratio (z) = 0.40327 0.03725
#
# Static dielectric constant tensor:
#      x y z
#    x 1.578650 0.000000 0.022360 
#    y 0.000000 1.619110 0.000000 
#    z 0.022360 0.000000 1.632140 
# 
# From -- ./inp_files/381793.got.cif
#   From: 2010.05.17/outbox.cif.g08.bks.cpg/sg12_191_cif.got.tgz:381793.got - 2010.06.03 13:09:07.
