data_PCOD9219971
_publ_section_title
;
Structure prediction by ZEFSAII (Michael W. Deem and Ramdas Pophale) SiO2 
 PCOD9219971
Probable space group: C 2/M
;
_chemical_formula_sum "Si O2"
_cell_formula_units_Z 56
_cell_length_a 13.762501
_cell_length_b 25.372506
_cell_length_c 9.427206
_cell_angle_alpha 90.000000
_cell_angle_beta 59.133494
_cell_angle_gamma 90.000000
_cell_volume 2825.632701
_symmetry_space_group_name_H-M "C 2/M"
_symmetry_group_IT_number 12
_symmetry_cell_setting 'monoclinic'
loop_
_space_group_symop_operation_xyz
x,y,z
-x,y,-z
-x,-y,-z
x,-y,z
1/2+x,1/2+y,z
1/2-x,1/2+y,-z
1/2-x,1/2-y,-z
1/2+x,1/2-y,z
loop_
_atom_site_type_symbol
_atom_site_label
_atom_site_fract_x
_atom_site_fract_y
_atom_site_fract_z
Si Si1 0.564355 0.833454 0.248584
Si Si2 0.162809 0.609788 0.663378
Si Si3 0.739418 0.111097 0.292179
Si Si4 0.976768 0.213872 0.672918
Si Si5 0.264588 0.179763 0.139825
Si Si6 0.820883 0.500000 0.722311
Si Si7 0.879756 0.785791 0.168171
Si Si8 0.561340 0.000000 0.679305
O O1 0.442746 0.851705 0.287333
O O2 0.615567 0.871760 0.328352
O O3 0.556115 0.775025 0.314491
O O4 0.649383 0.832037 0.051620
O O5 0.236741 0.608626 0.464535
O O6 0.226017 0.634062 0.750234
O O7 0.106920 0.552240 0.722016
O O8 0.820043 0.158517 0.183554
O O9 0.753433 0.052993 0.217466
O O10 0.863856 0.186348 0.816947
O O11 0.000000 0.192113 0.500000
O O12 0.085017 0.212693 0.693084
O O13 0.304018 0.235625 0.180689
O O14 0.881594 0.500000 0.521107
O O15 0.925898 0.500000 0.754247
O O16 0.000000 0.779608 0.000000
#
# Coordination Sequence:
#
# PCOD9219971 Si02
#       8
#     8   8   8   8   8   4   8   4
#     4  12  21  35  56  87 119 151 182 228 289 343
#     4  11  21  37  59  88 116 149 190 232 283 345
#     4  11  22  36  62  85 113 150 194 236 282 337
#     4  12  24  37  56  83 117 151 195 233 271 340
#     4  12  24  39  55  83 124 156 183 231 291 339
#     4   9  18  36  56  89 114 141 187 246 287 321
#     4  12  23  39  57  83 116 157 191 230 288 341
#     4   9  18  34  60  86 117 144 182 239 292 330
#
# _framework density 19.818570999999999
#
# number of rings (size 3 to 8) (size 9 to 14) (size 15 to 20)
#    0.000    0.714    5.714    3.857    0.000    1.143 
#    0.000    2.500    0.000    0.857    0.000    4.000 
#    0.000    0.000    0.000    0.000    0.000    0.000 
#
# Total GULP energy -156494.519293 kJ/mol
# GULP energy per Si atom -5589.089975 kJ/mol
# Density = 1.977346 g / cm^3
# Si number density = 19.818571 Si / 1000 Ang^3
#
#
#
# Elastic Constant Matrix: (Units=GPa)
#
#
# Indices 1 2 3 4 5 6 
#
# 1 53.5218 21.8108 1.6228 0.0000 9.5899 0.0000
# 2 21.8108 118.7281 15.1420 0.0000 5.0298 0.0000
# 3 1.6228 15.1420 46.2008 0.0000 9.6092 0.0000
# 4 0.0000 0.0000 0.0000 93.4294 0.0000 58.8938
# 5 9.5899 5.0298 9.6092 0.0000 25.2375 0.0000
# 6 0.0000 0.0000 0.0000 58.8938 0.0000 76.0283
#
#
#
# Elastic Compliance Matrix: (Units=1/GPa)
#
#
# Indices 1 2 3 4 5 6 
#
# 1 0.021706 -0.003922 0.002254 0.000000 -0.008325 0.000000
# 2 -0.003922 0.009511 -0.003144 0.000000 0.000792 0.000000
# 3 0.002254 -0.003144 0.024591 0.000000 -0.009593 0.000000
# 4 0.000000 0.000000 0.000000 0.020917 0.000000 -0.016203
# 5 -0.008325 0.000792 -0.009593 0.000000 0.046281 0.000000
# 6 0.000000 0.000000 0.000000 -0.016203 0.000000 0.025704
#
#
# Mechanical properties :
#
#
# Convention : Reuss Voigt Hill
#
# Bulk Modulus (GPa) = 21.65263 32.84466 27.24864
# Shear Modulus (GPa) = 28.78065 50.93073 39.85569
#
# Velocity S-wave (km/s) = 3.81492 5.07487 4.48931
# Velocity P-wave (km/s) = 5.50944 7.13776 6.37580
#
# Compressibility (1/GPa) = 0.04618376
#
# Stress axis : x y z
#
# Youngs Moduli (GPa) = 46.07119 105.14638 40.66500
#
# Poissons Ratio (x) = 0.41241 -0.09168
# Poissons Ratio (y) = 0.18070 0.12785
# Poissons Ratio (z) = -0.10387 0.33058
#
# Static dielectric constant tensor:
#      x y z
#    x 1.705920 0.000000 0.021250 
#    y 0.000000 1.697400 0.000000 
#    z 0.021250 0.000000 1.745490 
# 
# From -- ./inp_files/65802.got.cif
#   From: 2010.05.17/outbox.cif.g08.bks.cpg/sg12_33_cif.got.tgz:65802.got - 2010.06.03 13:09:07.
