data_PCOD9219777
_publ_section_title
;
Structure prediction by ZEFSAII (Michael W. Deem and Ramdas Pophale) SiO2 
 PCOD9219777
Probable space group: C 2/M
;
_chemical_formula_sum "Si O2"
_cell_formula_units_Z 36
_cell_length_a 16.559845
_cell_length_b 19.065800
_cell_length_c 12.708757
_cell_angle_alpha 90.000000
_cell_angle_beta 154.206869
_cell_angle_gamma 90.000000
_cell_volume 1745.928989
_symmetry_space_group_name_H-M "C 2/M"
_symmetry_group_IT_number 12
_symmetry_cell_setting 'monoclinic'
loop_
_space_group_symop_operation_xyz
x,y,z
-x,y,-z
-x,-y,-z
x,-y,z
1/2+x,1/2+y,z
1/2-x,1/2+y,-z
1/2-x,1/2-y,-z
1/2+x,1/2-y,z
loop_
_atom_site_type_symbol
_atom_site_label
_atom_site_fract_x
_atom_site_fract_y
_atom_site_fract_z
Si Si1 0.999074 0.921922 0.372345
Si Si2 0.374566 0.857508 0.122854
Si Si3 0.284351 0.335451 0.543065
Si Si4 0.500000 0.324757 0.000000
Si Si5 0.689965 0.238827 0.764917
O O1 0.121723 0.864653 0.453185
O O2 0.000000 0.916627 0.500000
O O3 0.068270 0.000000 0.426149
O O4 0.785022 0.913920 0.084247
O O5 0.584670 0.869953 0.333380
O O6 0.365039 0.829039 0.230689
O O7 0.301950 0.792113 0.968180
O O8 0.250000 0.250000 0.500000
O O9 0.426445 0.357147 0.804164
O O10 0.677125 0.280366 0.173709
O O11 0.500000 0.269249 0.500000
#
# Coordination Sequence:
#
# PCOD9219777 Si02
#       5
#     8   8   8   4   8
#     4  11  27  47  66  93 136 182 223 269 326 402
#     4  11  22  37  63  92 130 173 214 265 329 398
#     4  12  24  41  68 104 133 172 223 282 338 387
#     4  12  22  36  63 102 137 162 210 282 344 384
#     4  11  21  34  60  99 134 163 206 274 337 388
#
# _framework density 20.619394
#
# number of rings (size 3 to 8) (size 9 to 14) (size 15 to 20)
#    0.000    0.667    6.667    2.000    3.111    1.778 
#    0.000    2.778    0.000    2.000    0.000    0.000 
#    0.000    0.000    0.000    0.000    0.000    0.000 
#
# Total GULP energy -100452.892341 kJ/mol
# GULP energy per Si atom -5580.716241 kJ/mol
# Density = 2.057246 g / cm^3
# Si number density = 20.619394 Si / 1000 Ang^3
#
#
#
# Elastic Constant Matrix: (Units=GPa)
#
#
# Indices 1 2 3 4 5 6 
#
# 1 143.5996 39.3208 40.6656 0.0000 13.5396 0.0000
# 2 39.3208 76.4153 13.9838 0.0000 2.1131 0.0000
# 3 40.6656 13.9838 126.6304 0.0000 17.4709 0.0000
# 4 0.0000 0.0000 0.0000 25.1366 0.0000 5.3279
# 5 13.5396 2.1131 17.4709 0.0000 49.4574 0.0000
# 6 0.0000 0.0000 0.0000 5.3279 0.0000 22.5358
#
#
#
# Elastic Compliance Matrix: (Units=1/GPa)
#
#
# Indices 1 2 3 4 5 6 
#
# 1 0.008847 -0.004112 -0.002184 0.000000 -0.001475 0.000000
# 2 -0.004112 0.015268 -0.000453 0.000000 0.000633 0.000000
# 3 -0.002184 -0.000453 0.009002 0.000000 -0.002563 0.000000
# 4 0.000000 0.000000 0.000000 0.041881 0.000000 -0.009901
# 5 -0.001475 0.000633 -0.002563 0.000000 0.021501 0.000000
# 6 0.000000 0.000000 0.000000 -0.009901 0.000000 0.046715
#
#
# Mechanical properties :
#
#
# Convention : Reuss Voigt Hill
#
# Bulk Modulus (GPa) = 50.96922 59.39840 55.18381
# Shear Modulus (GPa) = 30.62764 36.27096 33.44930
#
# Velocity S-wave (km/s) = 3.85824 4.19868 4.03206
# Velocity P-wave (km/s) = 6.67988 7.23704 6.96404
#
# Compressibility (1/GPa) = 0.01961968
#
# Stress axis : x y z
#
# Youngs Moduli (GPa) = 113.02984 65.49779 111.08877
#
# Poissons Ratio (x) = 0.26933 0.24257
# Poissons Ratio (y) = 0.46479 0.05031
# Poissons Ratio (z) = 0.24681 0.02966
#
# Static dielectric constant tensor:
#      x y z
#    x 1.793390 0.000000 -0.038170 
#    y 0.000000 1.777280 0.000000 
#    z -0.038170 0.000000 1.761360 
# 
# From -- ./inp_files/147409.got.cif
#   From: 2010.05.17/outbox.cif.g08.bks.cpg/sg12_74_cif.got.tgz:147409.got - 2010.06.03 13:09:07.
