data_PCOD9219876
_publ_section_title
;
Structure prediction by ZEFSAII (Michael W. Deem and Ramdas Pophale) SiO2 
 PCOD9219876
Probable space group: C 2/M
;
_chemical_formula_sum "Si O2"
_cell_formula_units_Z 40
_cell_length_a 15.167835
_cell_length_b 8.474811
_cell_length_c 20.476418
_cell_angle_alpha 90.000000
_cell_angle_beta 56.583292
_cell_angle_gamma 90.000000
_cell_volume 2197.006848
_symmetry_space_group_name_H-M "C 2/M"
_symmetry_group_IT_number 12
_symmetry_cell_setting 'monoclinic'
loop_
_space_group_symop_operation_xyz
x,y,z
-x,y,-z
-x,-y,-z
x,-y,z
1/2+x,1/2+y,z
1/2-x,1/2+y,-z
1/2-x,1/2-y,-z
1/2+x,1/2-y,z
loop_
_atom_site_type_symbol
_atom_site_label
_atom_site_fract_x
_atom_site_fract_y
_atom_site_fract_z
Si Si1 0.538350 0.307833 0.412781
Si Si2 0.850686 0.809347 0.000024
Si Si3 0.590316 0.309818 0.878541
Si Si4 0.837920 0.810504 0.413454
Si Si5 0.223560 0.688874 0.702540
O O1 0.500000 0.254256 0.500000
O O2 0.540930 0.500000 0.414275
O O3 0.450889 0.262157 0.396196
O O4 0.654993 0.253653 0.346803
O O5 0.856678 0.759577 0.074071
O O6 0.847145 0.000000 0.999999
O O7 0.750000 0.750000 0.000000
O O8 0.966811 0.759730 0.925954
O O9 0.589245 0.500000 0.879779
O O10 0.656159 0.252297 0.790143
O O11 0.750000 0.750000 0.500000
O O12 0.821161 0.742295 0.348798
O O13 0.832432 0.000000 0.413562
O O14 0.224048 0.500000 0.705284
#
# Coordination Sequence:
#
# PCOD9219876 Si02
#       5
#     8   8   8   8   8
#     4   9  18  35  55  74 104 145 183 223 276 331
#     4   9  19  37  62  85 113 149 184 222 274 337
#     4   9  20  39  57  81 116 151 181 222 281 335
#     4  11  21  36  57  79 107 145 187 233 282 332
#     4  11  22  37  57  82 111 146 190 235 276 328
#
# _framework density 18.206588
#
# number of rings (size 3 to 8) (size 9 to 14) (size 15 to 20)
#    0.000    2.200    2.000    2.400    0.000    3.200 
#    0.000   13.000    0.000    0.000    0.000    0.000 
#    0.000    0.000    0.000    0.000    0.000    0.000 
#
# Total GULP energy -111585.346314 kJ/mol
# GULP energy per Si atom -5579.267316 kJ/mol
# Density = 1.816515 g / cm^3
# Si number density = 18.206588 Si / 1000 Ang^3
#
#
#
# Elastic Constant Matrix: (Units=GPa)
#
#
# Indices 1 2 3 4 5 6 
#
# 1 206.9489 28.5013 118.7435 0.0000 -7.8384 0.0000
# 2 28.5013 21.2491 28.6346 0.0000 -1.3527 0.0000
# 3 118.7435 28.6346 199.5691 0.0000 1.2609 0.0000
# 4 0.0000 0.0000 0.0000 33.5224 0.0000 0.5448
# 5 -7.8384 -1.3527 1.2609 0.0000 19.9182 0.0000
# 6 0.0000 0.0000 0.0000 0.5448 0.0000 27.5571
#
#
#
# Elastic Compliance Matrix: (Units=1/GPa)
#
#
# Indices 1 2 3 4 5 6 
#
# 1 0.007953 -0.005047 -0.004027 0.000000 0.003042 0.000000
# 2 -0.005047 0.061949 -0.005902 0.000000 0.002595 0.000000
# 3 -0.004027 -0.005902 0.008270 0.000000 -0.002509 0.000000
# 4 0.000000 0.000000 0.000000 0.029840 0.000000 -0.000590
# 5 0.003042 0.002595 -0.002509 0.000000 0.051737 0.000000
# 6 0.000000 0.000000 0.000000 -0.000590 0.000000 0.036300
#
#
# Mechanical properties :
#
#
# Convention : Reuss Voigt Hill
#
# Bulk Modulus (GPa) = 20.73856 86.61401 53.67629
# Shear Modulus (GPa) = 20.65477 32.99206 26.82341
#
# Velocity S-wave (km/s) = 3.37184 4.26149 3.84250
# Velocity P-wave (km/s) = 5.15504 8.47879 7.01656
#
# Compressibility (1/GPa) = 0.04821936
#
# Stress axis : x y z
#
# Youngs Moduli (GPa) = 125.73682 16.14234 120.92403
#
# Poissons Ratio (x) = 0.08147 0.48698
# Poissons Ratio (y) = 0.63459 0.71370
# Poissons Ratio (z) = 0.50636 0.09527
#
# Static dielectric constant tensor:
#      x y z
#    x 1.616720 0.000000 -0.013530 
#    y 0.000000 1.631580 0.000000 
#    z -0.013530 0.000000 1.618300 
# 
# From -- ./inp_files/249516.got.cif
#   From: 2010.05.17/outbox.cif.g08.bks.cpg/sg12_125_cif.got.tgz:249516.got - 2010.06.03 13:09:07.
