data_PCOD9219587
_publ_section_title
;
Structure prediction by ZEFSAII (Michael W. Deem and Ramdas Pophale) SiO2 
 PCOD9219587
Probable space group: C 2/M
;
_chemical_formula_sum "Si O2"
_cell_formula_units_Z 56
_cell_length_a 11.577720
_cell_length_b 20.315214
_cell_length_c 10.665057
_cell_angle_alpha 90.000000
_cell_angle_beta 80.109455
_cell_angle_gamma 90.000000
_cell_volume 2471.181006
_symmetry_space_group_name_H-M "C 2/M"
_symmetry_group_IT_number 12
_symmetry_cell_setting 'monoclinic'
loop_
_space_group_symop_operation_xyz
x,y,z
-x,y,-z
-x,-y,-z
x,-y,z
1/2+x,1/2+y,z
1/2-x,1/2+y,-z
1/2-x,1/2-y,-z
1/2+x,1/2-y,z
loop_
_atom_site_type_symbol
_atom_site_label
_atom_site_fract_x
_atom_site_fract_y
_atom_site_fract_z
Si Si1 0.090614 0.419463 0.185574
Si Si2 0.289243 0.678243 0.045961
Si Si3 0.097322 0.797910 0.705289
Si Si4 0.619275 0.847144 0.707268
Si Si5 0.359019 0.360145 0.774210
Si Si6 0.199868 0.622821 0.419906
Si Si7 0.380181 0.500000 0.689941
Si Si8 0.362485 0.500000 0.394338
O O1 0.103255 0.500000 0.174925
O O2 0.183723 0.374674 0.090403
O O3 0.110408 0.391287 0.324130
O O4 0.957096 0.394790 0.189511
O O5 0.360506 0.686614 0.161107
O O6 0.250000 0.750000 0.000000
O O7 0.368219 0.650635 0.919541
O O8 0.056052 0.722883 0.701422
O O9 0.214482 0.814222 0.604941
O O10 0.982906 0.840721 0.690453
O O11 0.744163 0.824560 0.742654
O O12 0.645614 0.879322 0.567567
O O13 0.325735 0.434557 0.750924
O O14 0.290250 0.564096 0.378316
O O15 0.377414 0.500000 0.540982
O O16 0.516389 0.500000 0.700391
#
# Coordination Sequence:
#
# PCOD9219587 Si02
#       8
#     8   8   8   8   8   8   4   4
#     4  11  27  45  68 103 139 181 232 281 342 413
#     4  11  24  49  74  95 134 185 228 287 340 400
#     4  11  25  46  68 101 135 173 233 280 341 406
#     4  12  26  43  70  98 139 181 225 280 342 411
#     4  12  25  43  71 100 133 176 227 280 339 406
#     4  11  23  44  69 100 137 180 225 281 339 410
#     4  11  24  40  65 105 140 174 224 280 339 407
#     4  11  20  42  67  96 143 182 217 277 347 398
#
# _framework density 22.661231000000001
#
# number of rings (size 3 to 8) (size 9 to 14) (size 15 to 20)
#    0.000    0.714    5.000    2.143    5.000    1.714 
#    2.571    1.429    0.000    0.000    0.000    0.000 
#    0.000    0.000    0.000    0.000    0.000    0.000 
#
# Total GULP energy -156327.473741 kJ/mol
# GULP energy per Si atom -5583.124062 kJ/mol
# Density = 2.260965 g / cm^3
# Si number density = 22.661231 Si / 1000 Ang^3
#
#
#
# Elastic Constant Matrix: (Units=GPa)
#
#
# Indices 1 2 3 4 5 6 
#
# 1 91.7910 18.4346 3.1502 0.0000 -13.0055 0.0000
# 2 18.4346 120.4029 -6.3239 0.0000 -11.6365 0.0000
# 3 3.1502 -6.3239 40.3900 0.0000 -13.0606 0.0000
# 4 0.0000 0.0000 0.0000 35.3245 0.0000 -8.9990
# 5 -13.0055 -11.6365 -13.0606 0.0000 29.2852 0.0000
# 6 0.0000 0.0000 0.0000 -8.9990 0.0000 36.0495
#
#
#
# Elastic Compliance Matrix: (Units=1/GPa)
#
#
# Indices 1 2 3 4 5 6 
#
# 1 0.011842 -0.001310 0.000472 0.000000 0.004949 0.000000
# 2 -0.001310 0.009078 0.002923 0.000000 0.004329 0.000000
# 3 0.000472 0.002923 0.029941 0.000000 0.014724 0.000000
# 4 0.000000 0.000000 0.000000 0.030231 0.000000 0.007547
# 5 0.004949 0.004329 0.014724 0.000000 0.044631 0.000000
# 6 0.000000 0.000000 0.000000 0.007547 0.000000 0.029623
#
#
# Mechanical properties :
#
#
# Convention : Reuss Voigt Hill
#
# Bulk Modulus (GPa) = 18.17169 31.45620 24.81395
# Shear Modulus (GPa) = 29.49480 35.95338 32.72409
#
# Velocity S-wave (km/s) = 3.61162 3.98748 3.80420
# Velocity P-wave (km/s) = 5.04262 5.92547 5.50178
#
# Compressibility (1/GPa) = 0.05503064
#
# Stress axis : x y z
#
# Youngs Moduli (GPa) = 84.44205 110.15683 33.39940
#
# Poissons Ratio (x) = 0.14432 -0.01575
# Poissons Ratio (y) = 0.11063 -0.09764
# Poissons Ratio (z) = -0.03982 -0.32203
#
# Static dielectric constant tensor:
#      x y z
#    x 2.102840 0.000000 0.041150 
#    y 0.000000 1.849660 0.000000 
#    z 0.041150 0.000000 1.798340 
# 
# From -- ./inp_files/133891.got.cif
#   From: 2010.05.17/outbox.cif.g08.bks.cpg/sg12_67_cif.got.tgz:133891.got - 2010.06.03 13:09:07.
