data_PCOD9219022
_publ_section_title
;
Structure prediction by ZEFSAII (Michael W. Deem and Ramdas Pophale) SiO2 
 PCOD9219022
Probable space group: C 2/M
;
_chemical_formula_sum "Si O2"
_cell_formula_units_Z 40
_cell_length_a 14.146568
_cell_length_b 21.448781
_cell_length_c 8.693480
_cell_angle_alpha 90.000000
_cell_angle_beta 54.336496
_cell_angle_gamma 90.000000
_cell_volume 2143.121116
_symmetry_space_group_name_H-M "C 2/M"
_symmetry_group_IT_number 12
_symmetry_cell_setting 'monoclinic'
loop_
_space_group_symop_operation_xyz
x,y,z
-x,y,-z
-x,-y,-z
x,-y,z
1/2+x,1/2+y,z
1/2-x,1/2+y,-z
1/2-x,1/2-y,-z
1/2+x,1/2-y,z
loop_
_atom_site_type_symbol
_atom_site_label
_atom_site_fract_x
_atom_site_fract_y
_atom_site_fract_z
Si Si1 0.592178 0.334320 0.295928
Si Si2 0.205186 0.271099 0.713007
Si Si3 0.691930 0.152574 0.273320
Si Si4 0.884425 0.072252 0.008513
Si Si5 0.992960 0.302429 0.292200
O O1 0.500000 0.363864 0.500000
O O2 0.293924 0.316884 0.713452
O O3 0.614257 0.380719 0.136030
O O4 0.532990 0.268289 0.298608
O O5 0.250000 0.250000 0.500000
O O6 0.213768 0.208510 0.805615
O O7 0.079770 0.298272 0.794281
O O8 0.599273 0.168202 0.496750
O O9 0.611930 0.159047 0.197572
O O10 0.766837 0.090593 0.212037
O O11 0.882412 0.000000 0.964923
O O12 0.000000 0.082754 0.000000
#
# Coordination Sequence:
#
# PCOD9219022 Si02
#       5
#     8   8   8   8   8
#     4  11  19  35  59  86 118 148 189 234 285 348
#     4   9  15  28  56  89 117 136 171 235 298 345
#     4   9  17  34  55  81 115 147 186 230 283 344
#     4  11  26  41  55  79 116 161 199 235 276 330
#     4   9  16  32  57  92 113 139 177 235 305 342
#
# _framework density 18.664366999999999
#
# number of rings (size 3 to 8) (size 9 to 14) (size 15 to 20)
#    0.000    2.200    6.000    1.200    2.800    3.600 
#    0.000    5.000    0.000    2.400    0.000    0.000 
#    0.000    0.000    0.000    0.000    0.000    0.000 
#
# Total GULP energy -111383.603860 kJ/mol
# GULP energy per Si atom -5569.180193 kJ/mol
# Density = 1.862189 g / cm^3
# Si number density = 18.664367 Si / 1000 Ang^3
#
#
#
# Elastic Constant Matrix: (Units=GPa)
#
#
# Indices 1 2 3 4 5 6 
#
# 1 187.4551 59.1483 36.7366 0.0000 -3.8374 0.0000
# 2 59.1483 81.0040 40.3517 0.0000 1.0735 0.0000
# 3 36.7366 40.3517 82.7680 0.0000 -2.1828 0.0000
# 4 0.0000 0.0000 0.0000 17.2988 0.0000 0.1270
# 5 -3.8374 1.0735 -2.1828 0.0000 16.1959 0.0000
# 6 0.0000 0.0000 0.0000 0.1270 0.0000 23.1676
#
#
#
# Elastic Compliance Matrix: (Units=1/GPa)
#
#
# Indices 1 2 3 4 5 6 
#
# 1 0.007029 -0.004792 -0.000734 0.000000 0.001884 0.000000
# 2 -0.004792 0.019647 -0.007543 0.000000 -0.003454 0.000000
# 3 -0.000734 -0.007543 0.016151 0.000000 0.002503 0.000000
# 4 0.000000 0.000000 0.000000 0.057810 0.000000 -0.000317
# 5 0.001884 -0.003454 0.002503 0.000000 0.062757 0.000000
# 6 0.000000 0.000000 0.000000 -0.000317 0.000000 0.043165
#
#
# Mechanical properties :
#
#
# Convention : Reuss Voigt Hill
#
# Bulk Modulus (GPa) = 59.91598 69.30005 64.60802
# Shear Modulus (GPa) = 20.98551 25.66517 23.32534
#
# Velocity S-wave (km/s) = 3.35679 3.71224 3.53898
# Velocity P-wave (km/s) = 6.86990 7.45550 7.16868
#
# Compressibility (1/GPa) = 0.01669004
#
# Stress axis : x y z
#
# Youngs Moduli (GPa) = 142.26752 50.89783 61.91545
#
# Poissons Ratio (x) = 0.24390 0.04544
# Poissons Ratio (y) = 0.68173 0.46701
# Poissons Ratio (z) = 0.10442 0.38391
#
# Static dielectric constant tensor:
#      x y z
#    x 1.697400 0.000000 0.026730 
#    y 0.000000 1.615240 0.000000 
#    z 0.026730 0.000000 1.849530 
# 
# From -- ./inp_files/63149.got.cif
#   From: 2010.05.17/outbox.cif.g08.bks.cpg/sg12_32_cif.got.tgz:63149.got - 2010.06.03 13:09:07.
