data_PCOD9219385
_publ_section_title
;
Structure prediction by ZEFSAII (Michael W. Deem and Ramdas Pophale) SiO2 
 PCOD9219385
Probable space group: C 2/M
;
_chemical_formula_sum "Si O2"
_cell_formula_units_Z 44
_cell_length_a 23.234156
_cell_length_b 17.721820
_cell_length_c 8.205279
_cell_angle_alpha 90.000000
_cell_angle_beta 136.419236
_cell_angle_gamma 90.000000
_cell_volume 2329.083038
_symmetry_space_group_name_H-M "C 2/M"
_symmetry_group_IT_number 12
_symmetry_cell_setting 'monoclinic'
loop_
_space_group_symop_operation_xyz
x,y,z
-x,y,-z
-x,-y,-z
x,-y,z
1/2+x,1/2+y,z
1/2-x,1/2+y,-z
1/2-x,1/2-y,-z
1/2+x,1/2-y,z
loop_
_atom_site_type_symbol
_atom_site_label
_atom_site_fract_x
_atom_site_fract_y
_atom_site_fract_z
Si Si1 0.803462 0.349947 0.738148
Si Si2 0.922441 0.307729 0.684098
Si Si3 0.832470 0.911332 0.785138
Si Si4 0.500000 0.667503 0.000000
Si Si5 0.046611 0.589482 0.765574
Si Si6 0.258629 0.210083 0.190310
O O1 0.869236 0.324629 0.735885
O O2 0.734369 0.398809 0.499896
O O3 0.759361 0.275751 0.715881
O O4 0.858165 0.386098 0.996835
O O5 0.854597 0.312313 0.403360
O O6 0.964267 0.225849 0.791048
O O7 0.990657 0.369915 0.786334
O O8 0.798729 0.859770 0.866860
O O9 0.835941 0.000000 0.832151
O O10 0.922660 0.880569 0.910954
O O11 0.042978 0.500000 0.772551
O O12 0.000000 0.609794 0.500000
O O13 0.250000 0.250000 0.000000
#
# Coordination Sequence:
#
# PCOD9219385 Si02
#       6
#     8   8   8   4   8   8
#     4  11  20  40  60  87 118 159 209 250 297 369
#     4  11  20  36  64  85 116 159 208 251 296 368
#     4  11  23  39  64  93 122 160 207 260 306 355
#     4  12  19  40  63  86 120 152 214 254 291 354
#     4  11  23  36  54  89 128 158 193 250 320 367
#     4  11  22  40  65  89 123 161 205 250 308 374
#
# _framework density 18.891556000000001
#
# number of rings (size 3 to 8) (size 9 to 14) (size 15 to 20)
#    0.000    0.909    5.455    3.000    0.000    4.364 
#    0.000    1.818    0.000    1.091    0.000    0.000 
#    0.000    0.000    0.000    0.000    0.000    0.000 
#
# Total GULP energy -122677.404153 kJ/mol
# GULP energy per Si atom -5576.245643 kJ/mol
# Density = 1.884856 g / cm^3
# Si number density = 18.891556 Si / 1000 Ang^3
#
#
#
# Elastic Constant Matrix: (Units=GPa)
#
#
# Indices 1 2 3 4 5 6 
#
# 1 71.3296 45.2507 45.7446 0.0000 9.7749 0.0000
# 2 45.2507 102.1020 25.5230 0.0000 9.1015 0.0000
# 3 45.7446 25.5230 120.0439 0.0000 13.1137 0.0000
# 4 0.0000 0.0000 0.0000 27.8436 0.0000 4.1146
# 5 9.7749 9.1015 13.1137 0.0000 36.5393 0.0000
# 6 0.0000 0.0000 0.0000 4.1146 0.0000 7.5609
#
#
#
# Elastic Compliance Matrix: (Units=1/GPa)
#
#
# Indices 1 2 3 4 5 6 
#
# 1 0.024588 -0.008922 -0.007283 0.000000 -0.001742 0.000000
# 2 -0.008922 0.013704 0.000623 0.000000 -0.001250 0.000000
# 3 -0.007283 0.000623 0.011217 0.000000 -0.002233 0.000000
# 4 0.000000 0.000000 0.000000 0.039056 0.000000 -0.021254
# 5 -0.001742 -0.001250 -0.002233 0.000000 0.028946 0.000000
# 6 0.000000 0.000000 0.000000 -0.021254 0.000000 0.143825
#
#
# Mechanical properties :
#
#
# Convention : Reuss Voigt Hill
#
# Bulk Modulus (GPa) = 54.50763 58.50133 56.50448
# Shear Modulus (GPa) = 16.74397 26.18590 21.46494
#
# Velocity S-wave (km/s) = 2.98034 3.72710 3.37444
# Velocity P-wave (km/s) = 6.38426 7.03959 6.71992
#
# Compressibility (1/GPa) = 0.01834605
#
# Stress axis : x y z
#
# Youngs Moduli (GPa) = 40.66977 72.97206 89.15085
#
# Poissons Ratio (x) = 0.65102 0.64925
# Poissons Ratio (y) = 0.36284 -0.05551
# Poissons Ratio (z) = 0.29618 -0.04544
#
# Static dielectric constant tensor:
#      x y z
#    x 1.717590 0.000000 -0.043170 
#    y 0.000000 1.627940 0.000000 
#    z -0.043170 0.000000 1.758070 
# 
# From -- ./inp_files/98257.got.cif
#   From: 2010.05.17/outbox.cif.g08.bks.cpg/sg12_50_cif.got.tgz:98257.got - 2010.06.03 13:09:07.
