data_PCOD9219602
_publ_section_title
;
Structure prediction by ZEFSAII (Michael W. Deem and Ramdas Pophale) SiO2 
 PCOD9219602
Probable space group: C 2/M
;
_chemical_formula_sum "Si O2"
_cell_formula_units_Z 32
_cell_length_a 14.105328
_cell_length_b 11.341785
_cell_length_c 17.051263
_cell_angle_alpha 90.000000
_cell_angle_beta 152.092216
_cell_angle_gamma 90.000000
_cell_volume 1276.771814
_symmetry_space_group_name_H-M "C 2/M"
_symmetry_group_IT_number 12
_symmetry_cell_setting 'monoclinic'
loop_
_space_group_symop_operation_xyz
x,y,z
-x,y,-z
-x,-y,-z
x,-y,z
1/2+x,1/2+y,z
1/2-x,1/2+y,-z
1/2-x,1/2-y,-z
1/2+x,1/2-y,z
loop_
_atom_site_type_symbol
_atom_site_label
_atom_site_fract_x
_atom_site_fract_y
_atom_site_fract_z
Si Si1 0.830524 0.138533 0.286578
Si Si2 0.252790 0.500000 0.623765
Si Si3 0.287525 0.766381 0.640499
Si Si4 0.282049 0.000000 0.221084
Si Si5 0.189819 0.284612 0.868075
O O1 0.699674 0.203493 0.257747
O O2 0.767640 0.169626 0.153249
O O3 0.058573 0.192334 0.456954
O O4 0.833864 0.000000 0.305034
O O5 0.325791 0.628484 0.651624
O O6 0.305690 0.500000 0.755349
O O7 0.018626 0.500000 0.423470
O O8 0.456375 0.826831 0.711536
O O9 0.229519 0.888524 0.128622
O O10 0.250000 0.250000 0.000000
#
# Coordination Sequence:
#
# PCOD9219602 Si02
#       5
#     8   4   8   4   8
#     4  11  24  44  66  99 130 167 224 281 324 387
#     4  11  20  43  75  96 121 170 233 290 319 364
#     4  11  23  43  69  98 127 169 225 278 329 379
#     4  11  22  45  69  94 132 168 230 274 323 391
#     4  12  28  42  63  99 137 178 213 262 339 405
#
# _framework density 25.063210999999999
#
# number of rings (size 3 to 8) (size 9 to 14) (size 15 to 20)
#    0.000    0.750    5.000    3.750    7.000    1.000 
#    0.000    2.500    0.000    0.000    0.000    0.000 
#    0.000    0.000    0.000    0.000    0.000    0.000 
#
# Total GULP energy -89376.979330 kJ/mol
# GULP energy per Si atom -5586.061208 kJ/mol
# Density = 2.500617 g / cm^3
# Si number density = 25.063211 Si / 1000 Ang^3
#
#
#
# Elastic Constant Matrix: (Units=GPa)
#
#
# Indices 1 2 3 4 5 6 
#
# 1 105.7132 14.3734 43.6141 -0.0034 -35.1181 0.0000
# 2 14.3734 131.7698 15.7261 -0.0238 -16.7333 -0.0059
# 3 43.6141 15.7261 76.2896 -0.0182 -29.1440 -0.0055
# 4 -0.0034 -0.0238 -0.0182 21.2484 -0.0081 -15.9057
# 5 -35.1181 -16.7333 -29.1440 -0.0081 61.1216 -0.0011
# 6 0.0000 -0.0059 -0.0055 -15.9057 -0.0011 21.3270
#
#
#
# Elastic Compliance Matrix: (Units=1/GPa)
#
#
# Indices 1 2 3 4 5 6 
#
# 1 0.013523 -0.000152 -0.005805 -0.000005 0.004960 -0.000005
# 2 -0.000152 0.007924 -0.000918 0.000023 0.001644 0.000019
# 3 -0.005805 -0.000918 0.018641 0.000044 0.005302 0.000038
# 4 -0.000005 0.000023 0.000044 0.106544 0.000040 0.079461
# 5 0.004960 0.001644 0.005302 0.000040 0.022189 0.000033
# 6 -0.000005 0.000019 0.000038 0.079461 0.000033 0.106152
#
#
# Mechanical properties :
#
#
# Convention : Reuss Voigt Hill
#
# Bulk Modulus (GPa) = 37.96880 51.24442 44.60661
# Shear Modulus (GPa) = 16.80659 36.74333 26.77496
#
# Velocity S-wave (km/s) = 2.59234 3.83303 3.27203
# Velocity P-wave (km/s) = 4.91349 6.33087 5.66667
#
# Compressibility (1/GPa) = 0.02633741
#
# Stress axis : x y z
#
# Youngs Moduli (GPa) = 73.94878 126.19929 53.64478
#
# Poissons Ratio (x) = 0.01924 0.31139
# Poissons Ratio (y) = 0.01127 0.04926
# Poissons Ratio (z) = 0.42924 0.11588
#
# Static dielectric constant tensor:
#      x y z
#    x 1.929370 0.000000 -0.010680 
#    y 0.000000 1.965500 0.000000 
#    z -0.010680 0.000000 2.165240 
# 
# From -- ./inp_files/56915.got.cif
#   From: 2010.05.17/outbox.cif.g08.bks.cpg/sg12_29_cif.got.tgz:56915.got - 2010.06.03 13:09:07.
