data_PCOD9219692
_publ_section_title
;
Structure prediction by ZEFSAII (Michael W. Deem and Ramdas Pophale) SiO2 
 PCOD9219692
Probable space group: C 2/M
;
_chemical_formula_sum "Si O2"
_cell_formula_units_Z 56
_cell_length_a 22.060660
_cell_length_b 20.033975
_cell_length_c 8.856000
_cell_angle_alpha 90.000000
_cell_angle_beta 58.278702
_cell_angle_gamma 90.000000
_cell_volume 3329.328453
_symmetry_space_group_name_H-M "C 2/M"
_symmetry_group_IT_number 12
_symmetry_cell_setting 'monoclinic'
loop_
_space_group_symop_operation_xyz
x,y,z
-x,y,-z
-x,-y,-z
x,-y,z
1/2+x,1/2+y,z
1/2-x,1/2+y,-z
1/2-x,1/2-y,-z
1/2+x,1/2-y,z
loop_
_atom_site_type_symbol
_atom_site_label
_atom_site_fract_x
_atom_site_fract_y
_atom_site_fract_z
Si Si1 0.683127 0.925361 0.675012
Si Si2 0.273601 0.682257 0.380782
Si Si3 0.540383 0.922755 0.662175
Si Si4 0.697001 0.209093 0.175698
Si Si5 0.934422 0.717432 0.484823
Si Si6 0.925980 0.764057 0.152280
Si Si7 0.892153 0.640430 0.967770
O O1 0.738106 0.875602 0.525270
O O2 0.605889 0.922111 0.694037
O O3 0.663536 0.904977 0.869645
O O4 0.710195 0.000000 0.628353
O O5 0.250000 0.750000 0.500000
O O6 0.241621 0.676922 0.253663
O O7 0.358319 0.687830 0.252142
O O8 0.563557 0.864063 0.516497
O O9 0.533640 0.000000 0.618902
O O10 0.465748 0.897671 0.832487
O O11 0.636836 0.247893 0.350691
O O12 0.750000 0.250000 0.000000
O O13 0.648039 0.165364 0.128727
O O14 0.938467 0.735131 0.303714
O O15 0.000000 0.740438 0.500000
O O16 0.908205 0.703581 0.058144
O O17 0.000000 0.794990 0.000000
#
# Coordination Sequence:
#
# PCOD9219692 Si02
#       7
#     8   8   8   8   8   8   8
#     4  11  22  38  57  81 113 157 198 234 283 341
#     4  12  21  38  59  81 112 150 194 238 288 335
#     4  11  21  33  52  76 115 160 192 218 266 336
#     4  12  22  34  54  83 111 151 190 242 283 325
#     4  12  22  36  51  80 114 150 189 233 277 333
#     4  12  21  37  58  80 112 145 187 233 295 334
#     4  12  20  35  53  80 117 152 190 227 275 343
#
# _framework density 16.820208999999998
#
# number of rings (size 3 to 8) (size 9 to 14) (size 15 to 20)
#    0.000    0.286   10.000    0.857    0.000    1.429 
#    0.000    1.429    0.000    0.429    0.000    0.000 
#    0.000    1.714    0.000    0.000    0.000    0.000 
#
# Total GULP energy -156161.294606 kJ/mol
# GULP energy per Si atom -5577.189093 kJ/mol
# Density = 1.678193 g / cm^3
# Si number density = 16.820209 Si / 1000 Ang^3
#
#
#
# Elastic Constant Matrix: (Units=GPa)
#
#
# Indices 1 2 3 4 5 6 
#
# 1 104.4724 26.5712 50.5214 0.0000 -2.3998 0.0000
# 2 26.5712 66.7389 49.7944 0.0000 -13.4068 0.0000
# 3 50.5214 49.7944 134.3955 0.0000 -18.5242 0.0000
# 4 0.0000 0.0000 0.0000 16.8561 0.0000 -9.7733
# 5 -2.3998 -13.4068 -18.5242 0.0000 46.1851 0.0000
# 6 0.0000 0.0000 0.0000 -9.7733 0.0000 18.6888
#
#
#
# Elastic Compliance Matrix: (Units=1/GPa)
#
#
# Indices 1 2 3 4 5 6 
#
# 1 0.011981 -0.002162 -0.003920 0.000000 -0.001577 0.000000
# 2 -0.002162 0.021528 -0.006687 0.000000 0.003455 0.000000
# 3 -0.003920 -0.006687 0.011746 0.000000 0.002566 0.000000
# 4 0.000000 0.000000 0.000000 0.085141 0.000000 0.044524
# 5 -0.001577 0.003455 0.002566 0.000000 0.023602 0.000000
# 6 0.000000 0.000000 0.000000 0.044524 0.000000 0.076792
#
#
# Mechanical properties :
#
#
# Convention : Reuss Voigt Hill
#
# Bulk Modulus (GPa) = 50.72100 62.15343 56.43722
# Shear Modulus (GPa) = 19.01851 28.26065 23.63958
#
# Velocity S-wave (km/s) = 3.36623 4.10342 3.75297
# Velocity P-wave (km/s) = 6.73267 7.71250 7.23918
#
# Compressibility (1/GPa) = 0.01971570
#
# Stress axis : x y z
#
# Youngs Moduli (GPa) = 83.46262 46.45102 85.13649
#
# Poissons Ratio (x) = 0.10043 0.33376
# Poissons Ratio (y) = 0.18046 0.56934
# Poissons Ratio (z) = 0.32720 0.31063
#
# Static dielectric constant tensor:
#      x y z
#    x 1.635770 0.000000 0.037390 
#    y 0.000000 1.561300 0.000000 
#    z 0.037390 0.000000 1.643020 
# 
# From -- ./inp_files/89087.got.cif
#   From: 2010.05.17/outbox.cif.g08.bks.cpg/sg12_45_cif.got.tgz:89087.got - 2010.06.03 13:09:07.
