data_PCOD9219351
_publ_section_title
;
Structure prediction by ZEFSAII (Michael W. Deem and Ramdas Pophale) SiO2 
 PCOD9219351
Probable space group: C 2/M
;
_chemical_formula_sum "Si O2"
_cell_formula_units_Z 30
_cell_length_a 11.144947
_cell_length_b 10.044063
_cell_length_c 20.870718
_cell_angle_alpha 90.000000
_cell_angle_beta 30.745673
_cell_angle_gamma 90.000000
_cell_volume 1194.371997
_symmetry_space_group_name_H-M "C 2/M"
_symmetry_group_IT_number 12
_symmetry_cell_setting 'monoclinic'
loop_
_space_group_symop_operation_xyz
x,y,z
-x,y,-z
-x,-y,-z
x,-y,z
1/2+x,1/2+y,z
1/2-x,1/2+y,-z
1/2-x,1/2-y,-z
1/2+x,1/2-y,z
loop_
_atom_site_type_symbol
_atom_site_label
_atom_site_fract_x
_atom_site_fract_y
_atom_site_fract_z
Si Si1 0.500000 0.284316 0.000000
Si Si2 0.311018 0.000000 0.240586
Si Si3 0.933088 0.500000 0.377898
Si Si4 0.290535 0.500000 0.322247
Si Si5 0.869002 0.000000 0.956700
Si Si6 0.500000 0.500000 0.500000
Si Si7 0.932111 0.209981 0.734976
O O1 0.456182 0.374169 0.958056
O O2 0.736461 0.205358 0.880138
O O3 0.192101 0.129866 0.264637
O O4 0.248037 0.000000 0.344322
O O5 0.585328 0.000000 0.093385
O O6 0.654245 0.500000 0.495767
O O7 0.044159 0.500000 0.398480
O O8 0.019940 0.359812 0.308461
O O9 0.487109 0.500000 0.175176
O O10 0.344449 0.630687 0.340318
#
# Coordination Sequence:
#
# PCOD9219351 Si02
#       7
#     4   4   4   4   4   2   8
#     4  11  20  35  68 112 148 190 224 290 356 442
#     4  11  27  47  72 107 142 195 243 301 349 429
#     4  12  27  49  74 107 141 194 236 300 354 425
#     4  11  25  46  74 114 147 187 231 296 355 444
#     4  11  22  39  71 108 151 186 235 285 363 423
#     4  12  30  50  76 100 142 190 250 296 364 414
#     4  11  25  46  73 110 148 185 243 289 364 425
#
# _framework density 25.117802999999999
#
# number of rings (size 3 to 8) (size 9 to 14) (size 15 to 20)
#    0.000    0.800    2.667    4.000    7.467    5.333 
#    0.000    1.333    0.000    0.000    0.000    0.000 
#    0.000    0.000    0.000    0.000    0.000    0.000 
#
# Total GULP energy -83761.453516 kJ/mol
# GULP energy per Si atom -5584.096901 kJ/mol
# Density = 2.506063 g / cm^3
# Si number density = 25.117803 Si / 1000 Ang^3
#
#
#
# Elastic Constant Matrix: (Units=GPa)
#
#
# Indices 1 2 3 4 5 6 
#
# 1 147.2130 62.3060 21.1073 -0.0001 -47.8748 -0.0003
# 2 62.3060 146.9098 38.1390 -0.0007 -8.9656 -0.0028
# 3 21.1073 38.1390 122.6208 -0.0025 -20.4167 0.0004
# 4 -0.0001 -0.0007 -0.0025 48.0958 0.0001 106.8043
# 5 -47.8748 -8.9656 -20.4167 0.0001 50.6607 -0.0006
# 6 -0.0003 -0.0028 0.0004 106.8043 -0.0006 306.5074
#
#
#
# Elastic Compliance Matrix: (Units=1/GPa)
#
#
# Indices 1 2 3 4 5 6 
#
# 1 0.012362 -0.004883 0.001278 0.000000 0.011333 0.000000
# 2 -0.004883 0.009341 -0.002742 -0.000001 -0.004066 0.000000
# 3 0.001278 -0.002742 0.009549 0.000002 0.004571 -0.000001
# 4 0.000000 -0.000001 0.000002 0.091919 0.000000 -0.032030
# 5 0.011333 -0.004066 0.004571 0.000000 0.031571 0.000000
# 6 0.000000 0.000000 -0.000001 -0.032030 0.000000 0.014424
#
#
# Mechanical properties :
#
#
# Convention : Reuss Voigt Hill
#
# Bulk Modulus (GPa) = 53.88452 73.31649 63.60050
# Shear Modulus (GPa) = 26.58916 100.73219 63.66068
#
# Velocity S-wave (km/s) = 3.25711 6.33963 5.03983
# Velocity P-wave (km/s) = 5.97029 9.10167 7.69690
#
# Compressibility (1/GPa) = 0.01855821
#
# Stress axis : x y z
#
# Youngs Moduli (GPa) = 80.89420 107.04935 104.72131
#
# Poissons Ratio (x) = 0.52271 -0.13381
# Poissons Ratio (y) = 0.39500 0.28715
# Poissons Ratio (z) = -0.10337 0.29353
#
# Static dielectric constant tensor:
#      x y z
#    x 2.010270 0.000000 0.008960 
#    y 0.000000 2.034450 0.000000 
#    z 0.008960 0.000000 2.029410 
# 
# From -- ./inp_files/127561.got.cif
#   From: 2010.05.17/outbox.cif.g08.bks.cpg/sg12_64_cif.got.tgz:127561.got - 2010.06.03 13:09:07.
