data_PCOD9219216
_publ_section_title
;
Structure prediction by ZEFSAII (Michael W. Deem and Ramdas Pophale) SiO2 
 PCOD9219216
Probable space group: C 2/M
;
_chemical_formula_sum "Si O2"
_cell_formula_units_Z 56
_cell_length_a 18.233908
_cell_length_b 8.122750
_cell_length_c 20.670767
_cell_angle_alpha 90.000000
_cell_angle_beta 102.164819
_cell_angle_gamma 90.000000
_cell_volume 2992.791106
_symmetry_space_group_name_H-M "C 2/M"
_symmetry_group_IT_number 12
_symmetry_cell_setting 'monoclinic'
loop_
_space_group_symop_operation_xyz
x,y,z
-x,y,-z
-x,-y,-z
x,-y,z
1/2+x,1/2+y,z
1/2-x,1/2+y,-z
1/2-x,1/2-y,-z
1/2+x,1/2-y,z
loop_
_atom_site_type_symbol
_atom_site_label
_atom_site_fract_x
_atom_site_fract_y
_atom_site_fract_z
Si Si1 0.343717 0.302461 0.690342
Si Si2 0.945973 0.193499 0.432923
Si Si3 0.281306 0.197845 0.436385
Si Si4 0.367939 0.687964 0.839600
Si Si5 0.431572 0.000000 0.078686
Si Si6 0.453334 0.680548 0.160547
Si Si7 0.488853 0.188158 0.300716
Si Si8 0.109685 0.500000 0.074337
O O1 0.353772 0.500000 0.686652
O O2 0.277247 0.252675 0.630462
O O3 0.330039 0.269449 0.763649
O O4 0.422139 0.222117 0.684611
O O5 0.861156 0.220482 0.438983
O O6 0.959872 0.278053 0.366894
O O7 0.000000 0.257136 0.500000
O O8 0.962378 0.000000 0.427309
O O9 0.250000 0.250000 0.500000
O O10 0.289517 0.000000 0.435738
O O11 0.347581 0.500000 0.855025
O O12 0.457516 0.684704 0.840368
O O13 0.356370 0.833632 0.888497
O O14 0.417504 0.165350 0.117043
O O15 0.521051 0.000000 0.078150
O O16 0.388903 0.000000 0.002710
O O17 0.424513 0.500000 0.136535
O O18 0.451225 0.704003 0.237434
O O19 0.475659 0.000000 0.279623
#
# Coordination Sequence:
#
# PCOD9219216 Si02
#       8
#     8   8   8   8   4   8   8   4
#     4   9  19  34  52  74 103 139 176 220 271 323
#     4  11  24  40  55  75 106 141 177 223 273 323
#     4  11  23  39  56  78 107 138 176 223 269 323
#     4   8  15  27  42  64  95 134 173 212 263 312
#     4   9  16  26  38  66  99 136 176 210 262 315
#     4   9  16  28  44  65  98 136 175 217 263 314
#     4  11  20  32  54  79 102 136 183 226 266 325
#     4   9  16  24  40  64 100 134 173 218 251 317
#
# _framework density 18.711631000000001
#
# number of rings (size 3 to 8) (size 9 to 14) (size 15 to 20)
#    0.000    2.286    0.714    3.857    3.000    6.286 
#    0.000    2.857    0.000    0.000    0.000    0.000 
#    0.000    1.143    0.571    0.000    0.000    0.000 
#
# Total GULP energy -156239.636045 kJ/mol
# GULP energy per Si atom -5579.987002 kJ/mol
# Density = 1.866904 g / cm^3
# Si number density = 18.711631 Si / 1000 Ang^3
#
#
#
# Elastic Constant Matrix: (Units=GPa)
#
#
# Indices 1 2 3 4 5 6 
#
# 1 28.9519 13.8340 30.3452 0.0000 0.3755 0.0000
# 2 13.8340 94.5577 64.2640 0.0000 7.2140 0.0000
# 3 30.3452 64.2640 141.1806 0.0000 10.0859 0.0000
# 4 0.0000 0.0000 0.0000 28.8916 0.0000 2.9317
# 5 0.3755 7.2140 10.0859 0.0000 14.9218 0.0000
# 6 0.0000 0.0000 0.0000 2.9317 0.0000 5.6689
#
#
#
# Elastic Compliance Matrix: (Units=1/GPa)
#
#
# Indices 1 2 3 4 5 6 
#
# 1 0.045042 -0.000245 -0.009979 0.000000 0.005730 0.000000
# 2 -0.000245 0.015428 -0.006765 0.000000 -0.002881 0.000000
# 3 -0.009979 -0.006765 0.012667 0.000000 -0.005041 0.000000
# 4 0.000000 0.000000 0.000000 0.036529 0.000000 -0.018891
# 5 0.005730 -0.002881 -0.005041 0.000000 0.071672 0.000000
# 6 0.000000 0.000000 0.000000 -0.018891 0.000000 0.186172
#
#
# Mechanical properties :
#
#
# Convention : Reuss Voigt Hill
#
# Bulk Modulus (GPa) = 25.53564 53.50850 39.52207
# Shear Modulus (GPa) = 12.06154 20.31293 16.18723
#
# Velocity S-wave (km/s) = 2.54165 3.29838 2.94443
# Velocity P-wave (km/s) = 4.72122 6.56995 5.72076
#
# Compressibility (1/GPa) = 0.03916095
#
# Stress axis : x y z
#
# Youngs Moduli (GPa) = 22.20142 64.81526 78.94339
#
# Poissons Ratio (x) = 0.01586 0.78780
# Poissons Ratio (y) = 0.00543 0.53401
# Poissons Ratio (z) = 0.22155 0.43844
#
# Static dielectric constant tensor:
#      x y z
#    x 1.617480 0.000000 0.007550 
#    y 0.000000 1.638300 0.000000 
#    z 0.007550 0.000000 1.635980 
# 
# From -- ./inp_files/280459.got.cif
#   From: 2010.05.17/outbox.cif.g08.bks.cpg/sg12_141_cif.got.tgz:280459.got - 2010.06.03 13:09:07.
