data_PCOD9219966
_publ_section_title
;
Structure prediction by ZEFSAII (Michael W. Deem and Ramdas Pophale) SiO2 
 PCOD9219966
Probable space group: C 2/M
;
_chemical_formula_sum "Si O2"
_cell_formula_units_Z 56
_cell_length_a 14.366280
_cell_length_b 11.187787
_cell_length_c 26.243802
_cell_angle_alpha 90.000000
_cell_angle_beta 138.058927
_cell_angle_gamma 90.000000
_cell_volume 2819.224009
_symmetry_space_group_name_H-M "C 2/M"
_symmetry_group_IT_number 12
_symmetry_cell_setting 'monoclinic'
loop_
_space_group_symop_operation_xyz
x,y,z
-x,y,-z
-x,-y,-z
x,-y,z
1/2+x,1/2+y,z
1/2-x,1/2+y,-z
1/2-x,1/2-y,-z
1/2+x,1/2-y,z
loop_
_atom_site_type_symbol
_atom_site_label
_atom_site_fract_x
_atom_site_fract_y
_atom_site_fract_z
Si Si1 0.922543 0.859565 0.019085
Si Si2 0.903989 0.260353 0.820768
Si Si3 0.151865 0.361842 0.404624
Si Si4 0.141102 0.640293 0.523257
Si Si5 0.210740 0.500000 0.060096
Si Si6 0.661353 0.248233 0.869386
Si Si7 0.660330 0.861262 0.761425
Si Si8 0.933374 0.500000 0.889189
O O1 0.994646 0.803817 0.097116
O O2 0.943916 0.000000 0.029500
O O3 0.760658 0.831213 0.945660
O O4 0.000000 0.809572 0.000000
O O5 0.762989 0.186350 0.759418
O O6 0.882303 0.387948 0.836706
O O7 0.998483 0.274444 0.809911
O O8 0.202336 0.500000 0.415336
O O9 0.123819 0.354763 0.454452
O O10 0.251885 0.253156 0.426222
O O11 0.000375 0.348951 0.317625
O O12 0.187107 0.500000 0.552649
O O13 0.000000 0.657252 0.500000
O O14 0.302092 0.381938 0.099597
O O15 0.130252 0.500000 0.080769
O O16 0.099294 0.500000 0.968826
O O17 0.698054 0.214515 0.826757
O O18 0.690980 0.000000 0.784538
#
# Coordination Sequence:
#
# PCOD9219966 Si02
#       8
#     8   8   8   8   4   8   8   4
#     4  11  21  37  59  81 104 141 197 253 300 353
#     4  12  25  38  58  82 109 150 197 247 302 353
#     4   9  20  39  64  91 125 163 195 234 281 336
#     4   9  18  37  68 101 129 155 190 234 280 335
#     4  11  22  40  56  77 109 143 189 258 315 351
#     4  12  25  38  58  82 109 150 197 249 301 355
#     4  11  24  44  59  80 121 161 196 233 283 352
#     4  11  22  40  56  75 113 143 185 260 315 349
#
# _framework density 19.863621999999999
#
# number of rings (size 3 to 8) (size 9 to 14) (size 15 to 20)
#    0.000    1.286    4.286    1.286    4.000    1.429 
#    2.571    0.000    0.000    0.000    0.000    0.000 
#    0.000    0.000    0.000    0.000    0.000    0.000 
#
# Total GULP energy -156228.352792 kJ/mol
# GULP energy per Si atom -5579.584028 kJ/mol
# Density = 1.981841 g / cm^3
# Si number density = 19.863622 Si / 1000 Ang^3
#
#
#
# Elastic Constant Matrix: (Units=GPa)
#
#
# Indices 1 2 3 4 5 6 
#
# 1 103.5493 39.6508 4.4051 0.0000 22.6131 0.0000
# 2 39.6508 115.5477 31.5860 0.0000 16.6376 0.0000
# 3 4.4051 31.5860 44.6129 0.0000 15.2948 0.0000
# 4 0.0000 0.0000 0.0000 26.6970 0.0000 8.5781
# 5 22.6131 16.6376 15.2948 0.0000 18.0986 0.0000
# 6 0.0000 0.0000 0.0000 8.5781 0.0000 27.4150
#
#
#
# Elastic Compliance Matrix: (Units=1/GPa)
#
#
# Indices 1 2 3 4 5 6 
#
# 1 0.016550 -0.004934 0.010409 0.000000 -0.024939 0.000000
# 2 -0.004934 0.012513 -0.009210 0.000000 0.002445 0.000000
# 3 0.010409 -0.009210 0.041482 0.000000 -0.039594 0.000000
# 4 0.000000 0.000000 0.000000 0.041644 0.000000 -0.013030
# 5 -0.024939 0.002445 -0.039594 0.000000 0.117626 0.000000
# 6 0.000000 0.000000 0.000000 -0.013030 0.000000 0.040553
#
#
# Mechanical properties :
#
#
# Convention : Reuss Voigt Hill
#
# Bulk Modulus (GPa) = 15.85410 46.11041 30.98226
# Shear Modulus (GPa) = 16.73002 26.97999 21.85500
#
# Velocity S-wave (km/s) = 2.90529 3.68946 3.32060
# Velocity P-wave (km/s) = 4.38784 6.43532 5.50756
#
# Compressibility (1/GPa) = 0.06307517
#
# Stress axis : x y z
#
# Youngs Moduli (GPa) = 60.42408 79.91625 24.10656
#
# Poissons Ratio (x) = 0.39427 -0.25092
# Poissons Ratio (y) = 0.29810 0.22203
# Poissons Ratio (z) = -0.62893 0.73605
#
# Static dielectric constant tensor:
#      x y z
#    x 1.768580 0.000000 0.018510 
#    y 0.000000 1.720620 0.000000 
#    z 0.018510 0.000000 1.666020 
# 
# From -- ./inp_files/360870.got.cif
#   From: 2010.05.17/outbox.cif.g08.bks.cpg/sg12_181_cif.got.tgz:360870.got - 2010.06.03 13:09:07.
