data_PCOD9219567
_publ_section_title
;
Structure prediction by ZEFSAII (Michael W. Deem and Ramdas Pophale) SiO2 
 PCOD9219567
Probable space group: C 2/M
;
_chemical_formula_sum "Si O2"
_cell_formula_units_Z 48
_cell_length_a 16.592506
_cell_length_b 15.230916
_cell_length_c 16.683060
_cell_angle_alpha 90.000000
_cell_angle_beta 36.139025
_cell_angle_gamma 90.000000
_cell_volume 2486.446564
_symmetry_space_group_name_H-M "C 2/M"
_symmetry_group_IT_number 12
_symmetry_cell_setting 'monoclinic'
loop_
_space_group_symop_operation_xyz
x,y,z
-x,y,-z
-x,-y,-z
x,-y,z
1/2+x,1/2+y,z
1/2-x,1/2+y,-z
1/2-x,1/2-y,-z
1/2+x,1/2-y,z
loop_
_atom_site_type_symbol
_atom_site_label
_atom_site_fract_x
_atom_site_fract_y
_atom_site_fract_z
Si Si1 0.315643 0.641572 0.091060
Si Si2 0.114953 0.903723 0.790202
Si Si3 0.337277 0.600056 0.629275
Si Si4 0.353760 0.851084 0.073913
Si Si5 0.076832 0.599179 0.159441
Si Si6 0.676439 0.229669 0.641873
O O1 0.303837 0.607774 0.191422
O O2 0.334045 0.746560 0.080924
O O3 0.191382 0.615947 0.134176
O O4 0.455807 0.603384 0.942485
O O5 0.145847 0.821856 0.709198
O O6 0.142746 0.000000 0.733137
O O7 0.500000 0.612211 0.500000
O O8 0.309220 0.500000 0.625289
O O9 0.265405 0.612896 0.773363
O O10 0.269661 0.670493 0.624965
O O11 0.500000 0.866865 0.000000
O O12 0.359872 0.891085 0.980483
O O13 0.022451 0.500000 0.211433
O O14 0.960792 0.673010 0.259718
O O15 0.750000 0.250000 0.500000
#
# Coordination Sequence:
#
# PCOD9219567 Si02
#       6
#     8   8   8   8   8   8
#     4  11  20  41  66  98 130 166 211 273 329 385
#     4  11  22  42  67  95 129 172 219 266 328 391
#     4  11  25  45  69  96 131 174 218 268 329 396
#     4  12  21  42  73  98 132 177 214 270 334 388
#     4  12  25  40  66 101 131 166 220 278 327 388
#     4  12  27  43  64  91 130 178 215 275 330 389
#
# _framework density 19.304658
#
# number of rings (size 3 to 8) (size 9 to 14) (size 15 to 20)
#    0.000    0.500    6.667    3.500    2.333    2.000 
#    0.000    1.667    0.000    2.500    0.000    0.000 
#    0.000    0.000    0.000    0.000    0.000    0.000 
#
# Total GULP energy -134246.920143 kJ/mol
# GULP energy per Si atom -5593.621673 kJ/mol
# Density = 1.926072 g / cm^3
# Si number density = 19.304658 Si / 1000 Ang^3
#
#
#
# Elastic Constant Matrix: (Units=GPa)
#
#
# Indices 1 2 3 4 5 6 
#
# 1 130.1488 67.2405 69.9612 -0.0001 -0.6603 0.0000
# 2 67.2405 174.2968 57.2380 0.0000 0.0248 0.0000
# 3 69.9612 57.2380 135.0185 0.0000 14.2409 0.0000
# 4 -0.0001 0.0000 0.0000 13.6996 0.0000 0.9220
# 5 -0.6603 0.0248 14.2409 0.0000 27.8220 0.0000
# 6 0.0000 0.0000 0.0000 0.9220 0.0000 -16.1672
#
#
#
# Elastic Compliance Matrix: (Units=1/GPa)
#
#
# Indices 1 2 3 4 5 6 
#
# 1 0.012070 -0.002902 -0.005343 0.000000 0.003024 0.000000
# 2 -0.002902 0.007425 -0.001729 0.000000 0.000810 0.000000
# 3 -0.005343 -0.001729 0.011544 0.000000 -0.006034 0.000000
# 4 0.000000 0.000000 0.000000 0.072716 0.000000 0.004147
# 5 0.003024 0.000810 -0.006034 0.000000 0.039103 0.000000
# 6 0.000000 0.000000 0.000000 0.004147 0.000000 -0.061617
#
#
# Mechanical properties :
#
#
# Convention : Reuss Voigt Hill
#
# Bulk Modulus (GPa) = 90.16513 92.03816 91.10165
# Shear Modulus (GPa) = 47.67045 21.40582 34.53814
#
# Velocity S-wave (km/s) = 4.97467 3.33354 4.23437
# Velocity P-wave (km/s) = 8.93332 7.91182 8.43804
#
# Compressibility (1/GPa) = 0.01109076
#
# Stress axis : x y z
#
# Youngs Moduli (GPa) = 82.84687 134.68539 86.62250
#
# Poissons Ratio (x) = 0.39091 0.46282
# Poissons Ratio (y) = 0.24045 0.14977
# Poissons Ratio (z) = 0.44265 0.23287
#
# Static dielectric constant tensor:
#      x y z
#    x 1.652180 0.000000 -0.000370 
#    y 0.000000 1.684190 0.000000 
#    z -0.000370 0.000000 1.648060 
# 
# From -- ./inp_files/278035.got.cif
#   From: 2010.05.17/outbox.cif.g08.bks.cpg/sg12_140_cif.got.tgz:278035.got - 2010.06.03 13:09:07.
