data_PCOD9219089
_publ_section_title
;
Structure prediction by ZEFSAII (Michael W. Deem and Ramdas Pophale) SiO2 
 PCOD9219089
Probable space group: C 2/M
;
_chemical_formula_sum "Si O2"
_cell_formula_units_Z 48
_cell_length_a 14.526140
_cell_length_b 20.330011
_cell_length_c 12.436300
_cell_angle_alpha 90.000000
_cell_angle_beta 47.765825
_cell_angle_gamma 90.000000
_cell_volume 2719.240823
_symmetry_space_group_name_H-M "C 2/M"
_symmetry_group_IT_number 12
_symmetry_cell_setting 'monoclinic'
loop_
_space_group_symop_operation_xyz
x,y,z
-x,y,-z
-x,-y,-z
x,-y,z
1/2+x,1/2+y,z
1/2-x,1/2+y,-z
1/2-x,1/2-y,-z
1/2+x,1/2-y,z
loop_
_atom_site_type_symbol
_atom_site_label
_atom_site_fract_x
_atom_site_fract_y
_atom_site_fract_z
Si Si1 0.790369 0.810588 0.677044
Si Si2 0.408847 0.077400 0.171318
Si Si3 0.705981 0.076869 0.328064
Si Si4 0.096082 0.809635 0.827308
Si Si5 0.013582 0.221284 0.656646
Si Si6 0.009658 0.620279 0.659547
O O1 0.712761 0.877399 0.741179
O O2 0.693658 0.750458 0.758863
O O3 0.890277 0.804096 0.693967
O O4 0.868553 0.802894 0.505652
O O5 0.475411 0.095984 0.230948
O O6 0.379732 0.000000 0.193422
O O7 0.500000 0.091766 0.000000
O O8 0.824902 0.123511 0.232047
O O9 0.624115 0.093796 0.497975
O O10 0.614808 0.094663 0.300397
O O11 0.735633 0.000000 0.303413
O O12 0.027097 0.801812 0.767724
O O13 0.000000 0.806442 0.000000
O O14 0.012067 0.300626 0.653459
#
# Coordination Sequence:
#
# PCOD9219089 Si02
#       6
#     8   8   8   8   8   8
#     4  11  21  41  61  85 116 152 191 243 283 334
#     4  11  24  39  58  87 120 155 192 233 285 341
#     4  11  22  38  60  88 117 149 193 240 288 337
#     4  12  24  37  58  89 118 155 189 230 292 346
#     4  11  22  38  64  89 114 144 199 242 284 336
#     4  11  19  38  64  89 112 147 195 248 283 331
#
# _framework density 17.651986000000001
#
# number of rings (size 3 to 8) (size 9 to 14) (size 15 to 20)
#    0.000    0.833    5.000    5.000    0.000    2.333 
#    0.000    2.500    0.000    0.000    0.000    0.000 
#    0.000    0.000    0.000    0.000    0.000    0.000 
#
# Total GULP energy -134211.059007 kJ/mol
# GULP energy per Si atom -5592.127459 kJ/mol
# Density = 1.761181 g / cm^3
# Si number density = 17.651986 Si / 1000 Ang^3
#
#
#
# Elastic Constant Matrix: (Units=GPa)
#
#
# Indices 1 2 3 4 5 6 
#
# 1 106.6201 45.0659 76.9899 -0.0001 35.7550 0.0000
# 2 45.0659 98.9124 21.5969 0.0000 28.8385 0.0000
# 3 76.9899 21.5969 70.5622 -0.0001 56.2052 0.0001
# 4 -0.0001 0.0000 -0.0001 28.6021 0.0001 -11.2347
# 5 35.7550 28.8385 56.2052 0.0001 2.3272 0.0000
# 6 0.0000 0.0000 0.0001 -11.2347 0.0000 2.5231
#
#
#
# Elastic Compliance Matrix: (Units=1/GPa)
#
#
# Indices 1 2 3 4 5 6 
#
# 1 0.027915 -0.004236 -0.014840 0.000000 -0.017979 -0.000001
# 2 -0.004236 0.011115 -0.003240 0.000000 0.005599 0.000000
# 3 -0.014840 -0.003240 0.009993 0.000000 0.026820 0.000000
# 4 0.000000 0.000000 0.000000 -0.046678 0.000001 -0.207847
# 5 -0.017979 0.005599 0.026820 0.000001 -0.011194 0.000001
# 6 -0.000001 0.000000 0.000000 -0.207847 0.000001 -0.529152
#
#
# Mechanical properties :
#
#
# Convention : Reuss Voigt Hill
#
# Bulk Modulus (GPa) = 227.80391 62.60002 145.20196
# Shear Modulus (GPa) = -10.16455 15.51995 2.67770
#
# Velocity S-wave (km/s) = -2.40225 2.96838 1.23298
# Velocity P-wave (km/s) = 11.02899 6.87668 9.19041
#
# Compressibility (1/GPa) = 0.00438974
#
# Stress axis : x y z
#
# Youngs Moduli (GPa) = 35.82289 89.96919 100.07470
#
# Poissons Ratio (x) = 0.38113 1.48513
# Poissons Ratio (y) = 0.15175 0.32424
# Poissons Ratio (z) = 0.53162 0.29149
#
# Static dielectric constant tensor:
#      x y z
#    x 1.591780 0.000000 0.008800 
#    y 0.000000 1.582820 0.000000 
#    z 0.008800 0.000000 1.576940 
# 
# From -- ./inp_files/147910.got.cif
#   From: 2010.05.17/outbox.cif.g08.bks.cpg/sg12_74_cif.got.tgz:147910.got - 2010.06.03 13:09:07.
