data_PCOD9219463
_publ_section_title
;
Structure prediction by ZEFSAII (Michael W. Deem and Ramdas Pophale) SiO2 
 PCOD9219463
Probable space group: C 2/M
;
_chemical_formula_sum "Si O2"
_cell_formula_units_Z 56
_cell_length_a 7.448992
_cell_length_b 24.592111
_cell_length_c 15.101746
_cell_angle_alpha 90.000000
_cell_angle_beta 68.307316
_cell_angle_gamma 90.000000
_cell_volume 2570.515509
_symmetry_space_group_name_H-M "C 2/M"
_symmetry_group_IT_number 12
_symmetry_cell_setting 'monoclinic'
loop_
_space_group_symop_operation_xyz
x,y,z
-x,y,-z
-x,-y,-z
x,-y,z
1/2+x,1/2+y,z
1/2-x,1/2+y,-z
1/2-x,1/2-y,-z
1/2+x,1/2-y,z
loop_
_atom_site_type_symbol
_atom_site_label
_atom_site_fract_x
_atom_site_fract_y
_atom_site_fract_z
Si Si1 0.465825 0.645832 0.603742
Si Si2 0.534309 0.000000 0.840994
Si Si3 0.728142 0.115747 0.963657
Si Si4 0.295858 0.500000 0.966689
Si Si5 0.807736 0.436455 0.595613
Si Si6 0.205626 0.313381 0.143803
Si Si7 0.050442 0.397074 0.714934
Si Si8 0.423158 0.691890 0.801924
O O1 0.500000 0.670950 0.500000
O O2 0.634392 0.601849 0.593683
O O3 0.258642 0.616069 0.636564
O O4 0.455770 0.685941 0.690696
O O5 0.570145 0.947076 0.777496
O O6 0.670574 0.000000 0.900418
O O7 0.319109 0.000000 0.919666
O O8 0.864294 0.062634 0.949629
O O9 0.779847 0.145858 0.863930
O O10 0.500000 0.099996 0.000000
O O11 0.747642 0.157766 0.042089
O O12 0.747826 0.500000 0.611300
O O13 0.000000 0.433557 0.500000
O O14 0.888053 0.415188 0.674381
O O15 0.383506 0.319170 0.178152
O O16 0.156129 0.249845 0.151190
O O17 0.027861 0.344489 0.220664
#
# Coordination Sequence:
#
# PCOD9219463 Si02
#       8
#     8   4   8   4   8   8   8   8
#     4  12  26  45  71 104 141 188 238 295 359 420
#     4  11  20  38  65 102 137 191 220 282 356 415
#     4  12  22  43  69 104 142 186 233 286 353 429
#     4  11  20  38  64 103 143 177 236 270 353 433
#     4  11  24  44  69 104 140 186 240 290 346 423
#     4  12  25  47  71  99 140 180 239 298 348 430
#     4  12  23  43  71  99 143 185 233 292 356 417
#     4  12  27  46  69 103 134 187 243 293 360 420
#
# _framework density 21.785512000000001
#
# number of rings (size 3 to 8) (size 9 to 14) (size 15 to 20)
#    0.000    0.286    6.429    4.286    1.000    0.286 
#    1.286    5.714    0.000    0.000    0.000    0.000 
#    0.000    0.000    0.000    0.000    0.000    0.000 
#
# Total GULP energy -156512.138461 kJ/mol
# GULP energy per Si atom -5589.719231 kJ/mol
# Density = 2.173593 g / cm^3
# Si number density = 21.785512 Si / 1000 Ang^3
#
#
#
# Elastic Constant Matrix: (Units=GPa)
#
#
# Indices 1 2 3 4 5 6 
#
# 1 107.5515 13.3506 15.7369 0.0000 15.9578 0.0000
# 2 13.3506 132.0283 33.2046 0.0000 6.6809 0.0000
# 3 15.7369 33.2046 114.5800 0.0000 25.0325 0.0000
# 4 0.0000 0.0000 0.0000 42.8873 0.0000 -10.2310
# 5 15.9578 6.6809 25.0325 0.0000 35.1980 0.0000
# 6 0.0000 0.0000 0.0000 -10.2310 0.0000 40.2063
#
#
#
# Elastic Compliance Matrix: (Units=1/GPa)
#
#
# Indices 1 2 3 4 5 6 
#
# 1 0.010055 -0.000742 -0.000238 0.000000 -0.004249 0.000000
# 2 -0.000742 0.008225 -0.002385 0.000000 0.000471 0.000000
# 3 -0.000238 -0.002385 0.011045 0.000000 -0.007295 0.000000
# 4 0.000000 0.000000 0.000000 0.024824 0.000000 0.006317
# 5 -0.004249 0.000471 -0.007295 0.000000 0.035435 0.000000
# 6 0.000000 0.000000 0.000000 0.006317 0.000000 0.026479
#
#
# Mechanical properties :
#
#
# Convention : Reuss Voigt Hill
#
# Bulk Modulus (GPa) = 44.25468 53.19376 48.72422
# Shear Modulus (GPa) = 38.36583 43.11616 40.74099
#
# Velocity S-wave (km/s) = 4.20106 4.45356 4.32915
# Velocity P-wave (km/s) = 6.62494 7.13552 6.88496
#
# Compressibility (1/GPa) = 0.02259648
#
# Stress axis : x y z
#
# Youngs Moduli (GPa) = 99.45134 121.58003 90.53957
#
# Poissons Ratio (x) = 0.09021 0.02153
# Poissons Ratio (y) = 0.07379 0.21590
# Poissons Ratio (z) = 0.02364 0.28992
#
# Static dielectric constant tensor:
#      x y z
#    x 1.848140 0.000000 -0.008140 
#    y 0.000000 1.804490 0.000000 
#    z -0.008140 0.000000 1.794450 
# 
# From -- ./inp_files/198836.got.cif
#   From: 2010.05.17/outbox.cif.g08.bks.cpg/sg12_100_cif.got.tgz:198836.got - 2010.06.03 13:09:07.
