data_PCOD9219683
_publ_section_title
;
Structure prediction by ZEFSAII (Michael W. Deem and Ramdas Pophale) SiO2 
 PCOD9219683
Probable space group: C 2/M
;
_chemical_formula_sum "Si O2"
_cell_formula_units_Z 48
_cell_length_a 15.837539
_cell_length_b 8.134379
_cell_length_c 16.246167
_cell_angle_alpha 90.000000
_cell_angle_beta 62.010738
_cell_angle_gamma 90.000000
_cell_volume 1848.166986
_symmetry_space_group_name_H-M "C 2/M"
_symmetry_group_IT_number 12
_symmetry_cell_setting 'monoclinic'
loop_
_space_group_symop_operation_xyz
x,y,z
-x,y,-z
-x,-y,-z
x,-y,z
1/2+x,1/2+y,z
1/2-x,1/2+y,-z
1/2-x,1/2-y,-z
1/2+x,1/2-y,z
loop_
_atom_site_type_symbol
_atom_site_label
_atom_site_fract_x
_atom_site_fract_y
_atom_site_fract_z
Si Si1 0.116110 0.307886 0.944346
Si Si2 0.948919 0.192696 0.433411
Si Si3 0.860301 0.684470 0.716087
Si Si4 0.626214 0.689421 0.117593
Si Si5 0.907498 0.298490 0.223910
Si Si6 0.235912 0.190832 0.398957
O O1 0.140564 0.500000 0.937310
O O2 0.138715 0.246184 0.842575
O O3 0.153287 0.229191 0.011265
O O4 0.000000 0.296737 0.000000
O O5 0.842483 0.262017 0.502091
O O6 0.000000 0.196172 0.500000
O O7 0.024358 0.290109 0.343418
O O8 0.944891 0.000000 0.411151
O O9 0.837255 0.500000 0.700927
O O10 0.832149 0.714252 0.823430
O O11 0.814621 0.801729 0.668459
O O12 0.642932 0.500000 0.126457
O O13 0.513099 0.727899 0.174093
O O14 0.912397 0.500000 0.222205
O O15 0.840224 0.239696 0.329093
O O16 0.245919 0.000000 0.416008
#
# Coordination Sequence:
#
# PCOD9219683 Si02
#       6
#     8   8   8   8   8   8
#     4   8  15  30  51  73  98 129 164 200 242 294
#     4   8  15  30  51  73  98 129 164 200 242 294
#     4  11  21  33  51  74 101 132 169 208 246 291
#     4  11  21  33  51  74 101 132 169 208 246 291
#     4   9  18  34  55  77 102 131 162 200 248 298
#     4   9  18  34  55  77 102 131 162 200 248 298
#
# _framework density 25.971679000000002
#
# number of rings (size 3 to 8) (size 9 to 14) (size 15 to 20)
#    0.000    2.667    0.000    5.000    0.000    6.667 
#    0.000    1.667    0.000    0.000    0.000    0.000 
#    0.000    0.000    0.000    0.000    0.000    0.000 
#
# Total GULP energy -134239.405999 kJ/mol
# GULP energy per Si atom -5593.308583 kJ/mol
# Density = 2.591257 g / cm^3
# Si number density = 25.971679 Si / 1000 Ang^3
#
#
#
# Elastic Constant Matrix: (Units=GPa)
#
#
# Indices 1 2 3 4 5 6 
#
# 1 99.5928 -4.5277 19.4646 0.0000 -7.7509 0.0000
# 2 -4.5277 63.0352 6.8993 0.0000 7.7325 0.0002
# 3 19.4646 6.8993 185.7724 0.0000 4.4030 0.0000
# 4 0.0000 0.0000 0.0000 25.4676 0.0000 11.8712
# 5 -7.7509 7.7325 4.4030 0.0000 41.0109 0.0000
# 6 0.0000 0.0002 0.0000 11.8712 0.0000 12.7166
#
#
#
# Elastic Compliance Matrix: (Units=1/GPa)
#
#
# Indices 1 2 3 4 5 6 
#
# 1 0.010452 0.000635 -0.001166 0.000000 0.001981 0.000000
# 2 0.000635 0.016331 -0.000604 0.000000 -0.002894 0.000000
# 3 -0.001166 -0.000604 0.005544 0.000000 -0.000702 0.000000
# 4 0.000000 0.000000 0.000000 0.069514 0.000000 -0.064893
# 5 0.001981 -0.002894 -0.000702 0.000000 0.025379 0.000000
# 6 0.000000 0.000000 0.000000 -0.064893 0.000000 0.139217
#
#
# Mechanical properties :
#
#
# Convention : Reuss Voigt Hill
#
# Bulk Modulus (GPa) = 33.26980 43.56365 38.41672
# Shear Modulus (GPa) = 17.93878 37.60996 27.77437
#
# Velocity S-wave (km/s) = 2.63098 3.80954 3.27373
# Velocity P-wave (km/s) = 4.69758 6.01332 5.39571
#
# Compressibility (1/GPa) = 0.03005729
#
# Stress axis : x y z
#
# Youngs Moduli (GPa) = 95.67789 61.23335 180.37065
#
# Poissons Ratio (x) = -0.03890 0.21025
# Poissons Ratio (y) = -0.06079 0.10903
# Poissons Ratio (z) = 0.11153 0.03701
#
# Static dielectric constant tensor:
#      x y z
#    x 2.178950 0.000000 -0.025790 
#    y 0.000000 1.885850 0.000000 
#    z -0.025790 0.000000 2.082070 
# 
# From -- ./inp_files/274003.got.cif
#   From: 2010.05.17/outbox.cif.g08.bks.cpg/sg12_138_cif.got.tgz:274003.got - 2010.06.03 13:09:07.
