data_PCOD9219320
_publ_section_title
;
Structure prediction by ZEFSAII (Michael W. Deem and Ramdas Pophale) SiO2 
 PCOD9219320
Probable space group: C 2/M
;
_chemical_formula_sum "Si O2"
_cell_formula_units_Z 58
_cell_length_a 19.346461
_cell_length_b 7.802612
_cell_length_c 20.176584
_cell_angle_alpha 90.000000
_cell_angle_beta 111.129312
_cell_angle_gamma 90.000000
_cell_volume 2840.948755
_symmetry_space_group_name_H-M "C 2/M"
_symmetry_group_IT_number 12
_symmetry_cell_setting 'monoclinic'
loop_
_space_group_symop_operation_xyz
x,y,z
-x,y,-z
-x,-y,-z
x,-y,z
1/2+x,1/2+y,z
1/2-x,1/2+y,-z
1/2-x,1/2-y,-z
1/2+x,1/2-y,z
loop_
_atom_site_type_symbol
_atom_site_label
_atom_site_fract_x
_atom_site_fract_y
_atom_site_fract_z
Si Si1 0.551608 0.710251 0.578223
Si Si2 0.211034 0.807812 0.053768
Si Si3 0.920148 0.687297 0.906740
Si Si4 0.666883 0.299794 0.805562
Si Si5 0.371156 0.300071 0.748318
Si Si6 0.009198 0.209262 0.711210
Si Si7 0.000000 0.000000 0.000000
Si Si8 0.289496 0.699515 0.334227
O O1 0.500000 0.764781 0.500000
O O2 0.553359 0.500000 0.579294
O O3 0.519647 0.764444 0.638710
O O4 0.637415 0.767318 0.603462
O O5 0.143088 0.698730 0.058283
O O6 0.275342 0.802230 0.130798
O O7 0.180350 0.000000 0.035260
O O8 0.250000 0.750000 0.000000
O O9 0.955978 0.500000 0.919449
O O10 0.878371 0.709615 0.821879
O O11 0.973747 0.846665 0.938637
O O12 0.671032 0.500000 0.827754
O O13 0.581979 0.239876 0.778049
O O14 0.689149 0.291611 0.736225
O O15 0.385048 0.500000 0.765671
O O16 0.434612 0.234226 0.720909
O O17 0.290366 0.283352 0.688134
O O18 0.010242 0.000000 0.710066
O O19 0.280633 0.500000 0.348627
#
# Coordination Sequence:
#
# PCOD9219320 Si02
#       8
#     8   8   8   8   8   8   2   8
#     4   8  14  29  54  85 118 154 203 255 303 363
#     4  12  24  40  60  88 119 154 203 257 317 377
#     4  12  25  45  67  89 122 167 212 263 317 381
#     4   9  17  34  56  78 106 146 199 250 301 357
#     4  11  20  35  57  85 121 157 205 257 309 370
#     4   8  17  31  52  82 115 155 200 252 303 361
#     4  12  26  48  64  94 128 168 210 254 332 394
#     4   9  17  30  55  83 109 151 198 247 303 362
#
# _framework density 20.415716
#
# number of rings (size 3 to 8) (size 9 to 14) (size 15 to 20)
#    0.000    2.069    2.759    3.517    0.000    1.103 
#    2.483    3.448    0.000    2.069    0.000    0.000 
#    0.000    0.000    0.000    0.000    0.000    0.000 
#
# Total GULP energy -161617.046040 kJ/mol
# GULP energy per Si atom -5573.001588 kJ/mol
# Density = 2.036925 g / cm^3
# Si number density = 20.415716 Si / 1000 Ang^3
#
#
#
# Elastic Constant Matrix: (Units=GPa)
#
#
# Indices 1 2 3 4 5 6 
#
# 1 85.6663 10.2641 3.1540 0.0000 8.5299 0.0000
# 2 10.2641 85.0079 14.5084 0.0000 2.9893 0.0000
# 3 3.1540 14.5084 62.1516 0.0000 21.4360 0.0000
# 4 0.0000 0.0000 0.0000 12.5520 0.0000 7.8192
# 5 8.5299 2.9893 21.4360 0.0000 28.2907 0.0000
# 6 0.0000 0.0000 0.0000 7.8192 0.0000 13.4551
#
#
#
# Elastic Compliance Matrix: (Units=1/GPa)
#
#
# Indices 1 2 3 4 5 6 
#
# 1 0.012260 -0.001543 0.001295 0.000000 -0.004515 0.000000
# 2 -0.001543 0.012475 -0.003438 0.000000 0.001752 0.000000
# 3 0.001295 -0.003438 0.022792 0.000000 -0.017297 0.000000
# 4 0.000000 0.000000 0.000000 0.124875 0.000000 -0.072569
# 5 -0.004515 0.001752 -0.017297 0.000000 0.049629 0.000000
# 6 0.000000 0.000000 0.000000 -0.072569 0.000000 0.116493
#
#
# Mechanical properties :
#
#
# Convention : Reuss Voigt Hill
#
# Bulk Modulus (GPa) = 24.90287 32.07543 28.48915
# Shear Modulus (GPa) = 13.91666 24.51950 19.21808
#
# Velocity S-wave (km/s) = 2.61370 3.46932 3.07145
# Velocity P-wave (km/s) = 4.61876 5.63857 5.15395
#
# Compressibility (1/GPa) = 0.04015602
#
# Stress axis : x y z
#
# Youngs Moduli (GPa) = 81.56681 80.16005 43.87454
#
# Poissons Ratio (x) = 0.12365 -0.05682
# Poissons Ratio (y) = 0.12582 0.15084
# Poissons Ratio (z) = -0.10563 0.27560
#
# Static dielectric constant tensor:
#      x y z
#    x 1.763690 0.000000 0.021200 
#    y 0.000000 1.756240 0.000000 
#    z 0.021200 0.000000 1.705400 
# 
# From -- ./inp_files/314250.got.cif
#   From: 2010.05.17/outbox.cif.g08.bks.cpg/sg12_158_cif.got.tgz:314250.got - 2010.06.03 13:09:07.
