data_PCOD9219459
_publ_section_title
;
Structure prediction by ZEFSAII (Michael W. Deem and Ramdas Pophale) SiO2 
 PCOD9219459
Probable space group: C 2/M
;
_chemical_formula_sum "Si O2"
_cell_formula_units_Z 56
_cell_length_a 8.760245
_cell_length_b 15.041811
_cell_length_c 28.718092
_cell_angle_alpha 90.000000
_cell_angle_beta 48.716299
_cell_angle_gamma 90.000000
_cell_volume 2843.630233
_symmetry_space_group_name_H-M "C 2/M"
_symmetry_group_IT_number 12
_symmetry_cell_setting 'monoclinic'
loop_
_space_group_symop_operation_xyz
x,y,z
-x,y,-z
-x,-y,-z
x,-y,z
1/2+x,1/2+y,z
1/2-x,1/2+y,-z
1/2-x,1/2-y,-z
1/2+x,1/2-y,z
loop_
_atom_site_type_symbol
_atom_site_label
_atom_site_fract_x
_atom_site_fract_y
_atom_site_fract_z
Si Si1 0.792301 0.161978 0.830145
Si Si2 0.553633 0.000000 0.913538
Si Si3 0.165122 0.000000 0.049584
Si Si4 0.900259 0.719390 0.371155
Si Si5 0.925271 0.104860 0.702757
Si Si6 0.010875 0.596486 0.730868
Si Si7 0.522728 0.211917 0.544794
Si Si8 0.404773 0.648305 0.143437
O O1 0.912063 0.140831 0.758247
O O2 0.675051 0.255087 0.854760
O O3 0.950561 0.158173 0.840715
O O4 0.625229 0.085486 0.870742
O O5 0.690729 0.000000 0.933204
O O6 0.319850 0.000000 0.975564
O O7 0.026724 0.912043 0.082089
O O8 0.655801 0.714543 0.421987
O O9 0.996232 0.677550 0.398540
O O10 0.949049 0.824654 0.353980
O O11 0.985051 0.670454 0.309331
O O12 0.696594 0.110608 0.728677
O O13 0.986704 0.000000 0.688855
O O14 0.040856 0.500000 0.702461
O O15 0.799369 0.598976 0.799924
O O16 0.500000 0.160667 0.500000
O O17 0.750000 0.250000 0.500000
#
# Coordination Sequence:
#
# PCOD9219459 Si02
#       8
#     8   4   4   8   8   8   8   8
#     4  11  22  37  59  88 121 160 200 253 309 357
#     4   9  20  40  61  83 119 167 209 245 303 365
#     4   9  20  40  61  83 119 167 209 247 297 374
#     4  11  20  38  62  90 116 161 201 240 302 359
#     4  11  23  37  58  90 127 156 196 255 310 358
#     4  11  23  37  58  90 126 157 197 252 310 361
#     4   9  20  38  64  88 119 161 202 238 289 353
#     4  11  22  37  59  88 121 160 201 252 309 357
#
# _framework density 19.693137
#
# number of rings (size 3 to 8) (size 9 to 14) (size 15 to 20)
#    0.000    1.571    4.286    0.857    2.000    0.571 
#    0.000    0.000    0.000   23.143    0.000    0.000 
#    0.000    0.000    0.000    0.000    0.000    0.000 
#
# Total GULP energy -156069.076801 kJ/mol
# GULP energy per Si atom -5573.895600 kJ/mol
# Density = 1.964831 g / cm^3
# Si number density = 19.693137 Si / 1000 Ang^3
#
#
#
# Elastic Constant Matrix: (Units=GPa)
#
#
# Indices 1 2 3 4 5 6 
#
# 1 68.6910 18.2985 12.1116 0.0001 -11.1580 -0.0001
# 2 18.2985 109.4059 17.4415 0.0010 -8.1624 -0.0001
# 3 12.1116 17.4415 72.6636 0.0011 -15.5502 0.0001
# 4 0.0001 0.0010 0.0011 -11.5581 -0.0003 -4.7432
# 5 -11.1580 -8.1624 -15.5502 -0.0003 29.3704 0.0000
# 6 -0.0001 -0.0001 0.0001 -4.7432 0.0000 3.2542
#
#
#
# Elastic Compliance Matrix: (Units=1/GPa)
#
#
# Indices 1 2 3 4 5 6 
#
# 1 0.016130 -0.002152 -0.001115 0.000000 0.004940 0.000000
# 2 -0.002152 0.009859 -0.001801 0.000000 0.000969 0.000001
# 3 -0.001115 -0.001801 0.015995 0.000001 0.007544 0.000001
# 4 0.000000 0.000000 0.000001 -0.054137 0.000000 -0.078907
# 5 0.004940 0.000969 0.007544 0.000000 0.040188 0.000000
# 6 0.000000 0.000001 0.000001 -0.078907 0.000000 0.192279
#
#
# Mechanical properties :
#
#
# Convention : Reuss Voigt Hill
#
# Bulk Modulus (GPa) = 31.39715 38.49595 34.94655
# Shear Modulus (GPa) = 20.74124 17.74055 19.24090
#
# Velocity S-wave (km/s) = 3.24886 3.00467 3.12915
# Velocity P-wave (km/s) = 5.48190 5.62385 5.55333
#
# Compressibility (1/GPa) = 0.03185002
#
# Stress axis : x y z
#
# Youngs Moduli (GPa) = 61.99603 101.42517 62.52113
#
# Poissons Ratio (x) = 0.21822 0.06971
# Poissons Ratio (y) = 0.13339 0.11257
# Poissons Ratio (z) = 0.06913 0.18262
#
# Static dielectric constant tensor:
#      x y z
#    x 1.713330 0.000000 0.020350 
#    y 0.000000 1.718170 0.000000 
#    z 0.020350 0.000000 1.712300 
# 
# From -- ./inp_files/372359.got.cif
#   From: 2010.05.17/outbox.cif.g08.bks.cpg/sg12_187_cif.got.tgz:372359.got - 2010.06.03 13:09:07.
