data_PCOD9219074
_publ_section_title
;
Structure prediction by ZEFSAII (Michael W. Deem and Ramdas Pophale) SiO2 
 PCOD9219074
Probable space group: C 2/M
;
_chemical_formula_sum "Si O2"
_cell_formula_units_Z 40
_cell_length_a 15.210040
_cell_length_b 12.966939
_cell_length_c 12.776684
_cell_angle_alpha 90.000000
_cell_angle_beta 128.387902
_cell_angle_gamma 90.000000
_cell_volume 1975.171746
_symmetry_space_group_name_H-M "C 2/M"
_symmetry_group_IT_number 12
_symmetry_cell_setting 'monoclinic'
loop_
_space_group_symop_operation_xyz
x,y,z
-x,y,-z
-x,-y,-z
x,-y,z
1/2+x,1/2+y,z
1/2-x,1/2+y,-z
1/2-x,1/2-y,-z
1/2+x,1/2-y,z
loop_
_atom_site_type_symbol
_atom_site_label
_atom_site_fract_x
_atom_site_fract_y
_atom_site_fract_z
Si Si1 0.670298 0.500000 0.491060
Si Si2 0.471553 0.174734 0.864735
Si Si3 0.207154 0.500000 0.224020
Si Si4 0.170630 0.000000 0.899319
Si Si5 0.000000 0.687126 0.500000
Si Si6 0.106854 0.500000 0.856220
Si Si7 0.403084 0.000000 0.539805
Si Si8 0.499121 0.673709 0.701274
O O1 0.683044 0.500000 0.624650
O O2 0.794363 0.500000 0.532810
O O3 0.600137 0.598938 0.406952
O O4 0.366967 0.099059 0.803590
O O5 0.570457 0.100988 0.894731
O O6 0.453427 0.254435 0.759520
O O7 0.500000 0.218932 0.000000
O O8 0.244291 0.500000 0.134003
O O9 0.094798 0.101318 0.824288
O O10 0.258735 0.000000 0.061273
O O11 0.092335 0.605135 0.524801
O O12 0.966432 0.758293 0.375426
O O13 0.019186 0.500000 0.693783
#
# Coordination Sequence:
#
# PCOD9219074 Si02
#       8
#     4   8   4   4   4   4   4   8
#     4  11  23  42  61  90 131 167 203 254 305 377
#     4  11  21  41  66  92 116 164 217 254 296 371
#     4  11  19  37  68  89 117 162 215 255 297 364
#     4  11  24  40  62  92 128 164 203 264 307 359
#     4  11  22  43  64  98 128 159 206 257 314 372
#     4  11  19  44  64  87 123 158 212 258 295 361
#     4  11  23  41  67  94 128 159 205 262 311 359
#     4  11  25  41  61  94 131 162 204 251 319 370
#
# _framework density 20.251404000000001
#
# number of rings (size 3 to 8) (size 9 to 14) (size 15 to 20)
#    0.000    1.000    6.000    1.800    0.000    7.200 
#    0.000    4.000    0.000    0.000    0.000    0.000 
#    0.000    0.000    0.000    0.000    0.000    0.000 
#
# Total GULP energy -111608.935721 kJ/mol
# GULP energy per Si atom -5580.446786 kJ/mol
# Density = 2.020531 g / cm^3
# Si number density = 20.251404 Si / 1000 Ang^3
#
#
#
# Elastic Constant Matrix: (Units=GPa)
#
#
# Indices 1 2 3 4 5 6 
#
# 1 44.3626 23.5620 21.8322 0.0000 -7.6045 0.0000
# 2 23.5620 90.1381 30.1547 0.0000 -8.3287 0.0000
# 3 21.8322 30.1547 111.8996 0.0000 -4.1968 0.0000
# 4 0.0000 0.0000 0.0000 -26.4336 0.0000 -7.7106
# 5 -7.6045 -8.3287 -4.1968 0.0000 39.4072 0.0000
# 6 0.0000 0.0000 0.0000 -7.7106 0.0000 20.0645
#
#
#
# Elastic Compliance Matrix: (Units=1/GPa)
#
#
# Indices 1 2 3 4 5 6 
#
# 1 0.028103 -0.005724 -0.003798 0.000000 0.003809 0.000000
# 2 -0.005724 0.013559 -0.002481 0.000000 0.001497 0.000000
# 3 -0.003798 -0.002481 0.010340 0.000000 -0.000156 0.000000
# 4 0.000000 0.000000 0.000000 -0.034017 0.000000 -0.013072
# 5 0.003809 0.001497 -0.000156 0.000000 0.026411 0.000000
# 6 0.000000 0.000000 0.000000 -0.013072 0.000000 0.044816
#
#
# Mechanical properties :
#
#
# Convention : Reuss Voigt Hill
#
# Bulk Modulus (GPa) = 35.71768 44.16646 39.94207
# Shear Modulus (GPa) = 40.80008 17.99770 29.39889
#
# Velocity S-wave (km/s) = 4.49339 2.98436 3.81425
# Velocity P-wave (km/s) = 6.67803 5.80790 6.25811
#
# Compressibility (1/GPa) = 0.02799734
#
# Stress axis : x y z
#
# Youngs Moduli (GPa) = 35.58276 73.75426 96.70935
#
# Poissons Ratio (x) = 0.42215 0.36729
# Poissons Ratio (y) = 0.20367 0.23993
# Poissons Ratio (z) = 0.13514 0.18298
#
# Static dielectric constant tensor:
#      x y z
#    x 1.694030 0.000000 -0.014370 
#    y 0.000000 1.715240 0.000000 
#    z -0.014370 0.000000 1.897880 
# 
# From -- ./inp_files/223604.got.cif
#   From: 2010.05.17/outbox.cif.g08.bks.cpg/sg12_112_cif.got.tgz:223604.got - 2010.06.03 13:09:07.
