data_PCOD9219248
_publ_section_title
;
Structure prediction by ZEFSAII (Michael W. Deem and Ramdas Pophale) SiO2 
 PCOD9219248
Probable space group: C 2/M
;
_chemical_formula_sum "Si O2"
_cell_formula_units_Z 48
_cell_length_a 20.320339
_cell_length_b 10.167536
_cell_length_c 14.288067
_cell_angle_alpha 90.000000
_cell_angle_beta 105.123625
_cell_angle_gamma 90.000000
_cell_volume 2849.782762
_symmetry_space_group_name_H-M "C 2/M"
_symmetry_group_IT_number 12
_symmetry_cell_setting 'monoclinic'
loop_
_space_group_symop_operation_xyz
x,y,z
-x,y,-z
-x,-y,-z
x,-y,z
1/2+x,1/2+y,z
1/2-x,1/2+y,-z
1/2-x,1/2-y,-z
1/2+x,1/2-y,z
loop_
_atom_site_type_symbol
_atom_site_label
_atom_site_fract_x
_atom_site_fract_y
_atom_site_fract_z
Si Si1 0.326840 0.500000 0.602381
Si Si2 0.364130 0.244100 0.323595
Si Si3 0.310423 0.000000 0.569062
Si Si4 0.200971 0.742806 0.296388
Si Si5 0.803237 0.655205 0.905374
Si Si6 0.420367 0.000000 0.458016
Si Si7 0.328120 0.843396 0.118442
Si Si8 0.580924 0.500000 0.550295
O O1 0.251701 0.500000 0.527452
O O2 0.330634 0.372301 0.669446
O O3 0.379180 0.500000 0.534677
O O4 0.282295 0.239434 0.309398
O O5 0.375101 0.217331 0.217103
O O6 0.394711 0.375618 0.379256
O O7 0.396647 0.126087 0.392336
O O8 0.304865 0.126918 0.631417
O O9 0.380911 0.000000 0.540826
O O10 0.168961 0.698619 0.185287
O O11 0.781961 0.500000 0.891116
O O12 0.740282 0.755276 0.898228
O O13 0.848245 0.665851 0.016412
O O14 0.500000 0.000000 0.500000
O O15 0.316495 0.000000 0.133900
O O16 0.500000 0.500000 0.500000
#
# Coordination Sequence:
#
# PCOD9219248 Si02
#       8
#     4   8   4   8   8   4   8   4
#     4  12  22  36  55  79 109 147 184 224 272 324
#     4  11  20  36  55  80 108 148 181 221 275 324
#     4  12  20  36  53  77 103 145 186 218 272 324
#     4  11  20  33  56  82 107 145 180 222 273 323
#     4   9  18  31  48  81 115 141 173 225 275 327
#     4  12  24  36  53  79 109 141 184 228 266 319
#     4   9  18  31  51  78 113 144 176 220 279 327
#     4  12  26  40  55  79 113 149 188 228 268 323
#
# _framework density 16.843388000000001
#
# number of rings (size 3 to 8) (size 9 to 14) (size 15 to 20)
#    0.000    1.333    5.000    2.000    7.000    0.000 
#    0.000    0.000    0.000    0.000    0.000    7.000 
#    0.000    0.000    0.000    0.000    0.000    0.000 
#
# Total GULP energy -133733.434145 kJ/mol
# GULP energy per Si atom -5572.226423 kJ/mol
# Density = 1.680505 g / cm^3
# Si number density = 16.843388 Si / 1000 Ang^3
#
#
#
# Elastic Constant Matrix: (Units=GPa)
#
#
# Indices 1 2 3 4 5 6 
#
# 1 68.6023 18.9457 40.9109 0.0000 -1.6266 0.0000
# 2 18.9457 149.2355 71.5143 0.0000 -4.8216 0.0000
# 3 40.9109 71.5143 149.8860 0.0000 -20.8522 0.0000
# 4 0.0000 0.0000 0.0000 37.1181 0.0000 -2.2903
# 5 -1.6266 -4.8216 -20.8522 0.0000 13.1217 0.0000
# 6 0.0000 0.0000 0.0000 -2.2903 0.0000 28.1506
#
#
#
# Elastic Compliance Matrix: (Units=1/GPa)
#
#
# Indices 1 2 3 4 5 6 
#
# 1 0.017935 0.000416 -0.006115 0.000000 -0.007342 0.000000
# 2 0.000416 0.008895 -0.005002 0.000000 -0.004628 0.000000
# 3 -0.006115 -0.005002 0.013308 0.000000 0.018553 0.000000
# 4 0.000000 0.000000 0.000000 0.027077 0.000000 0.002203
# 5 -0.007342 -0.004628 0.018553 0.000000 0.103082 0.000000
# 6 0.000000 0.000000 0.000000 0.002203 0.000000 0.035702
#
#
# Mechanical properties :
#
#
# Convention : Reuss Voigt Hill
#
# Bulk Modulus (GPa) = 53.36986 70.05174 61.71080
# Shear Modulus (GPa) = 21.39988 31.43493 26.41741
#
# Velocity S-wave (km/s) = 3.56830 4.32476 3.96462
# Velocity P-wave (km/s) = 6.98082 8.16201 7.59441
#
# Compressibility (1/GPa) = 0.01873717
#
# Stress axis : x y z
#
# Youngs Moduli (GPa) = 55.75843 112.41955 75.14056
#
# Poissons Ratio (x) = -0.04682 0.45950
# Poissons Ratio (y) = -0.02322 0.37583
# Poissons Ratio (z) = 0.34098 0.56229
#
# Static dielectric constant tensor:
#      x y z
#    x 1.481720 0.000000 -0.035150 
#    y 0.000000 1.397340 0.000000 
#    z -0.035150 0.000000 1.611990 
# 
# From -- ./inp_files/230506.got.cif
#   From: 2010.05.17/outbox.cif.g08.bks.cpg/sg12_116_cif.got.tgz:230506.got - 2010.06.03 13:09:07.
