data_PCOD9219480
_publ_section_title
;
Structure prediction by ZEFSAII (Michael W. Deem and Ramdas Pophale) SiO2 
 PCOD9219480
Probable space group: C 2/M
;
_chemical_formula_sum "Si O2"
_cell_formula_units_Z 40
_cell_length_a 16.130314
_cell_length_b 9.735185
_cell_length_c 26.921356
_cell_angle_alpha 90.000000
_cell_angle_beta 27.021846
_cell_angle_gamma 90.000000
_cell_volume 1920.682422
_symmetry_space_group_name_H-M "C 2/M"
_symmetry_group_IT_number 12
_symmetry_cell_setting 'monoclinic'
loop_
_space_group_symop_operation_xyz
x,y,z
-x,y,-z
-x,-y,-z
x,-y,z
1/2+x,1/2+y,z
1/2-x,1/2+y,-z
1/2-x,1/2-y,-z
1/2+x,1/2-y,z
loop_
_atom_site_type_symbol
_atom_site_label
_atom_site_fract_x
_atom_site_fract_y
_atom_site_fract_z
Si Si1 0.159143 0.500000 0.226170
Si Si2 0.347492 0.000000 0.474889
Si Si3 0.567266 0.500000 0.340181
Si Si4 0.694234 0.712665 0.923737
Si Si5 0.557390 0.238481 0.415046
Si Si6 0.651490 0.500000 0.722821
Si Si7 0.945838 0.000000 0.929213
Si Si8 0.154717 0.000000 0.181400
O O1 0.166054 0.629914 0.185977
O O2 0.349474 0.500000 0.155627
O O3 0.991922 0.500000 0.352343
O O4 0.399777 0.137635 0.477610
O O5 0.146049 0.000000 0.560708
O O6 0.601092 0.362513 0.354391
O O7 0.674921 0.500000 0.230358
O O8 0.756092 0.867099 0.890426
O O9 0.500000 0.702585 0.000000
O O10 0.662129 0.631456 0.991897
O O11 0.500000 0.291342 0.500000
O O12 0.726039 0.133855 0.332767
O O13 0.486480 0.500000 0.849988
O O14 0.559280 0.500000 0.718359
#
# Coordination Sequence:
#
# PCOD9219480 Si02
#       8
#     4   4   4   8   8   4   4   4
#     4   9  16  35  63  90 118 158 208 240 305 366
#     4  11  20  38  67  94 119 165 207 255 300 366
#     4  12  26  39  63  95 128 159 210 258 300 363
#     4   9  20  36  62  93 123 159 201 259 301 362
#     4  11  23  42  62  87 126 168 204 249 311 366
#     4  11  24  42  65  87 125 169 203 249 310 375
#     4   9  18  39  64  85 121 166 202 236 314 371
#     4  12  24  39  60  97 127 155 207 262 305 353
#
# _framework density 20.825931000000001
#
# number of rings (size 3 to 8) (size 9 to 14) (size 15 to 20)
#    0.000    1.600    2.000    6.000    2.800    2.400 
#    0.000    2.000    0.000    0.000    0.000    0.000 
#    0.000    0.000    0.000    0.000    0.000    0.000 
#
# Total GULP energy -111761.894934 kJ/mol
# GULP energy per Si atom -5588.094747 kJ/mol
# Density = 2.077853 g / cm^3
# Si number density = 20.825931 Si / 1000 Ang^3
#
#
#
# Elastic Constant Matrix: (Units=GPa)
#
#
# Indices 1 2 3 4 5 6 
#
# 1 55.8301 24.0284 22.1776 -0.0009 27.5560 0.0015
# 2 24.0284 137.6338 27.6057 -0.0009 23.2452 0.0013
# 3 22.1776 27.6057 94.1152 -0.0022 25.5436 0.0002
# 4 -0.0009 -0.0009 -0.0022 5.9694 0.0006 15.7249
# 5 27.5560 23.2452 25.5436 0.0006 23.5600 -0.0007
# 6 0.0015 0.0013 0.0002 15.7249 -0.0007 9.2242
#
#
#
# Elastic Compliance Matrix: (Units=1/GPa)
#
#
# Indices 1 2 3 4 5 6 
#
# 1 0.044178 0.001110 0.005080 -0.000013 -0.058275 0.000010
# 2 0.001110 0.008753 -0.000188 -0.000002 -0.009731 0.000002
# 3 0.005080 -0.000188 0.015651 -0.000005 -0.022725 0.000005
# 4 -0.000013 -0.000002 -0.000005 -0.047990 0.000026 0.081811
# 5 -0.058275 -0.009731 -0.022725 0.000026 0.144844 -0.000022
# 6 0.000010 0.000002 0.000005 0.081811 -0.000022 -0.031057
#
#
# Mechanical properties :
#
#
# Convention : Reuss Voigt Hill
#
# Bulk Modulus (GPa) = 12.40879 48.35586 30.38232
# Shear Modulus (GPa) = 33.50380 22.00187 27.75284
#
# Velocity S-wave (km/s) = 4.01528 3.25386 3.65445
# Velocity P-wave (km/s) = 5.24098 6.11443 5.69448
#
# Compressibility (1/GPa) = 0.08058803
#
# Stress axis : x y z
#
# Youngs Moduli (GPa) = 22.63552 114.24674 63.89308
#
# Poissons Ratio (x) = -0.12687 -0.32460
# Poissons Ratio (y) = -0.02514 0.01201
# Poissons Ratio (z) = -0.11500 0.02148
#
# Static dielectric constant tensor:
#      x y z
#    x 1.761390 0.000000 0.009380 
#    y 0.000000 1.743130 0.000000 
#    z 0.009380 0.000000 1.742170 
# 
# From -- ./inp_files/362628.got.cif
#   From: 2010.05.17/outbox.cif.g08.bks.cpg/sg12_182_cif.got.tgz:362628.got - 2010.06.03 13:09:07.
