data_PCOD9219049
_publ_section_title
;
Structure prediction by ZEFSAII (Michael W. Deem and Ramdas Pophale) SiO2 
 PCOD9219049
Probable space group: C 2/M
;
_chemical_formula_sum "Si O2"
_cell_formula_units_Z 40
_cell_length_a 28.882760
_cell_length_b 18.881993
_cell_length_c 10.240088
_cell_angle_alpha 90.000000
_cell_angle_beta 155.824383
_cell_angle_gamma 90.000000
_cell_volume 2287.078429
_symmetry_space_group_name_H-M "C 2/M"
_symmetry_group_IT_number 12
_symmetry_cell_setting 'monoclinic'
loop_
_space_group_symop_operation_xyz
x,y,z
-x,y,-z
-x,-y,-z
x,-y,z
1/2+x,1/2+y,z
1/2-x,1/2+y,-z
1/2-x,1/2-y,-z
1/2+x,1/2-y,z
loop_
_atom_site_type_symbol
_atom_site_label
_atom_site_fract_x
_atom_site_fract_y
_atom_site_fract_z
Si Si1 0.896134 0.500000 0.629639
Si Si2 0.045079 0.789029 0.761527
Si Si3 0.287153 0.146009 0.430578
Si Si4 0.600114 0.290457 0.361842
Si Si5 0.451674 0.000000 0.230212
Si Si6 0.328489 0.854682 0.847670
O O1 0.824954 0.570655 0.473012
O O2 0.949080 0.500000 0.622110
O O3 0.000000 0.500000 0.000000
O O4 0.000000 0.797806 0.500000
O O5 0.949671 0.803912 0.623572
O O6 0.155430 0.837019 0.070829
O O7 0.088213 0.708596 0.895264
O O8 0.357300 0.209412 0.543563
O O9 0.313903 0.149234 0.653743
O O10 0.707503 0.338095 0.601067
O O11 0.500000 0.301438 0.000000
O O12 0.500000 0.000000 0.500000
O O13 0.377997 0.070072 0.015192
#
# Coordination Sequence:
#
# PCOD9219049 Si02
#       6
#     4   8   8   8   4   8
#     4  12  22  38  66  84 111 154 191 233 290 335
#     4  11  23  37  58  89 119 148 190 243 287 328
#     4  11  21  37  62  89 110 151 203 230 273 355
#     4  11  19  36  63  83 115 153 191 238 281 330
#     4  12  26  40  58  89 121 144 186 245 289 333
#     4  11  21  38  61  87 114 152 197 230 281 350
#
# _framework density 17.489561999999999
#
# number of rings (size 3 to 8) (size 9 to 14) (size 15 to 20)
#    0.000    0.800    6.000    3.600    0.000    4.800 
#    0.000    2.000    0.000    0.000    0.000    0.000 
#    0.000    0.000    0.000    0.000    0.000    0.000 
#
# Total GULP energy -111824.729373 kJ/mol
# GULP energy per Si atom -5591.236469 kJ/mol
# Density = 1.744975 g / cm^3
# Si number density = 17.489562 Si / 1000 Ang^3
#
#
#
# Elastic Constant Matrix: (Units=GPa)
#
#
# Indices 1 2 3 4 5 6 
#
# 1 170.2265 49.9800 59.1846 0.0000 -3.6446 0.0000
# 2 49.9800 132.7999 48.6411 0.0000 9.6796 0.0000
# 3 59.1846 48.6411 76.2808 0.0000 -8.9917 0.0000
# 4 0.0000 0.0000 0.0000 4.5945 0.0000 5.8695
# 5 -3.6446 9.6796 -8.9917 0.0000 41.2614 0.0000
# 6 0.0000 0.0000 0.0000 5.8695 0.0000 12.4043
#
#
#
# Elastic Compliance Matrix: (Units=1/GPa)
#
#
# Indices 1 2 3 4 5 6 
#
# 1 0.008145 -0.000931 -0.005763 0.000000 -0.000318 0.000000
# 2 -0.000931 0.010537 -0.006463 0.000000 -0.003963 0.000000
# 3 -0.005763 -0.006463 0.022396 0.000000 0.005888 0.000000
# 4 0.000000 0.000000 0.000000 0.550302 0.000000 -0.260394
# 5 -0.000318 -0.003963 0.005888 0.000000 0.026420 0.000000
# 6 0.000000 0.000000 0.000000 -0.260394 0.000000 0.203831
#
#
# Mechanical properties :
#
#
# Convention : Reuss Voigt Hill
#
# Bulk Modulus (GPa) = 67.73914 77.21317 72.47615
# Shear Modulus (GPa) = 5.86257 26.41880 16.14069
#
# Velocity S-wave (km/s) = 1.83284 3.89079 3.04118
# Velocity P-wave (km/s) = 6.57984 8.02673 7.33903
#
# Compressibility (1/GPa) = 0.01476251
#
# Stress axis : x y z
#
# Youngs Moduli (GPa) = 122.77669 94.90505 44.65018
#
# Poissons Ratio (x) = 0.08839 0.25732
# Poissons Ratio (y) = 0.11435 0.28859
# Poissons Ratio (z) = 0.70756 0.61341
#
# Static dielectric constant tensor:
#      x y z
#    x 1.583730 0.000000 0.007640 
#    y 0.000000 1.570770 0.000000 
#    z 0.007640 0.000000 1.576650 
# 
# From -- ./inp_files/77222.got.cif
#   From: 2010.05.17/outbox.cif.g08.bks.cpg/sg12_39_cif.got.tgz:77222.got - 2010.06.03 13:09:07.
