data_PCOD9219367
_publ_section_title
;
Structure prediction by ZEFSAII (Michael W. Deem and Ramdas Pophale) SiO2 
 PCOD9219367
Probable space group: C 2/M
;
_chemical_formula_sum "Si O2"
_cell_formula_units_Z 52
_cell_length_a 12.767224
_cell_length_b 24.106675
_cell_length_c 11.591320
_cell_angle_alpha 90.000000
_cell_angle_beta 128.971134
_cell_angle_gamma 90.000000
_cell_volume 2773.616236
_symmetry_space_group_name_H-M "C 2/M"
_symmetry_group_IT_number 12
_symmetry_cell_setting 'monoclinic'
loop_
_space_group_symop_operation_xyz
x,y,z
-x,y,-z
-x,-y,-z
x,-y,z
1/2+x,1/2+y,z
1/2-x,1/2+y,-z
1/2-x,1/2-y,-z
1/2+x,1/2-y,z
loop_
_atom_site_type_symbol
_atom_site_label
_atom_site_fract_x
_atom_site_fract_y
_atom_site_fract_z
Si Si1 0.500000 0.872681 0.000000
Si Si2 0.702378 0.934511 0.314102
Si Si3 0.103483 0.723764 0.910728
Si Si4 0.143013 0.822522 0.535928
Si Si5 0.893637 0.328838 0.321501
Si Si6 0.980762 0.441776 0.348925
Si Si7 0.345955 0.720814 0.716486
O O1 0.402114 0.911044 0.854553
O O2 0.586707 0.830651 0.978618
O O3 0.813993 0.885907 0.404760
O O4 0.620344 0.934000 0.378371
O O5 0.739663 0.000000 0.318922
O O6 0.059478 0.709733 0.749171
O O7 0.991101 0.767475 0.868395
O O8 0.250000 0.750000 0.000000
O O9 0.262113 0.779455 0.655239
O O10 0.138287 0.809298 0.396099
O O11 0.000000 0.810412 0.500000
O O12 0.891153 0.389277 0.264261
O O13 0.749036 0.315288 0.269384
O O14 0.000000 0.326088 0.500000
O O15 0.922056 0.500000 0.268662
O O16 0.000000 0.443466 0.500000
#
# Coordination Sequence:
#
# PCOD9219367 Si02
#       7
#     4   8   8   8   8   8   8
#     4  12  23  42  60  88 124 168 215 246 308 378
#     4  11  23  40  61  90 124 166 212 256 303 368
#     4  12  25  39  60  89 122 162 202 255 304 380
#     4  11  22  37  61  89 124 158 196 249 316 375
#     4  11  20  36  60  88 119 152 196 248 304 360
#     4   9  17  33  59  87 113 147 194 246 294 343
#     4  11  21  37  60  89 118 158 197 250 315 374
#
# _framework density 18.748087000000002
#
# number of rings (size 3 to 8) (size 9 to 14) (size 15 to 20)
#    0.000    1.077    3.077    6.231    2.154    0.308 
#    0.000    0.000    0.000    0.000    0.000    1.077 
#    0.000    0.000    0.000    0.000    0.000    0.000 
#
# Total GULP energy -144966.828915 kJ/mol
# GULP energy per Si atom -5575.647266 kJ/mol
# Density = 1.870542 g / cm^3
# Si number density = 18.748087 Si / 1000 Ang^3
#
#
#
# Elastic Constant Matrix: (Units=GPa)
#
#
# Indices 1 2 3 4 5 6 
#
# 1 121.4434 40.4180 34.6459 0.0000 8.7991 0.0000
# 2 40.4180 125.8052 28.8100 0.0000 18.3786 0.0000
# 3 34.6459 28.8100 64.1656 0.0000 0.9991 0.0000
# 4 0.0000 0.0000 0.0000 17.1912 0.0000 0.5411
# 5 8.7991 18.3786 0.9991 0.0000 34.2363 0.0000
# 6 0.0000 0.0000 0.0000 0.5411 0.0000 29.6476
#
#
#
# Elastic Compliance Matrix: (Units=1/GPa)
#
#
# Indices 1 2 3 4 5 6 
#
# 1 0.010345 -0.002053 -0.004642 0.000000 -0.001421 0.000000
# 2 -0.002053 0.010072 -0.003339 0.000000 -0.004782 0.000000
# 3 -0.004642 -0.003339 0.019553 0.000000 0.002415 0.000000
# 4 0.000000 0.000000 0.000000 0.058203 0.000000 -0.001062
# 5 -0.001421 -0.004782 0.002415 0.000000 0.032070 0.000000
# 6 0.000000 0.000000 0.000000 -0.001062 0.000000 0.033749
#
#
# Mechanical properties :
#
#
# Convention : Reuss Voigt Hill
#
# Bulk Modulus (GPa) = 50.24792 57.68468 53.96630
# Shear Modulus (GPa) = 26.22028 30.05104 28.13566
#
# Velocity S-wave (km/s) = 3.74379 4.00795 3.87812
# Velocity P-wave (km/s) = 6.74891 7.22864 6.99289
#
# Compressibility (1/GPa) = 0.01990132
#
# Stress axis : x y z
#
# Youngs Moduli (GPa) = 96.66788 99.28957 51.14403
#
# Poissons Ratio (x) = 0.20383 0.23740
# Poissons Ratio (y) = 0.19845 0.17078
# Poissons Ratio (z) = 0.44870 0.33154
#
# Static dielectric constant tensor:
#      x y z
#    x 1.648640 0.000000 -0.013950 
#    y 0.000000 1.721530 0.000000 
#    z -0.013950 0.000000 1.663660 
# 
# From -- ./inp_files/135851.got.cif
#   From: 2010.05.17/outbox.cif.g08.bks.cpg/sg12_68_cif.got.tgz:135851.got - 2010.06.03 13:09:07.
