data_PCOD9219782
_publ_section_title
;
Structure prediction by ZEFSAII (Michael W. Deem and Ramdas Pophale) SiO2 
 PCOD9219782
Probable space group: C 2/M
;
_chemical_formula_sum "Si O2"
_cell_formula_units_Z 64
_cell_length_a 9.022921
_cell_length_b 28.294334
_cell_length_c 20.021515
_cell_angle_alpha 90.000000
_cell_angle_beta 137.456635
_cell_angle_gamma 90.000000
_cell_volume 3456.092483
_symmetry_space_group_name_H-M "C 2/M"
_symmetry_group_IT_number 12
_symmetry_cell_setting 'monoclinic'
loop_
_space_group_symop_operation_xyz
x,y,z
-x,y,-z
-x,-y,-z
x,-y,z
1/2+x,1/2+y,z
1/2-x,1/2+y,-z
1/2-x,1/2-y,-z
1/2+x,1/2-y,z
loop_
_atom_site_type_symbol
_atom_site_label
_atom_site_fract_x
_atom_site_fract_y
_atom_site_fract_z
Si Si1 0.882169 0.201097 0.033988
Si Si2 0.465927 0.148766 0.868271
Si Si3 0.046734 0.213185 0.440699
Si Si4 0.943081 0.714342 0.729790
Si Si5 0.110109 0.946773 0.144892
Si Si6 0.995688 0.817637 0.280011
Si Si7 0.662406 0.051740 0.924916
Si Si8 0.753248 0.653999 0.247741
O O1 0.075480 0.186524 0.148473
O O2 0.750000 0.250000 0.000000
O O3 0.686854 0.163515 0.979109
O O4 0.000000 0.199356 0.000000
O O5 0.477831 0.184160 0.808175
O O6 0.224300 0.155907 0.815125
O O7 0.493563 0.093878 0.864192
O O8 0.250000 0.250000 0.500000
O O9 0.000000 0.193156 0.500000
O O10 0.933463 0.236744 0.241120
O O11 0.051447 0.179723 0.377327
O O12 0.196466 0.765354 0.648922
O O13 0.015399 0.676960 0.697076
O O14 0.217204 0.947800 0.106739
O O15 0.210947 0.900472 0.213583
O O16 0.144231 0.000000 0.185182
O O17 0.851231 0.940850 0.043353
O O18 0.196268 0.837951 0.305194
O O19 0.564933 0.000000 0.903401
#
# Coordination Sequence:
#
# PCOD9219782 Si02
#       8
#     8   8   8   8   8   8   8   8
#     4  12  23  34  49  71 112 164 206 231 264 324
#     4  11  21  35  50  77 115 155 206 237 275 322
#     4  11  23  41  62  83 111 149 185 224 286 356
#     4  11  21  37  57  82 117 152 186 234 276 334
#     4   9  17  32  55  78 106 153 207 255 287 319
#     4  11  25  37  53  84 116 155 181 236 289 338
#     4   9  16  32  54  76 104 152 211 256 283 315
#     4  12  22  36  55  80 120 153 202 241 277 330
#
# _framework density 18.518024
#
# number of rings (size 3 to 8) (size 9 to 14) (size 15 to 20)
#    0.000    1.250    5.000    3.750    1.750    0.000 
#    0.000    0.625    0.000    1.500    0.000    0.000 
#    0.000   19.000    0.000    0.125    0.000    0.000 
#
# Total GULP energy -178146.360798 kJ/mol
# GULP energy per Si atom -5567.073775 kJ/mol
# Density = 1.847588 g / cm^3
# Si number density = 18.518024 Si / 1000 Ang^3
#
#
#
# Elastic Constant Matrix: (Units=GPa)
#
#
# Indices 1 2 3 4 5 6 
#
# 1 75.0891 19.0954 25.4514 0.0001 0.6703 0.0001
# 2 19.0954 138.7751 17.0573 0.0000 7.5838 0.0000
# 3 25.4514 17.0573 47.2848 0.0001 6.0612 0.0001
# 4 0.0001 0.0000 0.0001 8.3808 0.0001 -2.5958
# 5 0.6703 7.5838 6.0612 0.0001 34.7027 0.0001
# 6 0.0001 0.0000 0.0001 -2.5958 0.0001 17.0996
#
#
#
# Elastic Compliance Matrix: (Units=1/GPa)
#
#
# Indices 1 2 3 4 5 6 
#
# 1 0.016561 -0.001298 -0.008635 0.000000 0.001472 0.000000
# 2 -0.001298 0.007691 -0.001906 0.000000 -0.001323 0.000000
# 3 -0.008635 -0.001906 0.027014 0.000000 -0.004135 0.000000
# 4 0.000000 0.000000 0.000000 0.125208 0.000000 0.019007
# 5 0.001472 -0.001323 -0.004135 0.000000 0.029799 0.000000
# 6 0.000000 0.000000 0.000000 0.019007 0.000000 0.061366
#
#
# Mechanical properties :
#
#
# Convention : Reuss Voigt Hill
#
# Bulk Modulus (GPa) = 36.24717 42.70636 39.47677
# Shear Modulus (GPa) = 16.63822 25.33961 20.98892
#
# Velocity S-wave (km/s) = 3.00073 3.70317 3.37030
# Velocity P-wave (km/s) = 5.62337 6.43403 6.04231
#
# Compressibility (1/GPa) = 0.02758836
#
# Stress axis : x y z
#
# Youngs Moduli (GPa) = 60.38235 130.02054 37.01816
#
# Poissons Ratio (x) = 0.16876 0.31964
# Poissons Ratio (y) = 0.07837 0.07057
# Poissons Ratio (z) = 0.52138 0.24785
#
# Static dielectric constant tensor:
#      x y z
#    x 1.728880 0.000000 -0.018740 
#    y 0.000000 1.655410 0.000000 
#    z -0.018740 0.000000 1.716900 
# 
# From -- ./inp_files/302651.got.cif
#   From: 2010.05.17/outbox.cif.g08.bks.cpg/sg12_152_cif.got.tgz:302651.got - 2010.06.03 13:09:07.
