data_PCOD9219063
_publ_section_title
;
Structure prediction by ZEFSAII (Michael W. Deem and Ramdas Pophale) SiO2 
 PCOD9219063
Probable space group: C 2/M
;
_chemical_formula_sum "Si O2"
_cell_formula_units_Z 56
_cell_length_a 19.900425
_cell_length_b 12.946834
_cell_length_c 20.045210
_cell_angle_alpha 90.000000
_cell_angle_beta 25.853540
_cell_angle_gamma 90.000000
_cell_volume 2252.137769
_symmetry_space_group_name_H-M "C 2/M"
_symmetry_group_IT_number 12
_symmetry_cell_setting 'monoclinic'
loop_
_space_group_symop_operation_xyz
x,y,z
-x,y,-z
-x,-y,-z
x,-y,z
1/2+x,1/2+y,z
1/2-x,1/2+y,-z
1/2-x,1/2-y,-z
1/2+x,1/2-y,z
loop_
_atom_site_type_symbol
_atom_site_label
_atom_site_fract_x
_atom_site_fract_y
_atom_site_fract_z
Si Si1 0.564197 0.614047 0.289706
Si Si2 0.125872 0.820224 0.831324
Si Si3 0.984311 0.826030 0.212608
Si Si4 0.246164 0.889621 0.344896
Si Si5 0.454767 0.889480 0.831242
Si Si6 0.151473 0.617172 0.524058
Si Si7 0.911702 0.294599 0.640607
O O1 0.627733 0.500000 0.247967
O O2 0.546408 0.623151 0.225412
O O3 0.395856 0.621131 0.476231
O O4 0.645498 0.710328 0.253850
O O5 0.047857 0.867515 0.834145
O O6 0.199924 0.708363 0.746293
O O7 0.276040 0.866520 0.733782
O O8 0.000000 0.809438 0.000000
O O9 0.093845 0.725645 0.105086
O O10 0.801684 0.811170 0.393991
O O11 0.397156 0.901629 0.254847
O O12 0.219682 0.000000 0.332195
O O13 0.527156 0.874283 0.693604
O O14 0.368438 0.000000 0.909955
O O15 0.212026 0.500000 0.471107
O O16 0.049489 0.641341 0.551141
O O17 0.000000 0.239080 0.500000
#
# Coordination Sequence:
#
# PCOD9219063 Si02
#       7
#     8   8   8   8   8   8   8
#     4  11  21  35  64 101 127 158 207 269 326 367
#     4  11  25  41  59  86 126 175 211 244 316 387
#     4  11  19  37  62  89 130 162 209 259 308 375
#     4   9  17  31  57  89 120 151 199 252 303 365
#     4   9  16  27  52  89 120 149 189 250 311 354
#     4  11  20  32  58  92 122 150 199 263 315 360
#     4  12  22  39  60  95 129 158 203 269 321 372
#
# _framework density 24.865264
#
# number of rings (size 3 to 8) (size 9 to 14) (size 15 to 20)
#    0.000    1.429    5.714    1.714    0.000    1.429 
#    0.000    0.714    0.000    3.857    0.000    0.000 
#    0.000    0.000    0.000    0.000    0.000    0.000 
#
# Total GULP energy -155877.143451 kJ/mol
# GULP energy per Si atom -5567.040838 kJ/mol
# Density = 2.480867 g / cm^3
# Si number density = 24.865264 Si / 1000 Ang^3
#
#
#
# Elastic Constant Matrix: (Units=GPa)
#
#
# Indices 1 2 3 4 5 6 
#
# 1 131.1764 9.4978 35.5604 0.0009 16.7446 -0.0009
# 2 9.4978 70.8920 -5.4652 0.0014 -0.4930 -0.0017
# 3 35.5604 -5.4652 91.5027 0.0013 14.3004 -0.0011
# 4 0.0009 0.0014 0.0013 3.9696 -0.0011 11.8062
# 5 16.7446 -0.4930 14.3004 -0.0011 32.4799 0.0007
# 6 -0.0009 -0.0017 -0.0011 11.8062 0.0007 19.8537
#
#
#
# Elastic Compliance Matrix: (Units=1/GPa)
#
#
# Indices 1 2 3 4 5 6 
#
# 1 0.008981 -0.001462 -0.003061 0.000003 -0.003304 -0.000001
# 2 -0.001462 0.014410 0.001371 0.000011 0.000369 -0.000006
# 3 -0.003061 0.001371 0.012833 0.000010 -0.004051 -0.000005
# 4 0.000003 0.000011 0.000010 -0.327758 -0.000021 0.194904
# 5 -0.003304 0.000369 -0.004051 -0.000021 0.034281 0.000011
# 6 -0.000001 -0.000006 -0.000005 0.194904 0.000011 -0.065533
#
#
# Mechanical properties :
#
#
# Convention : Reuss Voigt Hill
#
# Bulk Modulus (GPa) = 33.42209 41.41746 37.41977
# Shear Modulus (GPa) = -16.31277 28.19252 5.93988
#
# Velocity S-wave (km/s) = -2.56412 3.37086 1.54726
# Velocity P-wave (km/s) = 2.16891 5.64298 4.27477
#
# Compressibility (1/GPa) = 0.02992033
#
# Stress axis : x y z
#
# Youngs Moduli (GPa) = 111.34842 69.39556 77.92209
#
# Poissons Ratio (x) = 0.10147 0.23853
# Poissons Ratio (y) = 0.16281 -0.10685
# Poissons Ratio (z) = 0.34085 -0.09516
#
# Static dielectric constant tensor:
#      x y z
#    x 2.087280 0.000000 0.029570 
#    y 0.000000 2.156820 0.000000 
#    z 0.029570 0.000000 1.958260 
# 
# From -- ./inp_files/284492.got.cif
#   From: 2010.05.17/outbox.cif.g08.bks.cpg/sg12_143_cif.got.tgz:284492.got - 2010.06.03 13:09:07.
