data_PCOD9219687
_publ_section_title
;
Structure prediction by ZEFSAII (Michael W. Deem and Ramdas Pophale) SiO2 
 PCOD9219687
Probable space group: C 2/M
;
_chemical_formula_sum "Si O2"
_cell_formula_units_Z 40
_cell_length_a 27.672132
_cell_length_b 8.997194
_cell_length_c 19.372187
_cell_angle_alpha 90.000000
_cell_angle_beta 28.493896
_cell_angle_gamma 90.000000
_cell_volume 2300.943925
_symmetry_space_group_name_H-M "C 2/M"
_symmetry_group_IT_number 12
_symmetry_cell_setting 'monoclinic'
loop_
_space_group_symop_operation_xyz
x,y,z
-x,y,-z
-x,-y,-z
x,-y,z
1/2+x,1/2+y,z
1/2-x,1/2+y,-z
1/2-x,1/2-y,-z
1/2+x,1/2-y,z
loop_
_atom_site_type_symbol
_atom_site_label
_atom_site_fract_x
_atom_site_fract_y
_atom_site_fract_z
Si Si1 0.494290 0.822840 0.338810
Si Si2 0.891733 0.176366 0.929750
Si Si3 0.312501 0.676905 0.640459
Si Si4 0.840014 0.322631 0.752920
Si Si5 0.097086 0.822039 0.923719
O O1 0.544161 0.767195 0.205582
O O2 0.389354 0.743248 0.488134
O O3 0.573278 0.786220 0.301329
O O4 0.480870 0.000000 0.354930
O O5 0.905529 0.000000 0.900337
O O6 0.771360 0.208618 0.076056
O O7 0.920385 0.208949 0.973194
O O8 0.313499 0.500000 0.638163
O O9 0.348219 0.736615 0.670727
O O10 0.198977 0.738644 0.773724
O O11 0.843990 0.500000 0.733021
O O12 0.114514 0.000000 0.896034
O O13 0.000000 0.782706 0.000000
#
# Coordination Sequence:
#
# PCOD9219687 Si02
#       5
#     8   8   8   8   8
#     4  11  21  33  51  76 109 145 177 211 255 306
#     4   9  18  33  53  79 107 133 169 215 261 309
#     4  11  22  34  52  79 108 137 174 218 259 304
#     4   9  19  35  53  74 105 145 181 212 251 305
#     4   9  19  39  63  80  99 132 171 213 264 318
#
# _framework density 17.384170000000001
#
# number of rings (size 3 to 8) (size 9 to 14) (size 15 to 20)
#    0.000    2.200    0.000    4.800    0.000    7.600 
#    0.000    1.000    0.000    0.000    0.000    0.000 
#    0.000    0.000    0.000    0.000    0.000    0.000 
#
# Total GULP energy -111687.125121 kJ/mol
# GULP energy per Si atom -5584.356256 kJ/mol
# Density = 1.734460 g / cm^3
# Si number density = 17.384170 Si / 1000 Ang^3
#
#
#
# Elastic Constant Matrix: (Units=GPa)
#
#
# Indices 1 2 3 4 5 6 
#
# 1 78.6077 42.2153 54.3735 -0.0019 -22.5660 0.0004
# 2 42.2153 62.2107 67.0396 -0.0015 -4.6267 0.0001
# 3 54.3735 67.0396 128.2540 0.0002 -1.1656 -0.0005
# 4 -0.0019 -0.0015 0.0002 29.5435 -0.0011 8.6615
# 5 -22.5660 -4.6267 -1.1656 -0.0011 13.0041 0.0003
# 6 0.0004 0.0001 -0.0005 8.6615 0.0003 18.3090
#
#
#
# Elastic Compliance Matrix: (Units=1/GPa)
#
#
# Indices 1 2 3 4 5 6 
#
# 1 0.061769 -0.016605 -0.016601 0.000009 0.099791 -0.000008
# 2 -0.016605 0.043034 -0.015590 0.000001 -0.014900 0.000000
# 3 -0.016601 -0.015590 0.022690 -0.000004 -0.032320 0.000004
# 4 0.000009 0.000001 -0.000004 0.039299 0.000019 -0.018591
# 5 0.099791 -0.014900 -0.032320 0.000019 0.241868 -0.000016
# 6 -0.000008 0.000000 0.000004 -0.018591 -0.000016 0.063413
#
#
# Mechanical properties :
#
#
# Convention : Reuss Voigt Hill
#
# Bulk Modulus (GPa) = 33.44223 66.25883 49.85053
# Shear Modulus (GPa) = 8.62616 19.20092 13.91354
#
# Velocity S-wave (km/s) = 2.22999 3.32702 2.83213
# Velocity P-wave (km/s) = 5.09013 7.27708 6.27954
#
# Compressibility (1/GPa) = 0.02990231
#
# Stress axis : x y z
#
# Youngs Moduli (GPa) = 16.18943 23.23719 44.07134
#
# Poissons Ratio (x) = 0.38584 0.73162
# Poissons Ratio (y) = 0.26882 0.68709
# Poissons Ratio (z) = 0.26876 0.36228
#
# Static dielectric constant tensor:
#      x y z
#    x 1.573250 0.000000 -0.005350 
#    y 0.000000 1.575460 0.000000 
#    z -0.005350 0.000000 1.576260 
# 
# From -- ./inp_files/151745.got.cif
#   From: 2010.05.17/outbox.cif.g08.bks.cpg/sg12_76_cif.got.tgz:151745.got - 2010.06.03 13:09:07.
