data_PCOD9219899
_publ_section_title
;
Structure prediction by ZEFSAII (Michael W. Deem and Ramdas Pophale) SiO2 
 PCOD9219899
Probable space group: C 2/M
;
_chemical_formula_sum "Si O2"
_cell_formula_units_Z 56
_cell_length_a 20.856144
_cell_length_b 8.174423
_cell_length_c 31.544470
_cell_angle_alpha 90.000000
_cell_angle_beta 146.816054
_cell_angle_gamma 90.000000
_cell_volume 2943.490348
_symmetry_space_group_name_H-M "C 2/M"
_symmetry_group_IT_number 12
_symmetry_cell_setting 'monoclinic'
loop_
_space_group_symop_operation_xyz
x,y,z
-x,y,-z
-x,-y,-z
x,-y,z
1/2+x,1/2+y,z
1/2-x,1/2+y,-z
1/2-x,1/2-y,-z
1/2+x,1/2-y,z
loop_
_atom_site_type_symbol
_atom_site_label
_atom_site_fract_x
_atom_site_fract_y
_atom_site_fract_z
Si Si1 0.626660 0.198661 0.164659
Si Si2 0.280239 0.804997 0.324546
Si Si3 0.218103 0.186669 0.578925
Si Si4 0.916533 0.309557 0.995596
Si Si5 0.048166 0.191906 0.333815
Si Si6 0.285866 0.299697 0.172609
Si Si7 0.517841 0.190118 0.410322
O O1 0.671603 0.261267 0.234311
O O2 0.499033 0.259091 0.078259
O O3 0.720487 0.248271 0.180118
O O4 0.624483 0.000000 0.163775
O O5 0.274518 0.726948 0.367494
O O6 0.397674 0.748923 0.365013
O O7 0.287902 0.000000 0.333947
O O8 0.343804 0.215966 0.627233
O O9 0.121595 0.294630 0.501631
O O10 0.181266 0.000000 0.552548
O O11 0.894988 0.500000 0.994329
O O12 0.794039 0.239767 0.910825
O O13 0.000000 0.308518 0.000000
O O14 0.048822 0.214298 0.384822
O O15 0.920512 0.250890 0.247564
O O16 0.059763 0.000000 0.329916
O O17 0.283693 0.500000 0.170820
O O18 0.501836 0.000000 0.389754
#
# Coordination Sequence:
#
# PCOD9219899 Si02
#       7
#     8   8   8   8   8   8   8
#     4   9  15  28  52  81 110 141 180 219 262 317
#     4  11  23  38  57  81 112 144 178 224 275 324
#     4  12  26  41  57  78 107 143 185 228 274 325
#     4   7  11  21  43  77 111 138 171 218 261 306
#     4  11  21  36  59  84 113 145 182 223 267 322
#     4   8  14  26  49  81 111 141 177 217 263 314
#     4  11  23  40  60  82 109 140 179 226 275 323
#
# _framework density 19.025034000000002
#
# number of rings (size 3 to 8) (size 9 to 14) (size 15 to 20)
#    0.000    2.143    1.429    5.143    0.000    3.429 
#    0.000    0.000    0.000    6.429    0.000    0.000 
#    0.000    0.000    0.000    0.000    0.000    0.000 
#
# Total GULP energy -156237.747201 kJ/mol
# GULP energy per Si atom -5579.919543 kJ/mol
# Density = 1.898173 g / cm^3
# Si number density = 19.025034 Si / 1000 Ang^3
#
#
#
# Elastic Constant Matrix: (Units=GPa)
#
#
# Indices 1 2 3 4 5 6 
#
# 1 100.0160 10.2902 77.2598 0.0000 -79.0914 -0.0003
# 2 10.2902 24.1074 -2.7988 0.0000 -12.2983 0.0002
# 3 77.2598 -2.7988 201.3431 0.0000 -91.1901 -0.0004
# 4 0.0000 0.0000 0.0000 6.0952 0.0000 14.4991
# 5 -79.0914 -12.2983 -91.1901 0.0000 116.6827 0.0005
# 6 -0.0003 0.0002 -0.0004 14.4991 0.0005 -2.5337
#
#
#
# Elastic Compliance Matrix: (Units=1/GPa)
#
#
# Indices 1 2 3 4 5 6 
#
# 1 0.022713 -0.003600 -0.003041 0.000000 0.012640 0.000000
# 2 -0.003600 0.046809 0.004893 -0.000001 0.006318 0.000000
# 3 -0.003041 0.004893 0.008516 0.000000 0.005110 0.000000
# 4 0.000000 -0.000001 0.000000 0.011228 0.000000 0.064250
# 5 0.012640 0.006318 0.005110 0.000000 0.021797 0.000000
# 6 0.000000 0.000000 0.000000 0.064250 0.000000 -0.027010
#
#
# Mechanical properties :
#
#
# Convention : Reuss Voigt Hill
#
# Bulk Modulus (GPa) = 13.41513 54.99654 34.20583
# Shear Modulus (GPa) = 44.48585 40.09654 42.29120
#
# Velocity S-wave (km/s) = 4.84082 4.59581 4.71990
# Velocity P-wave (km/s) = 6.18962 7.55858 6.90809
#
# Compressibility (1/GPa) = 0.07454271
#
# Stress axis : x y z
#
# Youngs Moduli (GPa) = 44.02733 21.36352 117.42829
#
# Poissons Ratio (x) = 0.07691 0.35709
# Poissons Ratio (y) = 0.15850 -0.57463
# Poissons Ratio (z) = 0.13388 -0.10454
#
# Static dielectric constant tensor:
#      x y z
#    x 1.618200 0.000000 0.010670 
#    y 0.000000 1.658400 0.000000 
#    z 0.010670 0.000000 1.690120 
# 
# From -- ./inp_files/363099.got.cif
#   From: 2010.05.17/outbox.cif.g08.bks.cpg/sg12_182_cif.got.tgz:363099.got - 2010.06.03 13:09:07.
