data_PCOD9219603
_publ_section_title
;
Structure prediction by ZEFSAII (Michael W. Deem and Ramdas Pophale) SiO2 
 PCOD9219603
Probable space group: C 2/M
;
_chemical_formula_sum "Si O2"
_cell_formula_units_Z 20
_cell_length_a 5.537039
_cell_length_b 14.230510
_cell_length_c 10.012640
_cell_angle_alpha 90.000000
_cell_angle_beta 92.757243
_cell_angle_gamma 90.000000
_cell_volume 788.031505
_symmetry_space_group_name_H-M "C 2/M"
_symmetry_group_IT_number 12
_symmetry_cell_setting 'monoclinic'
loop_
_space_group_symop_operation_xyz
x,y,z
-x,y,-z
-x,-y,-z
x,-y,z
1/2+x,1/2+y,z
1/2-x,1/2+y,-z
1/2-x,1/2-y,-z
1/2+x,1/2-y,z
loop_
_atom_site_type_symbol
_atom_site_label
_atom_site_fract_x
_atom_site_fract_y
_atom_site_fract_z
Si Si1 0.684065 0.201869 0.781942
Si Si2 0.500000 0.835120 0.500000
Si Si3 0.637020 0.500000 0.142492
Si Si4 0.796417 0.000000 0.383272
O O1 0.436585 0.248094 0.827682
O O2 0.670396 0.210598 0.618173
O O3 0.709906 0.094224 0.828560
O O4 0.647536 0.906928 0.408871
O O5 0.426391 0.500000 0.247026
O O6 0.500000 0.500000 0.000000
O O7 0.000000 0.000000 0.500000
#
# Coordination Sequence:
#
# PCOD9219603 Si02
#       4
#     8   4   4   4
#     4  12  27  47  78 116 152 201 258 317 383 462
#     4  11  22  42  76 115 154 192 250 329 386 437
#     4  12  28  52  77 110 159 209 249 316 386 451
#     4  11  20  43  77 109 148 194 262 304 375 460
#
# _framework density 25.379697
#
# number of rings (size 3 to 8) (size 9 to 14) (size 15 to 20)
#    0.000    0.400    4.000    4.800    0.000    3.200 
#    0.000   14.000    0.000    0.000    0.000    0.000 
#    0.000    0.000    0.000    0.000    0.000    0.000 
#
# Total GULP energy -56078.523544 kJ/mol
# GULP energy per Si atom -5607.852354 kJ/mol
# Density = 2.532193 g / cm^3
# Si number density = 25.379697 Si / 1000 Ang^3
#
#
#
# Elastic Constant Matrix: (Units=GPa)
#
#
# Indices 1 2 3 4 5 6 
#
# 1 179.5118 90.7273 45.1026 0.0000 24.9845 0.0000
# 2 90.7273 214.0639 26.4158 0.0000 28.0923 0.0000
# 3 45.1026 26.4158 152.9847 0.0000 30.9110 0.0000
# 4 0.0000 0.0000 0.0000 37.5297 0.0000 38.2047
# 5 24.9845 28.0923 30.9110 0.0000 29.4939 0.0000
# 6 0.0000 0.0000 0.0000 38.2047 0.0000 46.4643
#
#
#
# Elastic Compliance Matrix: (Units=1/GPa)
#
#
# Indices 1 2 3 4 5 6 
#
# 1 0.007627 -0.002746 -0.001265 0.000000 -0.002519 0.000000
# 2 -0.002746 0.006330 0.000590 0.000000 -0.004321 0.000000
# 3 -0.001265 0.000590 0.008506 0.000000 -0.008404 0.000000
# 4 0.000000 0.000000 0.000000 0.163495 0.000000 -0.134432
# 5 -0.002519 -0.004321 -0.008404 0.000000 0.048963 0.000000
# 6 0.000000 0.000000 0.000000 -0.134432 0.000000 0.132057
#
#
# Mechanical properties :
#
#
# Convention : Reuss Voigt Hill
#
# Bulk Modulus (GPa) = 64.02348 96.78354 80.40351
# Shear Modulus (GPa) = 13.19167 48.31857 30.75512
#
# Velocity S-wave (km/s) = 2.28233 4.36802 3.48487
# Velocity P-wave (km/s) = 5.67683 7.97850 6.92398
#
# Compressibility (1/GPa) = 0.01561927
#
# Stress axis : x y z
#
# Youngs Moduli (GPa) = 131.11306 157.98995 117.56451
#
# Poissons Ratio (x) = 0.43381 0.14877
# Poissons Ratio (y) = 0.36001 -0.06932
# Poissons Ratio (z) = 0.16591 -0.09315
#
# Static dielectric constant tensor:
#      x y z
#    x 2.104930 0.000000 0.045380 
#    y 0.000000 2.085870 0.000000 
#    z 0.045380 0.000000 1.954910 
# 
# From -- ./inp_files/113898.got.cif
#   From: 2010.05.17/outbox.cif.g08.bks.cpg/sg12_57_cif.got.tgz:113898.got - 2010.06.03 13:09:07.
