data_PCOD9219992
_publ_section_title
;
Structure prediction by ZEFSAII (Michael W. Deem and Ramdas Pophale) SiO2 
 PCOD9219992
Probable space group: C 2/M
;
_chemical_formula_sum "Si O2"
_cell_formula_units_Z 52
_cell_length_a 13.967229
_cell_length_b 20.980992
_cell_length_c 12.366630
_cell_angle_alpha 90.000000
_cell_angle_beta 129.514919
_cell_angle_gamma 90.000000
_cell_volume 2795.763628
_symmetry_space_group_name_H-M "C 2/M"
_symmetry_group_IT_number 12
_symmetry_cell_setting 'monoclinic'
loop_
_space_group_symop_operation_xyz
x,y,z
-x,y,-z
-x,-y,-z
x,-y,z
1/2+x,1/2+y,z
1/2-x,1/2+y,-z
1/2-x,1/2-y,-z
1/2+x,1/2-y,z
loop_
_atom_site_type_symbol
_atom_site_label
_atom_site_fract_x
_atom_site_fract_y
_atom_site_fract_z
Si Si1 0.794391 0.317305 0.480102
Si Si2 0.835918 0.887090 0.288703
Si Si3 0.000000 0.750509 0.000000
Si Si4 0.278996 0.762878 0.236063
Si Si5 0.105202 0.571928 0.988069
Si Si6 0.034395 0.680523 0.795897
Si Si7 0.614135 0.575335 0.433334
O O1 0.750000 0.250000 0.500000
O O2 0.816757 0.301161 0.370774
O O3 0.695972 0.374649 0.423615
O O4 0.916423 0.333187 0.636538
O O5 0.796301 0.812886 0.270155
O O6 0.836499 0.917712 0.408054
O O7 0.973025 0.898291 0.338913
O O8 0.735183 0.919839 0.140904
O O9 0.137401 0.780959 0.103452
O O10 0.999834 0.713989 0.115260
O O11 0.370140 0.777858 0.203426
O O12 0.080422 0.500000 0.939735
O O13 0.098472 0.616026 0.879777
O O14 0.000000 0.590462 0.000000
O O15 0.616980 0.500000 0.405004
#
# Coordination Sequence:
#
# PCOD9219992 Si02
#       7
#     8   8   4   8   8   8   8
#     4  12  23  42  62  91 131 173 217 262 326 390
#     4  11  21  37  61  94 127 163 219 274 328 380
#     4  12  22  40  61  94 127 162 208 264 334 382
#     4  12  25  39  65  95 133 171 213 276 322 388
#     4  11  22  38  60  88 124 166 210 267 326 384
#     4  12  24  40  61  97 127 166 217 265 327 386
#     4  11  23  38  62  94 129 171 218 272 328 387
#
# _framework density 18.599568999999999
#
# number of rings (size 3 to 8) (size 9 to 14) (size 15 to 20)
#    0.000    0.462    5.385    4.615    2.154    1.846 
#    0.000    0.769    0.000    1.846    0.000    3.231 
#    0.000    0.000    0.000    0.000    0.000    0.000 
#
# Total GULP energy -145175.678263 kJ/mol
# GULP energy per Si atom -5583.679933 kJ/mol
# Density = 1.855724 g / cm^3
# Si number density = 18.599569 Si / 1000 Ang^3
#
#
#
# Elastic Constant Matrix: (Units=GPa)
#
#
# Indices 1 2 3 4 5 6 
#
# 1 79.5390 25.5654 18.2508 0.0000 -2.1149 0.0000
# 2 25.5654 63.4498 3.3067 0.0000 -5.6350 0.0000
# 3 18.2508 3.3067 84.4194 0.0000 13.8429 0.0000
# 4 0.0000 0.0000 0.0000 10.6857 0.0000 -10.9031
# 5 -2.1149 -5.6350 13.8429 0.0000 31.4160 0.0000
# 6 0.0000 0.0000 0.0000 -10.9031 0.0000 20.7624
#
#
#
# Elastic Compliance Matrix: (Units=1/GPa)
#
#
# Indices 1 2 3 4 5 6 
#
# 1 0.015247 -0.005844 -0.003302 0.000000 0.001433 0.000000
# 2 -0.005844 0.018366 0.000074 0.000000 0.002868 0.000000
# 3 -0.003302 0.000074 0.013572 0.000000 -0.006189 0.000000
# 4 0.000000 0.000000 0.000000 0.201609 0.000000 0.105872
# 5 0.001433 0.002868 -0.006189 0.000000 0.035169 0.000000
# 6 0.000000 0.000000 0.000000 0.105872 0.000000 0.103761
#
#
# Mechanical properties :
#
#
# Convention : Reuss Voigt Hill
#
# Bulk Modulus (GPa) = 34.43623 35.73931 35.08777
# Shear Modulus (GPa) = 12.03231 24.59185 18.31208
#
# Velocity S-wave (km/s) = 2.54621 3.64011 3.14115
# Velocity P-wave (km/s) = 5.21526 6.07652 5.66229
#
# Compressibility (1/GPa) = 0.02903918
#
# Stress axis : x y z
#
# Youngs Moduli (GPa) = 65.58832 54.44840 73.68351
#
# Poissons Ratio (x) = 0.31819 0.24333
# Poissons Ratio (y) = 0.38329 -0.00543
# Poissons Ratio (z) = 0.21659 -0.00401
#
# Static dielectric constant tensor:
#      x y z
#    x 1.656980 0.000000 0.018030 
#    y 0.000000 1.637250 0.000000 
#    z 0.018030 0.000000 1.634360 
# 
# From -- ./inp_files/147728.got.cif
#   From: 2010.05.17/outbox.cif.g08.bks.cpg/sg12_74_cif.got.tgz:147728.got - 2010.06.03 13:09:07.
