data_PCOD9219220
_publ_section_title
;
Structure prediction by ZEFSAII (Michael W. Deem and Ramdas Pophale) SiO2 
 PCOD9219220
Probable space group: C 2/M
;
_chemical_formula_sum "Si O2"
_cell_formula_units_Z 56
_cell_length_a 13.076632
_cell_length_b 24.940676
_cell_length_c 23.818070
_cell_angle_alpha 90.000000
_cell_angle_beta 157.551799
_cell_angle_gamma 90.000000
_cell_volume 2966.205563
_symmetry_space_group_name_H-M "C 2/M"
_symmetry_group_IT_number 12
_symmetry_cell_setting 'monoclinic'
loop_
_space_group_symop_operation_xyz
x,y,z
-x,y,-z
-x,-y,-z
x,-y,z
1/2+x,1/2+y,z
1/2-x,1/2+y,-z
1/2-x,1/2-y,-z
1/2+x,1/2-y,z
loop_
_atom_site_type_symbol
_atom_site_label
_atom_site_fract_x
_atom_site_fract_y
_atom_site_fract_z
Si Si1 0.010066 0.167541 0.071233
Si Si2 0.826442 0.827638 0.668626
Si Si3 0.046300 0.199655 0.392472
Si Si4 0.252792 0.441720 0.670107
Si Si5 0.738505 0.560822 0.195237
Si Si6 0.926883 0.348562 0.667807
Si Si7 0.524638 0.779828 0.194282
O O1 0.768835 0.200678 0.974047
O O2 0.000000 0.180004 0.000000
O O3 0.990819 0.102910 0.067639
O O4 0.323989 0.176815 0.242749
O O5 0.500000 0.821743 0.500000
O O6 0.933508 0.821762 0.660062
O O7 0.895836 0.885911 0.728723
O O8 0.946462 0.779887 0.766630
O O9 0.250000 0.250000 0.500000
O O10 0.165450 0.158080 0.498367
O O11 0.747873 0.212500 0.260496
O O12 0.391613 0.500000 0.733702
O O13 0.168327 0.438828 0.692447
O O14 0.000000 0.442191 0.500000
O O15 0.681591 0.500000 0.150319
O O16 0.964132 0.590800 0.272810
O O17 0.908725 0.317920 0.717464
#
# Coordination Sequence:
#
# PCOD9219220 Si02
#       7
#     8   8   8   8   8   8   8
#     4   8  19  35  55  80 119 148 187 236 279 331
#     4  11  20  32  56  80 112 150 190 232 286 346
#     4  12  21  33  55  83 112 157 192 228 292 351
#     4   9  18  32  53  83 110 136 187 249 279 317
#     4   9  18  34  62  87 110 152 198 233 283 338
#     4   9  18  35  55  82 115 147 188 239 280 333
#     4  11  20  35  53  82 121 148 184 235 290 343
#
# _framework density 18.879339000000002
#
# number of rings (size 3 to 8) (size 9 to 14) (size 15 to 20)
#    0.857    1.286    2.857    2.143    0.000    0.286 
#    0.000    2.857    0.000    4.286    0.000    2.000 
#    0.000    0.000    0.000    0.000    0.000    0.000 
#
# Total GULP energy -155908.454435 kJ/mol
# GULP energy per Si atom -5568.159087 kJ/mol
# Density = 1.883637 g / cm^3
# Si number density = 18.879339 Si / 1000 Ang^3
#
#
#
# Elastic Constant Matrix: (Units=GPa)
#
#
# Indices 1 2 3 4 5 6 
#
# 1 88.3860 35.7771 7.5653 -0.0006 10.7626 -0.0013
# 2 35.7771 145.3307 6.5189 -0.0117 12.7162 0.0055
# 3 7.5653 6.5189 49.6944 -0.0360 14.7355 -0.0097
# 4 -0.0006 -0.0117 -0.0360 22.5664 -0.0212 -0.5588
# 5 10.7626 12.7162 14.7355 -0.0212 30.1556 -0.0024
# 6 -0.0013 0.0055 -0.0097 -0.5588 -0.0024 23.4432
#
#
#
# Elastic Compliance Matrix: (Units=1/GPa)
#
#
# Indices 1 2 3 4 5 6 
#
# 1 0.012911 -0.002880 -0.000680 -0.000005 -0.003061 0.000001
# 2 -0.002880 0.007787 0.000100 0.000002 -0.002305 -0.000002
# 3 -0.000680 0.000100 0.023569 0.000027 -0.011317 0.000009
# 4 -0.000005 0.000002 0.000027 0.044340 0.000019 0.001057
# 5 -0.003061 -0.002305 -0.011317 0.000019 0.040756 0.000000
# 6 0.000001 -0.000002 0.000009 0.001057 0.000000 0.042681
#
#
# Mechanical properties :
#
#
# Convention : Reuss Voigt Hill
#
# Bulk Modulus (GPa) = 26.77554 42.57040 34.67297
# Shear Modulus (GPa) = 26.12165 30.80302 28.46234
#
# Velocity S-wave (km/s) = 3.72373 4.04366 3.88698
# Velocity P-wave (km/s) = 5.71852 6.66327 6.20889
#
# Compressibility (1/GPa) = 0.03734752
#
# Stress axis : x y z
#
# Youngs Moduli (GPa) = 77.45494 128.41890 42.42868
#
# Poissons Ratio (x) = 0.36984 0.02885
# Poissons Ratio (y) = 0.22307 -0.00426
# Poissons Ratio (z) = 0.05267 -0.01289
#
# Static dielectric constant tensor:
#      x y z
#    x 1.667330 0.000030 -0.027920 
#    y 0.000030 1.749130 -0.000160 
#    z -0.027920 -0.000160 1.702890 
# 
# From -- ./inp_files/337039.got.cif
#   From: 2010.05.17/outbox.cif.g08.bks.cpg/sg12_169_cif.got.tgz:337039.got - 2010.06.03 13:09:07.
