data_PCOD9219854
_publ_section_title
;
Structure prediction by ZEFSAII (Michael W. Deem and Ramdas Pophale) SiO2 
 PCOD9219854
Probable space group: C 2/M
;
_chemical_formula_sum "Si O2"
_cell_formula_units_Z 48
_cell_length_a 20.125779
_cell_length_b 26.030766
_cell_length_c 9.287363
_cell_angle_alpha 90.000000
_cell_angle_beta 150.806310
_cell_angle_gamma 90.000000
_cell_volume 2373.238500
_symmetry_space_group_name_H-M "C 2/M"
_symmetry_group_IT_number 12
_symmetry_cell_setting 'monoclinic'
loop_
_space_group_symop_operation_xyz
x,y,z
-x,y,-z
-x,-y,-z
x,-y,z
1/2+x,1/2+y,z
1/2-x,1/2+y,-z
1/2-x,1/2-y,-z
1/2+x,1/2-y,z
loop_
_atom_site_type_symbol
_atom_site_label
_atom_site_fract_x
_atom_site_fract_y
_atom_site_fract_z
Si Si1 0.139107 0.712164 0.853324
Si Si2 0.649379 0.214195 0.216480
Si Si3 0.901551 0.559659 0.614782
Si Si4 0.342484 0.096817 0.215930
Si Si5 0.888756 0.057702 0.398303
Si Si6 0.697864 0.904379 0.278335
O O1 0.177806 0.652732 0.893312
O O2 0.000000 0.720018 0.500000
O O3 0.250000 0.750000 0.000000
O O4 0.134700 0.722477 0.016110
O O5 0.750000 0.250000 0.500000
O O6 0.696281 0.155113 0.317357
O O7 0.500000 0.219236 0.000000
O O8 0.912045 0.500000 0.591219
O O9 0.822215 0.593820 0.348215
O O10 0.821312 0.563145 0.613078
O O11 0.054182 0.582733 0.925067
O O12 0.500000 0.082636 0.500000
O O13 0.245151 0.057619 0.953617
O O14 0.830060 0.083206 0.432287
O O15 0.000000 0.082534 0.500000
O O16 0.936207 0.000000 0.522115
#
# Coordination Sequence:
#
# PCOD9219854 Si02
#       6
#     8   8   8   8   8   8
#     4  11  24  43  68  96 132 179 227 287 345 412
#     4  12  25  45  70  99 136 181 230 294 356 413
#     4  11  21  35  68 103 133 170 222 285 340 401
#     4  11  22  39  64  97 131 167 227 281 329 402
#     4  11  23  41  64  94 137 180 218 270 345 421
#     4  11  21  41  65  94 137 172 225 277 343 411
#
# _framework density 20.225528000000001
#
# number of rings (size 3 to 8) (size 9 to 14) (size 15 to 20)
#    0.000    0.833    5.000    4.500    2.333    1.333 
#    3.000    0.833    0.000    3.000    0.000    0.000 
#    0.000    0.000    0.000    0.000    0.000    0.000 
#
# Total GULP energy -133918.490243 kJ/mol
# GULP energy per Si atom -5579.937093 kJ/mol
# Density = 2.017949 g / cm^3
# Si number density = 20.225528 Si / 1000 Ang^3
#
#
#
# Elastic Constant Matrix: (Units=GPa)
#
#
# Indices 1 2 3 4 5 6 
#
# 1 164.4252 65.1237 36.6306 0.0000 -6.0474 0.0000
# 2 65.1237 104.4634 50.9094 0.0000 5.0939 0.0000
# 3 36.6306 50.9094 48.0040 0.0000 -18.6275 0.0000
# 4 0.0000 0.0000 0.0000 -47.7686 0.0000 -2.1208
# 5 -6.0474 5.0939 -18.6275 0.0000 44.1471 0.0000
# 6 0.0000 0.0000 0.0000 -2.1208 0.0000 23.4533
#
#
#
# Elastic Compliance Matrix: (Units=1/GPa)
#
#
# Indices 1 2 3 4 5 6 
#
# 1 0.008205 -0.005052 -0.000288 0.000000 0.001585 0.000000
# 2 -0.005052 0.032742 -0.038987 0.000000 -0.020920 0.000000
# 3 -0.000288 -0.038987 0.076683 0.000000 0.036815 0.000000
# 4 0.000000 0.000000 0.000000 -0.020851 0.000000 -0.001885
# 5 0.001585 -0.020920 0.036815 0.000000 0.040816 0.000000
# 6 0.000000 0.000000 0.000000 -0.001885 0.000000 0.042467
#
#
# Mechanical properties :
#
#
# Convention : Reuss Voigt Hill
#
# Bulk Modulus (GPa) = 34.51005 69.13557 51.82281
# Shear Modulus (GPa) = 17.96128 14.91494 16.43811
#
# Velocity S-wave (km/s) = 2.98325 2.71851 2.85395
# Velocity P-wave (km/s) = 5.38201 6.64156 6.04468
#
# Compressibility (1/GPa) = 0.02897707
#
# Stress axis : x y z
#
# Youngs Moduli (GPa) = 121.87255 30.54161 13.04067
#
# Poissons Ratio (x) = 0.15430 0.00376
# Poissons Ratio (y) = 0.61572 0.50841
# Poissons Ratio (z) = 0.03511 1.19071
#
# Static dielectric constant tensor:
#      x y z
#    x 1.807160 0.000000 -0.065550 
#    y 0.000000 1.725760 0.000000 
#    z -0.065550 0.000000 1.763050 
# 
# From -- ./inp_files/91259.got.cif
#   From: 2010.05.17/outbox.cif.g08.bks.cpg/sg12_46_cif.got.tgz:91259.got - 2010.06.03 13:09:07.
