data_PCOD9219014
_publ_section_title
;
Structure prediction by ZEFSAII (Michael W. Deem and Ramdas Pophale) SiO2 
 PCOD9219014
Probable space group: C 2/M
;
_chemical_formula_sum "Si O2"
_cell_formula_units_Z 36
_cell_length_a 13.867333
_cell_length_b 22.228443
_cell_length_c 12.442900
_cell_angle_alpha 90.000000
_cell_angle_beta 151.289685
_cell_angle_gamma 90.000000
_cell_volume 1842.509709
_symmetry_space_group_name_H-M "C 2/M"
_symmetry_group_IT_number 12
_symmetry_cell_setting 'monoclinic'
loop_
_space_group_symop_operation_xyz
x,y,z
-x,y,-z
-x,-y,-z
x,-y,z
1/2+x,1/2+y,z
1/2-x,1/2+y,-z
1/2-x,1/2-y,-z
1/2+x,1/2-y,z
loop_
_atom_site_type_symbol
_atom_site_label
_atom_site_fract_x
_atom_site_fract_y
_atom_site_fract_z
Si Si1 0.669078 0.064867 0.828630
Si Si2 0.000000 0.717087 0.000000
Si Si3 0.291953 0.565058 0.705779
Si Si4 0.117644 0.689879 0.884135
Si Si5 0.313383 0.810346 0.400572
O O1 0.786039 0.064436 0.829683
O O2 0.436115 0.064712 0.564021
O O3 0.706458 0.126620 0.927676
O O4 0.702869 0.000000 0.916952
O O5 0.815216 0.758357 0.779540
O O6 0.066151 0.681871 0.958685
O O7 0.373487 0.500000 0.748434
O O8 0.340535 0.634203 0.728976
O O9 0.922714 0.702350 0.619551
O O10 0.250000 0.750000 0.000000
O O11 0.500000 0.824388 0.500000
#
# Coordination Sequence:
#
# PCOD9219014 Si02
#       5
#     8   4   8   8   8
#     4   8  13  24  46  75 100 131 172 210 255 309
#     4  12  24  34  52  78 106 142 178 212 262 308
#     4   8  12  24  50  75  98 132 167 205 263 314
#     4  11  20  35  55  78 107 140 174 218 263 310
#     4  11  19  35  53  77 109 135 171 218 265 309
#
# _framework density 19.538567
#
# number of rings (size 3 to 8) (size 9 to 14) (size 15 to 20)
#    0.000    2.222    6.667    2.000    0.000    0.000 
#    0.000    1.111    0.000    1.333    0.000    4.667 
#    0.000    0.000    0.000    0.000    0.000    0.000 
#
# Total GULP energy -100208.761721 kJ/mol
# GULP energy per Si atom -5567.153429 kJ/mol
# Density = 1.949410 g / cm^3
# Si number density = 19.538567 Si / 1000 Ang^3
#
#
#
# Elastic Constant Matrix: (Units=GPa)
#
#
# Indices 1 2 3 4 5 6 
#
# 1 84.6916 39.1789 31.1429 0.0000 -16.0624 0.0000
# 2 39.1789 157.2252 43.5706 0.0000 -10.0799 0.0000
# 3 31.1429 43.5706 86.3855 0.0000 -13.9109 0.0000
# 4 0.0000 0.0000 0.0000 32.6644 0.0000 -10.2476
# 5 -16.0624 -10.0799 -13.9109 0.0000 31.2718 0.0000
# 6 0.0000 0.0000 0.0000 -10.2476 0.0000 13.1060
#
#
#
# Elastic Compliance Matrix: (Units=1/GPa)
#
#
# Indices 1 2 3 4 5 6 
#
# 1 0.015250 -0.002521 -0.003335 0.000000 0.005537 0.000000
# 2 -0.002521 0.007828 -0.003061 0.000000 -0.000133 0.000000
# 3 -0.003335 -0.003061 0.014959 0.000000 0.003955 0.000000
# 4 0.000000 0.000000 0.000000 0.040565 0.000000 0.031718
# 5 0.005537 -0.000133 0.003955 0.000000 0.036538 0.000000
# 6 0.000000 0.000000 0.000000 0.031718 0.000000 0.101101
#
#
# Mechanical properties :
#
#
# Convention : Reuss Voigt Hill
#
# Bulk Modulus (GPa) = 49.49510 61.78746 55.64128
# Shear Modulus (GPa) = 20.76325 29.70243 25.23284
#
# Velocity S-wave (km/s) = 3.26341 3.90320 3.59756
# Velocity P-wave (km/s) = 6.29181 7.21147 6.76728
#
# Compressibility (1/GPa) = 0.02020402
#
# Stress axis : x y z
#
# Youngs Moduli (GPa) = 65.57296 127.74255 66.84979
#
# Poissons Ratio (x) = 0.32205 0.22292
# Poissons Ratio (y) = 0.16532 0.20462
# Poissons Ratio (z) = 0.21866 0.39101
#
# Static dielectric constant tensor:
#      x y z
#    x 1.747470 0.000000 0.088680 
#    y 0.000000 1.758190 0.000000 
#    z 0.088680 0.000000 1.740440 
# 
# From -- ./inp_files/147848.got.cif
#   From: 2010.05.17/outbox.cif.g08.bks.cpg/sg12_74_cif.got.tgz:147848.got - 2010.06.03 13:09:07.
