data_PCOD9219548
_publ_section_title
;
Structure prediction by ZEFSAII (Michael W. Deem and Ramdas Pophale) SiO2 
 PCOD9219548
Probable space group: C 2/M
;
_chemical_formula_sum "Si O2"
_cell_formula_units_Z 48
_cell_length_a 11.490717
_cell_length_b 22.453677
_cell_length_c 9.236014
_cell_angle_alpha 90.000000
_cell_angle_beta 66.210658
_cell_angle_gamma 90.000000
_cell_volume 2180.503332
_symmetry_space_group_name_H-M "C 2/M"
_symmetry_group_IT_number 12
_symmetry_cell_setting 'monoclinic'
loop_
_space_group_symop_operation_xyz
x,y,z
-x,y,-z
-x,-y,-z
x,-y,z
1/2+x,1/2+y,z
1/2-x,1/2+y,-z
1/2-x,1/2-y,-z
1/2+x,1/2-y,z
loop_
_atom_site_type_symbol
_atom_site_label
_atom_site_fract_x
_atom_site_fract_y
_atom_site_fract_z
Si Si1 0.130377 0.149899 0.251798
Si Si2 0.087005 0.931143 0.778818
Si Si3 0.775634 0.387142 0.908909
Si Si4 0.979435 0.563803 0.335929
Si Si5 0.137675 0.285327 0.354468
Si Si6 0.752520 0.131170 0.514509
O O1 0.133617 0.220661 0.281717
O O2 0.149662 0.127681 0.404690
O O3 0.008541 0.118643 0.238397
O O4 0.244339 0.131224 0.087347
O O5 0.145427 0.913741 0.905113
O O6 0.210789 0.920853 0.615191
O O7 0.044209 0.000000 0.794498
O O8 0.890774 0.431418 0.818317
O O9 0.822851 0.330373 0.792698
O O10 0.919774 0.500000 0.333640
O O11 0.000000 0.567582 0.500000
O O12 0.883712 0.616568 0.348645
O O13 0.237208 0.307889 0.430087
O O14 0.000000 0.292944 0.500000
#
# Coordination Sequence:
#
# PCOD9219548 Si02
#       6
#     8   8   8   8   8   8
#     4  12  27  39  63 100 138 171 211 274 343 389
#     4  11  24  45  69  94 133 184 228 267 328 411
#     4  11  23  44  65  98 131 171 220 274 332 396
#     4  11  20  40  71  96 122 171 226 272 327 395
#     4  11  21  45  69  92 126 174 227 266 321 400
#     4  11  22  42  68  98 128 171 223 277 323 394
#
# _framework density 22.013266999999999
#
# number of rings (size 3 to 8) (size 9 to 14) (size 15 to 20)
#    0.000    0.833    5.000    4.000    0.000    6.000 
#    0.000    2.500    0.000    0.000    0.000    0.000 
#    0.000    0.000    0.000    0.000    0.000    0.000 
#
# Total GULP energy -133778.347919 kJ/mol
# GULP energy per Si atom -5574.097830 kJ/mol
# Density = 2.196316 g / cm^3
# Si number density = 22.013267 Si / 1000 Ang^3
#
#
#
# Elastic Constant Matrix: (Units=GPa)
#
#
# Indices 1 2 3 4 5 6 
#
# 1 65.3920 25.6245 15.8662 0.0000 0.9522 0.0000
# 2 25.6245 141.5428 30.5316 0.0000 8.6594 0.0000
# 3 15.8662 30.5316 119.5327 0.0000 -2.7688 0.0000
# 4 0.0000 0.0000 0.0000 22.7701 0.0000 -12.3283
# 5 0.9522 8.6594 -2.7688 0.0000 33.3623 0.0000
# 6 0.0000 0.0000 0.0000 -12.3283 0.0000 -23.5721
#
#
#
# Elastic Compliance Matrix: (Units=1/GPa)
#
#
# Indices 1 2 3 4 5 6 
#
# 1 0.016721 -0.002704 -0.001527 0.000000 0.000098 0.000000
# 2 -0.002704 0.008064 -0.001751 0.000000 -0.002161 0.000000
# 3 -0.001527 -0.001751 0.009045 0.000000 0.001249 0.000000
# 4 0.000000 0.000000 0.000000 0.034226 0.000000 -0.017900
# 5 0.000098 -0.002161 0.001249 0.000000 0.030636 0.000000
# 6 0.000000 0.000000 0.000000 -0.017900 0.000000 -0.033061
#
#
# Mechanical properties :
#
#
# Convention : Reuss Voigt Hill
#
# Bulk Modulus (GPa) = 45.73053 52.27913 49.00483
# Shear Modulus (GPa) = 58.90524 23.47508 41.19016
#
# Velocity S-wave (km/s) = 5.17852 3.26913 4.33037
# Velocity P-wave (km/s) = 7.52165 6.16848 6.87842
#
# Compressibility (1/GPa) = 0.02186723
#
# Stress axis : x y z
#
# Youngs Moduli (GPa) = 59.80553 124.00147 110.56170
#
# Poissons Ratio (x) = 0.33527 0.16878
# Poissons Ratio (y) = 0.16170 0.19360
# Poissons Ratio (z) = 0.09130 0.21713
#
# Static dielectric constant tensor:
#      x y z
#    x 1.896050 0.000000 -0.037030 
#    y 0.000000 1.822300 0.000000 
#    z -0.037030 0.000000 1.788530 
# 
# From -- ./inp_files/51301.got.cif
#   From: 2010.05.17/outbox.cif.g08.bks.cpg/sg12_26_cif.got.tgz:51301.got - 2010.06.03 13:09:07.
