data_PCOD9219847
_publ_section_title
;
Structure prediction by ZEFSAII (Michael W. Deem and Ramdas Pophale) SiO2 
 PCOD9219847
Probable space group: C 2/M
;
_chemical_formula_sum "Si O2"
_cell_formula_units_Z 56
_cell_length_a 17.196143
_cell_length_b 17.972701
_cell_length_c 11.718919
_cell_angle_alpha 90.000000
_cell_angle_beta 132.635084
_cell_angle_gamma 90.000000
_cell_volume 2664.540719
_symmetry_space_group_name_H-M "C 2/M"
_symmetry_group_IT_number 12
_symmetry_cell_setting 'monoclinic'
loop_
_space_group_symop_operation_xyz
x,y,z
-x,y,-z
-x,-y,-z
x,-y,z
1/2+x,1/2+y,z
1/2-x,1/2+y,-z
1/2-x,1/2-y,-z
1/2+x,1/2-y,z
loop_
_atom_site_type_symbol
_atom_site_label
_atom_site_fract_x
_atom_site_fract_y
_atom_site_fract_z
Si Si1 0.257969 0.414780 0.119859
Si Si2 0.346571 0.911617 0.618084
Si Si3 0.958240 0.326436 0.085433
Si Si4 0.533490 0.319656 0.251408
Si Si5 0.136315 0.085466 0.022793
Si Si6 0.660990 0.344281 0.591024
Si Si7 0.745018 0.683268 0.324594
O O1 0.228533 0.500000 0.115520
O O2 0.301755 0.410836 0.035709
O O3 0.344639 0.387439 0.296399
O O4 0.156031 0.363011 0.033827
O O5 0.458071 0.883684 0.777514
O O6 0.255454 0.884895 0.614827
O O7 0.320301 0.870034 0.473631
O O8 0.343852 0.000000 0.602714
O O9 0.959683 0.251986 0.162718
O O10 0.000000 0.306897 0.000000
O O11 0.480289 0.384562 0.124497
O O12 0.561771 0.342485 0.407499
O O13 0.645901 0.296642 0.307966
O O14 0.134241 0.000000 0.060359
O O15 0.195010 0.138894 0.169813
O O16 0.696071 0.259149 0.647542
#
# Coordination Sequence:
#
# PCOD9219847 Si02
#       7
#     8   8   8   8   8   8   8
#     4  11  25  42  60  89 128 162 206 260 310 362
#     4  11  21  35  62  98 127 157 198 251 310 363
#     4  12  21  38  65  97 123 157 202 255 312 371
#     4  11  22  39  65  94 124 158 205 255 308 364
#     4  11  26  43  60  87 124 170 212 253 304 364
#     4  11  21  39  64  93 126 160 198 256 309 365
#     4  11  21  42  64  91 128 162 204 255 300 366
#
# _framework density 21.016753999999999
#
# number of rings (size 3 to 8) (size 9 to 14) (size 15 to 20)
#    0.000    0.857    4.286    4.286    0.000    7.429 
#    0.000    2.143    0.000    2.571    0.000    0.000 
#    0.000    0.000    0.000    0.000    0.000    0.000 
#
# Total GULP energy -156700.634991 kJ/mol
# GULP energy per Si atom -5596.451250 kJ/mol
# Density = 2.096892 g / cm^3
# Si number density = 21.016754 Si / 1000 Ang^3
#
#
#
# Elastic Constant Matrix: (Units=GPa)
#
#
# Indices 1 2 3 4 5 6 
#
# 1 28.2646 -12.0345 2.5450 0.0000 -1.1349 0.0000
# 2 -12.0345 85.8957 26.7971 0.0000 -6.2846 0.0000
# 3 2.5450 26.7971 139.5575 0.0000 -12.2237 0.0000
# 4 0.0000 0.0000 0.0000 33.4109 0.0000 -9.6972
# 5 -1.1349 -6.2846 -12.2237 0.0000 13.6954 0.0000
# 6 0.0000 0.0000 0.0000 -9.6972 0.0000 -1.4139
#
#
#
# Elastic Compliance Matrix: (Units=1/GPa)
#
#
# Indices 1 2 3 4 5 6 
#
# 1 0.038330 0.006173 -0.001473 0.000000 0.004694 0.000000
# 2 0.006173 0.013569 -0.002308 0.000000 0.004678 0.000000
# 3 -0.001473 -0.002308 0.008171 0.000000 0.006112 0.000000
# 4 0.000000 0.000000 0.000000 0.010008 0.000000 -0.068641
# 5 0.004694 0.004678 0.006112 0.000000 0.081008 0.000000
# 6 0.000000 0.000000 0.000000 -0.068641 0.000000 -0.236496
#
#
# Mechanical properties :
#
#
# Convention : Reuss Voigt Hill
#
# Bulk Modulus (GPa) = 15.41941 32.03696 23.72819
# Shear Modulus (GPa) = -72.91197 24.89915 -24.00641
#
# Velocity S-wave (km/s) = -5.89641 3.44572 -3.38339
# Velocity P-wave (km/s) = 6.24533 5.57739 1.98707
#
# Compressibility (1/GPa) = 0.06485333
#
# Stress axis : x y z
#
# Youngs Moduli (GPa) = 26.08952 73.69546 122.38537
#
# Poissons Ratio (x) = -0.45494 0.18029
# Poissons Ratio (y) = -0.16106 0.28251
# Poissons Ratio (z) = 0.03843 0.17011
#
# Static dielectric constant tensor:
#      x y z
#    x 1.757550 0.000000 -0.016520 
#    y 0.000000 1.728930 0.000000 
#    z -0.016520 0.000000 1.757560 
# 
# From -- ./inp_files/158355.got.cif
#   From: 2010.05.17/outbox.cif.g08.bks.cpg/sg12_80_cif.got.tgz:158355.got - 2010.06.03 13:09:07.
