data_PCOD9219266
_publ_section_title
;
Structure prediction by ZEFSAII (Michael W. Deem and Ramdas Pophale) SiO2 
 PCOD9219266
Probable space group: C 2/M
;
_chemical_formula_sum "Si O2"
_cell_formula_units_Z 64
_cell_length_a 9.104173
_cell_length_b 28.366223
_cell_length_c 14.551765
_cell_angle_alpha 90.000000
_cell_angle_beta 108.626562
_cell_angle_gamma 90.000000
_cell_volume 3561.165088
_symmetry_space_group_name_H-M "C 2/M"
_symmetry_group_IT_number 12
_symmetry_cell_setting 'monoclinic'
loop_
_space_group_symop_operation_xyz
x,y,z
-x,y,-z
-x,-y,-z
x,-y,z
1/2+x,1/2+y,z
1/2-x,1/2+y,-z
1/2-x,1/2-y,-z
1/2+x,1/2-y,z
loop_
_atom_site_type_symbol
_atom_site_label
_atom_site_fract_x
_atom_site_fract_y
_atom_site_fract_z
Si Si1 0.514425 0.803219 0.395059
Si Si2 0.487735 0.305910 0.889136
Si Si3 0.692449 0.351437 0.792260
Si Si4 0.005510 0.695895 0.108591
Si Si5 0.769718 0.446611 0.883690
Si Si6 0.871757 0.202498 0.396965
Si Si7 0.128367 0.553778 0.890259
Si Si8 0.810714 0.646879 0.206443
O O1 0.500000 0.815673 0.500000
O O2 0.695408 0.796948 0.401849
O O3 0.422204 0.753573 0.367509
O O4 0.423678 0.839762 0.312317
O O5 0.644806 0.318309 0.867891
O O6 0.454233 0.250534 0.870219
O O7 0.366030 0.338966 0.811552
O O8 0.500000 0.316036 0.000000
O O9 0.873329 0.338758 0.819206
O O10 0.675090 0.405549 0.815984
O O11 0.617390 0.334660 0.683204
O O12 0.849019 0.682637 0.129360
O O13 0.000000 0.685488 0.000000
O O14 0.712745 0.500000 0.859232
O O15 0.945866 0.444726 0.879937
O O16 0.783699 0.437097 0.995579
O O17 0.000000 0.192350 0.500000
O O18 0.163244 0.500000 0.868152
O O19 0.169509 0.594079 0.826303
#
# Coordination Sequence:
#
# PCOD9219266 Si02
#       8
#     8   8   8   8   8   8   8   8
#     4  11  23  38  59  83 111 147 190 239 285 335
#     4  11  24  34  48  80 118 155 182 220 278 339
#     4  12  22  35  56  80 111 150 190 228 282 335
#     4  11  20  34  52  76 112 147 184 220 260 339
#     4   9  17  32  56  83 109 142 188 236 277 327
#     4  11  23  38  59  83 111 147 190 239 285 335
#     4   9  17  32  56  83 109 142 188 236 277 327
#     4  12  22  35  56  80 111 150 190 228 282 335
#
# _framework density 17.971647000000001
#
# number of rings (size 3 to 8) (size 9 to 14) (size 15 to 20)
#    0.000    1.250    2.500    6.750    3.500    2.000 
#    0.000    0.625    0.000    3.000    0.000    0.000 
#    0.000    0.000    0.000    0.000    0.000    0.000 
#
# Total GULP energy -178634.678108 kJ/mol
# GULP energy per Si atom -5582.333691 kJ/mol
# Density = 1.793074 g / cm^3
# Si number density = 17.971647 Si / 1000 Ang^3
#
#
#
# Elastic Constant Matrix: (Units=GPa)
#
#
# Indices 1 2 3 4 5 6 
#
# 1 50.8354 14.1159 20.4487 0.0000 0.5428 0.0000
# 2 14.1159 131.8519 74.5019 0.0000 1.0101 0.0000
# 3 20.4487 74.5019 90.0172 0.0000 -2.9276 0.0000
# 4 0.0000 0.0000 0.0000 31.3362 0.0000 -2.0889
# 5 0.5428 1.0101 -2.9276 0.0000 23.9138 0.0000
# 6 0.0000 0.0000 0.0000 -2.0889 0.0000 9.2124
#
#
#
# Elastic Compliance Matrix: (Units=1/GPa)
#
#
# Indices 1 2 3 4 5 6 
#
# 1 0.021739 0.000930 -0.005748 0.000000 -0.001236 0.000000
# 2 0.000930 0.014388 -0.012188 0.000000 -0.002121 0.000000
# 3 -0.005748 -0.012188 0.022613 0.000000 0.003414 0.000000
# 4 0.000000 0.000000 0.000000 0.032402 0.000000 0.007347
# 5 -0.001236 -0.002121 0.003414 0.000000 0.042352 0.000000
# 6 0.000000 0.000000 0.000000 0.007347 0.000000 0.110215
#
#
# Mechanical properties :
#
#
# Convention : Reuss Voigt Hill
#
# Bulk Modulus (GPa) = 40.44167 54.53750 47.48958
# Shear Modulus (GPa) = 17.48473 23.80168 20.64320
#
# Velocity S-wave (km/s) = 3.12253 3.64318 3.39286
# Velocity P-wave (km/s) = 5.96256 6.93609 6.46767
#
# Compressibility (1/GPa) = 0.02472697
#
# Stress axis : x y z
#
# Youngs Moduli (GPa) = 46.00125 69.50347 44.22183
#
# Poissons Ratio (x) = -0.06465 0.25420
# Poissons Ratio (y) = -0.04279 0.53898
# Poissons Ratio (z) = 0.26443 0.84712
#
# Static dielectric constant tensor:
#      x y z
#    x 1.620510 0.000000 0.001570 
#    y 0.000000 1.601730 0.000000 
#    z 0.001570 0.000000 1.611220 
# 
# From -- ./inp_files/199903.got.cif
#   From: 2010.05.17/outbox.cif.g08.bks.cpg/sg12_100_cif.got.tgz:199903.got - 2010.06.03 13:09:07.
