data_PCOD9219748
_publ_section_title
;
Structure prediction by ZEFSAII (Michael W. Deem and Ramdas Pophale) SiO2 
 PCOD9219748
Probable space group: C 2/M
;
_chemical_formula_sum "Si O2"
_cell_formula_units_Z 56
_cell_length_a 29.332359
_cell_length_b 8.839183
_cell_length_c 20.849442
_cell_angle_alpha 90.000000
_cell_angle_beta 31.675510
_cell_angle_gamma 90.000000
_cell_volume 2838.586536
_symmetry_space_group_name_H-M "C 2/M"
_symmetry_group_IT_number 12
_symmetry_cell_setting 'monoclinic'
loop_
_space_group_symop_operation_xyz
x,y,z
-x,y,-z
-x,-y,-z
x,-y,z
1/2+x,1/2+y,z
1/2-x,1/2+y,-z
1/2-x,1/2-y,-z
1/2+x,1/2-y,z
loop_
_atom_site_type_symbol
_atom_site_label
_atom_site_fract_x
_atom_site_fract_y
_atom_site_fract_z
Si Si1 0.365363 0.818774 0.460091
Si Si2 0.230355 0.821244 0.813712
Si Si3 0.694993 0.181018 0.725256
Si Si4 0.404700 0.320936 0.640620
Si Si5 0.564284 0.180331 0.261805
Si Si6 0.078534 0.316342 0.746881
Si Si7 0.384661 0.817788 0.941741
O O1 0.289172 0.732830 0.587231
O O2 0.461369 0.791620 0.373880
O O3 0.371073 0.771590 0.378404
O O4 0.349885 0.000000 0.481887
O O5 0.181530 0.749741 0.811426
O O6 0.329775 0.766699 0.693038
O O7 0.225914 0.000000 0.816125
O O8 0.189202 0.760250 0.928672
O O9 0.625673 0.234078 0.754944
O O10 0.691486 0.000000 0.733575
O O11 0.500000 0.283150 0.500000
O O12 0.390626 0.500000 0.650548
O O13 0.402695 0.272255 0.717173
O O14 0.611499 0.218624 0.138362
O O15 0.574717 0.000000 0.260559
O O16 0.078773 0.500000 0.746345
O O17 0.978413 0.271392 0.858539
O O18 0.377140 0.000000 0.956197
#
# Coordination Sequence:
#
# PCOD9219748 Si02
#       7
#     8   8   8   8   8   8   8
#     4   9  17  33  56  85 118 149 185 227 276 334
#     4  12  26  41  57  80 112 149 188 232 282 332
#     4  11  21  34  54  82 115 152 192 232 279 329
#     4  11  24  41  62  88 115 144 182 226 273 330
#     4   9  19  36  61  87 113 148 184 226 280 332
#     4   8  17  34  58  84 112 150 190 229 276 331
#     4   9  19  40  63  83 110 146 191 233 272 326
#
# _framework density 19.728127000000001
#
# number of rings (size 3 to 8) (size 9 to 14) (size 15 to 20)
#    0.000    2.143    0.000    5.143    0.000    5.714 
#    0.000    7.143    0.000    0.000    0.000    0.000 
#    0.000    0.000    0.000    0.000    0.000    0.000 
#
# Total GULP energy -156449.434435 kJ/mol
# GULP energy per Si atom -5587.479801 kJ/mol
# Density = 1.968323 g / cm^3
# Si number density = 19.728127 Si / 1000 Ang^3
#
#
#
# Elastic Constant Matrix: (Units=GPa)
#
#
# Indices 1 2 3 4 5 6 
#
# 1 86.5755 26.5931 6.4567 -0.0034 14.2443 0.0013
# 2 26.5931 40.9856 23.1693 -0.0072 5.1773 0.0035
# 3 6.4567 23.1693 56.2593 -0.0092 8.8192 0.0043
# 4 -0.0034 -0.0072 -0.0092 25.3841 0.0004 5.4572
# 5 14.2443 5.1773 8.8192 0.0004 13.5456 0.0000
# 6 0.0013 0.0035 0.0043 5.4572 0.0000 27.5397
#
#
#
# Elastic Compliance Matrix: (Units=1/GPa)
#
#
# Indices 1 2 3 4 5 6 
#
# 1 0.017988 -0.012810 0.006024 0.000001 -0.017942 0.000000
# 2 -0.012810 0.041126 -0.016832 0.000004 0.008711 -0.000003
# 3 0.006024 -0.016832 0.026728 0.000007 -0.017303 -0.000004
# 4 0.000001 0.000004 0.000007 0.041148 -0.000009 -0.008154
# 5 -0.017942 0.008711 -0.017303 -0.000009 0.100628 0.000004
# 6 0.000000 -0.000003 -0.000004 -0.008154 0.000004 0.037927
#
#
# Mechanical properties :
#
#
# Convention : Reuss Voigt Hill
#
# Bulk Modulus (GPa) = 25.90395 32.91764 29.41079
# Shear Modulus (GPa) = 15.35392 21.80061 18.57727
#
# Velocity S-wave (km/s) = 2.79279 3.32784 3.07198
# Velocity P-wave (km/s) = 4.85371 5.61141 5.24626
#
# Compressibility (1/GPa) = 0.03860415
#
# Stress axis : x y z
#
# Youngs Moduli (GPa) = 55.59187 24.31576 37.41406
#
# Poissons Ratio (x) = 0.31149 -0.22537
# Poissons Ratio (y) = 0.71215 0.62976
# Poissons Ratio (z) = -0.33487 0.40929
#
# Static dielectric constant tensor:
#      x y z
#    x 1.698460 0.000000 0.000530 
#    y 0.000000 1.654500 0.000000 
#    z 0.000530 0.000000 1.684690 
# 
# From -- ./inp_files/329507.got.cif
#   From: 2010.05.17/outbox.cif.g08.bks.cpg/sg12_165_cif.got.tgz:329507.got - 2010.06.03 13:09:07.
