data_PCOD9219933
_publ_section_title
;
Structure prediction by ZEFSAII (Michael W. Deem and Ramdas Pophale) SiO2 
 PCOD9219933
Probable space group: C 2/M
;
_chemical_formula_sum "Si O2"
_cell_formula_units_Z 48
_cell_length_a 16.165749
_cell_length_b 14.309925
_cell_length_c 16.063840
_cell_angle_alpha 90.000000
_cell_angle_beta 139.327941
_cell_angle_gamma 90.000000
_cell_volume 2421.861743
_symmetry_space_group_name_H-M "C 2/M"
_symmetry_group_IT_number 12
_symmetry_cell_setting 'monoclinic'
loop_
_space_group_symop_operation_xyz
x,y,z
-x,y,-z
-x,-y,-z
x,-y,z
1/2+x,1/2+y,z
1/2-x,1/2+y,-z
1/2-x,1/2-y,-z
1/2+x,1/2-y,z
loop_
_atom_site_type_symbol
_atom_site_label
_atom_site_fract_x
_atom_site_fract_y
_atom_site_fract_z
Si Si1 0.608788 0.892475 0.709619
Si Si2 0.801790 0.216918 0.321951
Si Si3 0.450723 0.107263 0.867667
Si Si4 0.390221 0.748577 0.570065
Si Si5 0.707395 0.142950 0.964038
Si Si6 0.584918 0.397102 0.746031
O O1 0.675149 0.821816 0.694989
O O2 0.472432 0.843988 0.627034
O O3 0.595472 0.000000 0.672633
O O4 0.692509 0.888460 0.857688
O O5 0.658699 0.183180 0.229382
O O6 0.876948 0.210958 0.465559
O O7 0.849265 0.148756 0.284650
O O8 0.404903 0.000000 0.819124
O O9 0.500000 0.113302 0.000000
O O10 0.570804 0.126014 0.901092
O O11 0.250000 0.750000 0.500000
O O12 0.475050 0.675172 0.685525
O O13 0.812227 0.096648 0.102587
O O14 0.750000 0.250000 0.000000
O O15 0.535703 0.500000 0.689156
#
# Coordination Sequence:
#
# PCOD9219933 Si02
#       6
#     8   8   8   8   8   8
#     4  11  23  42  66  90 123 172 216 251 302 375
#     4  11  23  39  64  91 126 162 205 259 306 366
#     4  11  21  36  62  95 126 158 202 255 313 370
#     4  11  25  42  61  91 123 164 210 256 310 369
#     4  12  21  39  66  93 128 164 201 255 312 374
#     4  11  22  39  63  93 126 159 198 256 317 366
#
# _framework density 19.819464
#
# number of rings (size 3 to 8) (size 9 to 14) (size 15 to 20)
#    0.000    0.833    5.000    5.000    0.000    4.000 
#    0.000    0.000    0.000    1.500    0.000    0.000 
#    0.000    0.000    0.000    0.000    0.000    0.000 
#
# Total GULP energy -134055.724807 kJ/mol
# GULP energy per Si atom -5585.655200 kJ/mol
# Density = 1.977435 g / cm^3
# Si number density = 19.819464 Si / 1000 Ang^3
#
#
#
# Elastic Constant Matrix: (Units=GPa)
#
#
# Indices 1 2 3 4 5 6 
#
# 1 52.7759 19.8565 35.3867 0.0000 16.4992 0.0000
# 2 19.8565 162.6798 30.3483 0.0000 25.2241 0.0000
# 3 35.3867 30.3483 115.2683 0.0000 10.8335 0.0000
# 4 0.0000 0.0000 0.0000 -1.5982 0.0000 1.1413
# 5 16.4992 25.2241 10.8335 0.0000 39.2948 0.0000
# 6 0.0000 0.0000 0.0000 1.1413 0.0000 6.5251
#
#
#
# Elastic Compliance Matrix: (Units=1/GPa)
#
#
# Indices 1 2 3 4 5 6 
#
# 1 0.026794 -0.000537 -0.007247 0.000000 -0.008907 0.000000
# 2 -0.000537 0.007072 -0.001326 0.000000 -0.003949 0.000000
# 3 -0.007247 -0.001326 0.011173 0.000000 0.000814 0.000000
# 4 0.000000 0.000000 0.000000 -0.556223 0.000000 0.097291
# 5 -0.008907 -0.003949 0.000814 0.000000 0.031499 0.000000
# 6 0.000000 0.000000 0.000000 0.097291 0.000000 0.136236
#
#
# Mechanical properties :
#
#
# Convention : Reuss Voigt Hill
#
# Bulk Modulus (GPa) = 37.28758 55.76746 46.52752
# Shear Modulus (GPa) = -15.80838 25.18650 4.68906
#
# Velocity S-wave (km/s) = -2.82728 3.56869 1.53981
# Velocity P-wave (km/s) = 2.86294 6.72157 5.16604
#
# Compressibility (1/GPa) = 0.02681858
#
# Stress axis : x y z
#
# Youngs Moduli (GPa) = 37.32160 141.39796 89.50296
#
# Poissons Ratio (x) = 0.07599 0.64863
# Poissons Ratio (y) = 0.02006 0.11867
# Poissons Ratio (z) = 0.27047 0.18748
#
# Static dielectric constant tensor:
#      x y z
#    x 1.705190 0.000000 0.006930 
#    y 0.000000 1.702810 0.000000 
#    z 0.006930 0.000000 1.722440 
# 
# From -- ./inp_files/278225.got.cif
#   From: 2010.05.17/outbox.cif.g08.bks.cpg/sg12_140_cif.got.tgz:278225.got - 2010.06.03 13:09:07.
