data_PCOD9219752
_publ_section_title
;
Structure prediction by ZEFSAII (Michael W. Deem and Ramdas Pophale) SiO2 
 PCOD9219752
Probable space group: C 2/M
;
_chemical_formula_sum "Si O2"
_cell_formula_units_Z 56
_cell_length_a 8.678853
_cell_length_b 25.743927
_cell_length_c 15.464038
_cell_angle_alpha 90.000000
_cell_angle_beta 114.115459
_cell_angle_gamma 90.000000
_cell_volume 3153.548344
_symmetry_space_group_name_H-M "C 2/M"
_symmetry_group_IT_number 12
_symmetry_cell_setting 'monoclinic'
loop_
_space_group_symop_operation_xyz
x,y,z
-x,y,-z
-x,-y,-z
x,-y,z
1/2+x,1/2+y,z
1/2-x,1/2+y,-z
1/2-x,1/2-y,-z
1/2+x,1/2-y,z
loop_
_atom_site_type_symbol
_atom_site_label
_atom_site_fract_x
_atom_site_fract_y
_atom_site_fract_z
Si Si1 0.772036 0.164265 0.781706
Si Si2 0.268800 0.441454 0.868809
Si Si3 0.874717 0.823552 0.403511
Si Si4 0.980434 0.711442 0.595680
Si Si5 0.827235 0.057793 0.078475
Si Si6 0.326420 0.758773 0.924211
Si Si7 0.638211 0.350939 0.787199
O O1 0.707317 0.109654 0.805640
O O2 0.624912 0.188137 0.689837
O O3 0.828987 0.204776 0.870556
O O4 0.939531 0.154296 0.763552
O O5 0.208448 0.500000 0.832251
O O6 0.470951 0.441478 0.895511
O O7 0.244788 0.433565 0.965854
O O8 0.703005 0.803068 0.408835
O O9 0.834582 0.855558 0.308532
O O10 0.000000 0.850873 0.500000
O O11 0.982596 0.773112 0.397392
O O12 0.000000 0.694246 0.500000
O O13 0.792719 0.101448 0.140586
O O14 0.783022 0.000000 0.098611
O O15 0.227817 0.799052 0.842250
O O16 0.500000 0.781568 0.000000
O O17 0.250000 0.750000 0.000000
#
# Coordination Sequence:
#
# PCOD9219752 Si02
#       7
#     8   8   8   8   8   8   8
#     4  11  21  34  55  80 111 143 181 222 271 318
#     4   8  15  29  52  79 107 141 184 226 263 308
#     4  11  22  37  56  78 107 141 180 222 269 324
#     4  11  22  37  56  79 107 140 178 224 269 324
#     4   8  15  30  52  78 106 142 186 224 261 310
#     4  12  24  34  47  74 114 149 178 212 262 317
#     4  11  21  35  54  80 109 146 179 222 269 321
#
# _framework density 17.757774999999999
#
# number of rings (size 3 to 8) (size 9 to 14) (size 15 to 20)
#    0.000    1.714    2.857    5.143    4.000    0.000 
#    0.000    0.000    0.000    2.143    0.000    0.000 
#    0.000    0.000    0.000    0.000    0.000    0.000 
#
# Total GULP energy -156081.960430 kJ/mol
# GULP energy per Si atom -5574.355730 kJ/mol
# Density = 1.771736 g / cm^3
# Si number density = 17.757775 Si / 1000 Ang^3
#
#
#
# Elastic Constant Matrix: (Units=GPa)
#
#
# Indices 1 2 3 4 5 6 
#
# 1 52.8398 -0.1264 15.4741 0.0000 -8.6123 0.0000
# 2 -0.1264 81.8450 37.0271 0.0000 -12.4252 0.0000
# 3 15.4741 37.0271 100.0900 0.0000 -9.4409 0.0000
# 4 0.0000 0.0000 0.0000 23.7529 0.0000 -1.7365
# 5 -8.6123 -12.4252 -9.4409 0.0000 32.9445 0.0000
# 6 0.0000 0.0000 0.0000 -1.7365 0.0000 7.3441
#
#
#
# Elastic Compliance Matrix: (Units=1/GPa)
#
#
# Indices 1 2 3 4 5 6 
#
# 1 0.020871 0.002493 -0.003644 0.000000 0.005352 0.000000
# 2 0.002493 0.015528 -0.005669 0.000000 0.004884 0.000000
# 3 -0.003644 -0.005669 0.012704 0.000000 0.000550 0.000000
# 4 0.000000 0.000000 0.000000 0.042841 0.000000 0.010129
# 5 0.005352 0.004884 0.000550 0.000000 0.033753 0.000000
# 6 0.000000 0.000000 0.000000 0.010129 0.000000 0.138559
#
#
# Mechanical properties :
#
#
# Convention : Reuss Voigt Hill
#
# Bulk Modulus (GPa) = 28.19903 37.72492 32.96197
# Shear Modulus (GPa) = 17.25832 24.96831 21.11332
#
# Velocity S-wave (km/s) = 3.12087 3.75380 3.45187
# Velocity P-wave (km/s) = 5.37594 6.33074 5.87278
#
# Compressibility (1/GPa) = 0.03546221
#
# Stress axis : x y z
#
# Youngs Moduli (GPa) = 47.91426 64.39846 78.71810
#
# Poissons Ratio (x) = -0.16057 0.28687
# Poissons Ratio (y) = -0.11947 0.44628
# Poissons Ratio (z) = 0.17461 0.36510
#
# Static dielectric constant tensor:
#      x y z
#    x 1.602900 0.000000 -0.004140 
#    y 0.000000 1.607970 0.000000 
#    z -0.004140 0.000000 1.609830 
# 
# From -- ./inp_files/199404.got.cif
#   From: 2010.05.17/outbox.cif.g08.bks.cpg/sg12_100_cif.got.tgz:199404.got - 2010.06.03 13:09:07.
