data_PCOD9219658
_publ_section_title
;
Structure prediction by ZEFSAII (Michael W. Deem and Ramdas Pophale) SiO2 
 PCOD9219658
Probable space group: C 2/M
;
_chemical_formula_sum "Si O2"
_cell_formula_units_Z 40
_cell_length_a 8.149504
_cell_length_b 28.027895
_cell_length_c 14.983143
_cell_angle_alpha 90.000000
_cell_angle_beta 33.610091
_cell_angle_gamma 90.000000
_cell_volume 1894.402284
_symmetry_space_group_name_H-M "C 2/M"
_symmetry_group_IT_number 12
_symmetry_cell_setting 'monoclinic'
loop_
_space_group_symop_operation_xyz
x,y,z
-x,y,-z
-x,-y,-z
x,-y,z
1/2+x,1/2+y,z
1/2-x,1/2+y,-z
1/2-x,1/2-y,-z
1/2+x,1/2-y,z
loop_
_atom_site_type_symbol
_atom_site_label
_atom_site_fract_x
_atom_site_fract_y
_atom_site_fract_z
Si Si1 0.809750 0.055937 0.165893
Si Si2 0.753929 0.188003 0.309736
Si Si3 0.314360 0.781367 0.381219
Si Si4 0.723445 0.944180 0.484547
Si Si5 0.848519 0.099178 0.832653
O O1 0.484003 0.074306 0.341178
O O2 0.017461 0.061234 0.158287
O O3 0.763085 0.000000 0.167504
O O4 0.000000 0.078114 0.000000
O O5 0.500000 0.176677 0.500000
O O6 0.591342 0.188071 0.287745
O O7 0.869174 0.241187 0.281471
O O8 0.006996 0.149384 0.205343
O O9 0.250000 0.750000 0.500000
O O10 0.000000 0.805663 0.500000
O O11 0.500000 0.941512 0.500000
O O12 0.014212 0.915317 0.325253
O O13 0.794714 0.000000 0.465985
O O14 0.500000 0.099983 0.000000
#
# Coordination Sequence:
#
# PCOD9219658 Si02
#       5
#     8   8   8   8   8
#     4   9  18  35  56  77 105 139 176 225 279 321
#     4   9  16  31  53  76 103 134 176 224 268 315
#     4   7  13  27  50  76  97 126 169 217 270 319
#     4   8  15  30  53  76 100 138 180 217 265 318
#     4  11  21  32  50  79 111 146 187 221 255 312
#
# _framework density 21.114840000000001
#
# number of rings (size 3 to 8) (size 9 to 14) (size 15 to 20)
#    0.000    3.600    0.000    3.600    0.000    1.600 
#    0.000    8.000    0.000    3.600    0.000    0.000 
#    0.000    0.800    0.000    0.400    0.000    0.400 
#
# Total GULP energy -111351.862845 kJ/mol
# GULP energy per Si atom -5567.593142 kJ/mol
# Density = 2.106678 g / cm^3
# Si number density = 21.114840 Si / 1000 Ang^3
#
#
#
# Elastic Constant Matrix: (Units=GPa)
#
#
# Indices 1 2 3 4 5 6 
#
# 1 52.6322 9.2086 46.7005 0.0000 -6.9170 0.0000
# 2 9.2086 62.6875 42.9156 0.0000 -9.5696 0.0000
# 3 46.7005 42.9156 197.4303 0.0000 -15.0214 0.0000
# 4 0.0000 0.0000 0.0000 4.8998 0.0000 -8.9223
# 5 -6.9170 -9.5696 -15.0214 0.0000 28.3266 0.0000
# 6 0.0000 0.0000 0.0000 -8.9223 0.0000 2.9695
#
#
#
# Elastic Compliance Matrix: (Units=1/GPa)
#
#
# Indices 1 2 3 4 5 6 
#
# 1 0.024324 0.000808 -0.005686 0.000000 0.003197 0.000000
# 2 0.000808 0.019296 -0.004037 0.000000 0.004575 0.000000
# 3 -0.005686 -0.004037 0.007376 0.000000 0.001159 0.000000
# 4 0.000000 0.000000 0.000000 -0.045646 0.000000 -0.137146
# 5 0.003197 0.004575 0.001159 0.000000 0.038243 0.000000
# 6 0.000000 0.000000 0.000000 -0.137146 0.000000 -0.075315
#
#
# Mechanical properties :
#
#
# Convention : Reuss Voigt Hill
#
# Bulk Modulus (GPa) = 30.15307 56.71104 43.43205
# Shear Modulus (GPa) = -1762.98525 21.50086 -870.74219
#
# Velocity S-wave (km/s) = -28.92686 3.19452 -20.32927
# Velocity P-wave (km/s) = 33.18694 6.36579 23.03096
#
# Compressibility (1/GPa) = 0.03316412
#
# Stress axis : x y z
#
# Youngs Moduli (GPa) = 41.11213 51.82469 135.57884
#
# Poissons Ratio (x) = -0.04185 0.77088
# Poissons Ratio (y) = -0.03320 0.54737
# Poissons Ratio (z) = 0.23376 0.20923
#
# Static dielectric constant tensor:
#      x y z
#    x 1.818920 0.000000 0.030140 
#    y 0.000000 1.820230 0.000000 
#    z 0.030140 0.000000 1.816310 
# 
# From -- ./inp_files/259993.got.cif
#   From: 2010.05.17/outbox.cif.g08.bks.cpg/sg12_130_cif.got.tgz:259993.got - 2010.06.03 13:09:07.
