data_PCOD9219292
_publ_section_title
;
Structure prediction by ZEFSAII (Michael W. Deem and Ramdas Pophale) SiO2 
 PCOD9219292
Probable space group: C 2/M
;
_chemical_formula_sum "Si O2"
_cell_formula_units_Z 56
_cell_length_a 14.370389
_cell_length_b 19.468638
_cell_length_c 12.441492
_cell_angle_alpha 90.000000
_cell_angle_beta 118.470795
_cell_angle_gamma 90.000000
_cell_volume 3059.815112
_symmetry_space_group_name_H-M "C 2/M"
_symmetry_group_IT_number 12
_symmetry_cell_setting 'monoclinic'
loop_
_space_group_symop_operation_xyz
x,y,z
-x,y,-z
-x,-y,-z
x,-y,z
1/2+x,1/2+y,z
1/2-x,1/2+y,-z
1/2-x,1/2-y,-z
1/2+x,1/2-y,z
loop_
_atom_site_type_symbol
_atom_site_label
_atom_site_fract_x
_atom_site_fract_y
_atom_site_fract_z
Si Si1 0.673366 0.781979 0.363654
Si Si2 0.622061 0.581919 0.029407
Si Si3 0.390665 0.363550 0.211345
Si Si4 0.453632 0.231648 0.360625
Si Si5 0.248696 0.153564 0.288651
Si Si6 0.225525 0.076782 0.655630
Si Si7 0.382524 0.577462 0.621565
O O1 0.750000 0.750000 0.500000
O O2 0.556066 0.785734 0.346896
O O3 0.688376 0.725633 0.278235
O O4 0.705966 0.856776 0.338660
O O5 0.639058 0.500000 0.025128
O O6 0.698280 0.613638 0.161332
O O7 0.500000 0.590921 0.000000
O O8 0.639831 0.621589 0.927331
O O9 0.385409 0.287466 0.257564
O O10 0.325135 0.411526 0.256063
O O11 0.514972 0.380867 0.289362
O O12 0.500000 0.259340 0.500000
O O13 0.372097 0.170855 0.343377
O O14 0.220435 0.108219 0.377612
O O15 0.133870 0.078366 0.514599
O O16 0.273917 0.000000 0.674783
O O17 0.398303 0.500000 0.668151
#
# Coordination Sequence:
#
# PCOD9219292 Si02
#       7
#     8   8   8   8   8   8   8
#     4  12  20  40  61  87 125 165 203 252 314 373
#     4  11  23  41  62  88 126 168 211 262 311 364
#     4  12  21  36  62  91 122 160 207 255 317 368
#     4  12  22  37  64  94 128 163 206 259 315 375
#     4  12  23  38  62  90 124 167 209 252 311 374
#     4  11  22  35  56  90 123 157 202 253 314 375
#     4  11  20  34  58  90 124 155 200 261 315 368
#
# _framework density 18.301760000000002
#
# number of rings (size 3 to 8) (size 9 to 14) (size 15 to 20)
#    0.000    0.429    7.143    3.000    0.000    1.714 
#    0.000    1.429    0.000    3.857    0.000    2.000 
#    0.000    0.000    0.000    0.000    0.000    0.000 
#
# Total GULP energy -156312.748523 kJ/mol
# GULP energy per Si atom -5582.598162 kJ/mol
# Density = 1.826010 g / cm^3
# Si number density = 18.301760 Si / 1000 Ang^3
#
#
#
# Elastic Constant Matrix: (Units=GPa)
#
#
# Indices 1 2 3 4 5 6 
#
# 1 97.9353 15.4104 11.5025 0.0000 -9.9187 0.0000
# 2 15.4104 65.4027 12.0932 0.0000 -8.3026 0.0000
# 3 11.5025 12.0932 84.0802 0.0000 -28.4177 0.0000
# 4 0.0000 0.0000 0.0000 23.9129 0.0000 1.3938
# 5 -9.9187 -8.3026 -28.4177 0.0000 22.6344 0.0000
# 6 0.0000 0.0000 0.0000 1.3938 0.0000 21.5090
#
#
#
# Elastic Compliance Matrix: (Units=1/GPa)
#
#
# Indices 1 2 3 4 5 6 
#
# 1 0.010949 -0.002075 0.000287 0.000000 0.004397 0.000000
# 2 -0.002075 0.016445 -0.000608 0.000000 0.004360 0.000000
# 3 0.000287 -0.000608 0.020687 0.000000 0.025875 0.000000
# 4 0.000000 0.000000 0.000000 0.041977 0.000000 -0.002720
# 5 0.004397 0.004360 0.025875 0.000000 0.080193 0.000000
# 6 0.000000 0.000000 0.000000 -0.002720 0.000000 0.046669
#
#
# Mechanical properties :
#
#
# Convention : Reuss Voigt Hill
#
# Bulk Modulus (GPa) = 23.10070 36.15891 29.62981
# Shear Modulus (GPa) = 21.17382 27.50541 24.33961
#
# Velocity S-wave (km/s) = 3.40505 3.88091 3.65074
# Velocity P-wave (km/s) = 5.30177 6.31521 5.83055
#
# Compressibility (1/GPa) = 0.04328873
#
# Stress axis : x y z
#
# Youngs Moduli (GPa) = 91.33326 60.81036 48.33929
#
# Poissons Ratio (x) = 0.12616 -0.01385
# Poissons Ratio (y) = 0.18948 0.02938
# Poissons Ratio (z) = -0.02617 0.03696
#
# Static dielectric constant tensor:
#      x y z
#    x 1.622550 0.000000 -0.018470 
#    y 0.000000 1.669510 0.000000 
#    z -0.018470 0.000000 1.630560 
# 
# From -- ./inp_files/145640.got.cif
#   From: 2010.05.17/outbox.cif.g08.bks.cpg/sg12_73_cif.got.tgz:145640.got - 2010.06.03 13:09:07.
