data_PCOD9219062
_publ_section_title
;
Structure prediction by ZEFSAII (Michael W. Deem and Ramdas Pophale) SiO2 
 PCOD9219062
Probable space group: C 2/M
;
_chemical_formula_sum "Si O2"
_cell_formula_units_Z 64
_cell_length_a 23.519258
_cell_length_b 26.788106
_cell_length_c 9.285613
_cell_angle_alpha 90.000000
_cell_angle_beta 35.108995
_cell_angle_gamma 90.000000
_cell_volume 3364.689644
_symmetry_space_group_name_H-M "C 2/M"
_symmetry_group_IT_number 12
_symmetry_cell_setting 'monoclinic'
loop_
_space_group_symop_operation_xyz
x,y,z
-x,y,-z
-x,-y,-z
x,-y,z
1/2+x,1/2+y,z
1/2-x,1/2+y,-z
1/2-x,1/2-y,-z
1/2+x,1/2-y,z
loop_
_atom_site_type_symbol
_atom_site_label
_atom_site_fract_x
_atom_site_fract_y
_atom_site_fract_z
Si Si1 0.048208 0.772771 0.051921
Si Si2 0.354358 0.225783 0.586617
Si Si3 0.546338 0.560593 0.553402
Si Si4 0.219853 0.158019 0.671303
Si Si5 0.208655 0.306510 0.774292
Si Si6 0.646133 0.556178 0.908765
Si Si7 0.384360 0.146873 0.766005
Si Si8 0.257277 0.443273 0.974238
O O1 0.961474 0.750012 0.330440
O O2 0.120192 0.818062 0.948794
O O3 0.127475 0.728757 0.867637
O O4 0.000000 0.786247 0.000000
O O5 0.312381 0.184148 0.560512
O O6 0.278161 0.271276 0.727489
O O7 0.356079 0.195939 0.732083
O O8 0.500000 0.580732 0.500000
O O9 0.546579 0.500000 0.543032
O O10 0.469682 0.571562 0.839146
O O11 0.661157 0.574584 0.312643
O O12 0.227379 0.171482 0.487811
O O13 0.210451 0.098897 0.703766
O O14 0.148949 0.343361 0.001280
O O15 0.653757 0.500000 0.832920
O O16 0.684673 0.553823 0.994142
O O17 0.500000 0.139947 0.500000
O O18 0.326509 0.097659 0.836852
O O19 0.224244 0.500000 0.009198
#
# Coordination Sequence:
#
# PCOD9219062 Si02
#       8
#     8   8   8   8   8   8   8   8
#     4  11  19  37  61  83 111 151 192 233 278 346
#     4  11  21  40  58  82 115 149 194 237 279 349
#     4   7  12  26  50  77 107 141 179 225 276 322
#     4  11  21  35  63  88 110 155 201 221 289 350
#     4  11  23  37  57  85 116 151 187 236 287 345
#     4   9  17  33  58  88 117 147 192 239 275 338
#     4  12  24  37  57  84 116 151 189 238 298 328
#     4   9  18  35  57  81 113 153 193 237 282 337
#
# _framework density 19.021070999999999
#
# number of rings (size 3 to 8) (size 9 to 14) (size 15 to 20)
#    0.000    1.875    5.000    2.625    0.000    1.250 
#    0.000    0.625    0.000    0.375    0.000    2.625 
#    0.000    0.000    0.000    0.000    0.000    0.000 
#
# Total GULP energy -178243.255623 kJ/mol
# GULP energy per Si atom -5570.101738 kJ/mol
# Density = 1.897778 g / cm^3
# Si number density = 19.021071 Si / 1000 Ang^3
#
#
#
# Elastic Constant Matrix: (Units=GPa)
#
#
# Indices 1 2 3 4 5 6 
#
# 1 20.4518 1.8158 18.1053 0.0000 -7.1483 0.0000
# 2 1.8158 76.9029 50.7360 0.0000 -5.3850 0.0000
# 3 18.1053 50.7360 101.0307 0.0000 -13.3580 0.0000
# 4 0.0000 0.0000 0.0000 15.6942 0.0000 -7.0701
# 5 -7.1483 -5.3850 -13.3580 0.0000 21.7488 0.0000
# 6 0.0000 0.0000 0.0000 -7.0701 0.0000 14.5084
#
#
#
# Elastic Compliance Matrix: (Units=1/GPa)
#
#
# Indices 1 2 3 4 5 6 
#
# 1 0.066085 0.008961 -0.014343 0.000000 0.015130 0.000000
# 2 0.008961 0.020695 -0.011898 0.000000 0.000762 0.000000
# 3 -0.014343 -0.011898 0.018971 0.000000 0.003992 0.000000
# 4 0.000000 0.000000 0.000000 0.081641 0.000000 0.039785
# 5 0.015130 0.000762 0.003992 0.000000 0.053593 0.000000
# 6 0.000000 0.000000 0.000000 0.039785 0.000000 0.088313
#
#
# Mechanical properties :
#
#
# Convention : Reuss Voigt Hill
#
# Bulk Modulus (GPa) = 14.04633 37.74439 25.89536
# Shear Modulus (GPa) = 12.90037 18.90551 15.90294
#
# Velocity S-wave (km/s) = 2.60708 3.15608 2.89462
# Velocity P-wave (km/s) = 4.05748 5.75914 4.98150
#
# Compressibility (1/GPa) = 0.07119295
#
# Stress axis : x y z
#
# Youngs Moduli (GPa) = 15.13198 48.32192 52.71243
#
# Poissons Ratio (x) = -0.43304 0.75604
# Poissons Ratio (y) = -0.13561 0.62715
# Poissons Ratio (z) = 0.21703 0.57492
#
# Static dielectric constant tensor:
#      x y z
#    x 1.679250 0.000000 -0.003960 
#    y 0.000000 1.660400 0.000000 
#    z -0.003960 0.000000 1.695470 
# 
# From -- ./inp_files/100223.got.cif
#   From: 2010.05.17/outbox.cif.g08.bks.cpg/sg12_51_cif.got.tgz:100223.got - 2010.06.03 13:09:07.
