data_PCOD9219638
_publ_section_title
;
Structure prediction by ZEFSAII (Michael W. Deem and Ramdas Pophale) SiO2 
 PCOD9219638
Probable space group: C 2/M
;
_chemical_formula_sum "Si O2"
_cell_formula_units_Z 40
_cell_length_a 12.461317
_cell_length_b 19.489553
_cell_length_c 7.699998
_cell_angle_alpha 90.000000
_cell_angle_beta 86.182693
_cell_angle_gamma 90.000000
_cell_volume 1865.914933
_symmetry_space_group_name_H-M "C 2/M"
_symmetry_group_IT_number 12
_symmetry_cell_setting 'monoclinic'
loop_
_space_group_symop_operation_xyz
x,y,z
-x,y,-z
-x,-y,-z
x,-y,z
1/2+x,1/2+y,z
1/2-x,1/2+y,-z
1/2-x,1/2-y,-z
1/2+x,1/2-y,z
loop_
_atom_site_type_symbol
_atom_site_label
_atom_site_fract_x
_atom_site_fract_y
_atom_site_fract_z
Si Si1 0.261100 0.000000 0.106542
Si Si2 0.355693 0.112398 0.854768
Si Si3 0.020100 0.500000 0.704796
Si Si4 0.736625 0.641287 0.508999
Si Si5 0.910479 0.265302 0.371812
Si Si6 0.000000 0.275007 0.000000
Si Si7 0.121737 0.000000 0.418976
O O1 0.357602 0.000000 0.240948
O O2 0.145892 0.000000 0.210535
O O3 0.281494 0.934112 0.984687
O O4 0.295013 0.133250 0.687282
O O5 0.401773 0.177658 0.947417
O O6 0.457903 0.065354 0.790469
O O7 0.000000 0.500000 0.500000
O O8 0.826332 0.671432 0.367337
O O9 0.649351 0.701115 0.535826
O O10 0.681610 0.569267 0.473551
O O11 0.000000 0.288337 0.500000
O O12 0.958971 0.241469 0.182613
O O13 0.000000 0.000000 0.500000
#
# Coordination Sequence:
#
# PCOD9219638 Si02
#       7
#     4   8   4   8   8   4   4
#     4  11  21  40  62 103 136 173 223 284 350 407
#     4  11  21  38  63 105 140 168 224 280 349 414
#     4  11  21  31  62  99 139 175 209 282 346 405
#     4  11  25  46  70  97 139 188 227 277 353 407
#     4  11  25  47  71 103 139 179 231 293 342 411
#     4  12  22  39  70 101 136 174 228 286 344 400
#     4  12  26  47  70  95 135 190 233 280 340 417
#
# _framework density 21.437204999999999
#
# number of rings (size 3 to 8) (size 9 to 14) (size 15 to 20)
#    0.000    0.800    4.000    4.800    2.800    0.800 
#    7.200    1.500    0.000    0.000    0.000    0.000 
#    0.000    0.000    0.000    0.000    0.000    0.000 
#
# Total GULP energy -111856.069763 kJ/mol
# GULP energy per Si atom -5592.803488 kJ/mol
# Density = 2.138841 g / cm^3
# Si number density = 21.437205 Si / 1000 Ang^3
#
#
#
# Elastic Constant Matrix: (Units=GPa)
#
#
# Indices 1 2 3 4 5 6 
#
# 1 79.2047 31.9400 29.9285 0.0000 -28.8868 0.0000
# 2 31.9400 82.9167 -0.9101 0.0000 -11.4069 0.0000
# 3 29.9285 -0.9101 113.1143 0.0000 -27.2145 0.0000
# 4 0.0000 0.0000 0.0000 68.5914 0.0000 25.2023
# 5 -28.8868 -11.4069 -27.2145 0.0000 35.7353 0.0000
# 6 0.0000 0.0000 0.0000 25.2023 0.0000 30.5579
#
#
#
# Elastic Compliance Matrix: (Units=1/GPa)
#
#
# Indices 1 2 3 4 5 6 
#
# 1 0.020793 -0.006254 -0.002434 0.000000 0.012958 0.000000
# 2 -0.006254 0.014656 0.002059 0.000000 0.001191 0.000000
# 3 -0.002434 0.002059 0.011247 0.000000 0.007255 0.000000
# 4 0.000000 0.000000 0.000000 0.020918 0.000000 -0.017252
# 5 0.012958 0.001191 0.007255 0.000000 0.044363 0.000000
# 6 0.000000 0.000000 0.000000 -0.017252 0.000000 0.046953
#
#
# Mechanical properties :
#
#
# Convention : Reuss Voigt Hill
#
# Bulk Modulus (GPa) = 29.90616 44.12806 37.01711
# Shear Modulus (GPa) = 27.27269 41.26205 34.26737
#
# Velocity S-wave (km/s) = 3.57068 4.39200 4.00246
# Velocity P-wave (km/s) = 5.56602 6.80801 6.21810
#
# Compressibility (1/GPa) = 0.03343793
#
# Stress axis : x y z
#
# Youngs Moduli (GPa) = 48.09250 68.23266 88.91542
#
# Poissons Ratio (x) = 0.42671 0.21644
# Poissons Ratio (y) = 0.30076 -0.18309
# Poissons Ratio (z) = 0.11707 -0.14050
#
# Static dielectric constant tensor:
#      x y z
#    x 1.780460 0.000000 -0.033630 
#    y 0.000000 1.788780 0.000000 
#    z -0.033630 0.000000 1.794580 
# 
# From -- ./inp_files/48670.got.cif
#   From: 2010.05.17/outbox.cif.g08.bks.cpg/sg12_25_cif.got.tgz:48670.got - 2010.06.03 13:09:07.
