data_PCOD9219286
_publ_section_title
;
Structure prediction by ZEFSAII (Michael W. Deem and Ramdas Pophale) SiO2 
 PCOD9219286
Probable space group: C 2/M
;
_chemical_formula_sum "Si O2"
_cell_formula_units_Z 48
_cell_length_a 20.269976
_cell_length_b 10.321379
_cell_length_c 13.730395
_cell_angle_alpha 90.000000
_cell_angle_beta 107.088897
_cell_angle_gamma 90.000000
_cell_volume 2745.767280
_symmetry_space_group_name_H-M "C 2/M"
_symmetry_group_IT_number 12
_symmetry_cell_setting 'monoclinic'
loop_
_space_group_symop_operation_xyz
x,y,z
-x,y,-z
-x,-y,-z
x,-y,z
1/2+x,1/2+y,z
1/2-x,1/2+y,-z
1/2-x,1/2-y,-z
1/2+x,1/2-y,z
loop_
_atom_site_type_symbol
_atom_site_label
_atom_site_fract_x
_atom_site_fract_y
_atom_site_fract_z
Si Si1 0.309280 0.500000 0.561495
Si Si2 0.361729 0.240559 0.324832
Si Si3 0.332803 0.000000 0.624490
Si Si4 0.198083 0.764678 0.290155
Si Si5 0.824739 0.853177 0.934498
Si Si6 0.418297 0.000000 0.472178
Si Si7 0.341430 0.851782 0.101942
Si Si8 0.579961 0.500000 0.562242
O O1 0.238662 0.500000 0.468614
O O2 0.310237 0.373887 0.630819
O O3 0.372487 0.500000 0.513853
O O4 0.279947 0.256660 0.308496
O O5 0.387768 0.125619 0.405220
O O6 0.371278 0.198347 0.217164
O O7 0.399905 0.372399 0.368584
O O8 0.333191 0.129512 0.688405
O O9 0.393387 0.000000 0.572223
O O10 0.167490 0.814067 0.174744
O O11 0.741928 0.853751 0.918930
O O12 0.849461 0.000000 0.962207
O O13 0.856019 0.747490 0.021081
O O14 0.500000 0.000000 0.500000
O O15 0.362692 0.000000 0.091707
O O16 0.500000 0.500000 0.500000
#
# Coordination Sequence:
#
# PCOD9219286 Si02
#       8
#     4   8   4   8   8   4   8   4
#     4  12  20  38  57  79 111 151 190 228 276 332
#     4  11  20  37  56  81 114 150 186 231 279 330
#     4  12  22  34  57  83 109 151 192 224 278 332
#     4  11  20  34  57  85 113 147 186 229 279 334
#     4   9  18  31  49  81 115 142 174 229 282 332
#     4  12  24  38  57  81 113 149 192 232 274 327
#     4   9  18  31  52  78 112 144 180 225 283 334
#     4  12  26  38  53  83 117 151 192 230 270 331
#
# _framework density 17.481453999999999
#
# number of rings (size 3 to 8) (size 9 to 14) (size 15 to 20)
#    0.000    1.333    5.000    2.000    2.333    0.000 
#    0.000    0.000    0.000    0.000    0.000    7.000 
#    0.000    0.000    0.000    0.000    0.000    0.000 
#
# Total GULP energy -134039.658045 kJ/mol
# GULP energy per Si atom -5584.985752 kJ/mol
# Density = 1.744167 g / cm^3
# Si number density = 17.481454 Si / 1000 Ang^3
#
#
#
# Elastic Constant Matrix: (Units=GPa)
#
#
# Indices 1 2 3 4 5 6 
#
# 1 64.5715 20.7600 23.2698 0.0000 -4.6648 0.0000
# 2 20.7600 188.8943 74.9676 0.0000 -11.5557 0.0000
# 3 23.2698 74.9676 93.3332 0.0000 -20.1422 0.0000
# 4 0.0000 0.0000 0.0000 31.3873 0.0000 -17.0740
# 5 -4.6648 -11.5557 -20.1422 0.0000 16.4080 0.0000
# 6 0.0000 0.0000 0.0000 -17.0740 0.0000 13.0122
#
#
#
# Elastic Compliance Matrix: (Units=1/GPa)
#
#
# Indices 1 2 3 4 5 6 
#
# 1 0.017027 -0.000259 -0.004124 0.000000 -0.000405 0.000000
# 2 -0.000259 0.007884 -0.006918 0.000000 -0.003014 0.000000
# 3 -0.004124 -0.006918 0.021760 0.000000 0.020667 0.000000
# 4 0.000000 0.000000 0.000000 0.111315 0.000000 0.146062
# 5 -0.000405 -0.003014 0.020667 0.000000 0.084078 0.000000
# 6 0.000000 0.000000 0.000000 0.146062 0.000000 0.268508
#
#
# Mechanical properties :
#
#
# Convention : Reuss Voigt Hill
#
# Bulk Modulus (GPa) = 41.55100 64.97710 53.26405
# Shear Modulus (GPa) = 9.23878 27.34826 18.29352
#
# Velocity S-wave (km/s) = 2.30139 3.95956 3.23840
# Velocity P-wave (km/s) = 5.55716 7.62588 6.67218
#
# Compressibility (1/GPa) = 0.02406681
#
# Stress axis : x y z
#
# Youngs Moduli (GPa) = 58.72987 126.84284 45.95665
#
# Poissons Ratio (x) = 0.03288 0.18954
# Poissons Ratio (y) = 0.01523 0.31794
# Poissons Ratio (z) = 0.24222 0.87754
#
# Static dielectric constant tensor:
#      x y z
#    x 1.564190 0.000000 -0.008280 
#    y 0.000000 1.587470 0.000000 
#    z -0.008280 0.000000 1.579340 
# 
# From -- ./inp_files/230505.got.cif
#   From: 2010.05.17/outbox.cif.g08.bks.cpg/sg12_116_cif.got.tgz:230505.got - 2010.06.03 13:09:07.
