data_PCOD9219374
_publ_section_title
;
Structure prediction by ZEFSAII (Michael W. Deem and Ramdas Pophale) SiO2 
 PCOD9219374
Probable space group: C 2/M
;
_chemical_formula_sum "Si O2"
_cell_formula_units_Z 64
_cell_length_a 22.062648
_cell_length_b 20.765159
_cell_length_c 18.750759
_cell_angle_alpha 90.000000
_cell_angle_beta 156.100240
_cell_angle_gamma 90.000000
_cell_volume 3480.282265
_symmetry_space_group_name_H-M "C 2/M"
_symmetry_group_IT_number 12
_symmetry_cell_setting 'monoclinic'
loop_
_space_group_symop_operation_xyz
x,y,z
-x,y,-z
-x,-y,-z
x,-y,z
1/2+x,1/2+y,z
1/2-x,1/2+y,-z
1/2-x,1/2-y,-z
1/2+x,1/2-y,z
loop_
_atom_site_type_symbol
_atom_site_label
_atom_site_fract_x
_atom_site_fract_y
_atom_site_fract_z
Si Si1 0.473372 0.927427 0.700961
Si Si2 0.127056 0.748560 0.089577
Si Si3 0.932767 0.254483 0.496222
Si Si4 0.863780 0.688067 0.050742
Si Si5 0.472735 0.305871 0.256542
Si Si6 0.582660 0.895471 0.659926
Si Si7 0.931771 0.893951 0.002500
Si Si8 0.379145 0.427470 0.658903
O O1 0.550587 0.876320 0.835726
O O2 0.532010 0.921005 0.682398
O O3 0.295338 0.916487 0.512126
O O4 0.504228 0.000000 0.757883
O O5 0.264061 0.767166 0.289167
O O6 0.061287 0.816041 0.990069
O O7 0.165422 0.705305 0.062948
O O8 0.000000 0.715653 0.000000
O O9 0.000000 0.217594 0.500000
O O10 0.946431 0.218476 0.584982
O O11 0.032683 0.319695 0.610277
O O12 0.961446 0.746845 0.188682
O O13 0.701834 0.682812 0.913519
O O14 0.552089 0.369723 0.313479
O O15 0.500000 0.920751 0.500000
O O16 0.757529 0.906443 0.832618
O O17 0.000000 0.914893 0.000000
O O18 0.031332 0.923627 0.171049
O O19 0.395903 0.500000 0.646614
#
# Coordination Sequence:
#
# PCOD9219374 Si02
#       8
#     8   8   8   8   8   8   8   8
#     4  11  26  43  60  86 125 168 211 255 305 369
#     4  11  23  36  60  96 130 159 200 254 314 368
#     4  11  20  37  59  95 130 159 196 257 310 369
#     4  11  22  39  63  96 121 159 210 256 309 366
#     4  11  22  37  67  93 124 160 204 261 308 365
#     4  11  20  36  62  87 124 164 202 245 303 368
#     4  11  21  36  60  89 125 161 203 248 301 370
#     4  11  26  43  59  87 126 167 209 256 309 365
#
# _framework density 18.389313999999999
#
# number of rings (size 3 to 8) (size 9 to 14) (size 15 to 20)
#    0.000    1.000    6.250    1.500    3.500    3.000 
#    0.000    0.000    0.000    1.500    0.000    0.000 
#    0.000    0.000    0.000    0.000    0.000    0.000 
#
# Total GULP energy -178598.525326 kJ/mol
# GULP energy per Si atom -5581.203916 kJ/mol
# Density = 1.834746 g / cm^3
# Si number density = 18.389314 Si / 1000 Ang^3
#
#
#
# Elastic Constant Matrix: (Units=GPa)
#
#
# Indices 1 2 3 4 5 6 
#
# 1 75.5571 47.3092 32.2443 0.0000 6.5950 0.0000
# 2 47.3092 103.6856 54.9962 0.0000 3.7682 0.0000
# 3 32.2443 54.9962 98.0938 0.0000 0.4837 0.0001
# 4 0.0000 0.0000 0.0000 19.1492 0.0000 1.4333
# 5 6.5950 3.7682 0.4837 0.0000 33.7430 0.0000
# 6 0.0000 0.0000 0.0001 1.4333 0.0000 22.7130
#
#
#
# Elastic Compliance Matrix: (Units=1/GPa)
#
#
# Indices 1 2 3 4 5 6 
#
# 1 0.019057 -0.007509 -0.002040 0.000000 -0.002857 0.000000
# 2 -0.007509 0.016754 -0.006923 0.000000 -0.000304 0.000000
# 3 -0.002040 -0.006923 0.014742 0.000000 0.000961 0.000000
# 4 0.000000 0.000000 0.000000 0.052469 0.000000 -0.003311
# 5 -0.002857 -0.000304 0.000961 0.000000 0.030214 0.000000
# 6 0.000000 0.000000 0.000000 -0.003311 0.000000 0.044237
#
#
# Mechanical properties :
#
#
# Convention : Reuss Voigt Hill
#
# Bulk Modulus (GPa) = 56.79414 60.71511 58.75462
# Shear Modulus (GPa) = 23.11742 24.64017 23.87880
#
# Velocity S-wave (km/s) = 3.54942 3.66446 3.60740
# Velocity P-wave (km/s) = 6.91008 7.14091 7.02644
#
# Compressibility (1/GPa) = 0.01760745
#
# Stress axis : x y z
#
# Youngs Moduli (GPa) = 52.47466 59.68683 67.83485
#
# Poissons Ratio (x) = 0.44821 0.13838
# Poissons Ratio (y) = 0.39405 0.46964
# Poissons Ratio (z) = 0.10705 0.41323
#
# Static dielectric constant tensor:
#      x y z
#    x 1.655450 0.000000 0.020360 
#    y 0.000000 1.643330 0.000000 
#    z 0.020360 0.000000 1.653190 
# 
# From -- ./inp_files/326127.got.cif
#   From: 2010.05.17/outbox.cif.g08.bks.cpg/sg12_164_cif.got.tgz:326127.got - 2010.06.03 13:09:07.
