data_PCOD9219706
_publ_section_title
;
Structure prediction by ZEFSAII (Michael W. Deem and Ramdas Pophale) SiO2 
 PCOD9219706
Probable space group: C 2/M
;
_chemical_formula_sum "Si O2"
_cell_formula_units_Z 56
_cell_length_a 24.709407
_cell_length_b 14.794192
_cell_length_c 8.435028
_cell_angle_alpha 90.000000
_cell_angle_beta 67.589293
_cell_angle_gamma 90.000000
_cell_volume 2850.592790
_symmetry_space_group_name_H-M "C 2/M"
_symmetry_group_IT_number 12
_symmetry_cell_setting 'monoclinic'
loop_
_space_group_symop_operation_xyz
x,y,z
-x,y,-z
-x,-y,-z
x,-y,z
1/2+x,1/2+y,z
1/2-x,1/2+y,-z
1/2-x,1/2-y,-z
1/2+x,1/2-y,z
loop_
_atom_site_type_symbol
_atom_site_label
_atom_site_fract_x
_atom_site_fract_y
_atom_site_fract_z
Si Si1 0.710083 0.107296 0.947891
Si Si2 0.280357 0.895376 0.440414
Si Si3 0.657187 0.397621 0.161904
Si Si4 0.005194 0.398322 0.806223
Si Si5 0.354846 0.600187 0.439059
Si Si6 0.112765 0.709291 0.564482
Si Si7 0.601168 0.782376 0.203579
O O1 0.710901 0.122233 0.757159
O O2 0.774906 0.128918 0.941369
O O3 0.701267 0.000000 0.981932
O O4 0.657924 0.162053 0.083982
O O5 0.211317 0.888210 0.550743
O O6 0.321395 0.827573 0.489177
O O7 0.297287 0.000000 0.452126
O O8 0.647573 0.500000 0.115602
O O9 0.650774 0.399805 0.361681
O O10 0.613860 0.321827 0.144861
O O11 0.996468 0.500000 0.750778
O O12 0.956307 0.329409 0.799339
O O13 0.068828 0.360303 0.693774
O O14 0.000000 0.403133 0.000000
O O15 0.376338 0.500000 0.369103
O O16 0.390716 0.689921 0.359048
O O17 0.097574 0.714146 0.397158
#
# Coordination Sequence:
#
# PCOD9219706 Si02
#       7
#     8   8   8   8   8   8   8
#     4   9  17  31  52  77 108 145 175 200 244 310
#     4   9  17  31  52  77 108 145 175 200 244 310
#     4   8  16  32  53  78 108 140 172 204 246 307
#     4  11  25  43  58  71  96 138 177 207 252 317
#     4   8  16  32  53  78 108 140 172 204 246 307
#     4  11  21  33  54  81 105 132 171 221 263 291
#     4  11  21  33  54  81 105 132 171 221 263 291
#
# _framework density 19.645036999999999
#
# number of rings (size 3 to 8) (size 9 to 14) (size 15 to 20)
#    0.000    2.429    0.000    4.714    0.000    5.143 
#    0.000    2.143    0.000   11.143    0.000    0.000 
#    0.000    0.000    0.000    0.000    0.000    0.000 
#
# Total GULP energy -156272.720281 kJ/mol
# GULP energy per Si atom -5581.168581 kJ/mol
# Density = 1.960032 g / cm^3
# Si number density = 19.645037 Si / 1000 Ang^3
#
#
#
# Elastic Constant Matrix: (Units=GPa)
#
#
# Indices 1 2 3 4 5 6 
#
# 1 60.6939 51.9499 -12.2524 0.0000 8.4649 0.0000
# 2 51.9499 78.1073 -9.3904 0.0000 8.6620 0.0000
# 3 -12.2524 -9.3904 9.2199 0.0000 -0.1126 0.0000
# 4 0.0000 0.0000 0.0000 15.6971 0.0000 -5.2202
# 5 8.4649 8.6620 -0.1126 0.0000 10.6799 0.0000
# 6 0.0000 0.0000 0.0000 -5.2202 0.0000 26.5407
#
#
#
# Elastic Compliance Matrix: (Units=1/GPa)
#
#
# Indices 1 2 3 4 5 6 
#
# 1 0.048818 -0.025963 0.038221 0.000000 -0.017233 0.000000
# 2 -0.025963 0.030015 -0.003979 0.000000 -0.003807 0.000000
# 3 0.038221 -0.003979 0.154890 0.000000 -0.025434 0.000000
# 4 0.000000 0.000000 0.000000 0.068165 0.000000 0.013407
# 5 -0.017233 -0.003807 -0.025434 0.000000 0.110113 0.000000
# 6 0.000000 0.000000 0.000000 0.013407 0.000000 0.040315
#
#
# Mechanical properties :
#
#
# Convention : Reuss Voigt Hill
#
# Bulk Modulus (GPa) = 3.99550 23.18169 13.58859
# Shear Modulus (GPa) = 9.63048 18.43113 14.03081
#
# Velocity S-wave (km/s) = 2.21650 3.06634 2.67538
# Velocity P-wave (km/s) = 2.93066 4.93584 4.05902
#
# Compressibility (1/GPa) = 0.25028149
#
# Stress axis : x y z
#
# Youngs Moduli (GPa) = 20.48421 33.31655 6.45618
#
# Poissons Ratio (x) = 0.86500 -0.24676
# Poissons Ratio (y) = 0.53183 0.02569
# Poissons Ratio (z) = -0.78293 0.13256
#
# Static dielectric constant tensor:
#      x y z
#    x 1.671720 0.000000 0.010910 
#    y 0.000000 1.728300 0.000000 
#    z 0.010910 0.000000 1.669970 
# 
# From -- ./inp_files/96783.got.cif
#   From: 2010.05.17/outbox.cif.g08.bks.cpg/sg12_49_cif.got.tgz:96783.got - 2010.06.03 13:09:07.
