data_PCOD9219176
_publ_section_title
;
Structure prediction by ZEFSAII (Michael W. Deem and Ramdas Pophale) SiO2 
 PCOD9219176
Probable space group: C 2/M
;
_chemical_formula_sum "Si O2"
_cell_formula_units_Z 64
_cell_length_a 24.671965
_cell_length_b 7.470856
_cell_length_c 28.314105
_cell_angle_alpha 90.000000
_cell_angle_beta 142.624055
_cell_angle_gamma 90.000000
_cell_volume 3168.078033
_symmetry_space_group_name_H-M "C 2/M"
_symmetry_group_IT_number 12
_symmetry_cell_setting 'monoclinic'
loop_
_space_group_symop_operation_xyz
x,y,z
-x,y,-z
-x,-y,-z
x,-y,z
1/2+x,1/2+y,z
1/2-x,1/2+y,-z
1/2-x,1/2-y,-z
1/2+x,1/2-y,z
loop_
_atom_site_type_symbol
_atom_site_label
_atom_site_fract_x
_atom_site_fract_y
_atom_site_fract_z
Si Si1 0.361845 0.792279 0.338374
Si Si2 0.961185 0.719998 0.262654
Si Si3 0.261139 0.213250 0.452149
Si Si4 0.408524 0.797830 0.725568
Si Si5 0.280613 0.208968 0.175320
Si Si6 0.960533 0.718951 0.581105
Si Si7 0.677714 0.291431 0.237512
Si Si8 0.597102 0.280075 0.083762
O O1 0.321441 0.785666 0.256878
O O2 0.461749 0.717550 0.400758
O O3 0.279015 0.715110 0.311065
O O4 0.375033 0.000000 0.361953
O O5 0.962036 0.500000 0.262916
O O6 0.859141 0.782642 0.196979
O O7 0.014071 0.783484 0.253401
O O8 0.011770 0.770684 0.346202
O O9 0.250000 0.250000 0.500000
O O10 0.179347 0.297557 0.367870
O O11 0.358872 0.274660 0.502752
O O12 0.256035 0.000000 0.441011
O O13 0.378441 0.716684 0.753982
O O14 0.435637 0.000000 0.755224
O O15 0.180567 0.280999 0.109316
O O16 0.272057 0.000000 0.157055
O O17 0.962246 0.500000 0.581377
O O18 0.693221 0.500000 0.237263
O O19 0.623267 0.220936 0.154839
O O20 0.596432 0.500000 0.082535
O O21 0.500000 0.221013 0.000000
#
# Coordination Sequence:
#
# PCOD9219176 Si02
#       8
#     8   8   8   8   8   8   8   8
#     4   7  11  22  42  64  84 108 145 190 224 255
#     4   8  13  23  39  60  83 111 152 192 220 252
#     4  11  20  31  47  68  93 119 152 195 237 275
#     4  11  21  32  45  63  90 126 159 191 227 270
#     4   7  10  18  36  63  89 110 140 186 224 256
#     4   8  13  24  43  65  84 106 145 196 232 256
#     4   9  17  30  47  69  93 118 149 186 227 275
#     4   8  13  23  44  74  99 114 137 183 237 275
#
# _framework density 20.201523000000002
#
# number of rings (size 3 to 8) (size 9 to 14) (size 15 to 20)
#    0.000    3.375    1.250    3.750    0.000    0.000 
#    0.000    0.625    0.000    6.375    0.000    0.000 
#    0.000    0.000    0.000    0.000    0.000    0.125 
#
# Total GULP energy -178215.009369 kJ/mol
# GULP energy per Si atom -5569.219043 kJ/mol
# Density = 2.015554 g / cm^3
# Si number density = 20.201523 Si / 1000 Ang^3
#
#
#
# Elastic Constant Matrix: (Units=GPa)
#
#
# Indices 1 2 3 4 5 6 
#
# 1 175.5179 -0.1785 56.2845 0.0002 29.6121 0.0012
# 2 -0.1785 55.1741 -5.0882 -0.0001 1.6688 0.0015
# 3 56.2845 -5.0882 53.5512 0.0002 22.8712 -0.0002
# 4 0.0002 -0.0001 0.0002 -1.8651 -0.0001 -5.6533
# 5 29.6121 1.6688 22.8712 -0.0001 33.5572 -0.0002
# 6 0.0012 0.0015 -0.0002 -5.6533 -0.0002 10.7669
#
#
#
# Elastic Compliance Matrix: (Units=1/GPa)
#
#
# Indices 1 2 3 4 5 6 
#
# 1 0.008717 -0.000688 -0.008403 0.000001 -0.001931 0.000000
# 2 -0.000688 0.018549 0.003696 0.000003 -0.002834 -0.000001
# 3 -0.008403 0.003696 0.034938 0.000000 -0.016582 0.000001
# 4 0.000001 0.000003 0.000000 -0.206889 -0.000003 -0.108631
# 5 -0.001931 -0.002834 -0.016582 -0.000003 0.042946 0.000000
# 6 0.000000 -0.000001 0.000001 -0.108631 0.000000 0.035839
#
#
# Mechanical properties :
#
#
# Convention : Reuss Voigt Hill
#
# Bulk Modulus (GPa) = 19.44952 42.91985 31.18469
# Shear Modulus (GPa) = -131.67374 24.04016 -53.81679
#
# Velocity S-wave (km/s) = -8.08218 3.45341 -5.16699
# Velocity P-wave (km/s) = 8.80039 6.09863 4.48629
#
# Compressibility (1/GPa) = 0.05141515
#
# Stress axis : x y z
#
# Youngs Moduli (GPa) = 114.71781 53.91173 28.62195
#
# Poissons Ratio (x) = 0.03711 0.24050
# Poissons Ratio (y) = 0.07896 -0.10580
# Poissons Ratio (z) = 0.96393 -0.19928
#
# Static dielectric constant tensor:
#      x y z
#    x 1.769900 0.000000 0.038640 
#    y 0.000000 1.862980 0.000000 
#    z 0.038640 0.000000 1.693600 
# 
# From -- ./inp_files/346299.got.cif
#   From: 2010.05.17/outbox.cif.g08.bks.cpg/sg12_174_cif.got.tgz:346299.got - 2010.06.03 13:09:07.
