data_PCOD9219842
_publ_section_title
;
Structure prediction by ZEFSAII (Michael W. Deem and Ramdas Pophale) SiO2 
 PCOD9219842
Probable space group: C 2/M
;
_chemical_formula_sum "Si O2"
_cell_formula_units_Z 56
_cell_length_a 21.460118
_cell_length_b 8.679906
_cell_length_c 30.094281
_cell_angle_alpha 90.000000
_cell_angle_beta 30.880799
_cell_angle_gamma 90.000000
_cell_volume 2877.154351
_symmetry_space_group_name_H-M "C 2/M"
_symmetry_group_IT_number 12
_symmetry_cell_setting 'monoclinic'
loop_
_space_group_symop_operation_xyz
x,y,z
-x,y,-z
-x,-y,-z
x,-y,z
1/2+x,1/2+y,z
1/2-x,1/2+y,-z
1/2-x,1/2-y,-z
1/2+x,1/2-y,z
loop_
_atom_site_type_symbol
_atom_site_label
_atom_site_fract_x
_atom_site_fract_y
_atom_site_fract_z
Si Si1 0.750055 0.185491 0.049761
Si Si2 0.395272 0.318958 0.625530
Si Si3 0.099314 0.816205 0.219563
Si Si4 0.743380 0.819404 0.210831
Si Si5 0.822755 0.181129 0.571707
Si Si6 0.990178 0.813508 0.954832
Si Si7 0.168477 0.181541 0.589649
O O1 0.638809 0.242335 0.148645
O O2 0.749157 0.000000 0.048984
O O3 0.750000 0.250000 0.000000
O O4 0.873659 0.240670 0.999004
O O5 0.374333 0.500000 0.648582
O O6 0.350036 0.216033 0.693109
O O7 0.538496 0.301092 0.529594
O O8 0.326766 0.281886 0.621466
O O9 0.201086 0.771052 0.193232
O O10 0.969968 0.761150 0.318989
O O11 0.092837 0.000000 0.218303
O O12 0.877675 0.774472 0.145312
O O13 0.746015 0.000000 0.197629
O O14 0.736433 0.281430 0.594051
O O15 0.791480 0.000000 0.585835
O O16 0.979530 0.000000 0.962245
O O17 0.000000 0.761857 0.000000
O O18 0.250000 0.250000 0.500000
O O19 0.161269 0.000000 0.585764
#
# Coordination Sequence:
#
# PCOD9219842 Si02
#       7
#     8   8   8   8   8   8   8
#     4  11  23  42  66  91 124 162 202 249 304 364
#     4   9  19  36  56  82 115 150 186 236 295 347
#     4  11  24  41  59  85 121 158 197 248 303 355
#     4  11  21  35  60  89 113 147 196 242 291 351
#     4   9  19  37  58  78 111 154 193 234 288 349
#     4   9  18  37  61  84 114 151 189 235 290 344
#     4  11  24  39  58  84 118 156 197 244 297 355
#
# _framework density 19.463674999999999
#
# number of rings (size 3 to 8) (size 9 to 14) (size 15 to 20)
#    0.000    1.857    1.429    3.429    0.000    8.000 
#    0.000    9.286    0.000    0.000    0.000    0.000 
#    0.000    0.000    0.000    0.000    0.000    0.000 
#
# Total GULP energy -156308.179175 kJ/mol
# GULP energy per Si atom -5582.434971 kJ/mol
# Density = 1.941937 g / cm^3
# Si number density = 19.463675 Si / 1000 Ang^3
#
#
#
# Elastic Constant Matrix: (Units=GPa)
#
#
# Indices 1 2 3 4 5 6 
#
# 1 91.8070 23.0483 48.9326 0.0019 -3.6051 -0.0019
# 2 23.0483 34.8614 35.3832 0.0025 3.9087 0.0026
# 3 48.9326 35.3832 100.5852 0.0006 10.1561 -0.0017
# 4 0.0019 0.0025 0.0006 25.8148 -0.0009 4.3215
# 5 -3.6051 3.9087 10.1561 -0.0009 30.9396 0.0060
# 6 -0.0019 0.0026 -0.0017 4.3215 0.0060 34.0066
#
#
#
# Elastic Compliance Matrix: (Units=1/GPa)
#
#
# Indices 1 2 3 4 5 6 
#
# 1 0.015627 -0.004136 -0.006603 0.000000 0.004511 0.000000
# 2 -0.004136 0.045716 -0.013898 -0.000003 -0.001695 -0.000004
# 3 -0.006603 -0.013898 0.018559 0.000001 -0.005106 0.000002
# 4 0.000000 -0.000003 0.000001 0.039579 0.000002 -0.005030
# 5 0.004511 -0.001695 -0.005106 0.000002 0.034737 -0.000006
# 6 0.000000 -0.000004 0.000002 -0.005030 -0.000006 0.030045
#
#
# Mechanical properties :
#
#
# Convention : Reuss Voigt Hill
#
# Bulk Modulus (GPa) = 32.65057 49.10906 40.87981
# Shear Modulus (GPa) = 20.51312 26.14484 23.32898
#
# Velocity S-wave (km/s) = 3.24993 3.66903 3.46582
# Velocity P-wave (km/s) = 5.55826 6.57533 6.08807
#
# Compressibility (1/GPa) = 0.03062734
#
# Stress axis : x y z
#
# Youngs Moduli (GPa) = 63.99128 21.87422 53.88339
#
# Poissons Ratio (x) = 0.09047 0.35578
# Poissons Ratio (y) = 0.26465 0.74890
# Poissons Ratio (z) = 0.42253 0.30402
#
# Static dielectric constant tensor:
#      x y z
#    x 1.668850 0.000000 -0.012170 
#    y 0.000000 1.670210 0.000000 
#    z -0.012170 0.000000 1.704560 
# 
# From -- ./inp_files/380641.got.cif
#   From: 2010.05.17/outbox.cif.g08.bks.cpg/sg12_191_cif.got.tgz:380641.got - 2010.06.03 13:09:07.
