data_PCOD9219859
_publ_section_title
;
Structure prediction by ZEFSAII (Michael W. Deem and Ramdas Pophale) SiO2 
 PCOD9219859
Probable space group: C 2/M
;
_chemical_formula_sum "Si O2"
_cell_formula_units_Z 48
_cell_length_a 26.585004
_cell_length_b 23.470400
_cell_length_c 11.450240
_cell_angle_alpha 90.000000
_cell_angle_beta 159.465923
_cell_angle_gamma 90.000000
_cell_volume 2506.036160
_symmetry_space_group_name_H-M "C 2/M"
_symmetry_group_IT_number 12
_symmetry_cell_setting 'monoclinic'
loop_
_space_group_symop_operation_xyz
x,y,z
-x,y,-z
-x,-y,-z
x,-y,z
1/2+x,1/2+y,z
1/2-x,1/2+y,-z
1/2-x,1/2-y,-z
1/2+x,1/2-y,z
loop_
_atom_site_type_symbol
_atom_site_label
_atom_site_fract_x
_atom_site_fract_y
_atom_site_fract_z
Si Si1 0.115379 0.500000 0.361867
Si Si2 0.550309 0.285796 0.282186
Si Si3 0.171358 0.000000 0.378641
Si Si4 0.414625 0.884224 0.565365
Si Si5 0.284273 0.190539 0.486848
Si Si6 0.878350 0.286662 0.332205
Si Si7 0.232664 0.621974 0.310807
O O1 0.262137 0.500000 0.607072
O O2 0.102837 0.447602 0.423772
O O3 0.000000 0.500000 0.000000
O O4 0.627818 0.248075 0.349806
O O5 0.568525 0.249126 0.439301
O O6 0.639065 0.344760 0.474252
O O7 0.383357 0.298517 0.901341
O O8 0.224815 0.058000 0.558363
O O9 0.000000 0.000000 0.000000
O O10 0.351267 0.850850 0.537642
O O11 0.342996 0.850691 0.301125
O O12 0.585303 0.876678 0.919259
O O13 0.302288 0.158600 0.648460
O O14 0.000000 0.290167 0.500000
O O15 0.750000 0.250000 0.000000
#
# Coordination Sequence:
#
# PCOD9219859 Si02
#       7
#     4   8   4   8   8   8   8
#     4  12  20  42  65  96 136 171 204 250 313 400
#     4  11  23  36  58  86 115 164 206 261 323 380
#     4  12  24  38  58  92 137 180 198 239 302 383
#     4  11  22  38  64  91 119 172 210 251 318 382
#     4  11  21  36  54  88 127 160 198 248 315 395
#     4  11  23  43  62  84 119 159 220 281 324 358
#     4  12  22  37  57  89 132 162 203 243 308 396
#
# _framework density 19.153753999999999
#
# number of rings (size 3 to 8) (size 9 to 14) (size 15 to 20)
#    0.000    0.667    3.333    7.500    0.000    2.667 
#    0.000    0.417    0.000    1.000    0.000    2.333 
#    0.000    0.000    0.000    0.000    0.000    0.000 
#
# Total GULP energy -133940.041259 kJ/mol
# GULP energy per Si atom -5580.835052 kJ/mol
# Density = 1.911016 g / cm^3
# Si number density = 19.153754 Si / 1000 Ang^3
#
#
#
# Elastic Constant Matrix: (Units=GPa)
#
#
# Indices 1 2 3 4 5 6 
#
# 1 78.6115 39.1055 14.5915 0.0000 3.8867 0.0000
# 2 39.1055 166.4884 41.0841 0.0000 1.5650 0.0000
# 3 14.5915 41.0841 104.0037 0.0000 19.2726 0.0000
# 4 0.0000 0.0000 0.0000 22.7741 0.0000 -0.1262
# 5 3.8867 1.5650 19.2726 0.0000 33.3182 0.0000
# 6 0.0000 0.0000 0.0000 -0.1262 0.0000 34.8652
#
#
#
# Elastic Compliance Matrix: (Units=1/GPa)
#
#
# Indices 1 2 3 4 5 6 
#
# 1 0.014503 -0.003268 -0.000514 0.000000 -0.001241 0.000000
# 2 -0.003268 0.007447 -0.002788 0.000000 0.001644 0.000000
# 3 -0.000514 -0.002788 0.012044 0.000000 -0.006776 0.000000
# 4 0.000000 0.000000 0.000000 0.043910 0.000000 0.000159
# 5 -0.001241 0.001644 -0.006776 0.000000 0.034001 0.000000
# 6 0.000000 0.000000 0.000000 0.000159 0.000000 0.028682
#
#
# Mechanical properties :
#
#
# Convention : Reuss Voigt Hill
#
# Bulk Modulus (GPa) = 47.95130 59.85177 53.90153
# Shear Modulus (GPa) = 31.11813 35.14632 33.13222
#
# Velocity S-wave (km/s) = 4.03507 4.28829 4.16360
# Velocity P-wave (km/s) = 6.84093 7.47229 7.16357
#
# Compressibility (1/GPa) = 0.02085449
#
# Stress axis : x y z
#
# Youngs Moduli (GPa) = 68.94999 134.29097 83.02933
#
# Poissons Ratio (x) = 0.43888 0.04266
# Poissons Ratio (y) = 0.22534 0.23146
# Poissons Ratio (z) = 0.03543 0.37436
#
# Static dielectric constant tensor:
#      x y z
#    x 1.665430 0.000000 -0.010840 
#    y 0.000000 1.757970 0.000000 
#    z -0.010840 0.000000 1.668320 
# 
# From -- ./inp_files/185055.got.cif
#   From: 2010.05.17/outbox.cif.g08.bks.cpg/sg12_93_cif.got.tgz:185055.got - 2010.06.03 13:09:07.
