data_PCOD9219721
_publ_section_title
;
Structure prediction by ZEFSAII (Michael W. Deem and Ramdas Pophale) SiO2 
 PCOD9219721
Probable space group: C 2/M
;
_chemical_formula_sum "Si O2"
_cell_formula_units_Z 48
_cell_length_a 15.042704
_cell_length_b 11.971269
_cell_length_c 27.975877
_cell_angle_alpha 90.000000
_cell_angle_beta 26.659188
_cell_angle_gamma 90.000000
_cell_volume 2260.419121
_symmetry_space_group_name_H-M "C 2/M"
_symmetry_group_IT_number 12
_symmetry_cell_setting 'monoclinic'
loop_
_space_group_symop_operation_xyz
x,y,z
-x,y,-z
-x,-y,-z
x,-y,z
1/2+x,1/2+y,z
1/2-x,1/2+y,-z
1/2-x,1/2-y,-z
1/2+x,1/2-y,z
loop_
_atom_site_type_symbol
_atom_site_label
_atom_site_fract_x
_atom_site_fract_y
_atom_site_fract_z
Si Si1 0.466078 0.625606 0.959950
Si Si2 0.676520 0.368972 0.654167
Si Si3 0.933597 0.237353 0.844718
Si Si4 0.247627 0.000000 0.067284
Si Si5 0.290111 0.000000 0.162708
Si Si6 0.019668 0.370585 0.571176
Si Si7 0.231310 0.774185 0.242677
O O1 0.451745 0.500000 0.948446
O O2 0.648294 0.690661 0.849317
O O3 0.500000 0.621681 0.000000
O O4 0.261831 0.691875 0.052893
O O5 0.617232 0.500000 0.679235
O O6 0.511589 0.283965 0.753197
O O7 0.842048 0.368541 0.617054
O O8 0.786427 0.338992 0.552414
O O9 0.873192 0.110809 0.888397
O O10 0.110022 0.289952 0.790522
O O11 0.277640 0.000000 0.110939
O O12 0.472328 0.000000 0.940123
O O13 0.199542 0.110391 0.230396
O O14 0.037422 0.500000 0.578558
O O15 0.954952 0.287641 0.644083
#
# Coordination Sequence:
#
# PCOD9219721 Si02
#       7
#     8   8   8   4   4   8   8
#     4  11  24  38  53  76 113 153 180 220 286 343
#     4   8  14  28  51  84 110 137 180 236 280 312
#     4  11  21  33  60  86 110 137 192 239 269 322
#     4  11  22  38  58  81 110 152 190 226 283 339
#     4  11  24  38  54  79 118 156 180 226 291 345
#     4   8  15  29  52  81 114 139 179 235 281 319
#     4  11  22  34  58  84 112 143 190 233 274 327
#
# _framework density 21.234999999999999
#
# number of rings (size 3 to 8) (size 9 to 14) (size 15 to 20)
#    0.000    2.000    2.500    3.000    3.500    0.000 
#    0.000    0.000    1.833    6.000    0.000    0.000 
#    0.000    0.000    0.000    0.000    0.000    0.000 
#
# Total GULP energy -134139.043726 kJ/mol
# GULP energy per Si atom -5589.126822 kJ/mol
# Density = 2.118667 g / cm^3
# Si number density = 21.235000 Si / 1000 Ang^3
#
#
#
# Elastic Constant Matrix: (Units=GPa)
#
#
# Indices 1 2 3 4 5 6 
#
# 1 63.4946 37.2704 19.9893 0.0008 10.7592 -0.0003
# 2 37.2704 147.7443 61.4258 0.0011 28.8269 -0.0004
# 3 19.9893 61.4258 146.1328 0.0000 41.4367 -0.0008
# 4 0.0008 0.0011 0.0000 66.8132 -0.0027 -7.1177
# 5 10.7592 28.8269 41.4367 -0.0027 33.7923 0.0007
# 6 -0.0003 -0.0004 -0.0008 -7.1177 0.0007 28.8464
#
#
#
# Elastic Compliance Matrix: (Units=1/GPa)
#
#
# Indices 1 2 3 4 5 6 
#
# 1 0.018638 -0.004214 -0.000176 0.000000 -0.002124 0.000000
# 2 -0.004214 0.009572 -0.002318 0.000000 -0.003981 0.000000
# 3 -0.000176 -0.002318 0.011137 0.000000 -0.011623 0.000000
# 4 0.000000 0.000000 0.000000 0.015371 0.000002 0.003793
# 5 -0.002124 -0.003981 -0.011623 0.000002 0.047918 -0.000001
# 6 0.000000 0.000000 0.000000 0.003793 -0.000001 0.035602
#
#
# Mechanical properties :
#
#
# Convention : Reuss Voigt Hill
#
# Bulk Modulus (GPa) = 38.56377 66.08252 52.32315
# Shear Modulus (GPa) = 31.19163 41.80281 36.49722
#
# Velocity S-wave (km/s) = 3.83675 4.44168 4.15025
# Velocity P-wave (km/s) = 6.15040 7.58234 6.90360
#
# Compressibility (1/GPa) = 0.02593107
#
# Stress axis : x y z
#
# Youngs Moduli (GPa) = 53.65287 104.46957 89.78702
#
# Poissons Ratio (x) = 0.44027 0.01580
# Poissons Ratio (y) = 0.22611 0.20815
# Poissons Ratio (z) = 0.00944 0.24218
#
# Static dielectric constant tensor:
#      x y z
#    x 1.830480 0.000000 -0.011120 
#    y 0.000000 1.727180 0.000000 
#    z -0.011120 0.000000 1.793980 
# 
# From -- ./inp_files/360987.got.cif
#   From: 2010.05.17/outbox.cif.g08.bks.cpg/sg12_181_cif.got.tgz:360987.got - 2010.06.03 13:09:07.
