data_PCOD9219632
_publ_section_title
;
Structure prediction by ZEFSAII (Michael W. Deem and Ramdas Pophale) SiO2 
 PCOD9219632
Probable space group: C 2/M
;
_chemical_formula_sum "Si O2"
_cell_formula_units_Z 48
_cell_length_a 13.550620
_cell_length_b 21.840297
_cell_length_c 10.267386
_cell_angle_alpha 90.000000
_cell_angle_beta 111.970668
_cell_angle_gamma 90.000000
_cell_volume 2817.949582
_symmetry_space_group_name_H-M "C 2/M"
_symmetry_group_IT_number 12
_symmetry_cell_setting 'monoclinic'
loop_
_space_group_symop_operation_xyz
x,y,z
-x,y,-z
-x,-y,-z
x,-y,z
1/2+x,1/2+y,z
1/2-x,1/2+y,-z
1/2-x,1/2-y,-z
1/2+x,1/2-y,z
loop_
_atom_site_type_symbol
_atom_site_label
_atom_site_fract_x
_atom_site_fract_y
_atom_site_fract_z
Si Si1 0.743037 0.694952 0.891049
Si Si2 0.147389 0.071982 0.945564
Si Si3 0.373443 0.206883 0.709856
Si Si4 0.074789 0.729456 0.659628
Si Si5 0.594428 0.570127 0.226109
Si Si6 0.753535 0.832461 0.587828
O O1 0.723256 0.627570 0.939456
O O2 0.844035 0.696965 0.844650
O O3 0.643404 0.715004 0.750512
O O4 0.750000 0.750000 0.000000
O O5 0.030626 0.085053 0.827192
O O6 0.175729 0.000000 0.931632
O O7 0.128480 0.076297 0.091514
O O8 0.496202 0.203657 0.730902
O O9 0.302941 0.164540 0.579896
O O10 0.330497 0.273787 0.644346
O O11 0.159221 0.680364 0.645323
O O12 0.000000 0.746646 0.500000
O O13 0.605894 0.500000 0.268886
O O14 0.672842 0.610931 0.347114
#
# Coordination Sequence:
#
# PCOD9219632 Si02
#       6
#     8   8   8   8   8   8
#     4  11  21  31  49  76 101 132 170 205 242 293
#     4   9  18  31  47  70 101 131 160 201 251 298
#     4   9  18  30  47  70  97 125 155 201 251 289
#     4   9  18  32  50  71  98 128 159 207 260 296
#     4   9  17  31  51  71  94 128 165 202 246 295
#     4   9  16  30  50  70  91 121 161 202 246 292
#
# _framework density 17.033662
#
# number of rings (size 3 to 8) (size 9 to 14) (size 15 to 20)
#    0.000    2.667    0.000    5.000    0.000    2.000 
#    0.000    0.833    0.000    8.000    0.000    3.500 
#    0.000    0.000    0.000    0.000    0.000    0.000 
#
# Total GULP energy -133687.427857 kJ/mol
# GULP energy per Si atom -5570.309494 kJ/mol
# Density = 1.699489 g / cm^3
# Si number density = 17.033662 Si / 1000 Ang^3
#
#
#
# Elastic Constant Matrix: (Units=GPa)
#
#
# Indices 1 2 3 4 5 6 
#
# 1 68.0094 30.1227 24.5166 0.0000 -18.2960 0.0000
# 2 30.1227 53.6226 21.4065 0.0000 -12.2470 0.0000
# 3 24.5166 21.4065 32.3606 0.0000 -12.2854 0.0000
# 4 0.0000 0.0000 0.0000 30.1764 0.0000 8.0203
# 5 -18.2960 -12.2470 -12.2854 0.0000 27.3262 0.0000
# 6 0.0000 0.0000 0.0000 8.0203 0.0000 23.7536
#
#
#
# Elastic Compliance Matrix: (Units=1/GPa)
#
#
# Indices 1 2 3 4 5 6 
#
# 1 0.023820 -0.007550 -0.009986 0.000000 0.008075 0.000000
# 2 -0.007550 0.028224 -0.012139 0.000000 0.002137 0.000000
# 3 -0.009986 -0.012139 0.050516 0.000000 0.010584 0.000000
# 4 0.000000 0.000000 0.000000 0.036405 0.000000 -0.012292
# 5 0.008075 0.002137 0.010584 0.000000 0.047718 0.000000
# 6 0.000000 0.000000 0.000000 -0.012292 0.000000 0.046249
#
#
# Mechanical properties :
#
#
# Convention : Reuss Voigt Hill
#
# Bulk Modulus (GPa) = 23.14330 34.00938 28.57634
# Shear Modulus (GPa) = 16.30328 21.44770 18.87549
#
# Velocity S-wave (km/s) = 3.09709 3.55228 3.33247
# Velocity P-wave (km/s) = 5.13864 6.06912 5.62316
#
# Compressibility (1/GPa) = 0.04320905
#
# Stress axis : x y z
#
# Youngs Moduli (GPa) = 41.98085 35.43057 19.79588
#
# Poissons Ratio (x) = 0.26751 0.19769
# Poissons Ratio (y) = 0.31697 0.24030
# Poissons Ratio (z) = 0.41923 0.43009
#
# Static dielectric constant tensor:
#      x y z
#    x 1.606610 0.000000 -0.010700 
#    y 0.000000 1.562510 0.000000 
#    z -0.010700 0.000000 1.612430 
# 
# From -- ./inp_files/63622.got.cif
#   From: 2010.05.17/outbox.cif.g08.bks.cpg/sg12_32_cif.got.tgz:63622.got - 2010.06.03 13:09:07.
