data_PCOD9219102
_publ_section_title
;
Structure prediction by ZEFSAII (Michael W. Deem and Ramdas Pophale) SiO2 
 PCOD9219102
Probable space group: C 2/M
;
_chemical_formula_sum "Si O2"
_cell_formula_units_Z 34
_cell_length_a 12.375996
_cell_length_b 14.579564
_cell_length_c 10.034149
_cell_angle_alpha 90.000000
_cell_angle_beta 117.239219
_cell_angle_gamma 90.000000
_cell_volume 1609.746374
_symmetry_space_group_name_H-M "C 2/M"
_symmetry_group_IT_number 12
_symmetry_cell_setting 'monoclinic'
loop_
_space_group_symop_operation_xyz
x,y,z
-x,y,-z
-x,-y,-z
x,-y,z
1/2+x,1/2+y,z
1/2-x,1/2+y,-z
1/2-x,1/2-y,-z
1/2+x,1/2-y,z
loop_
_atom_site_type_symbol
_atom_site_label
_atom_site_fract_x
_atom_site_fract_y
_atom_site_fract_z
Si Si1 0.500000 0.500000 0.500000
Si Si2 0.681121 0.349728 0.600534
Si Si3 0.140795 0.101426 0.268600
Si Si4 0.399344 0.848779 0.348139
Si Si5 0.451608 0.801893 0.828589
O O1 0.588426 0.419822 0.615044
O O2 0.674516 0.382461 0.443395
O O3 0.632973 0.247322 0.595910
O O4 0.819924 0.346749 0.725991
O O5 0.269744 0.102885 0.265891
O O6 0.066362 0.191170 0.185327
O O7 0.084734 0.000000 0.225218
O O8 0.500000 0.894317 0.500000
O O9 0.458113 0.829555 0.238729
O O10 0.500000 0.828838 0.000000
#
# Coordination Sequence:
#
# PCOD9219102 Si02
#       5
#     2   8   8   8   8
#     4  12  20  36  66  94 124 156 224 270 304 362
#     4  11  21  37  66  99 122 166 219 266 312 377
#     4  11  22  38  66 100 128 163 223 272 312 375
#     4  11  19  39  66  93 126 170 219 263 313 383
#     4  11  24  43  66  93 137 173 210 261 333 393
#
# _framework density 21.121338999999999
#
# number of rings (size 3 to 8) (size 9 to 14) (size 15 to 20)
#    0.000    0.941    7.059    1.412    0.000    4.706 
#    2.118    0.588   10.353    0.000    0.000    0.000 
#    0.000    0.000    0.000    0.000    0.000    0.000 
#
# Total GULP energy -94721.122526 kJ/mol
# GULP energy per Si atom -5571.830737 kJ/mol
# Density = 2.107327 g / cm^3
# Si number density = 21.121339 Si / 1000 Ang^3
#
#
#
# Elastic Constant Matrix: (Units=GPa)
#
#
# Indices 1 2 3 4 5 6 
#
# 1 123.2114 11.8257 34.6466 0.0000 -8.0259 0.0000
# 2 11.8257 101.9024 -14.2778 0.0000 1.1030 0.0000
# 3 34.6466 -14.2778 63.1358 0.0000 -12.2784 0.0000
# 4 0.0000 0.0000 0.0000 2.0043 0.0000 4.4588
# 5 -8.0259 1.1030 -12.2784 0.0000 21.0302 0.0000
# 6 0.0000 0.0000 0.0000 4.4588 0.0000 11.3096
#
#
#
# Elastic Compliance Matrix: (Units=1/GPa)
#
#
# Indices 1 2 3 4 5 6 
#
# 1 0.009977 -0.001979 -0.005823 0.000000 0.000512 0.000000
# 2 -0.001979 0.010543 0.003628 0.000000 0.000810 0.000000
# 3 -0.005823 0.003628 0.021869 0.000000 0.010355 0.000000
# 4 0.000000 0.000000 0.000000 4.058725 0.000000 -1.600153
# 5 0.000512 0.000810 0.010355 0.000000 0.053749 0.000000
# 6 0.000000 0.000000 0.000000 -1.600153 0.000000 0.719281
#
#
# Mechanical properties :
#
#
# Convention : Reuss Voigt Hill
#
# Bulk Modulus (GPa) = 29.37811 39.18207 34.28009
# Shear Modulus (GPa) = 1.02169 23.93915 12.48042
#
# Velocity S-wave (km/s) = 0.69626 3.37027 2.43346
# Velocity P-wave (km/s) = 3.81913 5.80828 4.91538
#
# Compressibility (1/GPa) = 0.03403895
#
# Stress axis : x y z
#
# Youngs Moduli (GPa) = 100.23230 94.85399 45.72767
#
# Poissons Ratio (x) = 0.18774 0.26627
# Poissons Ratio (y) = 0.19838 -0.16589
# Poissons Ratio (z) = 0.58365 -0.34410
#
# Static dielectric constant tensor:
#      x y z
#    x 1.894790 0.000000 -0.011930 
#    y 0.000000 1.786040 0.000000 
#    z -0.011930 0.000000 1.734720 
# 
# From -- ./inp_files/74908.got.cif
#   From: 2010.05.17/outbox.cif.g08.bks.cpg/sg12_38_cif.got.tgz:74908.got - 2010.06.03 13:09:07.
