data_PCOD9219200
_publ_section_title
;
Structure prediction by ZEFSAII (Michael W. Deem and Ramdas Pophale) SiO2 
 PCOD9219200
Probable space group: C 2/M
;
_chemical_formula_sum "Si O2"
_cell_formula_units_Z 48
_cell_length_a 13.201868
_cell_length_b 18.683091
_cell_length_c 8.933114
_cell_angle_alpha 90.000000
_cell_angle_beta 119.827584
_cell_angle_gamma 90.000000
_cell_volume 1911.479031
_symmetry_space_group_name_H-M "C 2/M"
_symmetry_group_IT_number 12
_symmetry_cell_setting 'monoclinic'
loop_
_space_group_symop_operation_xyz
x,y,z
-x,y,-z
-x,-y,-z
x,-y,z
1/2+x,1/2+y,z
1/2-x,1/2+y,-z
1/2-x,1/2-y,-z
1/2+x,1/2-y,z
loop_
_atom_site_type_symbol
_atom_site_label
_atom_site_fract_x
_atom_site_fract_y
_atom_site_fract_z
Si Si1 0.149165 0.083127 0.450842
Si Si2 0.556148 0.358872 0.881010
Si Si3 0.852101 0.579799 0.801892
Si Si4 0.700124 0.186082 0.642419
Si Si5 0.576894 0.773620 0.264982
Si Si6 0.314915 0.082358 0.115868
O O1 0.214805 0.091803 0.657299
O O2 0.239535 0.121855 0.406368
O O3 0.023334 0.113496 0.314823
O O4 0.142174 0.000000 0.414179
O O5 0.536786 0.273275 0.851474
O O6 0.682809 0.391769 0.984634
O O7 0.500000 0.379595 0.000000
O O8 0.880915 0.500000 0.764777
O O9 0.920675 0.644658 0.779586
O O10 0.868316 0.580063 0.990265
O O11 0.615212 0.228101 0.467542
O O12 0.813235 0.237476 0.745917
O O13 0.643218 0.144464 0.739305
O O14 0.318808 0.000000 0.177692
#
# Coordination Sequence:
#
# PCOD9219200 Si02
#       6
#     8   8   8   8   8   8
#     4   9  16  29  48  71 107 145 176 208 262 325
#     4  11  20  32  50  81 109 149 173 224 268 321
#     4   9  20  35  53  77 107 145 181 225 268 318
#     4   9  17  30  51  75 101 151 180 224 252 315
#     4   9  18  35  52  71 110 143 193 212 260 329
#     4  11  21  33  54  88 116 137 173 221 285 328
#
# _framework density 25.111443999999999
#
# number of rings (size 3 to 8) (size 9 to 14) (size 15 to 20)
#    0.000    2.333    3.333    2.000    0.000    2.667 
#    0.000    2.500    0.000    0.500    0.000    0.000 
#    0.000    2.667    0.000    1.000    0.000    0.000 
#
# Total GULP energy -134138.066835 kJ/mol
# GULP energy per Si atom -5589.086118 kJ/mol
# Density = 2.505429 g / cm^3
# Si number density = 25.111444 Si / 1000 Ang^3
#
#
#
# Elastic Constant Matrix: (Units=GPa)
#
#
# Indices 1 2 3 4 5 6 
#
# 1 42.5921 22.7186 13.3592 0.0000 8.4419 0.0000
# 2 22.7186 139.6118 37.5382 0.0000 4.7993 0.0000
# 3 13.3592 37.5382 108.3066 0.0000 19.9139 0.0000
# 4 0.0000 0.0000 0.0000 45.9823 0.0000 -0.4499
# 5 8.4419 4.7993 19.9139 0.0000 27.8824 0.0000
# 6 0.0000 0.0000 0.0000 -0.4499 0.0000 20.0086
#
#
#
# Elastic Compliance Matrix: (Units=1/GPa)
#
#
# Indices 1 2 3 4 5 6 
#
# 1 0.027229 -0.004008 -0.000668 0.000000 -0.007077 0.000000
# 2 -0.004008 0.008500 -0.002770 0.000000 0.001728 0.000000
# 3 -0.000668 -0.002770 0.011685 0.000000 -0.007667 0.000000
# 4 0.000000 0.000000 0.000000 0.021752 0.000000 0.000489
# 5 -0.007077 0.001728 -0.007667 0.000000 0.043186 0.000000
# 6 0.000000 0.000000 0.000000 0.000489 0.000000 0.049990
#
#
# Mechanical properties :
#
#
# Convention : Reuss Voigt Hill
#
# Bulk Modulus (GPa) = 30.74801 48.63804 39.69302
# Shear Modulus (GPa) = 26.58538 33.23428 29.90983
#
# Velocity S-wave (km/s) = 3.25729 3.64190 3.45495
# Velocity P-wave (km/s) = 5.13982 6.09061 5.63530
#
# Compressibility (1/GPa) = 0.03252243
#
# Stress axis : x y z
#
# Youngs Moduli (GPa) = 36.72610 117.64500 85.57992
#
# Poissons Ratio (x) = 0.47151 0.05719
# Poissons Ratio (y) = 0.14719 0.23702
# Poissons Ratio (z) = 0.02454 0.32582
#
# Static dielectric constant tensor:
#      x y z
#    x 2.054110 0.000000 0.003620 
#    y 0.000000 1.965420 0.000000 
#    z 0.003620 0.000000 2.047900 
# 
# From -- ./inp_files/75451.got.cif
#   From: 2010.05.17/outbox.cif.g08.bks.cpg/sg12_38_cif.got.tgz:75451.got - 2010.06.03 13:09:07.
