data_PCOD9219285
_publ_section_title
;
Structure prediction by ZEFSAII (Michael W. Deem and Ramdas Pophale) SiO2 
 PCOD9219285
Probable space group: C 2/M
;
_chemical_formula_sum "Si O2"
_cell_formula_units_Z 64
_cell_length_a 7.809227
_cell_length_b 27.140509
_cell_length_c 27.138416
_cell_angle_alpha 90.000000
_cell_angle_beta 32.393862
_cell_angle_gamma 90.000000
_cell_volume 3081.496208
_symmetry_space_group_name_H-M "C 2/M"
_symmetry_group_IT_number 12
_symmetry_cell_setting 'monoclinic'
loop_
_space_group_symop_operation_xyz
x,y,z
-x,y,-z
-x,-y,-z
x,-y,z
1/2+x,1/2+y,z
1/2-x,1/2+y,-z
1/2-x,1/2-y,-z
1/2+x,1/2-y,z
loop_
_atom_site_type_symbol
_atom_site_label
_atom_site_fract_x
_atom_site_fract_y
_atom_site_fract_z
Si Si1 0.914321 0.131573 0.637719
Si Si2 0.582820 0.942070 0.292078
Si Si3 0.124621 0.946614 0.076591
Si Si4 0.727967 0.193568 0.524858
Si Si5 0.198296 0.843858 0.038617
Si Si6 0.155617 0.872766 0.689505
Si Si7 0.615392 0.810762 0.852907
Si Si8 0.096038 0.292721 0.205793
O O1 0.705413 0.088531 0.663447
O O2 0.682351 0.179656 0.698051
O O3 0.194381 0.153076 0.535888
O O4 0.036079 0.117098 0.662681
O O5 0.666922 0.915487 0.323339
O O6 0.891229 0.939414 0.180439
O O7 0.507937 0.000000 0.316449
O O8 0.078642 0.898462 0.054268
O O9 0.042029 0.000000 0.074668
O O10 0.500000 0.948851 0.000000
O O11 0.750000 0.250000 0.500000
O O12 0.389882 0.174902 0.628375
O O13 0.000000 0.188797 0.500000
O O14 0.933480 0.817288 0.135451
O O15 0.331132 0.813195 0.960853
O O16 0.000000 0.650078 0.000000
O O17 0.840451 0.858429 0.797285
O O18 0.849652 0.764644 0.802617
O O19 0.464296 0.805414 0.836168
#
# Coordination Sequence:
#
# PCOD9219285 Si02
#       8
#     8   8   8   8   8   8   8   8
#     4  11  24  43  66  96 133 169 217 275 321 392
#     4  11  23  43  71  97 131 177 220 275 334 387
#     4   9  18  34  61  91 119 165 222 268 323 383
#     4  12  24  42  70 100 136 175 217 263 324 392
#     4  11  20  34  57  82 121 163 204 260 316 379
#     4  11  24  43  65  97 130 169 216 272 325 385
#     4  11  24  36  58  86 123 167 210 262 318 389
#     4  11  23  38  56  86 124 167 212 258 321 385
#
# _framework density 20.769131999999999
#
# number of rings (size 3 to 8) (size 9 to 14) (size 15 to 20)
#    0.000    1.125    2.500    4.875    1.750    2.500 
#    0.000    1.250    0.000    3.750    0.000    0.000 
#    0.000    0.000    0.000    0.000    0.000    0.000 
#
# Total GULP energy -178652.075709 kJ/mol
# GULP energy per Si atom -5582.877366 kJ/mol
# Density = 2.072186 g / cm^3
# Si number density = 20.769132 Si / 1000 Ang^3
#
#
#
# Elastic Constant Matrix: (Units=GPa)
#
#
# Indices 1 2 3 4 5 6 
#
# 1 91.5044 39.0215 -0.2480 0.0000 -9.8343 0.0000
# 2 39.0215 121.7413 11.5600 0.0000 -0.5591 0.0000
# 3 -0.2480 11.5600 72.2485 0.0000 -10.4462 0.0001
# 4 0.0000 0.0000 0.0000 23.5187 0.0000 2.4833
# 5 -9.8343 -0.5591 -10.4462 0.0000 13.8382 0.0000
# 6 0.0000 0.0000 0.0001 2.4833 0.0000 18.7943
#
#
#
# Elastic Compliance Matrix: (Units=1/GPa)
#
#
# Indices 1 2 3 4 5 6 
#
# 1 0.014229 -0.004746 0.002517 0.000000 0.011821 0.000000
# 2 -0.004746 0.009931 -0.002284 0.000000 -0.004696 0.000000
# 3 0.002517 -0.002284 0.016232 0.000000 0.013950 0.000000
# 4 0.000000 0.000000 0.000000 0.043121 0.000000 -0.005698
# 5 0.011821 -0.004696 0.013950 0.000000 0.091006 0.000000
# 6 0.000000 0.000000 0.000000 -0.005698 0.000000 0.053961
#
#
# Mechanical properties :
#
#
# Convention : Reuss Voigt Hill
#
# Bulk Modulus (GPa) = 31.88038 42.90679 37.39359
# Shear Modulus (GPa) = 20.16453 26.90759 23.53606
#
# Velocity S-wave (km/s) = 3.11929 3.60329 3.36999
# Velocity P-wave (km/s) = 5.32508 6.16566 5.76072
#
# Compressibility (1/GPa) = 0.03136725
#
# Stress axis : x y z
#
# Youngs Moduli (GPa) = 70.27669 100.69887 61.60584
#
# Poissons Ratio (x) = 0.47789 -0.15508
# Poissons Ratio (y) = 0.33351 0.14072
# Poissons Ratio (z) = -0.17691 0.23001
#
# Static dielectric constant tensor:
#      x y z
#    x 1.750450 0.000000 -0.025990 
#    y 0.000000 1.757550 0.000000 
#    z -0.025990 0.000000 1.800620 
# 
# From -- ./inp_files/373256.got.cif
#   From: 2010.05.17/outbox.cif.g08.bks.cpg/sg12_187_cif.got.tgz:373256.got - 2010.06.03 13:09:07.
