data_PCOD9219740
_publ_section_title
;
Structure prediction by ZEFSAII (Michael W. Deem and Ramdas Pophale) SiO2 
 PCOD9219740
Probable space group: C 2/M
;
_chemical_formula_sum "Si O2"
_cell_formula_units_Z 56
_cell_length_a 26.063265
_cell_length_b 7.635394
_cell_length_c 18.769069
_cell_angle_alpha 90.000000
_cell_angle_beta 140.367972
_cell_angle_gamma 90.000000
_cell_volume 2382.454946
_symmetry_space_group_name_H-M "C 2/M"
_symmetry_group_IT_number 12
_symmetry_cell_setting 'monoclinic'
loop_
_space_group_symop_operation_xyz
x,y,z
-x,y,-z
-x,-y,-z
x,-y,z
1/2+x,1/2+y,z
1/2-x,1/2+y,-z
1/2-x,1/2-y,-z
1/2+x,1/2-y,z
loop_
_atom_site_type_symbol
_atom_site_label
_atom_site_fract_x
_atom_site_fract_y
_atom_site_fract_z
Si Si1 0.129242 0.786548 0.015414
Si Si2 0.470112 0.285917 0.791344
Si Si3 0.383417 0.286640 0.841522
Si Si4 0.073174 0.193161 0.625693
Si Si5 0.330156 0.709688 0.539702
Si Si6 0.709758 0.792355 0.879217
Si Si7 0.299974 0.799325 0.350421
O O1 0.062942 0.731863 0.886793
O O2 0.132612 0.000000 0.018935
O O3 0.094273 0.734895 0.054827
O O4 0.218979 0.723843 0.096817
O O5 0.469249 0.500000 0.790456
O O6 0.431901 0.225815 0.825311
O O7 0.408902 0.229586 0.665875
O O8 0.387599 0.500000 0.843459
O O9 0.290645 0.233898 0.737856
O O10 0.122351 0.243511 0.751473
O O11 0.144188 0.196822 0.643532
O O12 0.000000 0.282018 0.500000
O O13 0.041182 0.000000 0.608223
O O14 0.332871 0.500000 0.533972
O O15 0.250000 0.750000 0.500000
O O16 0.331401 0.794986 0.464071
O O17 0.708847 0.000000 0.875816
O O18 0.750000 0.750000 0.000000
O O19 0.296440 0.000000 0.319500
#
# Coordination Sequence:
#
# PCOD9219740 Si02
#       7
#     8   8   8   8   8   8   8
#     4   9  17  31  54  84 115 149 193 245 296 356
#     4   9  17  29  50  82 118 153 195 243 290 348
#     4   9  15  28  52  83 112 142 187 236 287 350
#     4  11  25  45  68  94 123 161 213 268 324 391
#     4  11  21  34  53  82 120 164 207 249 299 356
#     4  11  23  41  66  96 128 165 210 261 322 383
#     4  11  21  37  61  89 117 153 201 250 308 373
#
# _framework density 23.505165999999999
#
# number of rings (size 3 to 8) (size 9 to 14) (size 15 to 20)
#    0.000    1.857    2.857    2.143    0.000    4.000 
#    0.000    2.857    0.000    2.571    0.000    2.000 
#    0.000    0.000    0.000    0.000    0.000    0.000 
#
# Total GULP energy -156100.557818 kJ/mol
# GULP energy per Si atom -5575.019922 kJ/mol
# Density = 2.345167 g / cm^3
# Si number density = 23.505166 Si / 1000 Ang^3
#
#
#
# Elastic Constant Matrix: (Units=GPa)
#
#
# Indices 1 2 3 4 5 6 
#
# 1 22.9813 -6.3670 25.5491 0.0000 -5.5097 0.0000
# 2 -6.3670 55.8750 6.4237 0.0000 2.2590 0.0000
# 3 25.5491 6.4237 223.5674 0.0000 7.6434 0.0000
# 4 0.0000 0.0000 0.0000 11.2796 0.0000 -6.4788
# 5 -5.5097 2.2590 7.6434 0.0000 40.3283 0.0000
# 6 0.0000 0.0000 0.0000 -6.4788 0.0000 10.8105
#
#
#
# Elastic Compliance Matrix: (Units=1/GPa)
#
#
# Indices 1 2 3 4 5 6 
#
# 1 0.054889 0.006691 -0.006752 0.000000 0.008404 0.000000
# 2 0.006691 0.018806 -0.001309 0.000000 0.000109 0.000000
# 3 -0.006752 -0.001309 0.005346 0.000000 -0.001862 0.000000
# 4 0.000000 0.000000 0.000000 0.135192 0.000000 0.081021
# 5 0.008404 0.000109 -0.001862 0.000000 0.026292 0.000000
# 6 0.000000 0.000000 0.000000 0.081021 0.000000 0.141059
#
#
# Mechanical properties :
#
#
# Convention : Reuss Voigt Hill
#
# Bulk Modulus (GPa) = 13.10603 39.29281 26.19942
# Shear Modulus (GPa) = 12.20237 30.93820 21.57028
#
# Velocity S-wave (km/s) = 2.28093 3.63192 3.03261
# Velocity P-wave (km/s) = 3.53903 5.86010 4.84074
#
# Compressibility (1/GPa) = 0.07630074
#
# Stress axis : x y z
#
# Youngs Moduli (GPa) = 18.21862 53.17564 187.06151
#
# Poissons Ratio (x) = -0.35581 1.26308
# Poissons Ratio (y) = -0.12190 0.24481
# Poissons Ratio (z) = 0.12302 0.06959
#
# Static dielectric constant tensor:
#      x y z
#    x 1.851200 0.000000 -0.010150 
#    y 0.000000 13.798750 0.000000 
#    z -0.010150 0.000000 2.069980 
# 
# From -- ./inp_files/292541.got.cif
#   From: 2010.05.17/outbox.cif.g08.bks.cpg/sg12_147_cif.got.tgz:292541.got - 2010.06.03 13:09:07.
