data_PCOD9219051
_publ_section_title
;
Structure prediction by ZEFSAII (Michael W. Deem and Ramdas Pophale) SiO2 
 PCOD9219051
Probable space group: C 2/M
;
_chemical_formula_sum "Si O2"
_cell_formula_units_Z 44
_cell_length_a 9.966700
_cell_length_b 21.298649
_cell_length_c 9.312850
_cell_angle_alpha 90.000000
_cell_angle_beta 70.116092
_cell_angle_gamma 90.000000
_cell_volume 1859.050288
_symmetry_space_group_name_H-M "C 2/M"
_symmetry_group_IT_number 12
_symmetry_cell_setting 'monoclinic'
loop_
_space_group_symop_operation_xyz
x,y,z
-x,y,-z
-x,-y,-z
x,-y,z
1/2+x,1/2+y,z
1/2-x,1/2+y,-z
1/2-x,1/2-y,-z
1/2+x,1/2-y,z
loop_
_atom_site_type_symbol
_atom_site_label
_atom_site_fract_x
_atom_site_fract_y
_atom_site_fract_z
Si Si1 0.445721 0.393194 0.863751
Si Si2 0.646997 0.093597 0.380525
Si Si3 0.096021 0.000000 0.660927
Si Si4 0.548605 0.748348 0.822651
Si Si5 0.363850 0.764928 0.632463
Si Si6 0.857886 0.574742 0.960505
O O1 0.477746 0.444353 0.732271
O O2 0.526929 0.327384 0.817251
O O3 0.500000 0.419611 0.000000
O O4 0.276700 0.385136 0.936606
O O5 0.500000 0.070978 0.500000
O O6 0.662661 0.166207 0.421760
O O7 0.634877 0.085660 0.212887
O O8 0.779741 0.054127 0.385339
O O9 0.431079 0.777211 0.762748
O O10 0.708714 0.765180 0.713463
O O11 0.500000 0.764069 0.000000
O O12 0.500000 0.734135 0.500000
O O13 0.825588 0.500000 0.990842
O O14 0.000000 0.587773 0.000000
#
# Coordination Sequence:
#
# PCOD9219051 Si02
#       6
#     8   8   4   8   8   8
#     4  11  19  36  65  90 116 157 207 248 294 354
#     4  11  22  37  62  90 118 160 203 247 294 360
#     4  12  18  36  64  91 116 151 218 242 291 346
#     4  11  23  41  64  93 121 159 209 255 298 361
#     4  11  24  42  62  90 125 163 204 249 309 365
#     4  11  22  36  57  91 126 155 191 249 313 360
#
# _framework density 23.667998999999998
#
# number of rings (size 3 to 8) (size 9 to 14) (size 15 to 20)
#    0.000    0.909    5.455    2.727    0.000    2.182 
#    0.000    0.000    0.000    1.091    0.000    0.000 
#    0.000    0.000    0.000    0.000    0.000    0.000 
#
# Total GULP energy -122478.295595 kJ/mol
# GULP energy per Si atom -5567.195254 kJ/mol
# Density = 2.361413 g / cm^3
# Si number density = 23.667999 Si / 1000 Ang^3
#
#
#
# Elastic Constant Matrix: (Units=GPa)
#
#
# Indices 1 2 3 4 5 6 
#
# 1 109.8288 -6.2936 43.0491 0.0000 -40.1364 0.0000
# 2 -6.2936 51.3558 15.4598 0.0000 -3.1801 0.0000
# 3 43.0491 15.4598 92.7915 0.0000 -35.5618 0.0000
# 4 0.0000 0.0000 0.0000 -2.7783 0.0000 -13.6008
# 5 -40.1364 -3.1801 -35.5618 0.0000 33.6068 0.0000
# 6 0.0000 0.0000 0.0000 -13.6008 0.0000 -16.0761
#
#
#
# Elastic Compliance Matrix: (Units=1/GPa)
#
#
# Indices 1 2 3 4 5 6 
#
# 1 0.016742 0.003534 -0.000950 0.000000 0.019324 0.000000
# 2 0.003534 0.021406 -0.004731 0.000000 0.001241 0.000000
# 3 -0.000950 -0.004731 0.019176 0.000000 0.018709 0.000000
# 4 0.000000 0.000000 0.000000 0.114568 0.000000 -0.096928
# 5 0.019324 0.001241 0.018709 0.000000 0.072749 0.000000
# 6 0.000000 0.000000 0.000000 -0.096928 0.000000 0.019800
#
#
# Mechanical properties :
#
#
# Convention : Reuss Voigt Hill
#
# Bulk Modulus (GPa) = 18.85698 39.82297 29.33997
# Shear Modulus (GPa) = 17.45750 16.40121 16.92935
#
# Velocity S-wave (km/s) = 2.71882 2.63529 2.67738
# Velocity P-wave (km/s) = 4.22381 5.11095 4.68841
#
# Compressibility (1/GPa) = 0.05303077
#
# Stress axis : x y z
#
# Youngs Moduli (GPa) = 59.73075 46.71585 52.14863
#
# Poissons Ratio (x) = -0.16511 0.04956
# Poissons Ratio (y) = -0.21111 0.24669
# Poissons Ratio (z) = 0.05676 0.22099
#
# Static dielectric constant tensor:
#      x y z
#    x 1.673000 0.000000 -0.017350 
#    y 0.000000 1.901380 0.000000 
#    z -0.017350 0.000000 1.945570 
# 
# From -- ./inp_files/122350.got.cif
#   From: 2010.05.17/outbox.cif.g08.bks.cpg/sg12_62_cif.got.tgz:122350.got - 2010.06.03 13:09:07.
