data_PCOD9219964
_publ_section_title
;
Structure prediction by ZEFSAII (Michael W. Deem and Ramdas Pophale) SiO2 
 PCOD9219964
Probable space group: C 2/M
;
_chemical_formula_sum "Si O2"
_cell_formula_units_Z 42
_cell_length_a 15.854360
_cell_length_b 17.072642
_cell_length_c 8.056136
_cell_angle_alpha 90.000000
_cell_angle_beta 77.275572
_cell_angle_gamma 90.000000
_cell_volume 2127.047171
_symmetry_space_group_name_H-M "C 2/M"
_symmetry_group_IT_number 12
_symmetry_cell_setting 'monoclinic'
loop_
_space_group_symop_operation_xyz
x,y,z
-x,y,-z
-x,-y,-z
x,-y,z
1/2+x,1/2+y,z
1/2-x,1/2+y,-z
1/2-x,1/2-y,-z
1/2+x,1/2-y,z
loop_
_atom_site_type_symbol
_atom_site_label
_atom_site_fract_x
_atom_site_fract_y
_atom_site_fract_z
Si Si1 0.707005 0.203801 0.168398
Si Si2 0.805694 0.089721 0.351806
Si Si3 0.402771 0.913193 0.980680
Si Si4 0.599623 0.277441 0.509505
Si Si5 0.500000 0.000000 0.500000
Si Si6 0.366863 0.887186 0.362020
O O1 0.777062 0.142589 0.208633
O O2 0.665908 0.257969 0.329594
O O3 0.750000 0.250000 0.000000
O O4 0.629111 0.151003 0.131856
O O5 0.876407 0.139789 0.419998
O O6 0.718283 0.090678 0.499228
O O7 0.828778 0.000000 0.304189
O O8 0.352870 0.909096 0.176626
O O9 0.395398 0.000000 0.906376
O O10 0.500000 0.901509 0.000000
O O11 0.500000 0.275087 0.500000
O O12 0.617011 0.205615 0.628363
O O13 0.553525 0.067672 0.585229
#
# Coordination Sequence:
#
# PCOD9219964 Si02
#       6
#     8   8   8   8   2   8
#     4  11  23  39  59  87 122 153 191 246 314 358
#     4  11  23  40  63  84 115 159 207 251 299 358
#     4  11  22  32  52  86 122 154 186 232 291 361
#     4  11  23  40  64  85 115 159 208 252 295 360
#     4  12  20  32  66  88 128 152 202 252 292 368
#     4  11  21  37  58  90 123 157 198 241 306 362
#
# _framework density 19.745683
#
# number of rings (size 3 to 8) (size 9 to 14) (size 15 to 20)
#    0.000    0.952    2.857    6.286    2.667    0.381 
#    0.000    0.952    0.000    1.143    0.000    0.000 
#    0.000    0.000    0.000    0.000    0.000    0.000 
#
# Total GULP energy -117167.393398 kJ/mol
# GULP energy per Si atom -5579.399686 kJ/mol
# Density = 1.970074 g / cm^3
# Si number density = 19.745683 Si / 1000 Ang^3
#
#
#
# Elastic Constant Matrix: (Units=GPa)
#
#
# Indices 1 2 3 4 5 6 
#
# 1 51.3393 46.5640 -3.3839 0.0000 3.4240 0.0000
# 2 46.5640 152.1120 30.7530 0.0000 4.7424 0.0000
# 3 -3.3839 30.7530 41.1799 0.0000 -0.5725 0.0000
# 4 0.0000 0.0000 0.0000 20.4734 0.0000 10.1640
# 5 3.4240 4.7424 -0.5725 0.0000 19.2256 0.0000
# 6 0.0000 0.0000 0.0000 10.1640 0.0000 38.2633
#
#
#
# Elastic Compliance Matrix: (Units=1/GPa)
#
#
# Indices 1 2 3 4 5 6 
#
# 1 0.030964 -0.011678 0.011233 0.000000 -0.002299 0.000000
# 2 -0.011678 0.012232 -0.010111 0.000000 -0.001239 0.000000
# 3 0.011233 -0.010111 0.032778 0.000000 0.001470 0.000000
# 4 0.000000 0.000000 0.000000 0.056264 0.000000 -0.014945
# 5 -0.002299 -0.001239 0.001470 0.000000 0.052773 0.000000
# 6 0.000000 0.000000 0.000000 -0.014945 0.000000 0.030105
#
#
# Mechanical properties :
#
#
# Convention : Reuss Voigt Hill
#
# Bulk Modulus (GPa) = 18.22755 43.61083 30.91919
# Shear Modulus (GPa) = 19.64526 26.97233 23.30879
#
# Velocity S-wave (km/s) = 3.15765 3.69993 3.43950
# Velocity P-wave (km/s) = 4.74821 6.35507 5.60947
#
# Compressibility (1/GPa) = 0.05486201
#
# Stress axis : x y z
#
# Youngs Moduli (GPa) = 32.29582 81.75407 30.50789
#
# Poissons Ratio (x) = 0.95472 -0.34271
# Poissons Ratio (y) = 0.37715 0.30848
# Poissons Ratio (z) = -0.36279 0.82666
#
# Static dielectric constant tensor:
#      x y z
#    x 1.684180 0.000000 -0.005610 
#    y 0.000000 1.719440 0.000000 
#    z -0.005610 0.000000 1.755970 
# 
# From -- ./inp_files/60982.got.cif
#   From: 2010.05.17/outbox.cif.g08.bks.cpg/sg12_31_cif.got.tgz:60982.got - 2010.06.03 13:09:07.
