data_PCOD9219394
_publ_section_title
;
Structure prediction by ZEFSAII (Michael W. Deem and Ramdas Pophale) SiO2 
 PCOD9219394
Probable space group: C 2/M
;
_chemical_formula_sum "Si O2"
_cell_formula_units_Z 48
_cell_length_a 13.744241
_cell_length_b 15.646976
_cell_length_c 27.827636
_cell_angle_alpha 90.000000
_cell_angle_beta 157.350746
_cell_angle_gamma 90.000000
_cell_volume 2304.561990
_symmetry_space_group_name_H-M "C 2/M"
_symmetry_group_IT_number 12
_symmetry_cell_setting 'monoclinic'
loop_
_space_group_symop_operation_xyz
x,y,z
-x,y,-z
-x,-y,-z
x,-y,z
1/2+x,1/2+y,z
1/2-x,1/2+y,-z
1/2-x,1/2-y,-z
1/2+x,1/2-y,z
loop_
_atom_site_type_symbol
_atom_site_label
_atom_site_fract_x
_atom_site_fract_y
_atom_site_fract_z
Si Si1 0.084133 0.597406 0.741279
Si Si2 0.807168 0.099174 0.197230
Si Si3 0.478727 0.738198 0.352288
Si Si4 0.468072 0.830376 0.785559
Si Si5 0.370042 0.593184 0.031098
Si Si6 0.230704 0.837890 0.918497
O O1 0.022181 0.500000 0.698466
O O2 0.063070 0.670171 0.691814
O O3 0.925376 0.626072 0.715093
O O4 0.384456 0.597944 0.890328
O O5 0.950528 0.164144 0.298266
O O6 0.890871 0.105711 0.179337
O O7 0.813501 0.000000 0.215429
O O8 0.517601 0.133254 0.059843
O O9 0.274257 0.710767 0.299494
O O10 0.750000 0.750000 0.500000
O O11 0.608036 0.895822 0.884559
O O12 0.682056 0.757085 0.877496
O O13 0.374909 0.500000 0.057070
O O14 0.390760 0.658559 0.084246
#
# Coordination Sequence:
#
# PCOD9219394 Si02
#       6
#     8   8   8   8   8   8
#     4  11  25  45  68 102 139 177 225 284 347 412
#     4  11  23  40  66 102 136 169 220 282 344 412
#     4  12  27  47  67  92 132 186 239 282 327 394
#     4  12  23  40  66  96 136 182 216 274 339 405
#     4  11  21  36  64 104 139 171 215 272 349 425
#     4  11  20  36  67 100 137 165 212 270 359 410
#
# _framework density 20.828253
#
# number of rings (size 3 to 8) (size 9 to 14) (size 15 to 20)
#    0.000    0.667    5.000    4.500    2.333    3.333 
#    0.000    0.833    0.000    1.000    0.000    0.000 
#    0.000    0.000    0.000    0.000    0.000    0.000 
#
# Total GULP energy -133886.634712 kJ/mol
# GULP energy per Si atom -5578.609780 kJ/mol
# Density = 2.078085 g / cm^3
# Si number density = 20.828253 Si / 1000 Ang^3
#
#
#
# Elastic Constant Matrix: (Units=GPa)
#
#
# Indices 1 2 3 4 5 6 
#
# 1 105.6796 29.4694 36.5546 0.0010 1.8077 -0.0007
# 2 29.4694 154.9220 47.6275 0.0013 -6.1346 -0.0005
# 3 36.5546 47.6275 112.2368 -0.0154 -7.9264 0.0077
# 4 0.0010 0.0013 -0.0154 10.3919 0.0014 0.2123
# 5 1.8077 -6.1346 -7.9264 0.0014 14.3577 0.0006
# 6 -0.0007 -0.0005 0.0077 0.2123 0.0006 24.2284
#
#
#
# Elastic Compliance Matrix: (Units=1/GPa)
#
#
# Indices 1 2 3 4 5 6 
#
# 1 0.011021 -0.001219 -0.003337 -0.000005 -0.003751 0.000001
# 2 -0.001219 0.007589 -0.002688 -0.000005 0.001912 0.000001
# 3 -0.003337 -0.002688 0.011536 0.000017 0.005640 -0.000004
# 4 -0.000005 -0.000005 0.000017 0.096246 -0.000001 -0.000843
# 5 -0.003751 0.001912 0.005640 -0.000001 0.074052 -0.000004
# 6 0.000001 0.000001 -0.000004 -0.000843 -0.000004 0.041281
#
#
# Mechanical properties :
#
#
# Convention : Reuss Voigt Hill
#
# Bulk Modulus (GPa) = 63.86998 66.68240 65.27619
# Shear Modulus (GPa) = 19.12541 27.07471 23.10006
#
# Velocity S-wave (km/s) = 3.03354 3.60933 3.33389
# Velocity P-wave (km/s) = 6.55755 7.03239 6.79912
#
# Compressibility (1/GPa) = 0.01565681
#
# Stress axis : x y z
#
# Youngs Moduli (GPa) = 90.73640 131.77117 86.68768
#
# Poissons Ratio (x) = 0.16063 0.28928
# Poissons Ratio (y) = 0.11061 0.23304
# Poissons Ratio (z) = 0.30279 0.35424
#
# Static dielectric constant tensor:
#      x y z
#    x 1.859000 0.000000 0.029140 
#    y 0.000000 1.806820 -0.000010 
#    z 0.029140 -0.000010 1.713880 
# 
# From -- ./inp_files/376647.got.cif
#   From: 2010.05.17/outbox.cif.g08.bks.cpg/sg12_189_cif.got.tgz:376647.got - 2010.06.03 13:09:07.
