data_PCOD9219484
_publ_section_title
;
Structure prediction by ZEFSAII (Michael W. Deem and Ramdas Pophale) SiO2 
 PCOD9219484
Probable space group: C 2/M
;
_chemical_formula_sum "Si O2"
_cell_formula_units_Z 48
_cell_length_a 19.543541
_cell_length_b 9.975038
_cell_length_c 13.007763
_cell_angle_alpha 90.000000
_cell_angle_beta 66.790326
_cell_angle_gamma 90.000000
_cell_volume 2330.603838
_symmetry_space_group_name_H-M "C 2/M"
_symmetry_group_IT_number 12
_symmetry_cell_setting 'monoclinic'
loop_
_space_group_symop_operation_xyz
x,y,z
-x,y,-z
-x,-y,-z
x,-y,z
1/2+x,1/2+y,z
1/2-x,1/2+y,-z
1/2-x,1/2-y,-z
1/2+x,1/2-y,z
loop_
_atom_site_type_symbol
_atom_site_label
_atom_site_fract_x
_atom_site_fract_y
_atom_site_fract_z
Si Si1 0.706011 0.500000 0.738143
Si Si2 0.312051 0.000000 0.352170
Si Si3 0.482325 0.838790 0.803006
Si Si4 0.874692 0.274141 0.167717
Si Si5 0.821828 0.655264 0.973193
Si Si6 0.053818 0.756717 0.548155
Si Si7 0.659102 0.500000 0.530295
Si Si8 0.862740 0.500000 0.561001
O O1 0.666363 0.631474 0.805378
O O2 0.690181 0.500000 0.626315
O O3 0.796017 0.500000 0.683213
O O4 0.341578 0.130186 0.276278
O O5 0.223600 0.000000 0.407966
O O6 0.336715 0.000000 0.456311
O O7 0.537583 0.771833 0.854877
O O8 0.395338 0.803184 0.865223
O O9 0.513142 0.798279 0.673382
O O10 0.488478 0.000000 0.812770
O O11 0.853281 0.337056 0.071154
O O12 0.802643 0.500000 0.961021
O O13 0.750000 0.750000 0.000000
O O14 0.089064 0.634016 0.463212
O O15 0.000000 0.828215 0.500000
O O16 0.114000 0.863775 0.546569
#
# Coordination Sequence:
#
# PCOD9219484 Si02
#       8
#     4   4   8   8   8   8   4   4
#     4  11  24  36  69  95 134 164 213 281 316 371
#     4  11  20  38  71  89 128 168 217 271 316 377
#     4  11  22  44  72  95 125 172 222 270 316 388
#     4  12  21  44  68 100 125 173 223 270 320 383
#     4  11  27  48  70  98 130 167 216 270 333 390
#     4  12  23  40  61  94 134 174 213 256 321 392
#     4  11  23  40  57  98 134 170 209 265 327 375
#     4  11  21  40  61  96 128 172 221 261 315 377
#
# _framework density 20.595521999999999
#
# number of rings (size 3 to 8) (size 9 to 14) (size 15 to 20)
#    0.000    0.667    5.833    2.000    1.167    6.667 
#    3.000    0.833    0.000    0.000    0.000    0.000 
#    0.000    0.000    0.000    0.000    0.000    0.000 
#
# Total GULP energy -134131.555948 kJ/mol
# GULP energy per Si atom -5588.814831 kJ/mol
# Density = 2.054865 g / cm^3
# Si number density = 20.595522 Si / 1000 Ang^3
#
#
#
# Elastic Constant Matrix: (Units=GPa)
#
#
# Indices 1 2 3 4 5 6 
#
# 1 113.3776 28.0218 44.2571 0.0000 -27.5840 0.0000
# 2 28.0218 99.1167 20.7469 0.0000 -31.5237 0.0000
# 3 44.2571 20.7469 43.7981 0.0000 -19.1258 0.0000
# 4 0.0000 0.0000 0.0000 29.0053 0.0000 3.8335
# 5 -27.5840 -31.5237 -19.1258 0.0000 44.8385 0.0000
# 6 0.0000 0.0000 0.0000 3.8335 0.0000 40.1507
#
#
#
# Elastic Compliance Matrix: (Units=1/GPa)
#
#
# Indices 1 2 3 4 5 6 
#
# 1 0.014984 -0.000392 -0.013580 0.000000 0.003150 0.000000
# 2 -0.000392 0.013263 -0.002359 0.000000 0.008077 0.000000
# 3 -0.013580 -0.002359 0.040922 0.000000 0.007442 0.000000
# 4 0.000000 0.000000 0.000000 0.034917 0.000000 -0.003334
# 5 0.003150 0.008077 0.007442 0.000000 0.033093 0.000000
# 6 0.000000 0.000000 0.000000 -0.003334 0.000000 0.025224
#
#
# Mechanical properties :
#
#
# Convention : Reuss Voigt Hill
#
# Bulk Modulus (GPa) = 27.39284 49.14933 38.27109
# Shear Modulus (GPa) = 24.12719 33.68336 28.90527
#
# Velocity S-wave (km/s) = 3.42640 4.04848 3.75036
# Velocity P-wave (km/s) = 5.38357 6.76532 6.11361
#
# Compressibility (1/GPa) = 0.03650589
#
# Stress axis : x y z
#
# Youngs Moduli (GPa) = 66.73625 75.40023 24.43670
#
# Poissons Ratio (x) = 0.02955 0.33186
# Poissons Ratio (y) = 0.02615 0.05766
# Poissons Ratio (z) = 0.90629 0.17790
#
# Static dielectric constant tensor:
#      x y z
#    x 1.776810 0.000000 -0.018820 
#    y 0.000000 1.681780 0.000000 
#    z -0.018820 0.000000 1.717940 
# 
# From -- ./inp_files/154272.got.cif
#   From: 2010.05.17/outbox.cif.g08.bks.cpg/sg12_78_cif.got.tgz:154272.got - 2010.06.03 13:09:07.
