data_PCOD9219163
_publ_section_title
;
Structure prediction by ZEFSAII (Michael W. Deem and Ramdas Pophale) SiO2 
 PCOD9219163
Probable space group: C 2/M
;
_chemical_formula_sum "Si O2"
_cell_formula_units_Z 64
_cell_length_a 26.251745
_cell_length_b 8.505167
_cell_length_c 22.179561
_cell_angle_alpha 90.000000
_cell_angle_beta 53.219016
_cell_angle_gamma 90.000000
_cell_volume 3966.327803
_symmetry_space_group_name_H-M "C 2/M"
_symmetry_group_IT_number 12
_symmetry_cell_setting 'monoclinic'
loop_
_space_group_symop_operation_xyz
x,y,z
-x,y,-z
-x,-y,-z
x,-y,z
1/2+x,1/2+y,z
1/2-x,1/2+y,-z
1/2-x,1/2-y,-z
1/2+x,1/2-y,z
loop_
_atom_site_type_symbol
_atom_site_label
_atom_site_fract_x
_atom_site_fract_y
_atom_site_fract_z
Si Si1 0.602799 0.689774 0.417492
Si Si2 0.142231 0.309693 0.835458
Si Si3 0.437734 0.183306 0.000573
Si Si4 0.522878 0.192148 0.836932
Si Si5 0.509212 0.310271 0.590841
Si Si6 0.245092 0.687742 0.321010
Si Si7 0.559815 0.811766 0.678908
Si Si8 0.203161 0.811315 0.584979
O O1 0.606347 0.500000 0.414905
O O2 0.556387 0.736728 0.395418
O O3 0.566158 0.736606 0.504877
O O4 0.672866 0.757844 0.364889
O O5 0.142216 0.500000 0.837236
O O6 0.118497 0.250472 0.917856
O O7 0.209103 0.251440 0.763684
O O8 0.087741 0.262417 0.825765
O O9 0.422037 0.000000 0.000752
O O10 0.500000 0.184897 0.000000
O O11 0.463434 0.250535 0.919312
O O12 0.527890 0.242218 0.764347
O O13 0.520751 0.000000 0.839922
O O14 0.509872 0.500000 0.593679
O O15 0.521411 0.241609 0.647617
O O16 0.247719 0.500000 0.318938
O O17 0.272204 0.743301 0.366742
O O18 0.631484 0.746511 0.625427
O O19 0.563492 0.000000 0.677696
O O20 0.250000 0.750000 0.500000
O O21 0.203777 0.000000 0.583571
#
# Coordination Sequence:
#
# PCOD9219163 Si02
#       8
#     8   8   8   8   8   8   8   8
#     4   9  19  36  55  69  86 119 162 201 239 280
#     4   9  15  27  47  67  91 126 161 191 224 270
#     4   7  11  21  41  66  89 118 158 195 221 255
#     4   8  14  25  42  68  97 123 156 192 223 268
#     4   9  19  36  54  71  90 117 157 204 242 277
#     4  11  22  32  45  69  99 125 153 194 241 280
#     4  11  20  30  48  73  99 127 155 188 234 282
#     4  11  23  35  46  64  94 130 162 192 230 279
#
# _framework density 16.135833000000002
#
# number of rings (size 3 to 8) (size 9 to 14) (size 15 to 20)
#    0.000    2.625    1.250    4.125    0.000    4.500 
#    0.000    1.250    0.000    4.875    0.000    0.875 
#    0.000    0.000    0.000    0.000    0.000    0.000 
#
# Total GULP energy -178327.379715 kJ/mol
# GULP energy per Si atom -5572.730616 kJ/mol
# Density = 1.609911 g / cm^3
# Si number density = 16.135833 Si / 1000 Ang^3
#
#
#
# Elastic Constant Matrix: (Units=GPa)
#
#
# Indices 1 2 3 4 5 6 
#
# 1 69.8564 14.4972 51.8094 0.0007 12.2660 -0.0006
# 2 14.4972 15.9932 18.8534 0.0022 3.1691 -0.0010
# 3 51.8094 18.8534 127.2664 0.0012 19.2771 -0.0011
# 4 0.0007 0.0022 0.0012 11.8752 -0.0005 2.1147
# 5 12.2660 3.1691 19.2771 -0.0005 20.5780 0.0004
# 6 -0.0006 -0.0010 -0.0011 2.1147 0.0004 21.6966
#
#
#
# Elastic Compliance Matrix: (Units=1/GPa)
#
#
# Indices 1 2 3 4 5 6 
#
# 1 0.022618 -0.011560 -0.006669 0.000001 -0.005454 0.000000
# 2 -0.011560 0.081697 -0.007615 -0.000014 0.001443 0.000004
# 3 -0.006669 -0.007615 0.012727 0.000000 -0.006774 0.000000
# 4 0.000001 -0.000014 0.000000 0.085696 0.000004 -0.008352
# 5 -0.005454 0.001443 -0.006774 0.000004 0.057970 -0.000002
# 6 0.000000 0.000004 0.000000 -0.008352 -0.000002 0.046904
#
#
# Mechanical properties :
#
#
# Convention : Reuss Voigt Hill
#
# Bulk Modulus (GPa) = 15.30152 42.60401 28.95277
# Shear Modulus (GPa) = 13.12046 19.36037 16.24042
#
# Velocity S-wave (km/s) = 2.85463 3.46762 3.17595
# Velocity P-wave (km/s) = 4.51317 6.51868 5.60633
#
# Compressibility (1/GPa) = 0.06535299
#
# Stress axis : x y z
#
# Youngs Moduli (GPa) = 44.21280 12.24042 78.57545
#
# Poissons Ratio (x) = 0.14150 0.52402
# Poissons Ratio (y) = 0.51109 0.59837
# Poissons Ratio (z) = 0.29485 0.09321
#
# Static dielectric constant tensor:
#      x y z
#    x 1.515930 0.000000 0.018670 
#    y 0.000000 1.553010 0.000000 
#    z 0.018670 0.000000 1.565150 
# 
# From -- ./inp_files/348525.got.cif
#   From: 2010.05.17/outbox.cif.g08.bks.cpg/sg12_175_cif.got.tgz:348525.got - 2010.06.03 13:09:07.
