data_PCOD9219878
_publ_section_title
;
Structure prediction by ZEFSAII (Michael W. Deem and Ramdas Pophale) SiO2 
 PCOD9219878
Probable space group: C 2/M
;
_chemical_formula_sum "Si O2"
_cell_formula_units_Z 56
_cell_length_a 14.802084
_cell_length_b 28.570589
_cell_length_c 10.416346
_cell_angle_alpha 90.000000
_cell_angle_beta 135.202274
_cell_angle_gamma 90.000000
_cell_volume 3103.872134
_symmetry_space_group_name_H-M "C 2/M"
_symmetry_group_IT_number 12
_symmetry_cell_setting 'monoclinic'
loop_
_space_group_symop_operation_xyz
x,y,z
-x,y,-z
-x,-y,-z
x,-y,z
1/2+x,1/2+y,z
1/2-x,1/2+y,-z
1/2-x,1/2-y,-z
1/2+x,1/2-y,z
loop_
_atom_site_type_symbol
_atom_site_label
_atom_site_fract_x
_atom_site_fract_y
_atom_site_fract_z
Si Si1 0.376663 0.949139 0.690702
Si Si2 0.997910 0.190095 0.291524
Si Si3 0.755169 0.645822 0.529053
Si Si4 0.871029 0.252201 0.952666
Si Si5 0.170543 0.447987 0.049185
Si Si6 0.744300 0.346289 0.825002
Si Si7 0.623405 0.780950 0.541380
O O1 0.305368 0.906173 0.554247
O O2 0.345522 0.949056 0.812030
O O3 0.339912 0.000000 0.601787
O O4 0.530319 0.944633 0.844017
O O5 0.901523 0.167679 0.295506
O O6 0.104946 0.154220 0.349932
O O7 0.077934 0.233121 0.429430
O O8 0.908464 0.213910 0.095197
O O9 0.772055 0.652922 0.699978
O O10 0.834739 0.682528 0.525110
O O11 0.832003 0.303640 0.965384
O O12 0.748316 0.232717 0.751022
O O13 0.000000 0.258041 0.000000
O O14 0.224695 0.500000 0.069041
O O15 0.235613 0.397586 0.093767
O O16 0.500000 0.796981 0.500000
#
# Coordination Sequence:
#
# PCOD9219878 Si02
#       7
#     8   8   8   8   8   8   8
#     4   8  16  31  53  80 107 141 185 232 283 335
#     4  12  23  38  54  83 117 153 191 236 270 344
#     4  11  21  36  57  79 114 151 184 231 286 330
#     4  12  24  38  57  80 116 158 193 231 278 333
#     4   8  16  30  50  79 112 142 183 230 276 342
#     4  11  22  34  55  83 115 152 185 223 292 333
#     4  12  24  40  55  81 117 152 195 237 275 330
#
# _framework density 18.041981
#
# number of rings (size 3 to 8) (size 9 to 14) (size 15 to 20)
#    0.000    1.429    4.286    3.000    6.000    0.000 
#    0.000    0.714    0.000    3.857    0.000    3.000 
#    0.000    0.000    0.000    0.000    0.000    0.000 
#
# Total GULP energy -156156.884677 kJ/mol
# GULP energy per Si atom -5577.031596 kJ/mol
# Density = 1.800092 g / cm^3
# Si number density = 18.041981 Si / 1000 Ang^3
#
#
#
# Elastic Constant Matrix: (Units=GPa)
#
#
# Indices 1 2 3 4 5 6 
#
# 1 77.8687 49.2146 28.3386 0.0000 24.8638 0.0000
# 2 49.2146 171.8852 58.3526 0.0000 14.8701 0.0000
# 3 28.3386 58.3526 92.4357 0.0000 15.4872 0.0000
# 4 0.0000 0.0000 0.0000 23.3716 0.0000 -0.7095
# 5 24.8638 14.8701 15.4872 0.0000 18.4854 0.0000
# 6 0.0000 0.0000 0.0000 -0.7095 0.0000 11.7502
#
#
#
# Elastic Compliance Matrix: (Units=1/GPa)
#
#
# Indices 1 2 3 4 5 6 
#
# 1 0.025590 -0.004772 0.000338 0.000000 -0.030865 0.000000
# 2 -0.004772 0.008385 -0.004392 0.000000 0.003353 0.000000
# 3 0.000338 -0.004392 0.015090 0.000000 -0.009564 0.000000
# 4 0.000000 0.000000 0.000000 0.042866 0.000000 0.002588
# 5 -0.030865 0.003353 -0.009564 0.000000 0.100928 0.000000
# 6 0.000000 0.000000 0.000000 0.002588 0.000000 0.085261
#
#
# Mechanical properties :
#
#
# Convention : Reuss Voigt Hill
#
# Bulk Modulus (GPa) = 31.83319 68.22234 50.02776
# Shear Modulus (GPa) = 16.32696 24.47369 20.40033
#
# Velocity S-wave (km/s) = 3.01149 3.68705 3.36626
# Velocity P-wave (km/s) = 5.45659 7.48471 6.54963
#
# Compressibility (1/GPa) = 0.03141375
#
# Stress axis : x y z
#
# Youngs Moduli (GPa) = 39.07747 119.25907 66.27014
#
# Poissons Ratio (x) = 0.56906 -0.02241
# Poissons Ratio (y) = 0.18646 0.29107
# Poissons Ratio (z) = -0.01322 0.52381
#
# Static dielectric constant tensor:
#      x y z
#    x 1.657580 0.000000 -0.010770 
#    y 0.000000 1.652410 0.000000 
#    z -0.010770 0.000000 1.631400 
# 
# From -- ./inp_files/149486.got.cif
#   From: 2010.05.17/outbox.cif.g08.bks.cpg/sg12_75_cif.got.tgz:149486.got - 2010.06.03 13:09:07.
