data_PCOD9219901
_publ_section_title
;
Structure prediction by ZEFSAII (Michael W. Deem and Ramdas Pophale) SiO2 
 PCOD9219901
Probable space group: C 2/M
;
_chemical_formula_sum "Si O2"
_cell_formula_units_Z 64
_cell_length_a 29.990333
_cell_length_b 15.270415
_cell_length_c 20.879718
_cell_angle_alpha 90.000000
_cell_angle_beta 21.085195
_cell_angle_gamma 90.000000
_cell_volume 3440.047744
_symmetry_space_group_name_H-M "C 2/M"
_symmetry_group_IT_number 12
_symmetry_cell_setting 'monoclinic'
loop_
_space_group_symop_operation_xyz
x,y,z
-x,y,-z
-x,-y,-z
x,-y,z
1/2+x,1/2+y,z
1/2-x,1/2+y,-z
1/2-x,1/2-y,-z
1/2+x,1/2-y,z
loop_
_atom_site_type_symbol
_atom_site_label
_atom_site_fract_x
_atom_site_fract_y
_atom_site_fract_z
Si Si1 0.281331 0.817842 0.901708
Si Si2 0.010704 0.781119 0.912564
Si Si3 0.361622 0.397796 0.354052
Si Si4 0.320799 0.398070 0.623444
Si Si5 0.755968 0.732273 0.788209
Si Si6 0.964184 0.400327 0.472505
Si Si7 0.478787 0.602301 0.740615
Si Si8 0.865348 0.597531 0.248686
O O1 0.273964 0.776867 0.840264
O O2 0.415784 0.863002 0.725395
O O3 0.250000 0.750000 0.000000
O O4 0.166690 0.884810 0.060365
O O5 0.117281 0.835623 0.734152
O O6 0.042590 0.678117 0.870947
O O7 0.000000 0.810505 0.000000
O O8 0.881925 0.793350 0.048325
O O9 0.391064 0.500000 0.299770
O O10 0.453904 0.362875 0.286155
O O11 0.227243 0.396418 0.566729
O O12 0.329173 0.500000 0.632473
O O13 0.282985 0.330623 0.728593
O O14 0.450918 0.366069 0.417295
O O15 0.221256 0.393980 0.698479
O O16 0.850049 0.666740 0.625451
O O17 0.934545 0.500000 0.492025
O O18 0.000000 0.404452 0.500000
O O19 0.510406 0.500000 0.698953
O O20 0.921868 0.500000 0.172218
#
# Coordination Sequence:
#
# PCOD9219901 Si02
#       8
#     8   8   8   8   8   8   8   8
#     4  11  21  36  59  86 113 146 189 240 285 340
#     4  12  22  34  56  87 117 150 189 234 285 338
#     4   9  19  36  55  79 112 150 189 233 278 332
#     4   9  18  35  57  82 114 153 191 232 283 340
#     4  11  22  37  55  84 119 148 189 236 286 338
#     4   9  20  38  60  82 110 151 193 233 281 339
#     4   9  17  33  59  82 103 141 192 234 275 334
#     4   9  19  36  58  81 110 153 200 232 271 342
#
# _framework density 18.604393000000002
#
# number of rings (size 3 to 8) (size 9 to 14) (size 15 to 20)
#    0.000    2.125    2.500    3.000    0.000    2.000 
#    0.000    1.250    0.000    6.375    0.000    0.000 
#    0.000    0.000    0.000    0.000    0.000    0.000 
#
# Total GULP energy -178446.634484 kJ/mol
# GULP energy per Si atom -5576.457328 kJ/mol
# Density = 1.856205 g / cm^3
# Si number density = 18.604393 Si / 1000 Ang^3
#
#
#
# Elastic Constant Matrix: (Units=GPa)
#
#
# Indices 1 2 3 4 5 6 
#
# 1 49.8271 25.4047 18.7099 0.0000 16.0147 0.0000
# 2 25.4047 76.5762 18.3080 0.0001 8.9548 0.0000
# 3 18.7099 18.3080 68.8762 0.0000 7.1057 0.0000
# 4 0.0000 0.0001 0.0000 29.1489 0.0000 -3.0092
# 5 16.0147 8.9548 7.1057 0.0000 27.3980 0.0000
# 6 0.0000 0.0000 0.0000 -3.0092 0.0000 20.3221
#
#
#
# Elastic Compliance Matrix: (Units=1/GPa)
#
#
# Indices 1 2 3 4 5 6 
#
# 1 0.030019 -0.007178 -0.004807 0.000000 -0.013954 0.000000
# 2 -0.007178 0.016035 -0.002265 0.000000 -0.000458 0.000000
# 3 -0.004807 -0.002265 0.016502 0.000000 -0.000730 0.000000
# 4 0.000000 0.000000 0.000000 0.034839 0.000000 0.005159
# 5 -0.013954 -0.000458 -0.000730 0.000000 0.044994 0.000000
# 6 0.000000 0.000000 0.000000 0.005159 0.000000 0.049971
#
#
# Mechanical properties :
#
#
# Convention : Reuss Voigt Hill
#
# Bulk Modulus (GPa) = 29.36343 35.56940 32.46642
# Shear Modulus (GPa) = 21.53189 24.23093 22.88141
#
# Velocity S-wave (km/s) = 3.40568 3.61284 3.51079
# Velocity P-wave (km/s) = 5.59305 6.04680 5.82435
#
# Compressibility (1/GPa) = 0.03405597
#
# Stress axis : x y z
#
# Youngs Moduli (GPa) = 33.31216 62.36218 60.59868
#
# Poissons Ratio (x) = 0.44764 0.29130
# Poissons Ratio (y) = 0.23911 0.13727
# Poissons Ratio (z) = 0.16013 0.14127
#
# Static dielectric constant tensor:
#      x y z
#    x 1.636300 0.000000 0.002790 
#    y 0.000000 1.648100 0.000000 
#    z 0.002790 0.000000 1.667220 
# 
# From -- ./inp_files/224791.got.cif
#   From: 2010.05.17/outbox.cif.g08.bks.cpg/sg12_113_cif.got.tgz:224791.got - 2010.06.03 13:09:07.
