data_PCOD9219793
_publ_section_title
;
Structure prediction by ZEFSAII (Michael W. Deem and Ramdas Pophale) SiO2 
 PCOD9219793
Probable space group: C 2/M
;
_chemical_formula_sum "Si O2"
_cell_formula_units_Z 56
_cell_length_a 23.382841
_cell_length_b 7.512901
_cell_length_c 14.897346
_cell_angle_alpha 90.000000
_cell_angle_beta 110.944444
_cell_angle_gamma 90.000000
_cell_volume 2444.145178
_symmetry_space_group_name_H-M "C 2/M"
_symmetry_group_IT_number 12
_symmetry_cell_setting 'monoclinic'
loop_
_space_group_symop_operation_xyz
x,y,z
-x,y,-z
-x,-y,-z
x,-y,z
1/2+x,1/2+y,z
1/2-x,1/2+y,-z
1/2-x,1/2-y,-z
1/2+x,1/2-y,z
loop_
_atom_site_type_symbol
_atom_site_label
_atom_site_fract_x
_atom_site_fract_y
_atom_site_fract_z
Si Si1 0.871617 0.716829 0.833879
Si Si2 0.765294 0.205429 0.264906
Si Si3 0.187576 0.696633 0.519202
Si Si4 0.924854 0.717548 0.050323
Si Si5 0.953156 0.281957 0.552312
Si Si6 0.807354 0.711195 0.096445
Si Si7 0.969586 0.283822 0.759105
O O1 0.870549 0.500000 0.838388
O O2 0.801961 0.776974 0.797756
O O3 0.903060 0.767818 0.758540
O O4 0.911490 0.776320 0.941568
O O5 0.793509 0.302373 0.365625
O O6 0.801827 0.211754 0.192560
O O7 0.759128 0.000000 0.290144
O O8 0.175584 0.500000 0.475862
O O9 0.250000 0.750000 0.500000
O O10 0.118527 0.780435 0.483513
O O11 0.928146 0.500000 0.048469
O O12 0.866710 0.771175 0.076380
O O13 0.983247 0.777990 0.138767
O O14 0.951188 0.500000 0.544665
O O15 0.981092 0.229117 0.664302
O O16 0.000000 0.223497 0.500000
O O17 0.811579 0.500000 0.109901
O O18 0.750000 0.750000 0.000000
O O19 0.972220 0.500000 0.760465
#
# Coordination Sequence:
#
# PCOD9219793 Si02
#       7
#     8   8   8   8   8   8   8
#     4   9  16  29  48  77 111 142 180 231 285 334
#     4  11  22  37  58  85 118 154 193 239 290 351
#     4  11  23  40  63  91 120 155 199 252 307 361
#     4   9  17  28  47  77 110 141 180 230 283 337
#     4   9  19  34  53  82 117 151 195 251 299 344
#     4  11  21  35  54  82 116 154 193 237 289 347
#     4   9  16  27  48  75 107 142 178 233 292 332
#
# _framework density 22.911895999999999
#
# number of rings (size 3 to 8) (size 9 to 14) (size 15 to 20)
#    0.000    2.143    1.429    2.571    2.000    4.000 
#    0.000    0.000    0.000    1.714    0.000    4.000 
#    0.000    0.000    0.000    0.000    0.000    0.000 
#
# Total GULP energy -156238.850022 kJ/mol
# GULP energy per Si atom -5579.958929 kJ/mol
# Density = 2.285975 g / cm^3
# Si number density = 22.911896 Si / 1000 Ang^3
#
#
#
# Elastic Constant Matrix: (Units=GPa)
#
#
# Indices 1 2 3 4 5 6 
#
# 1 141.8251 3.2902 44.3202 0.0000 -14.6528 0.0000
# 2 3.2902 57.5635 -9.1650 0.0000 2.0670 0.0000
# 3 44.3202 -9.1650 111.9141 0.0000 -11.8295 0.0000
# 4 0.0000 0.0000 0.0000 9.5497 0.0000 -3.0184
# 5 -14.6528 2.0670 -11.8295 0.0000 39.7975 0.0000
# 6 0.0000 0.0000 0.0000 -3.0184 0.0000 13.4233
#
#
#
# Elastic Compliance Matrix: (Units=1/GPa)
#
#
# Indices 1 2 3 4 5 6 
#
# 1 0.008279 -0.001050 -0.003135 0.000000 0.002171 0.000000
# 2 -0.001050 0.017745 0.001787 0.000000 -0.000777 0.000000
# 3 -0.003135 0.001787 0.010522 0.000000 0.001880 0.000000
# 4 0.000000 0.000000 0.000000 0.112727 0.000000 0.025348
# 5 0.002171 -0.000777 0.001880 0.000000 0.026526 0.000000
# 6 0.000000 0.000000 0.000000 0.025348 0.000000 0.080197
#
#
# Mechanical properties :
#
#
# Convention : Reuss Voigt Hill
#
# Bulk Modulus (GPa) = 31.49736 43.13259 37.31498
# Shear Modulus (GPa) = 18.42457 30.74460 24.58458
#
# Velocity S-wave (km/s) = 2.83883 3.66712 3.27923
# Velocity P-wave (km/s) = 4.95200 6.06602 5.53710
#
# Compressibility (1/GPa) = 0.03174869
#
# Stress axis : x y z
#
# Youngs Moduli (GPa) = 120.78183 56.35519 95.03726
#
# Poissons Ratio (x) = 0.05919 0.29798
# Poissons Ratio (y) = 0.12687 -0.16983
# Poissons Ratio (z) = 0.37869 -0.10071
#
# Static dielectric constant tensor:
#      x y z
#    x 1.851680 0.000000 0.022030 
#    y 0.000000 1.931870 0.000000 
#    z 0.022030 0.000000 1.799970 
# 
# From -- ./inp_files/239037.got.cif
#   From: 2010.05.17/outbox.cif.g08.bks.cpg/sg12_120_cif.got.tgz:239037.got - 2010.06.03 13:09:07.
