data_PCOD9219162
_publ_section_title
;
Structure prediction by ZEFSAII (Michael W. Deem and Ramdas Pophale) SiO2 
 PCOD9219162
Probable space group: C 2/M
;
_chemical_formula_sum "Si O2"
_cell_formula_units_Z 40
_cell_length_a 13.555732
_cell_length_b 23.354444
_cell_length_c 14.287187
_cell_angle_alpha 90.000000
_cell_angle_beta 30.560517
_cell_angle_gamma 90.000000
_cell_volume 2299.777960
_symmetry_space_group_name_H-M "C 2/M"
_symmetry_group_IT_number 12
_symmetry_cell_setting 'monoclinic'
loop_
_space_group_symop_operation_xyz
x,y,z
-x,y,-z
-x,-y,-z
x,-y,z
1/2+x,1/2+y,z
1/2-x,1/2+y,-z
1/2-x,1/2-y,-z
1/2+x,1/2-y,z
loop_
_atom_site_type_symbol
_atom_site_label
_atom_site_fract_x
_atom_site_fract_y
_atom_site_fract_z
Si Si1 0.255544 0.217145 0.896094
Si Si2 0.000000 0.695582 0.000000
Si Si3 0.305696 0.820452 0.507057
Si Si4 0.787888 0.436254 0.628506
Si Si5 0.500000 0.625248 0.000000
Si Si6 0.705410 0.293452 0.384415
O O1 0.177171 0.266233 0.891983
O O2 0.471838 0.196155 0.697404
O O3 0.114877 0.164435 0.982394
O O4 0.250000 0.250000 0.000000
O O5 0.884193 0.673001 0.186648
O O6 0.287618 0.885143 0.554443
O O7 0.245870 0.774541 0.636980
O O8 0.189284 0.812905 0.505820
O O9 0.738215 0.500000 0.634584
O O10 0.000000 0.437940 0.500000
O O11 0.646095 0.414895 0.825199
O O12 0.500000 0.299784 0.500000
#
# Coordination Sequence:
#
# PCOD9219162 Si02
#       6
#     8   4   8   8   4   8
#     4  11  20  32  52  83 117 149 176 221 282 336
#     4  11  20  30  47  74 112 145 170 213 258 344
#     4  11  21  36  54  80 114 148 183 230 277 337
#     4  11  23  40  58  81 111 150 196 236 275 326
#     4  11  23  36  59  82 118 151 187 227 278 342
#     4  11  22  33  53  80 113 142 181 220 287 339
#
# _framework density 17.392984999999999
#
# number of rings (size 3 to 8) (size 9 to 14) (size 15 to 20)
#    0.000    1.000    6.000    3.300    2.800    0.000 
#    0.000    0.000    0.000    0.600    0.000    0.700 
#    0.000    0.000    0.000    0.000    0.000    0.000 
#
# Total GULP energy -111393.292360 kJ/mol
# GULP energy per Si atom -5569.664618 kJ/mol
# Density = 1.735340 g / cm^3
# Si number density = 17.392985 Si / 1000 Ang^3
#
#
#
# Elastic Constant Matrix: (Units=GPa)
#
#
# Indices 1 2 3 4 5 6 
#
# 1 107.9678 30.6388 31.2251 -0.0494 -1.2489 0.0219
# 2 30.6388 104.0259 33.2632 -0.0406 5.6283 0.0236
# 3 31.2251 33.2632 123.0598 -0.0073 -5.4446 0.0326
# 4 -0.0494 -0.0406 -0.0073 56.6087 0.0135 -4.2179
# 5 -1.2489 5.6283 -5.4446 0.0135 24.5365 -0.0169
# 6 0.0219 0.0236 0.0326 -4.2179 -0.0169 20.0727
#
#
#
# Elastic Compliance Matrix: (Units=1/GPa)
#
#
# Indices 1 2 3 4 5 6 
#
# 1 0.010553 -0.002516 -0.001968 0.000007 0.000678 -0.000003
# 2 -0.002516 0.011357 -0.002578 0.000006 -0.003305 -0.000008
# 3 -0.001968 -0.002578 0.009437 -0.000004 0.002585 -0.000009
# 4 0.000007 0.000006 -0.000004 0.017946 -0.000009 0.003771
# 5 0.000678 -0.003305 0.002585 -0.000009 0.042122 0.000033
# 6 -0.000003 -0.000008 -0.000009 0.003771 0.000033 0.050611
#
#
# Mechanical properties :
#
#
# Convention : Reuss Voigt Hill
#
# Bulk Modulus (GPa) = 58.05759 58.36754 58.21257
# Shear Modulus (GPa) = 30.88532 36.23867 33.56199
#
# Velocity S-wave (km/s) = 4.21852 4.56951 4.39752
# Velocity P-wave (km/s) = 7.56176 7.84038 7.70233
#
# Compressibility (1/GPa) = 0.01722428
#
# Stress axis : x y z
#
# Youngs Moduli (GPa) = 94.76151 88.05146 105.97088
#
# Poissons Ratio (x) = 0.22150 0.20852
# Poissons Ratio (y) = 0.23838 0.27317
# Poissons Ratio (z) = 0.18646 0.22697
#
# Static dielectric constant tensor:
#      x y z
#    x 1.655930 -0.000020 0.065480 
#    y -0.000020 1.593300 0.000020 
#    z 0.065480 0.000020 1.719110 
# 
# From -- ./inp_files/135155.got.cif
#   From: 2010.05.17/outbox.cif.g08.bks.cpg/sg12_68_cif.got.tgz:135155.got - 2010.06.03 13:09:07.
