data_PCOD9219023
_publ_section_title
;
Structure prediction by ZEFSAII (Michael W. Deem and Ramdas Pophale) SiO2 
 PCOD9219023
Probable space group: C 2/M
;
_chemical_formula_sum "Si O2"
_cell_formula_units_Z 56
_cell_length_a 17.946048
_cell_length_b 20.233108
_cell_length_c 8.280077
_cell_angle_alpha 90.000000
_cell_angle_beta 63.145677
_cell_angle_gamma 90.000000
_cell_volume 2682.301188
_symmetry_space_group_name_H-M "C 2/M"
_symmetry_group_IT_number 12
_symmetry_cell_setting 'monoclinic'
loop_
_space_group_symop_operation_xyz
x,y,z
-x,y,-z
-x,-y,-z
x,-y,z
1/2+x,1/2+y,z
1/2-x,1/2+y,-z
1/2-x,1/2-y,-z
1/2+x,1/2-y,z
loop_
_atom_site_type_symbol
_atom_site_label
_atom_site_fract_x
_atom_site_fract_y
_atom_site_fract_z
Si Si1 0.066910 0.191991 0.155598
Si Si2 0.171458 0.573460 0.387046
Si Si3 0.121440 0.285586 0.362977
Si Si4 0.299332 0.427136 0.957631
Si Si5 0.300992 0.745359 0.192294
Si Si6 0.881489 0.825088 0.376290
Si Si7 0.745812 0.108237 0.663788
O O1 0.061445 0.242831 0.309793
O O2 0.133001 0.132148 0.112296
O O3 0.974167 0.164471 0.220681
O O4 0.110842 0.238482 0.981348
O O5 0.133497 0.500000 0.407919
O O6 0.113818 0.637138 0.403901
O O7 0.204088 0.578622 0.542494
O O8 0.242683 0.576555 0.175408
O O9 0.213517 0.272288 0.192988
O O10 0.122487 0.244382 0.526410
O O11 0.339601 0.500000 0.919772
O O12 0.244997 0.422636 0.844443
O O13 0.311181 0.686855 0.311718
O O14 0.289951 0.818064 0.273328
O O15 0.844557 0.881929 0.525233
#
# Coordination Sequence:
#
# PCOD9219023 Si02
#       7
#     8   8   8   8   8   8   8
#     4  12  22  35  58  89 123 154 196 256 297 351
#     4  11  22  38  61  90 119 155 202 252 298 354
#     4  11  19  36  59  83 113 154 198 249 293 347
#     4  11  23  37  57  87 124 163 201 238 297 363
#     4  11  19  35  61  85 113 153 201 251 299 343
#     4  11  21  34  58  87 120 149 199 249 301 347
#     4  11  20  39  61  86 117 159 202 249 294 354
#
# _framework density 20.877596
#
# number of rings (size 3 to 8) (size 9 to 14) (size 15 to 20)
#    0.000    0.857    7.143    3.429    0.000    0.000 
#    0.000    2.143    0.000    4.286    0.000    1.000 
#    0.000    0.000    0.000    0.000    0.000    0.000 
#
# Total GULP energy -155875.312583 kJ/mol
# GULP energy per Si atom -5566.975449 kJ/mol
# Density = 2.083008 g / cm^3
# Si number density = 20.877596 Si / 1000 Ang^3
#
#
#
# Elastic Constant Matrix: (Units=GPa)
#
#
# Indices 1 2 3 4 5 6 
#
# 1 44.3893 2.5204 6.6786 0.0000 4.3708 0.0000
# 2 2.5204 108.6683 6.2481 0.0000 19.5561 0.0000
# 3 6.6786 6.2481 83.4861 0.0000 8.6709 0.0000
# 4 0.0000 0.0000 0.0000 5.4210 0.0000 6.6853
# 5 4.3708 19.5561 8.6709 0.0000 23.7705 0.0000
# 6 0.0000 0.0000 0.0000 6.6853 0.0000 10.0485
#
#
#
# Elastic Compliance Matrix: (Units=1/GPa)
#
#
# Indices 1 2 3 4 5 6 
#
# 1 0.023120 0.000255 -0.001461 0.000000 -0.003928 0.000000
# 2 0.000255 0.010805 0.000103 0.000000 -0.008974 0.000000
# 3 -0.001461 0.000103 0.012543 0.000000 -0.004392 0.000000
# 4 0.000000 0.000000 0.000000 1.027488 0.000000 -0.683595
# 5 -0.003928 -0.008974 -0.004392 0.000000 0.051776 0.000000
# 6 0.000000 0.000000 0.000000 -0.683595 0.000000 0.554319
#
#
# Mechanical properties :
#
#
# Convention : Reuss Voigt Hill
#
# Bulk Modulus (GPa) = 22.59237 29.71532 26.15385
# Shear Modulus (GPa) = 2.94635 22.58778 12.76707
#
# Velocity S-wave (km/s) = 1.18925 3.29282 2.47558
# Velocity P-wave (km/s) = 3.56800 5.35918 4.55255
#
# Compressibility (1/GPa) = 0.04426274
#
# Stress axis : x y z
#
# Youngs Moduli (GPa) = 43.25260 92.54567 79.72392
#
# Poissons Ratio (x) = -0.02356 0.11645
# Poissons Ratio (y) = -0.01101 -0.00821
# Poissons Ratio (z) = 0.06318 -0.00953
#
# Static dielectric constant tensor:
#      x y z
#    x 1.806110 0.000000 0.072880 
#    y 0.000000 1.759660 0.000000 
#    z 0.072880 0.000000 1.870500 
# 
# From -- ./inp_files/77387.got.cif
#   From: 2010.05.17/outbox.cif.g08.bks.cpg/sg12_39_cif.got.tgz:77387.got - 2010.06.03 13:09:07.
