data_PCOD9219781
_publ_section_title
;
Structure prediction by ZEFSAII (Michael W. Deem and Ramdas Pophale) SiO2 
 PCOD9219781
Probable space group: C 2/M
;
_chemical_formula_sum "Si O2"
_cell_formula_units_Z 56
_cell_length_a 24.230308
_cell_length_b 26.785998
_cell_length_c 12.390672
_cell_angle_alpha 90.000000
_cell_angle_beta 24.426330
_cell_angle_gamma 90.000000
_cell_volume 3325.532359
_symmetry_space_group_name_H-M "C 2/M"
_symmetry_group_IT_number 12
_symmetry_cell_setting 'monoclinic'
loop_
_space_group_symop_operation_xyz
x,y,z
-x,y,-z
-x,-y,-z
x,-y,z
1/2+x,1/2+y,z
1/2-x,1/2+y,-z
1/2-x,1/2-y,-z
1/2+x,1/2-y,z
loop_
_atom_site_type_symbol
_atom_site_label
_atom_site_fract_x
_atom_site_fract_y
_atom_site_fract_z
Si Si1 0.151044 0.687233 0.449149
Si Si2 0.536830 0.853293 0.047905
Si Si3 0.783745 0.138899 0.019121
Si Si4 0.858938 0.755210 0.210420
Si Si5 0.494928 0.443465 0.639736
Si Si6 0.228902 0.132289 0.211938
Si Si7 0.481294 0.720204 0.410328
O O1 0.095887 0.656084 0.647213
O O2 0.288263 0.712966 0.243346
O O3 0.044809 0.731643 0.615698
O O4 0.174001 0.654767 0.301231
O O5 0.601814 0.799918 0.899179
O O6 0.500000 0.878815 0.000000
O O7 0.643321 0.874881 0.941478
O O8 0.740470 0.132182 0.971273
O O9 0.865571 0.088769 0.902467
O O10 0.892339 0.184051 0.830540
O O11 0.750000 0.750000 0.500000
O O12 0.000000 0.777627 0.000000
O O13 0.500000 0.445253 0.500000
O O14 0.495642 0.500000 0.679344
O O15 0.624515 0.410396 0.432507
O O16 0.148358 0.184484 0.370316
O O17 0.500000 0.738148 0.500000
#
# Coordination Sequence:
#
# PCOD9219781 Si02
#       7
#     8   8   8   8   8   8   8
#     4  12  21  31  48  69 108 143 174 217 260 301
#     4  11  22  33  46  68  99 143 184 215 251 306
#     4   9  20  31  47  81 103 131 170 215 267 312
#     4  11  21  35  48  67 100 145 196 227 245 292
#     4   8  15  33  59  81 101 128 167 220 274 319
#     4   9  18  33  50  73 105 127 172 218 251 320
#     4   9  19  29  44  69 102 140 170 202 251 307
#
# _framework density 16.839410000000001
#
# number of rings (size 3 to 8) (size 9 to 14) (size 15 to 20)
#    0.000    2.143    4.286    2.571    2.000    1.143 
#    0.000    0.000    0.000    1.286    0.000    5.000 
#    0.000    0.000    0.000    0.000    0.000    0.000 
#
# Total GULP energy -155983.138551 kJ/mol
# GULP energy per Si atom -5570.826377 kJ/mol
# Density = 1.680108 g / cm^3
# Si number density = 16.839410 Si / 1000 Ang^3
#
#
#
# Elastic Constant Matrix: (Units=GPa)
#
#
# Indices 1 2 3 4 5 6 
#
# 1 99.0003 23.0916 30.9870 0.0019 -11.4187 -0.0012
# 2 23.0916 58.2318 14.2412 0.0013 3.7348 0.0001
# 3 30.9870 14.2412 57.5034 0.0088 5.8186 -0.0023
# 4 0.0019 0.0013 0.0088 5.8453 -0.0034 -1.7017
# 5 -11.4187 3.7348 5.8186 -0.0034 35.4956 0.0018
# 6 -0.0012 0.0001 -0.0023 -1.7017 0.0018 7.6866
#
#
#
# Elastic Compliance Matrix: (Units=1/GPa)
#
#
# Indices 1 2 3 4 5 6 
#
# 1 0.014021 -0.004208 -0.007133 0.000011 0.006123 0.000001
# 2 -0.004208 0.019594 -0.002277 -0.000002 -0.003042 -0.000001
# 3 -0.007133 -0.002277 0.022377 -0.000035 -0.005723 -0.000001
# 4 0.000011 -0.000002 -0.000035 0.182863 0.000025 0.040484
# 5 0.006123 -0.003042 -0.005723 0.000025 0.031400 -0.000002
# 6 0.000001 -0.000001 -0.000001 0.040484 -0.000002 0.139060
#
#
# Mechanical properties :
#
#
# Convention : Reuss Voigt Hill
#
# Bulk Modulus (GPa) = 34.77611 39.04168 36.90890
# Shear Modulus (GPa) = 11.20734 19.56656 15.38695
#
# Velocity S-wave (km/s) = 2.58261 3.41244 3.02610
# Velocity P-wave (km/s) = 5.43963 6.22586 5.84598
#
# Compressibility (1/GPa) = 0.02875537
#
# Stress axis : x y z
#
# Youngs Moduli (GPa) = 71.31969 51.03733 44.68859
#
# Poissons Ratio (x) = 0.21478 0.31876
# Poissons Ratio (y) = 0.30014 0.10175
# Poissons Ratio (z) = 0.50872 0.11621
#
# Static dielectric constant tensor:
#      x y z
#    x 1.610540 0.000000 -0.009350 
#    y 0.000000 1.549850 0.000000 
#    z -0.009350 0.000000 1.602790 
# 
# From -- ./inp_files/170505.got.cif
#   From: 2010.05.17/outbox.cif.g08.bks.cpg/sg12_86_cif.got.tgz:170505.got - 2010.06.03 13:09:07.
