data_PCOD9219315
_publ_section_title
;
Structure prediction by ZEFSAII (Michael W. Deem and Ramdas Pophale) SiO2 
 PCOD9219315
Probable space group: C 2/M
;
_chemical_formula_sum "Si O2"
_cell_formula_units_Z 64
_cell_length_a 9.154545
_cell_length_b 20.419322
_cell_length_c 20.717323
_cell_angle_alpha 90.000000
_cell_angle_beta 54.227126
_cell_angle_gamma 90.000000
_cell_volume 3142.063550
_symmetry_space_group_name_H-M "C 2/M"
_symmetry_group_IT_number 12
_symmetry_cell_setting 'monoclinic'
loop_
_space_group_symop_operation_xyz
x,y,z
-x,y,-z
-x,-y,-z
x,-y,z
1/2+x,1/2+y,z
1/2-x,1/2+y,-z
1/2-x,1/2-y,-z
1/2+x,1/2-y,z
loop_
_atom_site_type_symbol
_atom_site_label
_atom_site_fract_x
_atom_site_fract_y
_atom_site_fract_z
Si Si1 0.307061 0.288333 0.072294
Si Si2 0.192218 0.427442 0.735134
Si Si3 0.043554 0.789546 0.828244
Si Si4 0.180508 0.791512 0.321894
Si Si5 0.797430 0.428245 0.892091
Si Si6 0.668121 0.791084 0.579149
Si Si7 0.636323 0.571345 0.788081
Si Si8 0.469560 0.927596 0.368951
O O1 0.320342 0.291869 0.146470
O O2 0.275306 0.362683 0.055751
O O3 0.141663 0.241780 0.100438
O O4 0.500000 0.263913 0.000000
O O5 0.269675 0.500000 0.726449
O O6 0.319639 0.364648 0.707232
O O7 0.117176 0.426184 0.680688
O O8 0.011601 0.420419 0.824831
O O9 0.140991 0.743564 0.751485
O O10 0.019515 0.863729 0.810615
O O11 0.198587 0.795612 0.394561
O O12 0.009939 0.746991 0.351047
O O13 0.762984 0.500000 0.931290
O O14 0.706232 0.430618 0.844485
O O15 0.750000 0.750000 0.500000
O O16 0.609376 0.864625 0.574989
O O17 0.554301 0.500000 0.795580
O O18 0.816850 0.579051 0.698539
O O19 0.433093 0.000000 0.405935
#
# Coordination Sequence:
#
# PCOD9219315 Si02
#       8
#     8   8   8   8   8   8   8   8
#     4  11  22  34  51  79 112 140 169 214 267 311
#     4   8  14  27  50  77 101 129 171 219 258 299
#     4  11  20  35  56  78 103 137 180 216 257 309
#     4  11  20  35  57  79 104 140 179 215 255 311
#     4   8  14  27  48  75 103 129 168 220 262 296
#     4  11  22  35  53  81 112 138 168 217 268 311
#     4   8  14  27  51  77  96 126 179 223 247 292
#     4   8  14  28  51  76  99 131 175 217 255 298
#
# _framework density 20.368780000000001
#
# number of rings (size 3 to 8) (size 9 to 14) (size 15 to 20)
#    0.000    2.500    2.500    3.000    0.000    0.250 
#    0.000    0.625    0.000   10.125    0.000    0.000 
#    0.000    0.000    0.000    0.000    0.000    0.000 
#
# Total GULP energy -178454.143766 kJ/mol
# GULP energy per Si atom -5576.691993 kJ/mol
# Density = 2.032242 g / cm^3
# Si number density = 20.368780 Si / 1000 Ang^3
#
#
#
# Elastic Constant Matrix: (Units=GPa)
#
#
# Indices 1 2 3 4 5 6 
#
# 1 31.8186 20.9886 -0.0195 0.0000 -2.7371 0.0000
# 2 20.9886 173.5255 24.7201 0.0000 -18.2106 0.0000
# 3 -0.0195 24.7201 39.5454 0.0000 -9.2386 0.0000
# 4 0.0000 0.0000 0.0000 24.3557 0.0000 -6.9896
# 5 -2.7371 -18.2106 -9.2386 0.0000 18.5659 0.0000
# 6 0.0000 0.0000 0.0000 -6.9896 0.0000 15.4687
#
#
#
# Elastic Compliance Matrix: (Units=1/GPa)
#
#
# Indices 1 2 3 4 5 6 
#
# 1 0.034540 -0.004397 0.003335 0.000000 0.002439 0.000000
# 2 -0.004397 0.007287 -0.003439 0.000000 0.004788 0.000000
# 3 0.003335 -0.003439 0.030286 0.000000 0.012190 0.000000
# 4 0.000000 0.000000 0.000000 0.047175 0.000000 0.021316
# 5 0.002439 0.004788 0.012190 0.000000 0.064984 0.000000
# 6 0.000000 0.000000 0.000000 0.021316 0.000000 0.074279
#
#
# Mechanical properties :
#
#
# Convention : Reuss Voigt Hill
#
# Bulk Modulus (GPa) = 15.84454 37.36309 26.60381
# Shear Modulus (GPa) = 17.32561 24.95809 21.14185
#
# Velocity S-wave (km/s) = 2.91966 3.50424 3.22522
# Velocity P-wave (km/s) = 4.37740 5.89543 5.19219
#
# Compressibility (1/GPa) = 0.06311323
#
# Stress axis : x y z
#
# Youngs Moduli (GPa) = 28.95158 137.22980 33.01821
#
# Poissons Ratio (x) = 0.60340 -0.11013
# Poissons Ratio (y) = 0.12730 0.11354
# Poissons Ratio (z) = -0.09657 0.47190
#
# Static dielectric constant tensor:
#      x y z
#    x 1.738380 0.000000 0.028640 
#    y 0.000000 1.778090 0.000000 
#    z 0.028640 0.000000 1.719910 
# 
# From -- ./inp_files/333735.got.cif
#   From: 2010.05.17/outbox.cif.g08.bks.cpg/sg12_167_cif.got.tgz:333735.got - 2010.06.03 13:09:07.
