data_PCOD9219961
_publ_section_title
;
Structure prediction by ZEFSAII (Michael W. Deem and Ramdas Pophale) SiO2 
 PCOD9219961
Probable space group: C 2/M
;
_chemical_formula_sum "Si O2"
_cell_formula_units_Z 48
_cell_length_a 15.711496
_cell_length_b 28.609563
_cell_length_c 12.913986
_cell_angle_alpha 90.000000
_cell_angle_beta 154.183440
_cell_angle_gamma 90.000000
_cell_volume 2527.950438
_symmetry_space_group_name_H-M "C 2/M"
_symmetry_group_IT_number 12
_symmetry_cell_setting 'monoclinic'
loop_
_space_group_symop_operation_xyz
x,y,z
-x,y,-z
-x,-y,-z
x,-y,z
1/2+x,1/2+y,z
1/2-x,1/2+y,-z
1/2-x,1/2-y,-z
1/2+x,1/2-y,z
loop_
_atom_site_type_symbol
_atom_site_label
_atom_site_fract_x
_atom_site_fract_y
_atom_site_fract_z
Si Si1 0.689126 0.054998 0.153914
Si Si2 0.780740 0.343169 0.294251
Si Si3 0.479203 0.554289 0.307203
Si Si4 0.907888 0.214627 0.226792
Si Si5 0.273692 0.766288 0.763137
Si Si6 0.970724 0.867298 0.796334
O O1 0.783469 0.073106 0.150712
O O2 0.855510 0.055899 0.423395
O O3 0.645416 0.000000 0.084659
O O4 0.500000 0.077280 0.000000
O O5 0.734383 0.288851 0.219088
O O6 0.720127 0.352377 0.346789
O O7 0.000000 0.351950 0.500000
O O8 0.639092 0.372654 0.066167
O O9 0.451169 0.500000 0.248281
O O10 0.548314 0.585830 0.289321
O O11 0.809911 0.204734 0.231261
O O12 0.125555 0.231049 0.503074
O O13 0.954636 0.172525 0.200896
O O14 0.750000 0.250000 0.000000
O O15 0.500000 0.778989 0.000000
#
# Coordination Sequence:
#
# PCOD9219961 Si02
#       6
#     8   8   8   8   8   8
#     4   8  15  31  56  81 112 147 178 223 287 348
#     4  11  21  41  56  77 112 155 195 233 293 344
#     4   9  19  36  57  84 116 150 186 234 288 334
#     4  11  21  38  59  85 113 151 194 236 289 352
#     4  11  21  37  58  86 117 151 190 239 291 351
#     4  11  23  37  59  84 110 150 198 239 279 351
#
# _framework density 18.987714
#
# number of rings (size 3 to 8) (size 9 to 14) (size 15 to 20)
#    0.000    1.833    5.000    1.000    0.000    8.000 
#    0.000    3.333    0.000    1.000    0.000    0.000 
#    0.000    0.000    0.000    0.000    0.000    0.000 
#
# Total GULP energy -133633.639011 kJ/mol
# GULP energy per Si atom -5568.068292 kJ/mol
# Density = 1.894450 g / cm^3
# Si number density = 18.987714 Si / 1000 Ang^3
#
#
#
# Elastic Constant Matrix: (Units=GPa)
#
#
# Indices 1 2 3 4 5 6 
#
# 1 157.7933 52.9593 41.8131 -0.0001 20.4256 0.0000
# 2 52.9593 52.2995 12.0453 -0.0001 -5.4182 0.0000
# 3 41.8131 12.0453 88.1167 -0.0001 17.1523 0.0000
# 4 -0.0001 -0.0001 -0.0001 3.2658 -0.0001 -9.1574
# 5 20.4256 -5.4182 17.1523 -0.0001 42.6852 0.0000
# 6 0.0000 0.0000 0.0000 -9.1574 0.0000 25.0224
#
#
#
# Elastic Compliance Matrix: (Units=1/GPa)
#
#
# Indices 1 2 3 4 5 6 
#
# 1 0.011920 -0.012052 -0.002821 0.000013 -0.006100 0.000005
# 2 -0.012052 0.032544 -0.000712 -0.000033 0.010184 -0.000012
# 3 -0.002821 -0.000712 0.013604 -0.000014 -0.004207 -0.000005
# 4 0.000013 -0.000033 -0.000014-11.694884 -0.000024 -4.279930
# 5 -0.006100 0.010184 -0.004207 -0.000024 0.029329 -0.000009
# 6 0.000005 -0.000012 -0.000005 -4.279930 -0.000009 -1.526345
#
#
# Mechanical properties :
#
#
# Convention : Reuss Voigt Hill
#
# Bulk Modulus (GPa) = 37.18006 56.87166 47.02586
# Shear Modulus (GPa) = -0.38186 26.95414 13.28614
#
# Velocity S-wave (km/s) = -0.44894 3.77179 2.64810
# Velocity P-wave (km/s) = 4.39942 6.99895 5.84552
#
# Compressibility (1/GPa) = 0.02689614
#
# Stress axis : x y z
#
# Youngs Moduli (GPa) = 83.89554 30.72771 73.51044
#
# Poissons Ratio (x) = 0.37033 0.20739
# Poissons Ratio (y) = 1.01112 0.05234
# Poissons Ratio (z) = 0.23669 0.02188
#
# Static dielectric constant tensor:
#      x y z
#    x 1.725010 0.000000 0.034970 
#    y 0.000000 1.654990 0.000000 
#    z 0.034970 0.000000 1.736280 
# 
# From -- ./inp_files/150337.got.cif
#   From: 2010.05.17/outbox.cif.g08.bks.cpg/sg12_76_cif.got.tgz:150337.got - 2010.06.03 13:09:07.
