data_PCOD9219378
_publ_section_title
;
Structure prediction by ZEFSAII (Michael W. Deem and Ramdas Pophale) SiO2 
 PCOD9219378
Probable space group: C 2/M
;
_chemical_formula_sum "Si O2"
_cell_formula_units_Z 26
_cell_length_a 15.463967
_cell_length_b 7.514733
_cell_length_c 19.261892
_cell_angle_alpha 90.000000
_cell_angle_beta 149.477930
_cell_angle_gamma 90.000000
_cell_volume 1136.805484
_symmetry_space_group_name_H-M "C 2/M"
_symmetry_group_IT_number 12
_symmetry_cell_setting 'monoclinic'
loop_
_space_group_symop_operation_xyz
x,y,z
-x,y,-z
-x,-y,-z
x,-y,z
1/2+x,1/2+y,z
1/2-x,1/2+y,-z
1/2-x,1/2-y,-z
1/2+x,1/2-y,z
loop_
_atom_site_type_symbol
_atom_site_label
_atom_site_fract_x
_atom_site_fract_y
_atom_site_fract_z
Si Si1 0.607952 0.212178 0.342770
Si Si2 0.239498 0.704947 0.143239
Si Si3 0.309601 0.716634 0.349084
Si Si4 0.000000 0.000000 0.000000
O O1 0.750000 0.250000 0.500000
O O2 0.423538 0.285471 0.234612
O O3 0.681979 0.277117 0.320603
O O4 0.590320 0.000000 0.326654
O O5 0.184212 0.500000 0.103144
O O6 0.270113 0.771558 0.243757
O O7 0.098289 0.842776 0.021824
O O8 0.500000 0.773482 0.500000
O O9 0.308817 0.500000 0.348230
#
# Coordination Sequence:
#
# PCOD9219378 Si02
#       4
#     8   8   8   2
#     4  11  20  36  63 101 135 164 205 266 330 389
#     4  11  23  44  68  92 128 176 215 267 322 381
#     4   9  18  35  63  96 132 166 204 261 334 389
#     4  12  26  48  66  90 126 178 234 262 304 382
#
# _framework density 22.871108
#
# number of rings (size 3 to 8) (size 9 to 14) (size 15 to 20)
#    0.000    1.538    4.615    1.385    0.000    0.000 
#    5.538    3.846    0.000    0.000    0.000    0.000 
#    0.000    0.000    0.000    0.000    0.000    0.000 
#
# Total GULP energy -72449.164322 kJ/mol
# GULP energy per Si atom -5573.012640 kJ/mol
# Density = 2.281905 g / cm^3
# Si number density = 22.871108 Si / 1000 Ang^3
#
#
#
# Elastic Constant Matrix: (Units=GPa)
#
#
# Indices 1 2 3 4 5 6 
#
# 1 172.6021 10.5336 37.9283 0.0000 40.8728 0.0000
# 2 10.5336 132.7035 15.9735 0.0000 18.3305 0.0000
# 3 37.9283 15.9735 71.0692 0.0000 42.2925 0.0000
# 4 0.0000 0.0000 0.0000 -13.7400 0.0000 45.5971
# 5 40.8728 18.3305 42.2925 0.0000 51.0169 0.0000
# 6 0.0000 0.0000 0.0000 45.5971 0.0000 -10.6768
#
#
#
# Elastic Compliance Matrix: (Units=1/GPa)
#
#
# Indices 1 2 3 4 5 6 
#
# 1 0.007181 0.000241 -0.000812 0.000000 -0.005167 0.000000
# 2 0.000241 0.007938 -0.000199 0.000000 -0.002881 0.000000
# 3 -0.000812 -0.000199 0.027866 0.000000 -0.022379 0.000000
# 4 0.000000 0.000000 0.000000 0.005525 0.000000 0.023596
# 5 -0.005167 -0.002881 -0.022379 0.000000 0.043328 0.000000
# 6 0.000000 0.000000 0.000000 0.023596 0.000000 0.007110
#
#
# Mechanical properties :
#
#
# Convention : Reuss Voigt Hill
#
# Bulk Modulus (GPa) = 24.12703 56.13839 40.13271
# Shear Modulus (GPa) = 43.74356 26.11599 34.92977
#
# Velocity S-wave (km/s) = 4.37809 3.38283 3.91224
# Velocity P-wave (km/s) = 6.01073 6.31323 6.16384
#
# Compressibility (1/GPa) = 0.04144730
#
# Stress axis : x y z
#
# Youngs Moduli (GPa) = 139.25937 125.97158 35.88576
#
# Poissons Ratio (x) = -0.03041 0.02914
# Poissons Ratio (y) = -0.03362 0.00713
# Poissons Ratio (z) = 0.11306 0.02501
#
# Static dielectric constant tensor:
#      x y z
#    x 1.850000 0.000000 -0.025260 
#    y 0.000000 1.917130 0.000000 
#    z -0.025260 0.000000 1.957910 
# 
# From -- ./inp_files/101388.got.cif
#   From: 2010.05.17/outbox.cif.g08.bks.cpg/sg12_51_cif.got.tgz:101388.got - 2010.06.03 13:09:07.
