data_PCOD9219769
_publ_section_title
;
Structure prediction by ZEFSAII (Michael W. Deem and Ramdas Pophale) SiO2 
 PCOD9219769
Probable space group: C 2/M
;
_chemical_formula_sum "Si O2"
_cell_formula_units_Z 58
_cell_length_a 18.963142
_cell_length_b 19.705642
_cell_length_c 17.542761
_cell_angle_alpha 90.000000
_cell_angle_beta 151.009819
_cell_angle_gamma 90.000000
_cell_volume 3177.135703
_symmetry_space_group_name_H-M "C 2/M"
_symmetry_group_IT_number 12
_symmetry_cell_setting 'monoclinic'
loop_
_space_group_symop_operation_xyz
x,y,z
-x,y,-z
-x,-y,-z
x,-y,z
1/2+x,1/2+y,z
1/2-x,1/2+y,-z
1/2-x,1/2-y,-z
1/2+x,1/2-y,z
loop_
_atom_site_type_symbol
_atom_site_label
_atom_site_fract_x
_atom_site_fract_y
_atom_site_fract_z
Si Si1 0.657425 0.812669 0.377115
Si Si2 0.073672 0.882687 0.943787
Si Si3 0.391420 0.424885 0.325448
Si Si4 0.094281 0.078693 0.369780
Si Si5 0.660601 0.202741 0.855572
Si Si6 0.647867 0.279625 0.686852
Si Si7 0.091586 0.251625 0.154922
Si Si8 0.000000 0.000000 0.000000
O O1 0.750000 0.750000 0.500000
O O2 0.762066 0.876334 0.487392
O O3 0.497072 0.817862 0.261739
O O4 0.628838 0.797942 0.261452
O O5 0.990057 0.904617 0.787860
O O6 0.996163 0.813667 0.899551
O O7 0.236011 0.859528 0.072494
O O8 0.055676 0.940010 0.991289
O O9 0.500000 0.429508 0.500000
O O10 0.322822 0.500000 0.251832
O O11 0.487458 0.410018 0.340874
O O12 0.298006 0.357500 0.252434
O O13 0.133775 0.000000 0.407534
O O14 0.630718 0.248168 0.753235
O O15 0.750000 0.250000 0.000000
O O16 0.500000 0.282527 0.500000
O O17 0.757266 0.233581 0.742165
O O18 0.000000 0.284271 0.000000
#
# Coordination Sequence:
#
# PCOD9219769 Si02
#       8
#     8   8   8   8   8   8   8   2
#     4  12  22  38  67  95 129 168 220 279 336 388
#     4  12  23  42  67  94 128 181 223 270 323 405
#     4   9  18  34  56  84 120 157 202 250 317 388
#     4  11  23  41  65  95 127 170 215 269 332 399
#     4  12  22  40  63  93 128 165 222 274 328 384
#     4  11  21  34  57  91 122 155 207 271 320 377
#     4  12  22  39  61  92 130 166 214 269 336 389
#     4  12  24  44  68  94 134 192 230 262 338 428
#
# _framework density 18.255436
#
# number of rings (size 3 to 8) (size 9 to 14) (size 15 to 20)
#    0.000    0.690    5.517    4.138    0.000    0.000 
#    1.241    0.000    0.000    4.138    0.000    0.000 
#    0.000    0.000    0.000    0.000    0.000    0.000 
#
# Total GULP energy -161559.089371 kJ/mol
# GULP energy per Si atom -5571.003082 kJ/mol
# Density = 1.821389 g / cm^3
# Si number density = 18.255436 Si / 1000 Ang^3
#
#
#
# Elastic Constant Matrix: (Units=GPa)
#
#
# Indices 1 2 3 4 5 6 
#
# 1 117.2358 36.4462 52.9911 0.0000 -23.3514 0.0000
# 2 36.4462 91.9909 53.1874 0.0001 -4.4657 0.0001
# 3 52.9911 53.1874 96.3043 0.0001 -5.3284 0.0001
# 4 0.0000 0.0001 0.0001 13.1537 0.0000 3.1447
# 5 -23.3514 -4.4657 -5.3284 0.0000 28.8801 0.0000
# 6 0.0000 0.0001 0.0001 3.1447 0.0000 32.5064
#
#
#
# Elastic Compliance Matrix: (Units=1/GPa)
#
#
# Indices 1 2 3 4 5 6 
#
# 1 0.013718 -0.001336 -0.006272 0.000000 0.009728 0.000000
# 2 -0.001336 0.016121 -0.008173 0.000000 -0.000096 0.000000
# 3 -0.006272 -0.008173 0.018184 0.000000 -0.002980 0.000000
# 4 0.000000 0.000000 0.000000 0.077824 0.000000 -0.007529
# 5 0.009728 -0.000096 -0.002980 0.000000 0.041927 0.000000
# 6 0.000000 0.000000 0.000000 -0.007529 0.000000 0.031492
#
#
# Mechanical properties :
#
#
# Convention : Reuss Voigt Hill
#
# Bulk Modulus (GPa) = 60.75480 65.64226 63.19853
# Shear Modulus (GPa) = 21.15813 25.76846 23.46329
#
# Velocity S-wave (km/s) = 3.40811 3.76114 3.58897
# Velocity P-wave (km/s) = 6.98853 7.40927 7.20197
#
# Compressibility (1/GPa) = 0.01645961
#
# Stress axis : x y z
#
# Youngs Moduli (GPa) = 72.89781 62.03019 54.99336
#
# Poissons Ratio (x) = 0.08290 0.34491
# Poissons Ratio (y) = 0.09742 0.44948
# Poissons Ratio (z) = 0.45721 0.50700
#
# Static dielectric constant tensor:
#      x y z
#    x 1.688020 0.000000 -0.020470 
#    y 0.000000 1.638250 0.000000 
#    z -0.020470 0.000000 1.663410 
# 
# From -- ./inp_files/278827.got.cif
#   From: 2010.05.17/outbox.cif.g08.bks.cpg/sg12_140_cif.got.tgz:278827.got - 2010.06.03 13:09:07.
