data_PCOD9219742
_publ_section_title
;
Structure prediction by ZEFSAII (Michael W. Deem and Ramdas Pophale) SiO2 
 PCOD9219742
Probable space group: C 2/M
;
_chemical_formula_sum "Si O2"
_cell_formula_units_Z 34
_cell_length_a 23.970489
_cell_length_b 7.687727
_cell_length_c 6.719878
_cell_angle_alpha 90.000000
_cell_angle_beta 99.580997
_cell_angle_gamma 90.000000
_cell_volume 1221.056451
_symmetry_space_group_name_H-M "C 2/M"
_symmetry_group_IT_number 12
_symmetry_cell_setting 'monoclinic'
loop_
_space_group_symop_operation_xyz
x,y,z
-x,y,-z
-x,-y,-z
x,-y,z
1/2+x,1/2+y,z
1/2-x,1/2+y,-z
1/2-x,1/2-y,-z
1/2+x,1/2-y,z
loop_
_atom_site_type_symbol
_atom_site_label
_atom_site_fract_x
_atom_site_fract_y
_atom_site_fract_z
Si Si1 0.699730 0.704362 0.694304
Si Si2 0.821167 0.209016 0.858382
Si Si3 0.940017 0.212485 0.050644
Si Si4 0.000000 0.000000 0.500000
Si Si5 0.418894 0.189149 0.489671
O O1 0.687266 0.500000 0.676878
O O2 0.766750 0.728129 0.704754
O O3 0.649242 0.788191 0.538127
O O4 0.690853 0.762355 0.918795
O O5 0.818826 0.000000 0.843163
O O6 0.887194 0.255603 0.876203
O O7 0.928226 0.298767 0.254744
O O8 0.940377 0.000000 0.092715
O O9 0.000000 0.261712 0.000000
O O10 0.041604 0.849102 0.426264
O O11 0.436518 0.000000 0.572105
#
# Coordination Sequence:
#
# PCOD9219742 Si02
#       5
#     8   8   8   2   8
#     4   9  15  27  43  66 101 132 159 205 257 303
#     4   8  14  23  41  69 100 134 164 194 248 314
#     4   9  17  32  51  75 112 143 166 206 259 316
#     4  12  22  40  50  74 104 136 180 222 252 302
#     4  11  21  34  54  76 104 137 173 217 258 304
#
# _framework density 27.844740999999999
#
# number of rings (size 3 to 8) (size 9 to 14) (size 15 to 20)
#    0.000    2.588    2.353    2.471    0.000    6.118 
#    0.000    0.000    0.000    0.000    0.000    1.647 
#    0.000    0.000    0.000    0.000    0.000    0.000 
#
# Total GULP energy -94988.745894 kJ/mol
# GULP energy per Si atom -5587.573288 kJ/mol
# Density = 2.778137 g / cm^3
# Si number density = 27.844741 Si / 1000 Ang^3
#
#
#
# Elastic Constant Matrix: (Units=GPa)
#
#
# Indices 1 2 3 4 5 6 
#
# 1 277.2514 49.0914 36.2267 0.0000 0.7428 0.0000
# 2 49.0914 151.4363 17.1262 0.0000 22.8698 0.0000
# 3 36.2267 17.1262 99.3919 0.0000 23.2071 0.0000
# 4 0.0000 0.0000 0.0000 87.1471 0.0000 -11.4387
# 5 0.7428 22.8698 23.2071 0.0000 44.7619 0.0000
# 6 0.0000 0.0000 0.0000 -11.4387 0.0000 52.2197
#
#
#
# Elastic Compliance Matrix: (Units=1/GPa)
#
#
# Indices 1 2 3 4 5 6 
#
# 1 0.004049 -0.001352 -0.001580 0.000000 0.001442 0.000000
# 2 -0.001352 0.007623 0.000095 0.000000 -0.003921 0.000000
# 3 -0.001580 0.000095 0.012089 0.000000 -0.006290 0.000000
# 4 0.000000 0.000000 0.000000 0.011815 0.000000 0.002588
# 5 0.001442 -0.003921 -0.006290 0.000000 0.027581 0.000000
# 6 0.000000 0.000000 0.000000 0.002588 0.000000 0.019717
#
#
# Mechanical properties :
#
#
# Convention : Reuss Voigt Hill
#
# Bulk Modulus (GPa) = 55.28493 81.44091 68.36292
# Shear Modulus (GPa) = 52.86773 65.20144 59.03458
#
# Velocity S-wave (km/s) = 4.36209 4.84426 4.60949
# Velocity P-wave (km/s) = 6.72817 7.78466 7.27562
#
# Compressibility (1/GPa) = 0.01808811
#
# Stress axis : x y z
#
# Youngs Moduli (GPa) = 246.99351 131.18002 82.71840
#
# Poissons Ratio (x) = 0.17731 0.13066
# Poissons Ratio (y) = 0.33385 -0.00784
# Poissons Ratio (z) = 0.39014 -0.01243
#
# Static dielectric constant tensor:
#      x y z
#    x 2.205050 0.000000 -0.025920 
#    y 0.000000 2.040080 0.000000 
#    z -0.025920 0.000000 2.411510 
# 
# From -- ./inp_files/92470.got.cif
#   From: 2010.05.17/outbox.cif.g08.bks.cpg/sg12_47_cif.got.tgz:92470.got - 2010.06.03 13:09:07.
