data_PCOD9219171
_publ_section_title
;
Structure prediction by ZEFSAII (Michael W. Deem and Ramdas Pophale) SiO2 
 PCOD9219171
Probable space group: C 2/M
;
_chemical_formula_sum "Si O2"
_cell_formula_units_Z 56
_cell_length_a 19.542456
_cell_length_b 8.478334
_cell_length_c 27.447261
_cell_angle_alpha 90.000000
_cell_angle_beta 143.520965
_cell_angle_gamma 90.000000
_cell_volume 2703.718261
_symmetry_space_group_name_H-M "C 2/M"
_symmetry_group_IT_number 12
_symmetry_cell_setting 'monoclinic'
loop_
_space_group_symop_operation_xyz
x,y,z
-x,y,-z
-x,-y,-z
x,-y,z
1/2+x,1/2+y,z
1/2-x,1/2+y,-z
1/2-x,1/2-y,-z
1/2+x,1/2-y,z
loop_
_atom_site_type_symbol
_atom_site_label
_atom_site_fract_x
_atom_site_fract_y
_atom_site_fract_z
Si Si1 0.871055 0.184538 0.369546
Si Si2 0.041948 0.317806 0.967415
Si Si3 0.312466 0.316470 0.803652
Si Si4 0.225914 0.814489 0.583517
Si Si5 0.432632 0.818522 0.584662
Si Si6 0.224803 0.808329 0.857517
Si Si7 0.034087 0.184436 0.290944
O O1 0.751474 0.211873 0.272901
O O2 0.850824 0.229703 0.413824
O O3 0.964648 0.284979 0.394328
O O4 0.903897 0.000000 0.386295
O O5 0.036009 0.500000 0.948068
O O6 0.948421 0.217882 0.884935
O O7 0.000000 0.314491 0.000000
O O8 0.174584 0.265549 0.046776
O O9 0.291199 0.500000 0.781939
O O10 0.257542 0.268879 0.824495
O O11 0.181733 0.723728 0.510762
O O12 0.358561 0.776390 0.669895
O O13 0.211730 0.000000 0.566830
O O14 0.069162 0.500000 0.400705
O O15 0.455076 0.712781 0.644737
O O16 0.094923 0.765171 0.797158
O O17 0.229547 0.000000 0.853958
O O18 0.046877 0.000000 0.287268
#
# Coordination Sequence:
#
# PCOD9219171 Si02
#       7
#     8   8   8   8   8   8   8
#     4  11  23  40  60  81 111 151 190 231 282 338
#     4   8  15  29  49  75 109 146 182 222 272 331
#     4  11  20  30  51  83 114 144 181 231 280 326
#     4  11  25  42  59  81 112 150 190 233 283 336
#     4  12  24  39  61  87 113 143 186 237 283 332
#     4   9  18  33  54  79 110 149 186 223 274 333
#     4  11  22  38  61  85 115 151 188 231 278 333
#
# _framework density 20.712218
#
# number of rings (size 3 to 8) (size 9 to 14) (size 15 to 20)
#    0.000    1.571    1.429    5.571    0.000    7.143 
#    0.000    0.000    0.000    0.857    0.000    0.000 
#    0.000    0.000    0.000    0.000    0.000    0.000 
#
# Total GULP energy -156487.477608 kJ/mol
# GULP energy per Si atom -5588.838486 kJ/mol
# Density = 2.066508 g / cm^3
# Si number density = 20.712218 Si / 1000 Ang^3
#
#
#
# Elastic Constant Matrix: (Units=GPa)
#
#
# Indices 1 2 3 4 5 6 
#
# 1 44.9840 -1.4674 2.4835 0.0000 14.4944 0.0000
# 2 -1.4674 26.1151 0.7704 -0.0001 2.9638 -0.0002
# 3 2.4835 0.7704 91.3116 0.0000 28.8535 0.0000
# 4 0.0000 -0.0001 0.0000 26.5571 0.0000 8.3700
# 5 14.4944 2.9638 28.8535 0.0000 27.1879 0.0000
# 6 0.0000 -0.0002 0.0000 8.3700 0.0000 16.3442
#
#
#
# Elastic Compliance Matrix: (Units=1/GPa)
#
#
# Indices 1 2 3 4 5 6 
#
# 1 0.029391 0.004063 0.006406 0.000000 -0.022910 0.000000
# 2 0.004063 0.039473 0.002408 0.000000 -0.009025 0.000001
# 3 0.006406 0.002408 0.017933 0.000000 -0.022709 0.000000
# 4 0.000000 0.000000 0.000000 0.044902 0.000000 -0.022995
# 5 -0.022910 -0.009025 -0.022709 0.000000 0.074078 0.000000
# 6 0.000000 0.000001 0.000000 -0.022995 0.000000 0.072959
#
#
# Mechanical properties :
#
#
# Convention : Reuss Voigt Hill
#
# Bulk Modulus (GPa) = 8.88500 18.44263 13.66381
# Shear Modulus (GPa) = 17.21167 24.72612 20.96889
#
# Velocity S-wave (km/s) = 2.88582 3.45888 3.18526
# Velocity P-wave (km/s) = 3.92466 4.98752 4.48767
#
# Compressibility (1/GPa) = 0.11254929
#
# Stress axis : x y z
#
# Youngs Moduli (GPa) = 34.02437 25.33348 55.76401
#
# Poissons Ratio (x) = -0.10292 -0.35720
# Poissons Ratio (y) = -0.13823 -0.13429
# Poissons Ratio (z) = -0.21794 -0.06101
#
# Static dielectric constant tensor:
#      x y z
#    x 1.735150 0.000000 0.036330 
#    y 0.000000 1.696890 0.000000 
#    z 0.036330 0.000000 1.778690 
# 
# From -- ./inp_files/280444.got.cif
#   From: 2010.05.17/outbox.cif.g08.bks.cpg/sg12_141_cif.got.tgz:280444.got - 2010.06.03 13:09:07.
