data_PCOD9219112
_publ_section_title
;
Structure prediction by ZEFSAII (Michael W. Deem and Ramdas Pophale) SiO2 
 PCOD9219112
Probable space group: C 2/M
;
_chemical_formula_sum "Si O2"
_cell_formula_units_Z 44
_cell_length_a 18.074048
_cell_length_b 17.995553
_cell_length_c 6.709921
_cell_angle_alpha 90.000000
_cell_angle_beta 81.362878
_cell_angle_gamma 90.000000
_cell_volume 2157.668328
_symmetry_space_group_name_H-M "C 2/M"
_symmetry_group_IT_number 12
_symmetry_cell_setting 'monoclinic'
loop_
_space_group_symop_operation_xyz
x,y,z
-x,y,-z
-x,-y,-z
x,-y,z
1/2+x,1/2+y,z
1/2-x,1/2+y,-z
1/2-x,1/2-y,-z
1/2+x,1/2-y,z
loop_
_atom_site_type_symbol
_atom_site_label
_atom_site_fract_x
_atom_site_fract_y
_atom_site_fract_z
Si Si1 0.569335 0.500000 0.120290
Si Si2 0.144651 0.000000 0.703520
Si Si3 0.836336 0.348878 0.948602
Si Si4 0.500000 0.123063 0.000000
Si Si5 0.774138 0.782400 0.700589
Si Si6 0.580583 0.623900 0.445474
Si Si7 0.945995 0.500000 0.334088
Si Si8 0.184929 0.500000 0.301730
O O1 0.569301 0.569460 0.264051
O O2 0.500000 0.500000 0.000000
O O3 0.638432 0.500000 0.943743
O O4 0.104534 0.928590 0.621450
O O5 0.232626 0.000000 0.636371
O O6 0.797124 0.287487 0.826482
O O7 0.828494 0.428053 0.836745
O O8 0.925407 0.335623 0.949562
O O9 0.788498 0.335644 0.171564
O O10 0.534789 0.070331 0.813079
O O11 0.750000 0.750000 0.500000
O O12 0.850276 0.825781 0.632157
O O13 0.500000 0.662356 0.500000
O O14 0.867545 0.500000 0.480950
O O15 0.000000 0.500000 0.500000
#
# Coordination Sequence:
#
# PCOD9219112 Si02
#       8
#     4   4   8   4   8   8   4   4
#     4  11  19  41  66  96 139 164 217 288 329 395
#     4  11  22  37  66 102 130 175 220 277 341 399
#     4  11  26  47  67 103 136 176 237 280 349 417
#     4  11  24  42  70 102 136 175 224 292 338 421
#     4  11  27  48  65  96 144 184 228 289 343 428
#     4  11  23  41  65  99 130 175 233 272 338 416
#     4  11  22  42  67 103 138 164 227 284 347 407
#     4  12  23  44  75 100 134 184 224 295 358 397
#
# _framework density 20.392382000000001
#
# number of rings (size 3 to 8) (size 9 to 14) (size 15 to 20)
#    0.000    0.909    3.636    3.273    5.091    3.636 
#    1.636    0.000    0.000    0.000    0.000    0.000 
#    0.000    0.000    0.000    0.000    0.000    0.000 
#
# Total GULP energy -122796.914081 kJ/mol
# GULP energy per Si atom -5581.677913 kJ/mol
# Density = 2.034597 g / cm^3
# Si number density = 20.392382 Si / 1000 Ang^3
#
#
#
# Elastic Constant Matrix: (Units=GPa)
#
#
# Indices 1 2 3 4 5 6 
#
# 1 180.8862 29.4375 50.6443 0.0000 -20.6179 0.0000
# 2 29.4375 71.6696 28.4862 0.0000 -9.2640 0.0000
# 3 50.6443 28.4862 126.2065 0.0000 -15.5539 0.0000
# 4 0.0000 0.0000 0.0000 -6.9008 0.0000 -41.0178
# 5 -20.6179 -9.2640 -15.5539 0.0000 51.2434 0.0000
# 6 0.0000 0.0000 0.0000 -41.0178 0.0000 -41.4298
#
#
#
# Elastic Compliance Matrix: (Units=1/GPa)
#
#
# Indices 1 2 3 4 5 6 
#
# 1 0.006568 -0.001661 -0.002049 0.000000 0.001721 0.000000
# 2 -0.001661 0.015907 -0.002755 0.000000 0.001371 0.000000
# 3 -0.002049 -0.002755 0.009562 0.000000 0.001580 0.000000
# 4 0.000000 0.000000 0.000000 0.029666 0.000000 -0.029371
# 5 0.001721 0.001371 0.001580 0.000000 0.020935 0.000000
# 6 0.000000 0.000000 0.000000 -0.029371 0.000000 0.004941
#
#
# Mechanical properties :
#
#
# Convention : Reuss Voigt Hill
#
# Bulk Modulus (GPa) = 52.33313 66.21091 59.27202
# Shear Modulus (GPa) = 46.78205 18.59551 32.68878
#
# Velocity S-wave (km/s) = 4.79487 3.02302 4.00808
# Velocity P-wave (km/s) = 7.50820 6.68759 7.10974
#
# Compressibility (1/GPa) = 0.01910835
#
# Stress axis : x y z
#
# Youngs Moduli (GPa) = 152.24371 62.86368 104.57850
#
# Poissons Ratio (x) = 0.10443 0.21426
# Poissons Ratio (y) = 0.25290 0.28810
# Poissons Ratio (z) = 0.31191 0.17318
#
# Static dielectric constant tensor:
#      x y z
#    x 1.777810 0.000000 -0.073030 
#    y 0.000000 1.738850 0.000000 
#    z -0.073030 0.000000 1.786630 
# 
# From -- ./inp_files/16122.got.cif
#   From: 2010.05.17/outbox.cif.g08.bks.cpg/sg12_9_cif.got.tgz:16122.got - 2010.06.03 13:09:07.
