data_PCOD9219572
_publ_section_title
;
Structure prediction by ZEFSAII (Michael W. Deem and Ramdas Pophale) SiO2 
 PCOD9219572
Probable space group: C 2/M
;
_chemical_formula_sum "Si O2"
_cell_formula_units_Z 56
_cell_length_a 20.717232
_cell_length_b 14.725881
_cell_length_c 16.727900
_cell_angle_alpha 90.000000
_cell_angle_beta 28.956043
_cell_angle_gamma 90.000000
_cell_volume 2470.722880
_symmetry_space_group_name_H-M "C 2/M"
_symmetry_group_IT_number 12
_symmetry_cell_setting 'monoclinic'
loop_
_space_group_symop_operation_xyz
x,y,z
-x,y,-z
-x,-y,-z
x,-y,z
1/2+x,1/2+y,z
1/2-x,1/2+y,-z
1/2-x,1/2-y,-z
1/2+x,1/2-y,z
loop_
_atom_site_type_symbol
_atom_site_label
_atom_site_fract_x
_atom_site_fract_y
_atom_site_fract_z
Si Si1 0.738524 0.648031 0.927848
Si Si2 0.831614 0.667392 0.072813
Si Si3 0.799064 0.744983 0.282451
Si Si4 0.898927 0.900460 0.763148
Si Si5 0.512904 0.595139 0.891510
Si Si6 0.530406 0.204762 0.622580
Si Si7 0.396400 0.104932 0.292793
O O1 0.689215 0.752097 0.969844
O O2 0.896127 0.651918 0.742465
O O3 0.703130 0.605600 0.051391
O O4 0.636639 0.600343 0.978783
O O5 0.844929 0.712043 0.145550
O O6 0.694709 0.611601 0.213184
O O7 0.962271 0.612581 0.907488
O O8 0.898810 0.815845 0.217926
O O9 0.656540 0.793265 0.427355
O O10 0.794412 0.659132 0.346685
O O11 0.988080 0.810767 0.676497
O O12 0.963520 0.000000 0.693745
O O13 0.574134 0.500000 0.795438
O O14 0.500000 0.592233 0.000000
O O15 0.582089 0.159265 0.648154
O O16 0.363075 0.000000 0.342038
#
# Coordination Sequence:
#
# PCOD9219572 Si02
#       7
#     8   8   8   8   8   8   8
#     4  11  20  41  69  95 128 178 232 280 330 405
#     4  11  21  41  67  98 135 177 231 284 337 408
#     4  12  25  44  67 101 150 180 219 290 361 412
#     4  11  22  40  70 101 131 176 235 290 339 407
#     4  11  22  41  68  97 131 180 232 279 337 415
#     4  11  25  44  68 101 141 181 231 283 351 412
#     4  12  24  42  70 101 139 189 241 283 335 416
#
# _framework density 22.665430000000001
#
# number of rings (size 3 to 8) (size 9 to 14) (size 15 to 20)
#    0.000    0.714    5.714    2.571    0.000    5.714 
#    0.000    0.714    0.000    1.714    0.000    0.000 
#    0.000    0.000    0.000    0.000    0.000    0.000 
#
# Total GULP energy -156384.036719 kJ/mol
# GULP energy per Si atom -5585.144169 kJ/mol
# Density = 2.261384 g / cm^3
# Si number density = 22.665430 Si / 1000 Ang^3
#
#
#
# Elastic Constant Matrix: (Units=GPa)
#
#
# Indices 1 2 3 4 5 6 
#
# 1 99.0206 28.5674 16.5305 0.0000 -13.1786 0.0000
# 2 28.5674 135.8198 3.5526 0.0001 -2.8457 0.0000
# 3 16.5305 3.5526 71.1362 0.0001 -15.4001 -0.0001
# 4 0.0000 0.0001 0.0001 5.7424 0.0000 -2.7422
# 5 -13.1786 -2.8457 -15.4001 0.0000 23.5620 0.0000
# 6 0.0000 0.0000 -0.0001 -2.7422 0.0000 -21.3902
#
#
#
# Elastic Compliance Matrix: (Units=1/GPa)
#
#
# Indices 1 2 3 4 5 6 
#
# 1 0.011718 -0.002315 -0.001455 0.000000 0.005324 0.000000
# 2 -0.002315 0.007841 0.000083 0.000000 -0.000294 0.000000
# 3 -0.001455 0.000083 0.016561 0.000000 0.010020 0.000000
# 4 0.000000 0.000000 0.000000 0.164098 0.000000 -0.021037
# 5 0.005324 -0.000294 0.010020 0.000000 0.051933 0.000000
# 6 0.000000 0.000000 0.000000 -0.021037 0.000000 -0.044053
#
#
# Mechanical properties :
#
#
# Convention : Reuss Voigt Hill
#
# Bulk Modulus (GPa) = 34.78774 44.80862 39.79818
# Shear Modulus (GPa) = 22.21687 18.73791 20.47739
#
# Velocity S-wave (km/s) = 3.13423 2.87839 3.00903
# Velocity P-wave (km/s) = 5.33662 5.55512 5.44697
#
# Compressibility (1/GPa) = 0.02874576
#
# Stress axis : x y z
#
# Youngs Moduli (GPa) = 85.33711 127.52949 60.38361
#
# Poissons Ratio (x) = 0.29525 0.08786
# Poissons Ratio (y) = 0.19757 -0.00500
# Poissons Ratio (z) = 0.12416 -0.01056
#
# Static dielectric constant tensor:
#      x y z
#    x 1.862810 0.000000 -0.036630 
#    y 0.000000 1.905230 0.000000 
#    z -0.036630 0.000000 1.844220 
# 
# From -- ./inp_files/284524.got.cif
#   From: 2010.05.17/outbox.cif.g08.bks.cpg/sg12_143_cif.got.tgz:284524.got - 2010.06.03 13:09:07.
