data_PCOD9219772
_publ_section_title
;
Structure prediction by ZEFSAII (Michael W. Deem and Ramdas Pophale) SiO2 
 PCOD9219772
Probable space group: C 2/M
;
_chemical_formula_sum "Si O2"
_cell_formula_units_Z 48
_cell_length_a 20.759710
_cell_length_b 8.878000
_cell_length_c 23.606829
_cell_angle_alpha 90.000000
_cell_angle_beta 39.330179
_cell_angle_gamma 90.000000
_cell_volume 2757.517978
_symmetry_space_group_name_H-M "C 2/M"
_symmetry_group_IT_number 12
_symmetry_cell_setting 'monoclinic'
loop_
_space_group_symop_operation_xyz
x,y,z
-x,y,-z
-x,-y,-z
x,-y,z
1/2+x,1/2+y,z
1/2-x,1/2+y,-z
1/2-x,1/2-y,-z
1/2+x,1/2-y,z
loop_
_atom_site_type_symbol
_atom_site_label
_atom_site_fract_x
_atom_site_fract_y
_atom_site_fract_z
Si Si1 0.360099 0.680225 0.932758
Si Si2 0.853542 0.179740 0.453624
Si Si3 0.813971 0.679449 0.270119
Si Si4 0.387837 0.820639 0.552773
Si Si5 0.546473 0.320182 0.729507
Si Si6 0.483046 0.318121 0.076839
O O1 0.349797 0.500000 0.940894
O O2 0.436610 0.719923 0.829338
O O3 0.421393 0.724903 0.948093
O O4 0.250000 0.750000 0.000000
O O5 0.750000 0.250000 0.500000
O O6 0.879109 0.254130 0.495746
O O7 0.936652 0.208499 0.348019
O O8 0.842135 0.000000 0.468169
O O9 0.811366 0.500000 0.269798
O O10 0.701034 0.746247 0.349467
O O11 0.870406 0.734159 0.289270
O O12 0.883457 0.744667 0.172402
O O13 0.500000 0.790180 0.500000
O O14 0.371368 0.000000 0.562367
O O15 0.561706 0.500000 0.728836
O O16 0.472770 0.500000 0.087328
O O17 0.500000 0.276759 0.000000
#
# Coordination Sequence:
#
# PCOD9219772 Si02
#       6
#     8   8   8   8   8   8
#     4   9  18  34  55  80 109 143 177 221 274 323
#     4  11  21  35  60  87 113 145 187 236 278 333
#     4  11  21  34  58  86 112 144 185 236 283 332
#     4  11  24  41  58  79 114 155 191 233 284 338
#     4   9  19  36  57  80 111 149 186 222 275 338
#     4   9  19  38  61  80 107 147 189 227 272 335
#
# _framework density 17.406956999999998
#
# number of rings (size 3 to 8) (size 9 to 14) (size 15 to 20)
#    0.000    2.000    1.667    3.500    0.000    5.000 
#    3.000    0.000    0.000    0.000    0.000    0.000 
#    0.000    0.000    0.000    0.000    0.000    0.000 
#
# Total GULP energy -133964.852892 kJ/mol
# GULP energy per Si atom -5581.868870 kJ/mol
# Density = 1.736734 g / cm^3
# Si number density = 17.406957 Si / 1000 Ang^3
#
#
#
# Elastic Constant Matrix: (Units=GPa)
#
#
# Indices 1 2 3 4 5 6 
#
# 1 110.3804 57.7725 95.9705 0.0000 0.0493 0.0000
# 2 57.7725 63.7808 67.6795 -0.0002 -7.0229 0.0002
# 3 95.9705 67.6795 162.0814 0.0000 -4.2107 0.0000
# 4 0.0000 -0.0002 0.0000 31.4524 0.0000 -1.6596
# 5 0.0493 -7.0229 -4.2107 0.0000 33.2367 0.0000
# 6 0.0000 0.0002 0.0000 -1.6596 0.0000 26.9059
#
#
#
# Elastic Compliance Matrix: (Units=1/GPa)
#
#
# Indices 1 2 3 4 5 6 
#
# 1 0.022773 -0.011886 -0.008616 0.000000 -0.003637 0.000000
# 2 -0.011886 0.035036 -0.007423 0.000000 0.006480 0.000000
# 3 -0.008616 -0.007423 0.014378 0.000000 0.000266 0.000000
# 4 0.000000 0.000000 0.000000 0.031898 0.000000 0.001968
# 5 -0.003637 0.006480 0.000266 0.000000 0.031496 0.000000
# 6 0.000000 0.000000 0.000000 0.001968 0.000000 0.037288
#
#
# Mechanical properties :
#
#
# Convention : Reuss Voigt Hill
#
# Bulk Modulus (GPa) = 61.21240 86.56529 73.88885
# Shear Modulus (GPa) = 21.35256 25.97366 23.66311
#
# Velocity S-wave (km/s) = 3.50618 3.86702 3.69101
# Velocity P-wave (km/s) = 7.18560 8.35324 7.79133
#
# Compressibility (1/GPa) = 0.01633656
#
# Stress axis : x y z
#
# Youngs Moduli (GPa) = 43.91144 28.54216 69.55178
#
# Poissons Ratio (x) = 0.33926 0.59922
# Poissons Ratio (y) = 0.52194 0.51632
# Poissons Ratio (z) = 0.37832 0.21188
#
# Static dielectric constant tensor:
#      x y z
#    x 1.563980 0.000000 0.008370 
#    y 0.000000 1.586110 0.000000 
#    z 0.008370 0.000000 1.601520 
# 
# From -- ./inp_files/345383.got.cif
#   From: 2010.05.17/outbox.cif.g08.bks.cpg/sg12_173_cif.got.tgz:345383.got - 2010.06.03 13:09:07.
