data_PCOD9219801
_publ_section_title
;
Structure prediction by ZEFSAII (Michael W. Deem and Ramdas Pophale) SiO2 
 PCOD9219801
Probable space group: C 2/M
;
_chemical_formula_sum "Si O2"
_cell_formula_units_Z 56
_cell_length_a 13.729068
_cell_length_b 30.362437
_cell_length_c 9.931108
_cell_angle_alpha 90.000000
_cell_angle_beta 47.357458
_cell_angle_gamma 90.000000
_cell_volume 3045.185450
_symmetry_space_group_name_H-M "C 2/M"
_symmetry_group_IT_number 12
_symmetry_cell_setting 'monoclinic'
loop_
_space_group_symop_operation_xyz
x,y,z
-x,y,-z
-x,-y,-z
x,-y,z
1/2+x,1/2+y,z
1/2-x,1/2+y,-z
1/2-x,1/2-y,-z
1/2+x,1/2-y,z
loop_
_atom_site_type_symbol
_atom_site_label
_atom_site_fract_x
_atom_site_fract_y
_atom_site_fract_z
Si Si1 0.842357 0.138270 0.659908
Si Si2 0.694763 0.687291 0.055070
Si Si3 0.222255 0.301542 0.548962
Si Si4 0.131865 0.951566 0.786485
Si Si5 0.340469 0.354058 0.185304
Si Si6 0.040599 0.265423 0.117861
Si Si7 0.368170 0.547949 0.531448
O O1 0.820563 0.144923 0.837762
O O2 0.780092 0.177478 0.631049
O O3 0.792968 0.091609 0.649240
O O4 0.000000 0.140278 0.500000
O O5 0.564511 0.718550 0.170030
O O6 0.724261 0.672068 0.877216
O O7 0.814663 0.713843 0.008079
O O8 0.250000 0.250000 0.500000
O O9 0.289587 0.329544 0.366753
O O10 0.063191 0.298537 0.715955
O O11 0.198559 0.905521 0.765960
O O12 0.099196 0.947317 0.657636
O O13 0.198021 0.000000 0.741377
O O14 0.000000 0.953188 0.000000
O O15 0.500000 0.352874 0.000000
O O16 0.000000 0.258087 0.000000
O O17 0.500000 0.547075 0.500000
O O18 0.302490 0.500000 0.610224
#
# Coordination Sequence:
#
# PCOD9219801 Si02
#       7
#     8   8   8   8   8   8   8
#     4  11  21  35  55  87 112 154 192 231 294 347
#     4  11  24  39  60  79 116 151 194 247 289 340
#     4  12  23  37  59  80 116 155 193 239 285 342
#     4   9  18  32  52  79 115 153 186 234 297 353
#     4  11  22  37  56  88 120 152 191 243 292 350
#     4  11  23  43  58  82 113 155 200 243 288 339
#     4   9  18  32  51  80 117 151 191 235 285 353
#
# _framework density 18.389683999999999
#
# number of rings (size 3 to 8) (size 9 to 14) (size 15 to 20)
#    0.000    1.429    2.857    3.857    8.000    0.571 
#    0.000    0.000    0.000    0.000    0.000    6.000 
#    0.000    0.000    0.000    0.000    0.000    0.000 
#
# Total GULP energy -155923.764955 kJ/mol
# GULP energy per Si atom -5568.705891 kJ/mol
# Density = 1.834783 g / cm^3
# Si number density = 18.389684 Si / 1000 Ang^3
#
#
#
# Elastic Constant Matrix: (Units=GPa)
#
#
# Indices 1 2 3 4 5 6 
#
# 1 72.1310 25.2513 19.5155 0.0000 6.2778 0.0000
# 2 25.2513 133.3361 20.1119 0.0000 -0.0758 0.0000
# 3 19.5155 20.1119 74.9629 0.0000 10.7545 0.0000
# 4 0.0000 0.0000 0.0000 34.9266 0.0000 21.8261
# 5 6.2778 -0.0758 10.7545 0.0000 24.6621 0.0000
# 6 0.0000 0.0000 0.0000 21.8261 0.0000 42.8982
#
#
#
# Elastic Compliance Matrix: (Units=1/GPa)
#
#
# Indices 1 2 3 4 5 6 
#
# 1 0.015811 -0.002536 -0.003048 0.000000 -0.002703 0.000000
# 2 -0.002536 0.008246 -0.001758 0.000000 0.001438 0.000000
# 3 -0.003048 -0.001758 0.015462 0.000000 -0.005972 0.000000
# 4 0.000000 0.000000 0.000000 0.041979 0.000000 -0.021358
# 5 -0.002703 0.001438 -0.005972 0.000000 0.043845 0.000000
# 6 0.000000 0.000000 0.000000 -0.021358 0.000000 0.034178
#
#
# Mechanical properties :
#
#
# Convention : Reuss Voigt Hill
#
# Bulk Modulus (GPa) = 40.26656 45.57638 42.92147
# Shear Modulus (GPa) = 27.39962 34.86747 31.13354
#
# Velocity S-wave (km/s) = 3.86417 4.35907 4.11906
# Velocity P-wave (km/s) = 6.46938 7.08328 6.78328
#
# Compressibility (1/GPa) = 0.02483451
#
# Stress axis : x y z
#
# Youngs Moduli (GPa) = 63.24529 121.26811 64.67477
#
# Poissons Ratio (x) = 0.30756 0.19713
# Poissons Ratio (y) = 0.16040 0.11372
# Poissons Ratio (z) = 0.19277 0.21324
#
# Static dielectric constant tensor:
#      x y z
#    x 1.519060 0.000000 -0.036100 
#    y 0.000000 1.710380 0.000000 
#    z -0.036100 0.000000 1.643500 
# 
# From -- ./inp_files/68124.got.cif
#   From: 2010.05.17/outbox.cif.g08.bks.cpg/sg12_35_cif.got.tgz:68124.got - 2010.06.03 13:09:07.
