data_PCOD9219576
_publ_section_title
;
Structure prediction by ZEFSAII (Michael W. Deem and Ramdas Pophale) SiO2 
 PCOD9219576
Probable space group: C 2/M
;
_chemical_formula_sum "Si O2"
_cell_formula_units_Z 58
_cell_length_a 18.812877
_cell_length_b 18.236783
_cell_length_c 12.118549
_cell_angle_alpha 90.000000
_cell_angle_beta 36.485315
_cell_angle_gamma 90.000000
_cell_volume 2472.243248
_symmetry_space_group_name_H-M "C 2/M"
_symmetry_group_IT_number 12
_symmetry_cell_setting 'monoclinic'
loop_
_space_group_symop_operation_xyz
x,y,z
-x,y,-z
-x,-y,-z
x,-y,z
1/2+x,1/2+y,z
1/2-x,1/2+y,-z
1/2-x,1/2-y,-z
1/2+x,1/2-y,z
loop_
_atom_site_type_symbol
_atom_site_label
_atom_site_fract_x
_atom_site_fract_y
_atom_site_fract_z
Si Si1 0.722581 0.085609 0.109702
Si Si2 0.180557 0.661795 0.378302
Si Si3 0.000000 0.000000 0.500000
Si Si4 0.525732 0.616007 0.280383
Si Si5 0.085375 0.698759 0.728845
Si Si6 0.914539 0.129831 0.205815
Si Si7 0.710319 0.320163 0.353863
Si Si8 0.381011 0.915242 0.003731
O O1 0.653609 0.116357 0.302570
O O2 0.648429 0.088468 0.089414
O O3 0.755088 0.000000 0.088122
O O4 0.844964 0.131295 0.934034
O O5 0.092910 0.682471 0.588519
O O6 0.284799 0.621259 0.315896
O O7 0.230614 0.740777 0.275142
O O8 0.045539 0.061592 0.355093
O O9 0.446616 0.586907 0.276377
O O10 0.430531 0.672119 0.451357
O O11 0.061412 0.783576 0.791789
O O12 0.213094 0.682421 0.628157
O O13 0.986568 0.642241 0.895538
O O14 0.000000 0.109259 0.000000
O O15 0.766291 0.386009 0.214299
O O16 0.407503 0.000000 0.998566
#
# Coordination Sequence:
#
# PCOD9219576 Si02
#       8
#     8   8   2   8   8   8   8   8
#     4  11  26  47  65  95 140 183 223 279 343 415
#     4  11  22  43  70 102 136 173 222 287 347 405
#     4  12  28  44  62  96 150 186 208 274 350 406
#     4  12  23  44  70  99 135 180 221 279 345 407
#     4  11  22  44  67 102 136 174 225 288 340 402
#     4  11  20  41  73 104 138 171 223 294 351 398
#     4  11  23  41  74 102 131 171 226 290 346 399
#     4  11  27  46  64  92 138 188 232 275 337 409
#
# _framework density 23.460474999999999
#
# number of rings (size 3 to 8) (size 9 to 14) (size 15 to 20)
#    0.000    0.828    4.828    3.724    2.897    2.759 
#    3.724    2.414    0.000    0.000    0.000    0.000 
#    0.000    0.000    0.000    0.000    0.000    0.000 
#
# Total GULP energy -161643.830575 kJ/mol
# GULP energy per Si atom -5573.925192 kJ/mol
# Density = 2.340708 g / cm^3
# Si number density = 23.460475 Si / 1000 Ang^3
#
#
#
# Elastic Constant Matrix: (Units=GPa)
#
#
# Indices 1 2 3 4 5 6 
#
# 1 65.8643 37.1140 20.4444 0.0000 14.3542 0.0000
# 2 37.1140 78.1882 30.2105 0.0000 3.0492 0.0000
# 3 20.4444 30.2105 91.2764 0.0000 23.4307 0.0000
# 4 0.0000 0.0000 0.0000 30.4860 0.0000 27.3942
# 5 14.3542 3.0492 23.4307 0.0000 53.6488 0.0000
# 6 0.0000 0.0000 0.0000 27.3942 0.0000 9.0455
#
#
#
# Elastic Compliance Matrix: (Units=1/GPa)
#
#
# Indices 1 2 3 4 5 6 
#
# 1 0.022159 -0.010224 -0.000233 0.000000 -0.005246 0.000000
# 2 -0.010224 0.019483 -0.005154 0.000000 0.003879 0.000000
# 3 -0.000233 -0.005154 0.014216 0.000000 -0.005854 0.000000
# 4 0.000000 0.000000 0.000000 -0.019056 0.000000 0.057710
# 5 -0.005246 0.003879 -0.005854 0.000000 0.022379 0.000000
# 6 0.000000 0.000000 0.000000 0.057710 0.000000 -0.064224
#
#
# Mechanical properties :
#
#
# Convention : Reuss Voigt Hill
#
# Bulk Modulus (GPa) = 40.58949 45.65185 43.12067
# Shear Modulus (GPa) = 145.37756 28.47339 86.92547
#
# Velocity S-wave (km/s) = 7.88045 3.48756 6.09363
# Velocity P-wave (km/s) = 10.00704 5.97652 8.24195
#
# Compressibility (1/GPa) = 0.02463692
#
# Stress axis : x y z
#
# Youngs Moduli (GPa) = 45.12745 51.32693 70.34110
#
# Poissons Ratio (x) = 0.52477 0.01637
# Poissons Ratio (y) = 0.46138 0.36255
# Poissons Ratio (z) = 0.01050 0.26455
#
# Static dielectric constant tensor:
#      x y z
#    x 1.916210 0.000000 -0.025160 
#    y 0.000000 1.860820 0.000000 
#    z -0.025160 0.000000 1.930460 
# 
# From -- ./inp_files/168952.got.cif
#   From: 2010.05.17/outbox.cif.g08.bks.cpg/sg12_85_cif.got.tgz:168952.got - 2010.06.03 13:09:07.
