data_PCOD9219056
_publ_section_title
;
Structure prediction by ZEFSAII (Michael W. Deem and Ramdas Pophale) SiO2 
 PCOD9219056
Probable space group: C 2/M
;
_chemical_formula_sum "Si O2"
_cell_formula_units_Z 56
_cell_length_a 16.416530
_cell_length_b 24.636751
_cell_length_c 9.465377
_cell_angle_alpha 90.000000
_cell_angle_beta 124.767030
_cell_angle_gamma 90.000000
_cell_volume 3144.838722
_symmetry_space_group_name_H-M "C 2/M"
_symmetry_group_IT_number 12
_symmetry_cell_setting 'monoclinic'
loop_
_space_group_symop_operation_xyz
x,y,z
-x,y,-z
-x,-y,-z
x,-y,z
1/2+x,1/2+y,z
1/2-x,1/2+y,-z
1/2-x,1/2-y,-z
1/2+x,1/2-y,z
loop_
_atom_site_type_symbol
_atom_site_label
_atom_site_fract_x
_atom_site_fract_y
_atom_site_fract_z
Si Si1 0.911161 0.700015 0.009679
Si Si2 0.976875 0.000000 0.738554
Si Si3 0.218673 0.113287 0.254211
Si Si4 0.337735 0.500000 0.882702
Si Si5 0.417839 0.326465 0.082948
Si Si6 0.812587 0.187279 0.259113
Si Si7 0.106044 0.310083 0.676779
Si Si8 0.400273 0.614957 0.589600
O O1 0.925491 0.764806 0.041038
O O2 0.906172 0.680340 0.167102
O O3 0.804692 0.690148 0.833149
O O4 0.000000 0.678661 0.000000
O O5 0.909710 0.000000 0.815345
O O6 0.947984 0.054927 0.627746
O O7 0.089423 0.000000 0.909464
O O8 0.227434 0.053682 0.197023
O O9 0.310279 0.151339 0.306691
O O10 0.192144 0.111331 0.393298
O O11 0.119548 0.136982 0.081662
O O12 0.332480 0.328954 0.117141
O O13 0.516080 0.347427 0.255682
O O14 0.858785 0.247766 0.315683
O O15 0.865780 0.144599 0.413792
O O16 0.000000 0.317894 0.500000
#
# Coordination Sequence:
#
# PCOD9219056 Si02
#       8
#     8   4   8   4   8   8   8   8
#     4  11  22  37  58  82 115 154 191 227 284 348
#     4   9  18  34  54  87 118 146 191 234 283 336
#     4  11  20  36  59  84 112 149 196 234 284 330
#     4   9  18  34  58  84 113 150 193 240 279 334
#     4  11  19  37  54  82 115 152 185 228 278 343
#     4  11  22  38  53  83 124 150 183 232 289 341
#     4  11  23  39  57  83 117 150 191 241 279 335
#     4  11  22  33  60  86 117 152 187 233 284 347
#
# _framework density 17.806954999999999
#
# number of rings (size 3 to 8) (size 9 to 14) (size 15 to 20)
#    0.000    1.286    4.286    4.286    2.000    0.571 
#    0.000    2.500    0.000    0.000    0.000    1.000 
#    0.000    0.000    0.000    0.000    0.000    0.000 
#
# Total GULP energy -156334.619132 kJ/mol
# GULP energy per Si atom -5583.379255 kJ/mol
# Density = 1.776643 g / cm^3
# Si number density = 17.806955 Si / 1000 Ang^3
#
#
#
# Elastic Constant Matrix: (Units=GPa)
#
#
# Indices 1 2 3 4 5 6 
#
# 1 83.0345 11.2264 27.3509 0.0000 -0.1687 0.0000
# 2 11.2264 75.3499 19.4026 0.0000 -1.5464 0.0000
# 3 27.3509 19.4026 70.6235 0.0000 12.9992 0.0000
# 4 0.0000 0.0000 0.0000 37.9617 0.0000 -13.8343
# 5 -0.1687 -1.5464 12.9992 0.0000 28.0815 0.0000
# 6 0.0000 0.0000 0.0000 -13.8343 0.0000 21.9055
#
#
#
# Elastic Compliance Matrix: (Units=1/GPa)
#
#
# Indices 1 2 3 4 5 6 
#
# 1 0.014028 -0.000544 -0.005786 0.000000 0.002733 0.000000
# 2 -0.000544 0.014514 -0.004289 0.000000 0.002781 0.000000
# 3 -0.005786 -0.004289 0.019271 0.000000 -0.009192 0.000000
# 4 0.000000 0.000000 0.000000 0.034218 0.000000 0.021610
# 5 0.002733 0.002781 -0.009192 0.000000 0.040035 0.000000
# 6 0.000000 0.000000 0.000000 0.021610 0.000000 0.059298
#
#
# Mechanical properties :
#
#
# Convention : Reuss Voigt Hill
#
# Bulk Modulus (GPa) = 37.62995 38.32974 37.97984
# Shear Modulus (GPa) = 23.64510 28.99160 26.31835
#
# Velocity S-wave (km/s) = 3.64793 4.03936 3.84862
# Velocity P-wave (km/s) = 6.23869 6.58233 6.41281
#
# Compressibility (1/GPa) = 0.02657458
#
# Stress axis : x y z
#
# Youngs Moduli (GPa) = 71.28450 68.89950 51.89244
#
# Poissons Ratio (x) = 0.03748 0.30027
# Poissons Ratio (y) = 0.03878 0.22255
# Poissons Ratio (z) = 0.41248 0.29549
#
# Static dielectric constant tensor:
#      x y z
#    x 1.626090 0.000000 -0.018580 
#    y 0.000000 1.618550 0.000000 
#    z -0.018580 0.000000 1.593020 
# 
# From -- ./inp_files/66007.got.cif
#   From: 2010.05.17/outbox.cif.g08.bks.cpg/sg12_34_cif.got.tgz:66007.got - 2010.06.03 13:09:07.
