data_PCOD9219471
_publ_section_title
;
Structure prediction by ZEFSAII (Michael W. Deem and Ramdas Pophale) SiO2 
 PCOD9219471
Probable space group: C 2/M
;
_chemical_formula_sum "Si O2"
_cell_formula_units_Z 56
_cell_length_a 9.141805
_cell_length_b 26.088274
_cell_length_c 18.351316
_cell_angle_alpha 90.000000
_cell_angle_beta 137.200569
_cell_angle_gamma 90.000000
_cell_volume 2973.663356
_symmetry_space_group_name_H-M "C 2/M"
_symmetry_group_IT_number 12
_symmetry_cell_setting 'monoclinic'
loop_
_space_group_symop_operation_xyz
x,y,z
-x,y,-z
-x,-y,-z
x,-y,z
1/2+x,1/2+y,z
1/2-x,1/2+y,-z
1/2-x,1/2-y,-z
1/2+x,1/2-y,z
loop_
_atom_site_type_symbol
_atom_site_label
_atom_site_fract_x
_atom_site_fract_y
_atom_site_fract_z
Si Si1 0.007245 0.377481 0.697467
Si Si2 0.514800 0.623060 0.695464
Si Si3 0.245411 0.198751 0.116595
Si Si4 0.663244 0.940582 0.628062
Si Si5 0.825401 0.195045 0.501207
Si Si6 0.846154 0.941792 0.374237
Si Si7 0.604406 0.805847 0.117980
O O1 0.878364 0.336186 0.602860
O O2 0.839976 0.400023 0.694339
O O3 0.192331 0.347756 0.807475
O O4 0.048204 0.426350 0.661420
O O5 0.340713 0.604662 0.690086
O O6 0.422942 0.663971 0.604493
O O7 0.532086 0.570436 0.655391
O O8 0.731118 0.647979 0.805493
O O9 0.419958 0.200021 0.113544
O O10 0.239752 0.252782 0.158364
O O11 0.000000 0.192505 0.000000
O O12 0.500000 0.934408 0.500000
O O13 0.733924 0.000000 0.654664
O O14 0.750000 0.250000 0.500000
O O15 0.000000 0.198419 0.500000
O O16 0.000000 0.932202 0.500000
O O17 0.773614 0.000000 0.351155
O O18 0.500000 0.813568 0.000000
#
# Coordination Sequence:
#
# PCOD9219471 Si02
#       7
#     8   8   8   8   8   8   8
#     4  12  22  40  61  91 127 160 205 253 313 369
#     4  12  22  40  61  91 127 160 205 253 313 369
#     4  11  24  42  66  94 123 164 211 254 308 373
#     4  11  24  40  63  96 129 165 210 256 310 370
#     4  12  24  38  57  90 126 162 197 246 313 378
#     4  11  20  38  65  90 121 161 206 256 304 372
#     4  11  24  42  66  94 123 164 211 254 308 373
#
# _framework density 18.831990000000001
#
# number of rings (size 3 to 8) (size 9 to 14) (size 15 to 20)
#    0.000    0.571    5.714    3.429    6.000    2.286 
#    0.000    0.000    0.000    5.143    0.000    0.000 
#    0.000    0.000    0.000    0.000    0.000    0.000 
#
# Total GULP energy -156252.866139 kJ/mol
# GULP energy per Si atom -5580.459505 kJ/mol
# Density = 1.878913 g / cm^3
# Si number density = 18.831990 Si / 1000 Ang^3
#
#
#
# Elastic Constant Matrix: (Units=GPa)
#
#
# Indices 1 2 3 4 5 6 
#
# 1 62.5730 22.6279 12.2232 0.0000 0.8828 0.0000
# 2 22.6279 121.1354 44.2192 -0.0001 5.1056 0.0000
# 3 12.2232 44.2192 71.2805 0.0007 3.7929 0.0003
# 4 0.0000 -0.0001 0.0007 35.5807 0.0002 4.8671
# 5 0.8828 5.1056 3.7929 0.0002 25.4357 0.0001
# 6 0.0000 0.0000 0.0003 4.8671 0.0001 39.6582
#
#
#
# Elastic Compliance Matrix: (Units=1/GPa)
#
#
# Indices 1 2 3 4 5 6 
#
# 1 0.017224 -0.002770 -0.001243 0.000000 0.000143 0.000000
# 2 -0.002770 0.011152 -0.006380 0.000000 -0.001191 0.000000
# 3 -0.001243 -0.006380 0.018274 0.000000 -0.001401 0.000000
# 4 0.000000 0.000000 0.000000 0.028585 0.000000 -0.003508
# 5 0.000143 -0.001191 -0.001401 0.000000 0.039758 0.000000
# 6 0.000000 0.000000 0.000000 -0.003508 0.000000 0.025646
#
#
# Mechanical properties :
#
#
# Convention : Reuss Voigt Hill
#
# Bulk Modulus (GPa) = 38.66203 45.90328 42.28266
# Shear Modulus (GPa) = 29.40401 31.86283 30.63342
#
# Velocity S-wave (km/s) = 3.95572 4.11780 4.03757
# Velocity P-wave (km/s) = 6.43725 6.85831 6.65111
#
# Compressibility (1/GPa) = 0.02586517
#
# Stress axis : x y z
#
# Youngs Moduli (GPa) = 58.05958 89.67309 54.72122
#
# Poissons Ratio (x) = 0.24837 0.06802
# Poissons Ratio (y) = 0.16081 0.34910
# Poissons Ratio (z) = 0.07217 0.57208
#
# Static dielectric constant tensor:
#      x y z
#    x 1.661640 0.000000 0.017830 
#    y 0.000000 1.621510 0.000000 
#    z 0.017830 0.000000 1.620540 
# 
# From -- ./inp_files/259856.got.cif
#   From: 2010.05.17/outbox.cif.g08.bks.cpg/sg12_130_cif.got.tgz:259856.got - 2010.06.03 13:09:07.
