data_PCOD9219914
_publ_section_title
;
Structure prediction by ZEFSAII (Michael W. Deem and Ramdas Pophale) SiO2 
 PCOD9219914
Probable space group: C 2/M
;
_chemical_formula_sum "Si O2"
_cell_formula_units_Z 52
_cell_length_a 22.010618
_cell_length_b 16.313475
_cell_length_c 9.271240
_cell_angle_alpha 90.000000
_cell_angle_beta 127.296820
_cell_angle_gamma 90.000000
_cell_volume 2648.259928
_symmetry_space_group_name_H-M "C 2/M"
_symmetry_group_IT_number 12
_symmetry_cell_setting 'monoclinic'
loop_
_space_group_symop_operation_xyz
x,y,z
-x,y,-z
-x,-y,-z
x,-y,z
1/2+x,1/2+y,z
1/2-x,1/2+y,-z
1/2-x,1/2-y,-z
1/2+x,1/2-y,z
loop_
_atom_site_type_symbol
_atom_site_label
_atom_site_fract_x
_atom_site_fract_y
_atom_site_fract_z
Si Si1 0.283008 0.590110 0.583783
Si Si2 0.316982 0.902869 0.272199
Si Si3 0.805523 0.314711 0.779215
Si Si4 0.921552 0.187743 0.800320
Si Si5 0.750000 0.750000 0.000000
Si Si6 0.552007 0.093488 0.933232
Si Si7 0.539111 0.203050 0.412281
O O1 0.265564 0.500000 0.501134
O O2 0.242975 0.596664 0.681258
O O3 0.248212 0.656869 0.426770
O O4 0.373135 0.605096 0.722226
O O5 0.393999 0.859735 0.444912
O O6 0.329062 0.000000 0.249627
O O7 0.284707 0.841936 0.103504
O O8 0.866202 0.248168 0.809751
O O9 0.759595 0.277523 0.845678
O O10 0.860715 0.389359 0.903398
O O11 0.933449 0.228078 0.660310
O O12 0.000000 0.180008 0.000000
O O13 0.524246 0.152387 0.767045
O O14 0.538489 0.000000 0.872876
O O15 0.500000 0.110708 0.000000
O O16 0.500000 0.237695 0.500000
#
# Coordination Sequence:
#
# PCOD9219914 Si02
#       7
#     8   8   8   8   4   8   8
#     4  11  24  43  70  94 126 176 228 276 324 389
#     4  11  24  42  64  95 133 175 224 274 328 401
#     4  12  21  42  64  96 124 169 212 267 330 394
#     4  12  23  43  65  92 129 172 220 271 329 396
#     4  12  26  38  66  94 132 170 216 272 330 390
#     4  11  21  36  60  91 129 167 205 250 321 402
#     4  12  23  37  61  96 130 168 211 261 332 395
#
# _framework density 19.635535000000001
#
# number of rings (size 3 to 8) (size 9 to 14) (size 15 to 20)
#    0.000    0.462    6.154    3.231    0.000    6.462 
#    0.000    0.000    0.000    0.462    0.000    0.000 
#    0.000    0.000    0.000    0.000    0.000    0.000 
#
# Total GULP energy -144775.677929 kJ/mol
# GULP energy per Si atom -5568.295305 kJ/mol
# Density = 1.959084 g / cm^3
# Si number density = 19.635535 Si / 1000 Ang^3
#
#
#
# Elastic Constant Matrix: (Units=GPa)
#
#
# Indices 1 2 3 4 5 6 
#
# 1 49.9146 20.9221 31.4261 0.0000 -8.6939 0.0000
# 2 20.9221 61.9385 31.5160 0.0000 3.9984 0.0000
# 3 31.4261 31.5160 89.5883 0.0000 3.9165 0.0000
# 4 0.0000 0.0000 0.0000 27.6987 0.0000 5.5449
# 5 -8.6939 3.9984 3.9165 0.0000 34.9961 0.0000
# 6 0.0000 0.0000 0.0000 5.5449 0.0000 22.0604
#
#
#
# Elastic Compliance Matrix: (Units=1/GPa)
#
#
# Indices 1 2 3 4 5 6 
#
# 1 0.029628 -0.006214 -0.008602 0.000000 0.009033 0.000000
# 2 -0.006214 0.021045 -0.005076 0.000000 -0.003380 0.000000
# 3 -0.008602 -0.005076 0.016112 0.000000 -0.003360 0.000000
# 4 0.000000 0.000000 0.000000 0.038016 0.000000 -0.009555
# 5 0.009033 -0.003380 -0.003360 0.000000 0.031581 0.000000
# 6 0.000000 0.000000 0.000000 -0.009555 0.000000 0.047732
#
#
# Mechanical properties :
#
#
# Convention : Reuss Voigt Hill
#
# Bulk Modulus (GPa) = 37.03509 41.01887 39.02698
# Shear Modulus (GPa) = 21.46867 24.78949 23.12908
#
# Velocity S-wave (km/s) = 3.31018 3.55700 3.43581
# Velocity P-wave (km/s) = 5.78895 6.14858 5.97148
#
# Compressibility (1/GPa) = 0.02700142
#
# Stress axis : x y z
#
# Youngs Moduli (GPa) = 33.75189 47.51715 62.06540
#
# Poissons Ratio (x) = 0.29528 0.53388
# Poissons Ratio (y) = 0.20974 0.31503
# Poissons Ratio (z) = 0.29033 0.24119
#
# Static dielectric constant tensor:
#      x y z
#    x 1.705760 0.000000 0.011490 
#    y 0.000000 1.710210 0.000000 
#    z 0.011490 0.000000 1.682160 
# 
# From -- ./inp_files/88489.got.cif
#   From: 2010.05.17/outbox.cif.g08.bks.cpg/sg12_45_cif.got.tgz:88489.got - 2010.06.03 13:09:07.
