data_PCOD9219350
_publ_section_title
;
Structure prediction by ZEFSAII (Michael W. Deem and Ramdas Pophale) SiO2 
 PCOD9219350
Probable space group: C 2/M
;
_chemical_formula_sum "Si O2"
_cell_formula_units_Z 32
_cell_length_a 9.404863
_cell_length_b 14.533228
_cell_length_c 12.340293
_cell_angle_alpha 90.000000
_cell_angle_beta 120.584397
_cell_angle_gamma 90.000000
_cell_volume 1452.054652
_symmetry_space_group_name_H-M "C 2/M"
_symmetry_group_IT_number 12
_symmetry_cell_setting 'monoclinic'
loop_
_space_group_symop_operation_xyz
x,y,z
-x,y,-z
-x,-y,-z
x,-y,z
1/2+x,1/2+y,z
1/2-x,1/2+y,-z
1/2-x,1/2-y,-z
1/2+x,1/2-y,z
loop_
_atom_site_type_symbol
_atom_site_label
_atom_site_fract_x
_atom_site_fract_y
_atom_site_fract_z
Si Si1 0.871649 0.500000 0.329645
Si Si2 0.870177 0.698927 0.274985
Si Si3 0.994344 0.000000 0.171549
Si Si4 0.000000 0.839839 0.500000
Si Si5 0.012497 0.200495 0.880225
Si Si6 0.170478 0.000000 0.459148
O O1 0.942816 0.597395 0.321543
O O2 0.685026 0.500000 0.203791
O O3 0.826700 0.500000 0.440386
O O4 0.956187 0.774552 0.383253
O O5 0.677735 0.696549 0.234449
O O6 0.889960 0.731058 0.159290
O O7 0.918822 0.903806 0.104491
O O8 0.019658 0.000000 0.311712
O O9 0.854356 0.909120 0.479811
O O10 0.000000 0.227677 0.000000
#
# Coordination Sequence:
#
# PCOD9219350 Si02
#       6
#     4   8   4   4   8   4
#     4   8  19  36  53  77 125 150 190 228 289 356
#     4  11  22  39  59  87 118 157 195 236 295 341
#     4   8  16  38  57  83 110 152 200 229 283 341
#     4  11  20  35  66  86 120 145 196 249 284 348
#     4  11  22  39  62  87 118 154 198 241 286 345
#     4   9  18  37  57  88 115 152 194 237 283 354
#
# _framework density 22.037738999999998
#
# number of rings (size 3 to 8) (size 9 to 14) (size 15 to 20)
#    0.750    1.250    2.500    1.125    0.000    4.500 
#    0.000    4.375    0.000    0.000    0.000    0.000 
#    0.000    0.000    0.000    0.000    0.000    0.000 
#
# Total GULP energy -89356.568546 kJ/mol
# GULP energy per Si atom -5584.785534 kJ/mol
# Density = 2.198758 g / cm^3
# Si number density = 22.037739 Si / 1000 Ang^3
#
#
#
# Elastic Constant Matrix: (Units=GPa)
#
#
# Indices 1 2 3 4 5 6 
#
# 1 67.4334 46.4165 9.0371 0.0000 -16.2287 0.0000
# 2 46.4165 203.4100 49.7369 0.0000 -32.3316 0.0000
# 3 9.0371 49.7369 79.7879 0.0000 -34.2205 0.0000
# 4 0.0000 0.0000 0.0000 17.6616 0.0000 -6.8901
# 5 -16.2287 -32.3316 -34.2205 0.0000 40.6984 0.0000
# 6 0.0000 0.0000 0.0000 -6.8901 0.0000 11.2038
#
#
#
# Elastic Compliance Matrix: (Units=1/GPa)
#
#
# Indices 1 2 3 4 5 6 
#
# 1 0.018865 -0.003999 0.003472 0.000000 0.007265 0.000000
# 2 -0.003999 0.006809 -0.003371 0.000000 0.000980 0.000000
# 3 0.003472 -0.003371 0.021406 0.000000 0.016706 0.000000
# 4 0.000000 0.000000 0.000000 0.074492 0.000000 0.045811
# 5 0.007265 0.000980 0.016706 0.000000 0.042293 0.000000
# 6 0.000000 0.000000 0.000000 0.045811 0.000000 0.117429
#
#
# Mechanical properties :
#
#
# Convention : Reuss Voigt Hill
#
# Bulk Modulus (GPa) = 25.45563 62.33471 43.89517
# Shear Modulus (GPa) = 16.54616 30.27548 23.41082
#
# Velocity S-wave (km/s) = 2.74306 3.71050 3.26284
# Velocity P-wave (km/s) = 4.64850 6.83403 5.84433
#
# Compressibility (1/GPa) = 0.03928405
#
# Stress axis : x y z
#
# Youngs Moduli (GPa) = 53.00741 146.86916 46.71520
#
# Poissons Ratio (x) = 0.58735 -0.16220
# Poissons Ratio (y) = 0.21198 0.15749
# Poissons Ratio (z) = -0.18405 0.49512
#
# Static dielectric constant tensor:
#      x y z
#    x 1.851810 0.000000 0.087520 
#    y 0.000000 1.804260 0.000000 
#    z 0.087520 0.000000 1.863760 
# 
# From -- ./inp_files/128715.got.cif
#   From: 2010.05.17/outbox.cif.g08.bks.cpg/sg12_65_cif.got.tgz:128715.got - 2010.06.03 13:09:07.
