data_PCOD9219851
_publ_section_title
;
Structure prediction by ZEFSAII (Michael W. Deem and Ramdas Pophale) SiO2 
 PCOD9219851
Probable space group: C 2/M
;
_chemical_formula_sum "Si O2"
_cell_formula_units_Z 40
_cell_length_a 10.286190
_cell_length_b 17.152124
_cell_length_c 11.377932
_cell_angle_alpha 90.000000
_cell_angle_beta 94.990623
_cell_angle_gamma 90.000000
_cell_volume 1999.798426
_symmetry_space_group_name_H-M "C 2/M"
_symmetry_group_IT_number 12
_symmetry_cell_setting 'monoclinic'
loop_
_space_group_symop_operation_xyz
x,y,z
-x,y,-z
-x,-y,-z
x,-y,z
1/2+x,1/2+y,z
1/2-x,1/2+y,-z
1/2-x,1/2-y,-z
1/2+x,1/2-y,z
loop_
_atom_site_type_symbol
_atom_site_label
_atom_site_fract_x
_atom_site_fract_y
_atom_site_fract_z
Si Si1 0.769293 0.343133 0.253091
Si Si2 0.847425 0.086040 0.986515
Si Si3 0.709152 0.337504 0.788986
Si Si4 0.539658 0.591276 0.367278
Si Si5 0.483244 0.092290 0.857192
O O1 0.692359 0.386480 0.143410
O O2 0.763439 0.250185 0.246947
O O3 0.683357 0.371858 0.356888
O O4 0.915227 0.367317 0.225148
O O5 0.789081 0.000000 0.011747
O O6 0.815541 0.154217 0.074177
O O7 0.000000 0.077018 0.000000
O O8 0.579290 0.369974 0.715531
O O9 0.841200 0.388114 0.792996
O O10 0.500000 0.597845 0.500000
O O11 0.545393 0.500000 0.334932
O O12 0.506536 0.000000 0.857029
O O13 0.500000 0.115989 0.000000
#
# Coordination Sequence:
#
# PCOD9219851 Si02
#       5
#     8   8   8   8   8
#     4  12  24  39  63  96 131 164 206 263 320 374
#     4  11  21  35  63  95 130 171 213 255 306 381
#     4  12  24  39  63  96 131 164 206 263 320 374
#     4  11  25  47  71  89 116 170 230 268 304 370
#     4  11  23  36  57  91 132 167 196 243 313 386
#
# _framework density 20.002016999999999
#
# number of rings (size 3 to 8) (size 9 to 14) (size 15 to 20)
#    0.000    0.600    4.000    5.400    0.000    0.800 
#    0.000    1.000    0.000    3.600    0.000    0.000 
#    0.000    0.000    0.000    0.000    0.000    0.000 
#
# Total GULP energy -111498.601561 kJ/mol
# GULP energy per Si atom -5574.930078 kJ/mol
# Density = 1.995649 g / cm^3
# Si number density = 20.002017 Si / 1000 Ang^3
#
#
#
# Elastic Constant Matrix: (Units=GPa)
#
#
# Indices 1 2 3 4 5 6 
#
# 1 97.8316 15.1283 8.3041 0.0000 -18.4869 0.0000
# 2 15.1283 108.0399 17.8111 0.0000 -21.8518 0.0000
# 3 8.3041 17.8111 42.3014 0.0000 -23.3986 0.0000
# 4 0.0000 0.0000 0.0000 23.1485 0.0000 -0.8172
# 5 -18.4869 -21.8518 -23.3986 0.0000 30.6529 0.0000
# 6 0.0000 0.0000 0.0000 -0.8172 0.0000 68.8734
#
#
#
# Elastic Compliance Matrix: (Units=1/GPa)
#
#
# Indices 1 2 3 4 5 6 
#
# 1 0.011730 -0.000282 0.002800 0.000000 0.009012 0.000000
# 2 -0.000282 0.010828 -0.000568 0.000000 0.007116 0.000000
# 3 0.002800 -0.000568 0.041608 0.000000 0.033045 0.000000
# 4 0.000000 0.000000 0.000000 0.043217 0.000000 0.000513
# 5 0.009012 0.007116 0.033045 0.000000 0.068356 0.000000
# 6 0.000000 0.000000 0.000000 0.000513 0.000000 0.014525
#
#
# Mechanical properties :
#
#
# Convention : Reuss Voigt Hill
#
# Bulk Modulus (GPa) = 14.69112 36.73998 25.71555
# Shear Modulus (GPa) = 23.91748 38.33026 31.12387
#
# Velocity S-wave (km/s) = 3.46172 4.38233 3.94894
# Velocity P-wave (km/s) = 4.83102 6.63434 5.80315
#
# Compressibility (1/GPa) = 0.06806832
#
# Stress axis : x y z
#
# Youngs Moduli (GPa) = 85.24878 92.35221 24.03398
#
# Poissons Ratio (x) = 0.02600 -0.06731
# Poissons Ratio (y) = 0.02400 0.01365
# Poissons Ratio (z) = -0.23874 0.05244
#
# Static dielectric constant tensor:
#      x y z
#    x 1.767760 0.000000 -0.043460 
#    y 0.000000 1.701310 0.000000 
#    z -0.043460 0.000000 1.707380 
# 
# From -- ./inp_files/129233.got.cif
#   From: 2010.05.17/outbox.cif.g08.bks.cpg/sg12_65_cif.got.tgz:129233.got - 2010.06.03 13:09:07.
