data_PCOD9219209
_publ_section_title
;
Structure prediction by ZEFSAII (Michael W. Deem and Ramdas Pophale) SiO2 
 PCOD9219209
Probable space group: C 2/M
;
_chemical_formula_sum "Si O2"
_cell_formula_units_Z 48
_cell_length_a 17.299194
_cell_length_b 23.615092
_cell_length_c 11.462991
_cell_angle_alpha 90.000000
_cell_angle_beta 34.670565
_cell_angle_gamma 90.000000
_cell_volume 2663.892110
_symmetry_space_group_name_H-M "C 2/M"
_symmetry_group_IT_number 12
_symmetry_cell_setting 'monoclinic'
loop_
_space_group_symop_operation_xyz
x,y,z
-x,y,-z
-x,-y,-z
x,-y,z
1/2+x,1/2+y,z
1/2-x,1/2+y,-z
1/2-x,1/2-y,-z
1/2+x,1/2-y,z
loop_
_atom_site_type_symbol
_atom_site_label
_atom_site_fract_x
_atom_site_fract_y
_atom_site_fract_z
Si Si1 0.634963 0.934840 0.677086
Si Si2 0.842931 0.270681 0.202289
Si Si3 0.813989 0.434130 0.111414
Si Si4 0.715345 0.677875 0.129327
Si Si5 0.720880 0.823725 0.480244
Si Si6 0.456281 0.778036 0.685078
O O1 0.683760 0.927378 0.750812
O O2 0.708263 0.890770 0.502053
O O3 0.656512 0.000000 0.618909
O O4 0.471949 0.924059 0.879161
O O5 0.772776 0.286039 0.168337
O O6 0.828109 0.205656 0.261692
O O7 0.000000 0.287796 0.000000
O O8 0.232425 0.303639 0.599744
O O9 0.780805 0.500000 0.127015
O O10 0.721631 0.386951 0.163446
O O11 0.577835 0.710819 0.266676
O O12 0.821923 0.689081 0.893371
O O13 0.577157 0.797581 0.617720
O O14 0.500000 0.791827 0.500000
#
# Coordination Sequence:
#
# PCOD9219209 Si02
#       6
#     8   8   8   8   8   8
#     4   9  16  28  50  78 104 131 166 216 266 299
#     4  11  20  32  52  79 103 133 168 218 268 298
#     4   9  16  28  50  77 103 132 167 215 264 300
#     4  11  20  33  52  73 109 136 168 212 255 315
#     4  11  20  32  53  77 109 132 170 214 257 311
#     4  11  22  33  47  75 103 146 169 201 258 312
#
# _framework density 18.018747999999999
#
# number of rings (size 3 to 8) (size 9 to 14) (size 15 to 20)
#    0.000    1.667    6.667    1.000    0.000    0.000 
#    0.000    0.000    0.000    3.000    0.000    1.167 
#    0.000    0.000    0.000    0.000    0.000    0.000 
#
# Total GULP energy -133825.960332 kJ/mol
# GULP energy per Si atom -5576.081680 kJ/mol
# Density = 1.797774 g / cm^3
# Si number density = 18.018748 Si / 1000 Ang^3
#
#
#
# Elastic Constant Matrix: (Units=GPa)
#
#
# Indices 1 2 3 4 5 6 
#
# 1 35.8694 23.0753 12.1196 0.0004 6.3957 0.0001
# 2 23.0753 138.9622 15.7264 -0.0001 10.2736 0.0004
# 3 12.1196 15.7264 52.2123 -0.0001 19.0015 0.0003
# 4 0.0004 -0.0001 -0.0001 24.1483 -0.0003 3.5619
# 5 6.3957 10.2736 19.0015 -0.0003 18.2470 0.0001
# 6 0.0001 0.0004 0.0003 3.5619 0.0001 31.0809
#
#
#
# Elastic Compliance Matrix: (Units=1/GPa)
#
#
# Indices 1 2 3 4 5 6 
#
# 1 0.033236 -0.004676 -0.004871 -0.000001 -0.003944 0.000000
# 2 -0.004676 0.008211 -0.000486 0.000000 -0.002478 0.000000
# 3 -0.004871 -0.000486 0.031736 0.000000 -0.031067 0.000000
# 4 -0.000001 0.000000 0.000000 0.042123 0.000001 -0.004827
# 5 -0.003944 -0.002478 -0.031067 0.000001 0.089933 0.000000
# 6 0.000000 0.000000 0.000000 -0.004827 0.000000 0.032727
#
#
# Mechanical properties :
#
#
# Convention : Reuss Voigt Hill
#
# Bulk Modulus (GPa) = 18.82640 36.54293 27.68466
# Shear Modulus (GPa) = 18.13319 26.43675 22.28497
#
# Velocity S-wave (km/s) = 3.17575 3.83453 3.52058
# Velocity P-wave (km/s) = 4.89061 6.31897 5.65011
#
# Compressibility (1/GPa) = 0.05311691
#
# Stress axis : x y z
#
# Youngs Moduli (GPa) = 30.08762 121.78952 31.51023
#
# Poissons Ratio (x) = 0.56951 0.15348
# Poissons Ratio (y) = 0.14069 0.01531
# Poissons Ratio (z) = 0.14655 0.05918
#
# Static dielectric constant tensor:
#      x y z
#    x 1.646260 0.000000 -0.004790 
#    y 0.000000 1.668100 0.000000 
#    z -0.004790 0.000000 1.634910 
# 
# From -- ./inp_files/169594.got.cif
#   From: 2010.05.17/outbox.cif.g08.bks.cpg/sg12_85_cif.got.tgz:169594.got - 2010.06.03 13:09:07.
