data_PCOD9219070
_publ_section_title
;
Structure prediction by ZEFSAII (Michael W. Deem and Ramdas Pophale) SiO2 
 PCOD9219070
Probable space group: C 2/M
;
_chemical_formula_sum "Si O2"
_cell_formula_units_Z 44
_cell_length_a 20.444632
_cell_length_b 17.517623
_cell_length_c 19.711024
_cell_angle_alpha 90.000000
_cell_angle_beta 161.364117
_cell_angle_gamma 90.000000
_cell_volume 2255.829664
_symmetry_space_group_name_H-M "C 2/M"
_symmetry_group_IT_number 12
_symmetry_cell_setting 'monoclinic'
loop_
_space_group_symop_operation_xyz
x,y,z
-x,y,-z
-x,-y,-z
x,-y,z
1/2+x,1/2+y,z
1/2-x,1/2+y,-z
1/2-x,1/2-y,-z
1/2+x,1/2-y,z
loop_
_atom_site_type_symbol
_atom_site_label
_atom_site_fract_x
_atom_site_fract_y
_atom_site_fract_z
Si Si1 0.816598 0.322361 0.521646
Si Si2 0.589840 0.412012 0.902649
Si Si3 0.000000 0.805688 0.500000
Si Si4 0.679819 0.222014 0.796427
Si Si5 0.634294 0.867716 0.944337
Si Si6 0.651844 0.087842 0.212147
O O1 0.750000 0.250000 0.500000
O O2 0.636037 0.377454 0.323525
O O3 0.943747 0.290917 0.583862
O O4 0.976316 0.362889 0.727491
O O5 0.599040 0.500000 0.932306
O O6 0.706708 0.355970 0.070557
O O7 0.677448 0.405823 0.911090
O O8 0.841213 0.755271 0.299625
O O9 0.852949 0.858897 0.402708
O O10 0.782111 0.286891 0.944922
O O11 0.498688 0.902303 0.871378
O O12 0.721008 0.000000 0.277208
O O13 0.500000 0.102953 0.000000
#
# Coordination Sequence:
#
# PCOD9219070 Si02
#       6
#     8   8   4   8   8   8
#     4  11  19  37  65  90 121 162 207 254 314 373
#     4  11  24  41  65  96 130 160 204 270 325 362
#     4  12  25  42  65  90 124 182 218 250 307 366
#     4  11  23  40  65  92 124 166 217 259 299 383
#     4  11  21  40  64  94 127 165 204 251 312 383
#     4  11  24  40  60  91 134 168 208 257 307 373
#
# _framework density 19.505019000000001
#
# number of rings (size 3 to 8) (size 9 to 14) (size 15 to 20)
#    0.000    0.909    5.455    3.000    0.000    3.636 
#    0.000    0.455    0.000    1.091    0.000    0.000 
#    0.000    0.000    0.000    0.000    0.000    0.000 
#
# Total GULP energy -122621.857228 kJ/mol
# GULP energy per Si atom -5573.720783 kJ/mol
# Density = 1.946062 g / cm^3
# Si number density = 19.505019 Si / 1000 Ang^3
#
#
#
# Elastic Constant Matrix: (Units=GPa)
#
#
# Indices 1 2 3 4 5 6 
#
# 1 60.3156 18.5248 21.5202 -0.0121 -0.2669 -0.0161
# 2 18.5248 143.2028 56.3198 0.0282 -7.2075 0.0054
# 3 21.5202 56.3198 84.5898 0.0104 7.2014 0.0041
# 4 -0.0121 0.0282 0.0104 25.4473 0.0097 1.8369
# 5 -0.2669 -7.2075 7.2014 0.0097 28.0016 0.0034
# 6 -0.0161 0.0054 0.0041 1.8369 0.0034 13.1980
#
#
#
# Elastic Compliance Matrix: (Units=1/GPa)
#
#
# Indices 1 2 3 4 5 6 
#
# 1 0.018324 -0.000598 -0.004361 0.000009 0.001142 0.000022
# 2 -0.000598 0.009975 -0.006858 -0.000010 0.004326 -0.000002
# 3 -0.004361 -0.006858 0.018046 0.000001 -0.006448 -0.000007
# 4 0.000009 -0.000010 0.000001 0.039696 -0.000016 -0.005525
# 5 0.001142 0.004326 -0.006448 -0.000016 0.038495 -0.000006
# 6 0.000022 -0.000002 -0.000007 -0.005525 -0.000006 0.076538
#
#
# Mechanical properties :
#
#
# Convention : Reuss Voigt Hill
#
# Bulk Modulus (GPa) = 44.02890 53.42642 48.72766
# Shear Modulus (GPa) = 21.52599 26.11226 23.81913
#
# Velocity S-wave (km/s) = 3.32567 3.66286 3.49833
# Velocity P-wave (km/s) = 6.11301 6.73344 6.43071
#
# Compressibility (1/GPa) = 0.02271235
#
# Stress axis : x y z
#
# Youngs Moduli (GPa) = 54.57295 100.24911 55.41422
#
# Poissons Ratio (x) = 0.05993 0.24166
# Poissons Ratio (y) = 0.03262 0.38001
# Poissons Ratio (z) = 0.23799 0.68747
#
# Static dielectric constant tensor:
#      x y z
#    x 1.773050 0.000130 0.114850 
#    y 0.000130 1.671900 -0.000430 
#    z 0.114850 -0.000430 1.513470 
# 
# From -- ./inp_files/322489.got.cif
#   From: 2010.05.17/outbox.cif.g08.bks.cpg/sg12_162_cif.got.tgz:322489.got - 2010.06.03 13:09:07.
