data_PCOD9219109
_publ_section_title
;
Structure prediction by ZEFSAII (Michael W. Deem and Ramdas Pophale) SiO2 
 PCOD9219109
Probable space group: C 2/M
;
_chemical_formula_sum "Si O2"
_cell_formula_units_Z 64
_cell_length_a 14.583357
_cell_length_b 18.068137
_cell_length_c 17.156585
_cell_angle_alpha 90.000000
_cell_angle_beta 138.101352
_cell_angle_gamma 90.000000
_cell_volume 3018.963713
_symmetry_space_group_name_H-M "C 2/M"
_symmetry_group_IT_number 12
_symmetry_cell_setting 'monoclinic'
loop_
_space_group_symop_operation_xyz
x,y,z
-x,y,-z
-x,-y,-z
x,-y,z
1/2+x,1/2+y,z
1/2-x,1/2+y,-z
1/2-x,1/2-y,-z
1/2+x,1/2-y,z
loop_
_atom_site_type_symbol
_atom_site_label
_atom_site_fract_x
_atom_site_fract_y
_atom_site_fract_z
Si Si1 0.125146 0.782461 0.267529
Si Si2 0.524977 0.285165 0.375608
Si Si3 0.878044 0.380954 0.781288
Si Si4 0.303830 0.085604 0.048750
Si Si5 0.387853 0.137967 0.485076
Si Si6 0.396638 0.307448 0.001481
Si Si7 0.236390 0.347383 0.136476
Si Si8 0.225628 0.080788 0.530862
O O1 0.092030 0.762863 0.335530
O O2 0.159445 0.705943 0.247880
O O3 0.250871 0.839343 0.350195
O O4 0.988241 0.808351 0.137467
O O5 0.541579 0.214598 0.441105
O O6 0.374154 0.314288 0.261249
O O7 0.614822 0.354016 0.461517
O O8 0.841323 0.396052 0.847527
O O9 0.795511 0.418684 0.659618
O O10 0.036521 0.395153 0.862512
O O11 0.233831 0.140802 0.066228
O O12 0.287854 0.000000 0.060112
O O13 0.236930 0.103078 0.922432
O O14 0.500000 0.100283 0.500000
O O15 0.333559 0.097270 0.528774
O O16 0.349092 0.224478 0.948409
O O17 0.500000 0.333999 0.000000
O O18 0.163661 0.000000 0.476673
#
# Coordination Sequence:
#
# PCOD9219109 Si02
#       8
#     8   8   8   8   8   8   8   8
#     4  11  19  41  65  95 124 161 210 275 319 363
#     4  11  22  40  66  94 125 167 216 268 320 373
#     4  12  22  42  66  97 127 165 217 268 323 375
#     4  12  27  43  61  91 136 175 208 260 325 389
#     4  11  23  39  68  97 125 161 214 275 318 373
#     4  12  24  42  70  99 123 164 222 272 316 376
#     4  12  24  40  70  97 126 166 220 273 317 376
#     4  11  25  43  63  92 134 174 210 258 322 391
#
# _framework density 21.199328000000001
#
# number of rings (size 3 to 8) (size 9 to 14) (size 15 to 20)
#    0.000    0.500    6.250    3.375    0.000    2.500 
#    0.000    0.625    0.000    0.000    0.000    0.000 
#    0.000    0.000    0.000    0.000    0.000    0.000 
#
# Total GULP energy -178878.766666 kJ/mol
# GULP energy per Si atom -5589.961458 kJ/mol
# Density = 2.115108 g / cm^3
# Si number density = 21.199328 Si / 1000 Ang^3
#
#
#
# Elastic Constant Matrix: (Units=GPa)
#
#
# Indices 1 2 3 4 5 6 
#
# 1 75.7152 7.1441 5.6963 0.0001 -3.0770 0.0001
# 2 7.1441 54.3533 4.9385 0.0001 -13.1002 0.0001
# 3 5.6963 4.9385 100.3589 0.0002 1.7735 0.0002
# 4 0.0001 0.0001 0.0002 3.9828 0.0001 1.8943
# 5 -3.0770 -13.1002 1.7735 0.0001 26.7092 0.0001
# 6 0.0001 0.0001 0.0002 1.8943 0.0001 -4.5418
#
#
#
# Elastic Compliance Matrix: (Units=1/GPa)
#
#
# Indices 1 2 3 4 5 6 
#
# 1 0.013436 -0.001494 -0.000704 0.000000 0.000862 0.000000
# 2 -0.001494 0.021178 -0.001139 -0.000001 0.010291 0.000000
# 3 -0.000704 -0.001139 0.010083 0.000000 -0.001309 0.000000
# 4 0.000000 -0.000001 0.000000 0.209516 -0.000002 0.087386
# 5 0.000862 0.010291 -0.001309 -0.000002 0.042674 0.000000
# 6 0.000000 0.000000 0.000000 0.087386 0.000000 -0.183727
#
#
# Mechanical properties :
#
#
# Convention : Reuss Voigt Hill
#
# Bulk Modulus (GPa) = 26.30026 29.55391 27.92708
# Shear Modulus (GPa) = 37.73272 19.40660 28.56966
#
# Velocity S-wave (km/s) = 4.22347 3.02890 3.67504
# Velocity P-wave (km/s) = 6.01803 5.11894 5.58660
#
# Compressibility (1/GPa) = 0.03802244
#
# Stress axis : x y z
#
# Youngs Moduli (GPa) = 74.42470 47.21789 99.17276
#
# Poissons Ratio (x) = 0.07056 0.06985
# Poissons Ratio (y) = 0.11122 0.11298
# Poissons Ratio (z) = 0.05242 0.05379
#
# Static dielectric constant tensor:
#      x y z
#    x 1.819340 0.000000 -0.026300 
#    y 0.000000 1.755350 0.000000 
#    z -0.026300 0.000000 1.796300 
# 
# From -- ./inp_files/271746.got.cif
#   From: 2010.05.17/outbox.cif.g08.bks.cpg/sg12_136_cif.got.tgz:271746.got - 2010.06.03 13:09:07.
