data_PCOD9219555
_publ_section_title
;
Structure prediction by ZEFSAII (Michael W. Deem and Ramdas Pophale) SiO2 
 PCOD9219555
Probable space group: C 2/M
;
_chemical_formula_sum "Si O2"
_cell_formula_units_Z 56
_cell_length_a 16.367328
_cell_length_b 23.847468
_cell_length_c 8.557463
_cell_angle_alpha 90.000000
_cell_angle_beta 121.119747
_cell_angle_gamma 90.000000
_cell_volume 2859.459913
_symmetry_space_group_name_H-M "C 2/M"
_symmetry_group_IT_number 12
_symmetry_cell_setting 'monoclinic'
loop_
_space_group_symop_operation_xyz
x,y,z
-x,y,-z
-x,-y,-z
x,-y,z
1/2+x,1/2+y,z
1/2-x,1/2+y,-z
1/2-x,1/2-y,-z
1/2+x,1/2-y,z
loop_
_atom_site_type_symbol
_atom_site_label
_atom_site_fract_x
_atom_site_fract_y
_atom_site_fract_z
Si Si1 0.534566 0.064768 0.714666
Si Si2 0.104897 0.064576 0.044020
Si Si3 0.106894 0.270885 0.545516
Si Si4 0.427926 0.164115 0.795051
Si Si5 0.717520 0.133085 0.841225
Si Si6 0.106091 0.059846 0.669199
Si Si7 0.228866 0.164423 0.763298
O O1 0.500000 0.068261 0.500000
O O2 0.474691 0.109796 0.756630
O O3 0.645214 0.084146 0.826096
O O4 0.523977 0.000000 0.755199
O O5 0.194032 0.105595 0.165347
O O6 0.121065 0.000000 0.114507
O O7 0.102165 0.063373 0.852869
O O8 0.000000 0.082192 0.000000
O O9 0.093063 0.288553 0.353301
O O10 0.153217 0.324429 0.678419
O O11 0.177411 0.219772 0.649715
O O12 0.000000 0.258983 0.500000
O O13 0.329158 0.152506 0.782416
O O14 0.500000 0.183862 0.000000
O O15 0.755739 0.164744 0.033672
O O16 0.162202 0.112048 0.660819
O O17 0.000000 0.060784 0.500000
O O18 0.151128 0.000000 0.671431
#
# Coordination Sequence:
#
# PCOD9219555 Si02
#       7
#     8   8   8   8   8   8   8
#     4  11  22  41  68  95 129 175 214 261 328 386
#     4   9  19  35  59  90 124 162 208 258 307 374
#     4  12  23  43  65  88 126 171 214 268 314 381
#     4  12  23  43  62  94 132 162 209 272 318 379
#     4  11  20  41  63  91 128 169 212 265 317 386
#     4   9  19  38  59  83 121 161 202 260 316 374
#     4  11  24  38  64  93 123 167 217 255 330 378
#
# _framework density 19.584119000000001
#
# number of rings (size 3 to 8) (size 9 to 14) (size 15 to 20)
#    0.000    1.286    4.286    1.714    0.000    2.571 
#    0.000    3.571    0.000    0.000    0.000    0.000 
#    0.000    0.000    0.000    0.000    0.000    0.000 
#
# Total GULP energy -156365.067697 kJ/mol
# GULP energy per Si atom -5584.466703 kJ/mol
# Density = 1.953954 g / cm^3
# Si number density = 19.584119 Si / 1000 Ang^3
#
#
#
# Elastic Constant Matrix: (Units=GPa)
#
#
# Indices 1 2 3 4 5 6 
#
# 1 122.5825 43.1696 7.3053 0.0000 22.2102 0.0000
# 2 43.1696 92.9408 42.1933 0.0000 12.1783 0.0000
# 3 7.3053 42.1933 93.9167 0.0000 8.0770 0.0000
# 4 0.0000 0.0000 0.0000 13.2461 0.0000 -2.6736
# 5 22.2102 12.1783 8.0770 0.0000 26.3332 0.0000
# 6 0.0000 0.0000 0.0000 -2.6736 0.0000 14.2220
#
#
#
# Elastic Compliance Matrix: (Units=1/GPa)
#
#
# Indices 1 2 3 4 5 6 
#
# 1 0.011258 -0.005174 0.002115 0.000000 -0.007752 0.000000
# 2 -0.005174 0.016436 -0.006885 0.000000 -0.001125 0.000000
# 3 0.002115 -0.006885 0.013820 0.000000 -0.002839 0.000000
# 4 0.000000 0.000000 0.000000 0.078472 0.000000 0.014752
# 5 -0.007752 -0.001125 -0.002839 0.000000 0.045904 0.000000
# 6 0.000000 0.000000 0.000000 0.014752 0.000000 0.073087
#
#
# Mechanical properties :
#
#
# Convention : Reuss Voigt Hill
#
# Bulk Modulus (GPa) = 46.23653 54.97516 50.60584
# Shear Modulus (GPa) = 18.79183 25.21170 22.00177
#
# Velocity S-wave (km/s) = 3.10101 3.59186 3.35543
# Velocity P-wave (km/s) = 6.04005 6.73307 6.39595
#
# Compressibility (1/GPa) = 0.02162792
#
# Stress axis : x y z
#
# Youngs Moduli (GPa) = 88.82348 60.84289 72.35663
#
# Poissons Ratio (x) = 0.31480 -0.15306
# Poissons Ratio (y) = 0.45957 0.49816
# Poissons Ratio (z) = -0.18790 0.41889
#
# Static dielectric constant tensor:
#      x y z
#    x 1.671770 0.000000 -0.014310 
#    y 0.000000 1.690930 0.000000 
#    z -0.014310 0.000000 1.689240 
# 
# From -- ./inp_files/65954.got.cif
#   From: 2010.05.17/outbox.cif.g08.bks.cpg/sg12_33_cif.got.tgz:65954.got - 2010.06.03 13:09:07.
