data_PCOD9219913
_publ_section_title
;
Structure prediction by ZEFSAII (Michael W. Deem and Ramdas Pophale) SiO2 
 PCOD9219913
Probable space group: C 2/M
;
_chemical_formula_sum "Si O2"
_cell_formula_units_Z 50
_cell_length_a 30.383680
_cell_length_b 7.603917
_cell_length_c 12.113817
_cell_angle_alpha 90.000000
_cell_angle_beta 127.480239
_cell_angle_gamma 90.000000
_cell_volume 2220.957756
_symmetry_space_group_name_H-M "C 2/M"
_symmetry_group_IT_number 12
_symmetry_cell_setting 'monoclinic'
loop_
_space_group_symop_operation_xyz
x,y,z
-x,y,-z
-x,-y,-z
x,-y,z
1/2+x,1/2+y,z
1/2-x,1/2+y,-z
1/2-x,1/2-y,-z
1/2+x,1/2-y,z
loop_
_atom_site_type_symbol
_atom_site_label
_atom_site_fract_x
_atom_site_fract_y
_atom_site_fract_z
Si Si1 0.196444 0.289104 0.842834
Si Si2 0.645240 0.700796 0.142875
Si Si3 0.902793 0.700922 0.160445
Si Si4 0.270056 0.296519 0.350014
Si Si5 0.493255 0.298493 0.802483
Si Si6 0.000000 0.500000 0.000000
Si Si7 0.627400 0.287579 0.354418
O O1 0.192810 0.500000 0.827271
O O2 0.140739 0.223471 0.818076
O O3 0.205977 0.212152 0.736774
O O4 0.250000 0.250000 0.000000
O O5 0.625461 0.500000 0.100114
O O6 0.711250 0.701643 0.260955
O O7 0.621043 0.778843 0.219220
O O8 0.629735 0.795156 0.006607
O O9 0.913990 0.500000 0.208173
O O10 0.961255 0.790054 0.224287
O O11 0.258972 0.500000 0.361785
O O12 0.316977 0.222203 0.502879
O O13 0.491781 0.500000 0.842908
O O14 0.430072 0.252957 0.671534
O O15 0.508695 0.155507 0.917951
O O16 0.633840 0.500000 0.357395
#
# Coordination Sequence:
#
# PCOD9219913 Si02
#       7
#     8   8   8   8   8   2   8
#     4  11  23  40  63  90 121 158 208 268 321 373
#     4  11  21  36  60  91 125 166 208 255 315 382
#     4  11  23  40  62  93 126 161 211 267 323 375
#     4  11  22  40  61  89 126 165 211 261 315 384
#     4  11  23  42  64  93 132 173 215 266 316 383
#     4  12  22  40  64  98 130 168 222 260 320 364
#     4   9  22  41  61  87 127 172 209 252 316 384
#
# _framework density 22.512808
#
# number of rings (size 3 to 8) (size 9 to 14) (size 15 to 20)
#    0.000    1.280    2.400    3.600    0.000    3.200 
#    4.320    0.800    0.000    4.800    0.000    0.000 
#    0.000    0.000    0.000    0.000    0.000    0.000 
#
# Total GULP energy -139538.875402 kJ/mol
# GULP energy per Si atom -5581.555016 kJ/mol
# Density = 2.246157 g / cm^3
# Si number density = 22.512808 Si / 1000 Ang^3
#
#
#
# Elastic Constant Matrix: (Units=GPa)
#
#
# Indices 1 2 3 4 5 6 
#
# 1 126.6572 -11.5421 -2.4674 0.0000 13.2488 0.0000
# 2 -11.5421 95.9803 -18.4804 0.0000 0.4721 0.0000
# 3 -2.4674 -18.4804 36.2593 0.0000 9.2211 0.0000
# 4 0.0000 0.0000 0.0000 9.8302 0.0000 -0.7725
# 5 13.2488 0.4721 9.2211 0.0000 32.8004 0.0000
# 6 0.0000 0.0000 0.0000 -0.7725 0.0000 27.6282
#
#
#
# Elastic Compliance Matrix: (Units=1/GPa)
#
#
# Indices 1 2 3 4 5 6 
#
# 1 0.008512 0.001506 0.002398 0.000000 -0.004134 0.000000
# 2 0.001506 0.011937 0.006877 0.000000 -0.002713 0.000000
# 3 0.002398 0.006877 0.033945 0.000000 -0.010611 0.000000
# 4 0.000000 0.000000 0.000000 0.101952 0.000000 0.002851
# 5 -0.004134 -0.002713 -0.010611 0.000000 0.035179 0.000000
# 6 0.000000 0.000000 0.000000 0.002851 0.000000 0.036275
#
#
# Mechanical properties :
#
#
# Convention : Reuss Voigt Hill
#
# Bulk Modulus (GPa) = 13.16582 21.54632 17.35607
# Shear Modulus (GPa) = 21.59286 33.47752 27.53519
#
# Velocity S-wave (km/s) = 3.10035 3.86040 3.50106
# Velocity P-wave (km/s) = 4.32170 5.42787 4.90606
#
# Compressibility (1/GPa) = 0.07595424
#
# Stress axis : x y z
#
# Youngs Moduli (GPa) = 117.48591 83.77149 29.45904
#
# Poissons Ratio (x) = -0.12613 -0.07064
# Poissons Ratio (y) = -0.17689 -0.20258
# Poissons Ratio (z) = -0.28171 -0.57606
#
# Static dielectric constant tensor:
#      x y z
#    x 1.867980 0.000000 0.027920 
#    y 0.000000 1.834660 0.000000 
#    z 0.027920 0.000000 1.810930 
# 
# From -- ./inp_files/186894.got.cif
#   From: 2010.05.17/outbox.cif.g08.bks.cpg/sg12_94_cif.got.tgz:186894.got - 2010.06.03 13:09:07.
