data_PCOD9219536
_publ_section_title
;
Structure prediction by ZEFSAII (Michael W. Deem and Ramdas Pophale) SiO2 
 PCOD9219536
Probable space group: C 2/M
;
_chemical_formula_sum "Si O2"
_cell_formula_units_Z 32
_cell_length_a 12.116778
_cell_length_b 22.053161
_cell_length_c 8.261263
_cell_angle_alpha 90.000000
_cell_angle_beta 38.357859
_cell_angle_gamma 90.000000
_cell_volume 1369.922720
_symmetry_space_group_name_H-M "C 2/M"
_symmetry_group_IT_number 12
_symmetry_cell_setting 'monoclinic'
loop_
_space_group_symop_operation_xyz
x,y,z
-x,y,-z
-x,-y,-z
x,-y,z
1/2+x,1/2+y,z
1/2-x,1/2+y,-z
1/2-x,1/2-y,-z
1/2+x,1/2-y,z
loop_
_atom_site_type_symbol
_atom_site_label
_atom_site_fract_x
_atom_site_fract_y
_atom_site_fract_z
Si Si1 0.918557 0.378786 0.845266
Si Si2 0.571477 0.384744 0.099400
Si Si3 0.461332 0.750124 0.234440
Si Si4 0.240747 0.569030 0.653101
O O1 0.961461 0.308597 0.764965
O O2 0.103145 0.412802 0.668493
O O3 0.777673 0.401763 0.876682
O O4 0.810279 0.387842 0.138788
O O5 0.543842 0.314584 0.185419
O O6 0.440366 0.422799 0.363180
O O7 0.500000 0.389335 0.000000
O O8 0.250000 0.750000 0.500000
O O9 0.500000 0.758607 0.000000
O O10 0.209378 0.500000 0.739441
#
# Coordination Sequence:
#
# PCOD9219536 Si02
#       4
#     8   8   8   8
#     4  11  21  42  68  93 127 172 221 273 326 384
#     4  11  25  40  62  99 135 171 210 269 339 405
#     4  11  20  40  66  98 135 170 219 276 336 398
#     4  11  24  44  69  95 126 173 232 275 317 387
#
# _framework density 23.358982999999998
#
# number of rings (size 3 to 8) (size 9 to 14) (size 15 to 20)
#    0.000    1.000    5.000    3.000    0.000    4.500 
#    0.000    3.750    0.000    0.000    0.000    0.000 
#    0.000    0.000    0.000    0.000    0.000    0.000 
#
# Total GULP energy -89550.862208 kJ/mol
# GULP energy per Si atom -5596.928888 kJ/mol
# Density = 2.330582 g / cm^3
# Si number density = 23.358983 Si / 1000 Ang^3
#
#
#
# Elastic Constant Matrix: (Units=GPa)
#
#
# Indices 1 2 3 4 5 6 
#
# 1 118.4825 -0.1858 17.8555 0.0000 -28.5159 0.0000
# 2 -0.1858 69.9669 3.6375 0.0000 9.3485 0.0000
# 3 17.8555 3.6375 86.8945 0.0000 -10.3055 0.0000
# 4 0.0000 0.0000 0.0000 23.6711 0.0000 4.1207
# 5 -28.5159 9.3485 -10.3055 0.0000 32.8097 0.0000
# 6 0.0000 0.0000 0.0000 4.1207 0.0000 -9.0431
#
#
#
# Elastic Compliance Matrix: (Units=1/GPa)
#
#
# Indices 1 2 3 4 5 6 
#
# 1 0.010873 -0.001179 -0.001064 0.000000 0.009452 0.000000
# 2 -0.001179 0.015101 -0.001061 0.000000 -0.005661 0.000000
# 3 -0.001064 -0.001061 0.012150 0.000000 0.003194 0.000000
# 4 0.000000 0.000000 0.000000 0.039141 0.000000 0.017836
# 5 0.009452 -0.005661 0.003194 0.000000 0.041310 0.000000
# 6 0.000000 0.000000 0.000000 0.017836 0.000000 -0.102454
#
#
# Mechanical properties :
#
#
# Convention : Reuss Voigt Hill
#
# Bulk Modulus (GPa) = 31.72951 35.32870 33.52911
# Shear Modulus (GPa) = 150.44809 26.42332 88.43571
#
# Velocity S-wave (km/s) = 8.03410 3.36696 6.15967
# Velocity P-wave (km/s) = 9.98375 5.50203 8.06063
#
# Compressibility (1/GPa) = 0.03151640
#
# Stress axis : x y z
#
# Youngs Moduli (GPa) = 91.96705 66.22150 82.30402
#
# Poissons Ratio (x) = 0.07806 0.08757
# Poissons Ratio (y) = 0.10840 0.08735
# Poissons Ratio (z) = 0.09785 0.07028
#
# Static dielectric constant tensor:
#      x y z
#    x 1.918650 0.000000 -0.006420 
#    y 0.000000 1.854020 0.000000 
#    z -0.006420 0.000000 1.831690 
# 
# From -- ./inp_files/50259.got.cif
#   From: 2010.05.17/outbox.cif.g08.bks.cpg/sg12_26_cif.got.tgz:50259.got - 2010.06.03 13:09:07.
