data_PCOD9219554
_publ_section_title
;
Structure prediction by ZEFSAII (Michael W. Deem and Ramdas Pophale) SiO2 
 PCOD9219554
Probable space group: C 2/M
;
_chemical_formula_sum "Si O2"
_cell_formula_units_Z 56
_cell_length_a 14.240040
_cell_length_b 21.958172
_cell_length_c 13.384651
_cell_angle_alpha 90.000000
_cell_angle_beta 40.713856
_cell_angle_gamma 90.000000
_cell_volume 2729.918336
_symmetry_space_group_name_H-M "C 2/M"
_symmetry_group_IT_number 12
_symmetry_cell_setting 'monoclinic'
loop_
_space_group_symop_operation_xyz
x,y,z
-x,y,-z
-x,-y,-z
x,-y,z
1/2+x,1/2+y,z
1/2-x,1/2+y,-z
1/2-x,1/2-y,-z
1/2+x,1/2-y,z
loop_
_atom_site_type_symbol
_atom_site_label
_atom_site_fract_x
_atom_site_fract_y
_atom_site_fract_z
Si Si1 0.074587 0.428292 0.199788
Si Si2 0.658495 0.114398 0.914737
Si Si3 0.146202 0.788304 0.714532
Si Si4 0.359483 0.718628 0.835264
Si Si5 0.806611 0.339363 0.399174
Si Si6 0.839246 0.935470 0.591947
Si Si7 0.370609 0.830843 0.684934
O O1 0.063729 0.500000 0.229305
O O2 0.149489 0.389442 0.227616
O O3 0.923451 0.392221 0.315516
O O4 0.141906 0.417845 0.035763
O O5 0.768069 0.169860 0.846735
O O6 0.730936 0.072912 0.771758
O O7 0.500000 0.131105 0.000000
O O8 0.144375 0.714758 0.713092
O O9 0.260756 0.809972 0.539343
O O10 0.217991 0.813592 0.756799
O O11 0.990572 0.807021 0.796931
O O12 0.413964 0.772515 0.718253
O O13 0.250000 0.750000 0.000000
O O14 0.671920 0.375055 0.463904
O O15 0.000000 0.938473 0.500000
O O16 0.805185 0.000000 0.567547
O O17 0.500000 0.840801 0.500000
#
# Coordination Sequence:
#
# PCOD9219554 Si02
#       7
#     8   8   8   8   8   8   8
#     4  12  25  45  67 101 145 184 239 285 331 424
#     4  12  25  43  69 103 137 183 229 288 364 405
#     4  11  23  40  68  97 142 172 228 288 351 410
#     4  12  25  42  66 102 140 175 228 295 352 420
#     4  11  20  41  63 100 132 179 219 288 349 399
#     4  11  24  41  65  98 132 174 228 280 349 425
#     4  12  24  44  70 105 134 183 231 284 354 414
#
# _framework density 20.513434
#
# number of rings (size 3 to 8) (size 9 to 14) (size 15 to 20)
#    0.000    0.429    5.714    3.429    2.000    2.000 
#    0.000    0.000    0.000    2.571    0.000    0.000 
#    0.000    0.000    0.000    0.000    0.000    0.000 
#
# Total GULP energy -156380.882816 kJ/mol
# GULP energy per Si atom -5585.031529 kJ/mol
# Density = 2.046674 g / cm^3
# Si number density = 20.513434 Si / 1000 Ang^3
#
#
#
# Elastic Constant Matrix: (Units=GPa)
#
#
# Indices 1 2 3 4 5 6 
#
# 1 145.4022 57.7843 22.3261 -0.0004 -14.8516 0.0005
# 2 57.7843 141.2905 10.8018 -0.0010 -5.0396 0.0014
# 3 22.3261 10.8018 62.4682 -0.0032 -5.2565 0.0041
# 4 -0.0004 -0.0010 -0.0032 18.7460 0.0016 -10.9097
# 5 -14.8516 -5.0396 -5.2565 0.0016 36.1112 -0.0017
# 6 0.0005 0.0014 0.0041 -10.9097 -0.0017 45.3731
#
#
#
# Elastic Compliance Matrix: (Units=1/GPa)
#
#
# Indices 1 2 3 4 5 6 
#
# 1 0.008855 -0.003341 -0.002349 -0.000001 0.002834 0.000000
# 2 -0.003341 0.008458 -0.000288 0.000000 -0.000236 0.000000
# 3 -0.002349 -0.000288 0.017021 0.000002 0.001471 -0.000001
# 4 -0.000001 0.000000 0.000002 0.062024 -0.000002 0.014913
# 5 0.002834 -0.000236 0.001471 -0.000002 0.029039 0.000000
# 6 0.000000 0.000000 -0.000001 0.014913 0.000000 0.025625
#
#
# Mechanical properties :
#
#
# Convention : Reuss Voigt Hill
#
# Bulk Modulus (GPa) = 44.68607 58.99835 51.84221
# Shear Modulus (GPa) = 29.33624 37.26264 33.29944
#
# Velocity S-wave (km/s) = 3.78577 4.26666 4.03339
# Velocity P-wave (km/s) = 6.39847 7.28669 6.85698
#
# Compressibility (1/GPa) = 0.02237834
#
# Stress axis : x y z
#
# Youngs Moduli (GPa) = 112.92677 118.23660 58.75011
#
# Poissons Ratio (x) = 0.39502 0.13799
# Poissons Ratio (y) = 0.37728 0.01693
# Poissons Ratio (z) = 0.26523 0.03408
#
# Static dielectric constant tensor:
#      x y z
#    x 1.812770 0.000000 -0.018060 
#    y 0.000000 1.748860 0.000000 
#    z -0.018060 0.000000 1.732040 
# 
# From -- ./inp_files/217676.got.cif
#   From: 2010.05.17/outbox.cif.g08.bks.cpg/sg12_109_cif.got.tgz:217676.got - 2010.06.03 13:09:07.
