data_PCOD9219974
_publ_section_title
;
Structure prediction by ZEFSAII (Michael W. Deem and Ramdas Pophale) SiO2 
 PCOD9219974
Probable space group: C 2/M
;
_chemical_formula_sum "Si O2"
_cell_formula_units_Z 60
_cell_length_a 11.081421
_cell_length_b 18.779951
_cell_length_c 15.757788
_cell_angle_alpha 90.000000
_cell_angle_beta 71.955397
_cell_angle_gamma 90.000000
_cell_volume 3118.038637
_symmetry_space_group_name_H-M "C 2/M"
_symmetry_group_IT_number 12
_symmetry_cell_setting 'monoclinic'
loop_
_space_group_symop_operation_xyz
x,y,z
-x,y,-z
-x,-y,-z
x,-y,z
1/2+x,1/2+y,z
1/2-x,1/2+y,-z
1/2-x,1/2-y,-z
1/2+x,1/2-y,z
loop_
_atom_site_type_symbol
_atom_site_label
_atom_site_fract_x
_atom_site_fract_y
_atom_site_fract_z
Si Si1 0.557739 0.198622 0.894848
Si Si2 0.956447 0.921498 0.711833
Si Si3 0.643859 0.278710 0.182030
Si Si4 0.681728 0.626714 0.416646
Si Si5 0.924661 0.666302 0.659924
Si Si6 0.000000 0.252657 0.500000
Si Si7 0.737267 0.420822 0.593405
Si Si8 0.583664 0.083936 0.746296
O O1 0.459502 0.250856 0.864987
O O2 0.705466 0.223559 0.872015
O O3 0.562887 0.126301 0.837885
O O4 0.500000 0.187278 0.000000
O O5 0.895169 0.857888 0.778790
O O6 0.918979 0.913824 0.620981
O O7 0.107738 0.916484 0.675307
O O8 0.917160 0.000000 0.750515
O O9 0.624933 0.226531 0.266252
O O10 0.617751 0.702285 0.450085
O O11 0.711668 0.591128 0.499677
O O12 0.802196 0.623048 0.328400
O O13 0.826582 0.638574 0.612442
O O14 0.031175 0.701815 0.576826
O O15 0.967391 0.600911 0.708909
O O16 0.792273 0.500000 0.591407
O O17 0.606813 0.000000 0.750335
#
# Coordination Sequence:
#
# PCOD9219974 Si02
#       8
#     8   8   8   8   8   4   8   8
#     4  11  24  42  68  94 120 153 194 249 312 374
#     4  11  21  37  60  87 118 159 205 247 293 347
#     4  11  22  42  64  92 123 157 198 246 305 366
#     4  12  21  37  54  81 115 155 206 251 289 332
#     4  11  23  38  57  84 122 164 201 243 298 355
#     4  12  22  36  54  86 116 160 208 254 284 340
#     4  11  22  35  55  83 121 165 208 249 290 343
#     4  11  24  41  62  86 118 155 199 251 304 361
#
# _framework density 19.242865999999999
#
# number of rings (size 3 to 8) (size 9 to 14) (size 15 to 20)
#    0.000    0.800    4.000    3.600    0.000    5.600 
#    0.000    2.000    0.000    0.400    0.000    0.000 
#    0.000    0.000    0.000    0.000    0.000    0.000 
#
# Total GULP energy -167460.825606 kJ/mol
# GULP energy per Si atom -5582.027520 kJ/mol
# Density = 1.919907 g / cm^3
# Si number density = 19.242866 Si / 1000 Ang^3
#
#
#
# Elastic Constant Matrix: (Units=GPa)
#
#
# Indices 1 2 3 4 5 6 
#
# 1 80.5439 54.9745 52.4196 0.0000 -4.2582 0.0000
# 2 54.9745 123.9269 65.2508 0.0000 6.1680 0.0000
# 3 52.4196 65.2508 143.6785 0.0000 -8.8270 0.0000
# 4 0.0000 0.0000 0.0000 13.5257 0.0000 -0.9882
# 5 -4.2582 6.1680 -8.8270 0.0000 20.8633 0.0000
# 6 0.0000 0.0000 0.0000 -0.9882 0.0000 12.2573
#
#
#
# Elastic Compliance Matrix: (Units=1/GPa)
#
#
# Indices 1 2 3 4 5 6 
#
# 1 0.019957 -0.007090 -0.003780 0.000000 0.004570 0.000000
# 2 -0.007090 0.013730 -0.004093 0.000000 -0.007238 0.000000
# 3 -0.003780 -0.004093 0.010498 0.000000 0.004880 0.000000
# 4 0.000000 0.000000 0.000000 0.074372 0.000000 0.005996
# 5 0.004570 -0.007238 0.004880 0.000000 0.053068 0.000000
# 6 0.000000 0.000000 0.000000 0.005996 0.000000 0.082067
#
#
# Mechanical properties :
#
#
# Convention : Reuss Voigt Hill
#
# Bulk Modulus (GPa) = 70.13939 77.04880 73.59410
# Shear Modulus (GPa) = 17.33874 21.02954 19.18414
#
# Velocity S-wave (km/s) = 3.00500 3.30941 3.16087
# Velocity P-wave (km/s) = 6.96913 7.39798 7.18675
#
# Compressibility (1/GPa) = 0.01425732
#
# Stress axis : x y z
#
# Youngs Moduli (GPa) = 50.10864 72.83403 95.25583
#
# Poissons Ratio (x) = 0.51638 0.36011
# Poissons Ratio (y) = 0.35526 0.38992
# Poissons Ratio (z) = 0.18943 0.29814
#
# Static dielectric constant tensor:
#      x y z
#    x 1.769320 0.000000 -0.010250 
#    y 0.000000 1.694090 0.000000 
#    z -0.010250 0.000000 1.638460 
# 
# From -- ./inp_files/206625.got.cif
#   From: 2010.05.17/outbox.cif.g08.bks.cpg/sg12_104_cif.got.tgz:206625.got - 2010.06.03 13:09:07.
