data_PCOD9219694
_publ_section_title
;
Structure prediction by ZEFSAII (Michael W. Deem and Ramdas Pophale) SiO2 
 PCOD9219694
Probable space group: C 2/M
;
_chemical_formula_sum "Si O2"
_cell_formula_units_Z 48
_cell_length_a 16.205327
_cell_length_b 8.897969
_cell_length_c 15.372623
_cell_angle_alpha 90.000000
_cell_angle_beta 113.598452
_cell_angle_gamma 90.000000
_cell_volume 2031.277262
_symmetry_space_group_name_H-M "C 2/M"
_symmetry_group_IT_number 12
_symmetry_cell_setting 'monoclinic'
loop_
_space_group_symop_operation_xyz
x,y,z
-x,y,-z
-x,-y,-z
x,-y,z
1/2+x,1/2+y,z
1/2-x,1/2+y,-z
1/2-x,1/2-y,-z
1/2+x,1/2-y,z
loop_
_atom_site_type_symbol
_atom_site_label
_atom_site_fract_x
_atom_site_fract_y
_atom_site_fract_z
Si Si1 0.539356 0.822350 0.884725
Si Si2 0.891723 0.669805 0.435308
Si Si3 0.690713 0.678548 0.050058
Si Si4 0.156640 0.818078 0.221529
Si Si5 0.073352 0.829051 0.723752
Si Si6 0.143207 0.171958 0.405672
O O1 0.591656 0.736144 0.982538
O O2 0.438525 0.762436 0.833417
O O3 0.584843 0.778834 0.811252
O O4 0.542850 0.000000 0.900034
O O5 0.863732 0.500000 0.402175
O O6 0.882103 0.772996 0.346580
O O7 0.846779 0.725930 0.505515
O O8 0.000000 0.667719 0.500000
O O9 0.695723 0.500000 0.045739
O O10 0.750000 0.750000 0.000000
O O11 0.712409 0.721335 0.158802
O O12 0.185854 0.778186 0.331689
O O13 0.144160 0.000000 0.216843
O O14 0.965075 0.829760 0.659143
O O15 0.099325 0.000000 0.756838
O O16 0.168763 0.000000 0.436166
#
# Coordination Sequence:
#
# PCOD9219694 Si02
#       6
#     8   8   8   8   8   8
#     4  11  21  33  52  78 105 133 169 212 255 301
#     4   9  15  22  35  61  96 129 160 199 245 289
#     4  11  23  39  56  75 101 133 170 211 257 306
#     4   9  19  35  54  75 102 136 171 209 253 301
#     4   9  16  27  43  64  94 132 168 202 244 294
#     4   8  14  25  41  63  92 128 165 198 240 293
#
# _framework density 23.630451999999998
#
# number of rings (size 3 to 8) (size 9 to 14) (size 15 to 20)
#    0.000    2.500    0.000    4.500    0.000    9.333 
#    0.000    0.000    0.000    0.000    0.000    1.167 
#    0.000    0.000    0.000    0.000    0.000    0.000 
#
# Total GULP energy -134265.088079 kJ/mol
# GULP energy per Si atom -5594.378670 kJ/mol
# Density = 2.357667 g / cm^3
# Si number density = 23.630452 Si / 1000 Ang^3
#
#
#
# Elastic Constant Matrix: (Units=GPa)
#
#
# Indices 1 2 3 4 5 6 
#
# 1 84.4888 22.0246 48.9826 0.0000 -22.1903 0.0000
# 2 22.0246 60.6522 56.0788 0.0000 -14.6095 0.0000
# 3 48.9826 56.0788 172.1986 0.0000 -39.2825 0.0000
# 4 0.0000 0.0000 0.0000 33.0507 0.0000 -5.6580
# 5 -22.1903 -14.6095 -39.2825 0.0000 52.1527 0.0000
# 6 0.0000 0.0000 0.0000 -5.6580 0.0000 19.1026
#
#
#
# Elastic Compliance Matrix: (Units=1/GPa)
#
#
# Indices 1 2 3 4 5 6 
#
# 1 0.014925 -0.001979 -0.002752 0.000000 0.003723 0.000000
# 2 -0.001979 0.023896 -0.007105 0.000000 0.000500 0.000000
# 3 -0.002752 -0.007105 0.009880 0.000000 0.004281 0.000000
# 4 0.000000 0.000000 0.000000 0.031873 0.000000 0.009440
# 5 0.003723 0.000500 0.004281 0.000000 0.024123 0.000000
# 6 0.000000 0.000000 0.000000 0.009440 0.000000 0.055145
#
#
# Mechanical properties :
#
#
# Convention : Reuss Voigt Hill
#
# Bulk Modulus (GPa) = 39.95130 63.50129 51.72629
# Shear Modulus (GPa) = 26.06117 33.54477 29.80297
#
# Velocity S-wave (km/s) = 3.32454 3.77179 3.55521
# Velocity P-wave (km/s) = 5.62851 6.77492 6.22815
#
# Compressibility (1/GPa) = 0.02503048
#
# Stress axis : x y z
#
# Youngs Moduli (GPa) = 67.00214 41.84852 101.21047
#
# Poissons Ratio (x) = 0.08280 0.27850
# Poissons Ratio (y) = 0.13257 0.71910
# Poissons Ratio (z) = 0.18437 0.29733
#
# Static dielectric constant tensor:
#      x y z
#    x 2.063820 0.000000 0.051750 
#    y 0.000000 1.783700 0.000000 
#    z 0.051750 0.000000 1.928990 
# 
# From -- ./inp_files/229292.got.cif
#   From: 2010.05.17/outbox.cif.g08.bks.cpg/sg12_115_cif.got.tgz:229292.got - 2010.06.03 13:09:07.
