data_PCOD9219575
_publ_section_title
;
Structure prediction by ZEFSAII (Michael W. Deem and Ramdas Pophale) SiO2 
 PCOD9219575
Probable space group: C 2/M
;
_chemical_formula_sum "Si O2"
_cell_formula_units_Z 48
_cell_length_a 18.769342
_cell_length_b 9.831017
_cell_length_c 15.475259
_cell_angle_alpha 90.000000
_cell_angle_beta 55.690174
_cell_angle_gamma 90.000000
_cell_volume 2358.665369
_symmetry_space_group_name_H-M "C 2/M"
_symmetry_group_IT_number 12
_symmetry_cell_setting 'monoclinic'
loop_
_space_group_symop_operation_xyz
x,y,z
-x,y,-z
-x,-y,-z
x,-y,z
1/2+x,1/2+y,z
1/2-x,1/2+y,-z
1/2-x,1/2-y,-z
1/2+x,1/2-y,z
loop_
_atom_site_type_symbol
_atom_site_label
_atom_site_fract_x
_atom_site_fract_y
_atom_site_fract_z
Si Si1 0.318831 0.842898 0.401081
Si Si2 0.921201 0.000000 0.890480
Si Si3 0.737033 0.228016 0.750052
Si Si4 0.133320 0.500000 0.137092
Si Si5 0.419899 0.343111 0.611886
Si Si6 0.747120 0.000000 0.890763
Si Si7 0.512332 0.740669 0.253465
Si Si8 0.192715 0.000000 0.865074
O O1 0.250000 0.750000 0.500000
O O2 0.301192 0.836248 0.310170
O O3 0.416101 0.787394 0.342069
O O4 0.312469 0.000000 0.434058
O O5 0.836144 0.000000 0.884978
O O6 0.976973 0.133376 0.831185
O O7 0.881847 0.000000 0.012617
O O8 0.837354 0.250906 0.658341
O O9 0.739638 0.128592 0.831588
O O10 0.691209 0.365708 0.808481
O O11 0.073981 0.368667 0.192853
O O12 0.215541 0.500000 0.145383
O O13 0.172696 0.500000 0.013733
O O14 0.500000 0.300293 0.500000
O O15 0.396339 0.500000 0.605422
O O16 0.451049 0.336293 0.688199
#
# Coordination Sequence:
#
# PCOD9219575 Si02
#       8
#     8   4   8   4   8   4   8   4
#     4  12  29  48  70  95 131 179 220 271 338 396
#     4  11  22  41  70 103 133 177 219 265 334 393
#     4  12  22  44  65  98 132 173 223 271 324 394
#     4  11  22  39  68 103 137 167 217 279 330 385
#     4  11  21  38  66  95 125 169 225 274 326 390
#     4  11  20  41  72  97 131 181 219 265 330 395
#     4  12  22  43  65 100 133 170 219 274 329 389
#     4  11  24  39  68 105 137 171 217 275 334 381
#
# _framework density 20.350491999999999
#
# number of rings (size 3 to 8) (size 9 to 14) (size 15 to 20)
#    0.000    0.500    6.667    2.000    2.333    4.000 
#    0.000    5.833    0.000    0.000    0.000    0.000 
#    0.000    0.000    0.000    0.000    0.000    0.000 
#
# Total GULP energy -134175.053006 kJ/mol
# GULP energy per Si atom -5590.627209 kJ/mol
# Density = 2.030417 g / cm^3
# Si number density = 20.350492 Si / 1000 Ang^3
#
#
#
# Elastic Constant Matrix: (Units=GPa)
#
#
# Indices 1 2 3 4 5 6 
#
# 1 30.8934 -10.0809 -10.0854 0.0000 -8.0896 0.0000
# 2 -10.0809 123.4687 41.4884 0.0000 -14.3616 0.0000
# 3 -10.0854 41.4884 110.4800 0.0000 -21.2632 0.0000
# 4 0.0000 0.0000 0.0000 24.4056 0.0000 -3.4758
# 5 -8.0896 -14.3616 -21.2632 0.0000 30.9317 0.0000
# 6 0.0000 0.0000 0.0000 -3.4758 0.0000 14.9125
#
#
#
# Elastic Compliance Matrix: (Units=1/GPa)
#
#
# Indices 1 2 3 4 5 6 
#
# 1 0.039191 0.003197 0.005342 0.000000 0.015406 0.000000
# 2 0.003197 0.009662 -0.002665 0.000000 0.003490 0.000000
# 3 0.005342 -0.002665 0.012182 0.000000 0.008534 0.000000
# 4 0.000000 0.000000 0.000000 0.042381 0.000000 0.009878
# 5 0.015406 0.003490 0.008534 0.000000 0.043846 0.000000
# 6 0.000000 0.000000 0.000000 0.009878 0.000000 0.069360
#
#
# Mechanical properties :
#
#
# Convention : Reuss Voigt Hill
#
# Bulk Modulus (GPa) = 13.73940 34.16513 23.95227
# Shear Modulus (GPa) = 21.82127 30.28464 26.05296
#
# Velocity S-wave (km/s) = 3.27811 3.86184 3.58189
# Velocity P-wave (km/s) = 4.59283 6.05887 5.37606
#
# Compressibility (1/GPa) = 0.07278338
#
# Stress axis : x y z
#
# Youngs Moduli (GPa) = 25.51620 103.50279 82.08638
#
# Poissons Ratio (x) = -0.33087 -0.43853
# Poissons Ratio (y) = -0.08157 0.21873
# Poissons Ratio (z) = -0.13632 0.27580
#
# Static dielectric constant tensor:
#      x y z
#    x 1.742710 0.000000 0.009040 
#    y 0.000000 1.727840 0.000000 
#    z 0.009040 0.000000 1.708450 
# 
# From -- ./inp_files/280840.got.cif
#   From: 2010.05.17/outbox.cif.g08.bks.cpg/sg12_141_cif.got.tgz:280840.got - 2010.06.03 13:09:07.
