data_PCOD9219265
_publ_section_title
;
Structure prediction by ZEFSAII (Michael W. Deem and Ramdas Pophale) SiO2 
 PCOD9219265
Probable space group: C 2/M
;
_chemical_formula_sum "Si O2"
_cell_formula_units_Z 40
_cell_length_a 9.535080
_cell_length_b 28.070704
_cell_length_c 16.479914
_cell_angle_alpha 90.000000
_cell_angle_beta 159.633778
_cell_angle_gamma 90.000000
_cell_volume 1535.097876
_symmetry_space_group_name_H-M "C 2/M"
_symmetry_group_IT_number 12
_symmetry_cell_setting 'monoclinic'
loop_
_space_group_symop_operation_xyz
x,y,z
-x,y,-z
-x,-y,-z
x,-y,z
1/2+x,1/2+y,z
1/2-x,1/2+y,-z
1/2-x,1/2-y,-z
1/2+x,1/2-y,z
loop_
_atom_site_type_symbol
_atom_site_label
_atom_site_fract_x
_atom_site_fract_y
_atom_site_fract_z
Si Si1 0.259901 0.107252 0.012878
Si Si2 0.426044 0.305884 0.749442
Si Si3 0.620286 0.883091 0.379250
Si Si4 0.618628 0.218350 0.745735
Si Si5 0.436946 0.446017 0.691938
O O1 0.253887 0.157318 0.959655
O O2 0.820581 0.107595 0.819061
O O3 0.234315 0.068879 0.926795
O O4 0.567122 0.103269 0.255118
O O5 0.525427 0.268680 0.734246
O O6 0.293140 0.272951 0.751929
O O7 0.000000 0.332676 0.500000
O O8 0.687736 0.825819 0.417807
O O9 0.908803 0.910630 0.599075
O O10 0.000000 0.197632 0.000000
O O11 0.505077 0.500000 0.701290
O O12 0.000000 0.445264 0.500000
#
# Coordination Sequence:
#
# PCOD9219265 Si02
#       5
#     8   8   8   8   8
#     4   9  16  29  46  65  96 134 166 207 261 309
#     4  11  21  33  51  76 105 142 178 215 258 310
#     4   9  16  29  46  65  95 136 167 205 259 313
#     4  11  20  34  52  74 105 144 177 212 257 312
#     4   9  17  27  42  66  95 128 169 210 255 315
#
# _framework density 26.056971999999998
#
# number of rings (size 3 to 8) (size 9 to 14) (size 15 to 20)
#    0.000    2.200    4.000    4.200    0.000    0.800 
#    0.000    4.000    0.000    0.000    0.000    0.000 
#    0.000    8.000    0.000    0.400    0.000    0.000 
#
# Total GULP energy -111805.435732 kJ/mol
# GULP energy per Si atom -5590.271787 kJ/mol
# Density = 2.599767 g / cm^3
# Si number density = 26.056972 Si / 1000 Ang^3
#
#
#
# Elastic Constant Matrix: (Units=GPa)
#
#
# Indices 1 2 3 4 5 6 
#
# 1 114.2247 50.0955 30.1635 0.0004 -38.5193 -0.0001
# 2 50.0955 163.4385 65.1222 -0.0001 -35.4774 0.0003
# 3 30.1635 65.1222 177.6559 0.0008 -37.0339 0.0107
# 4 0.0004 -0.0001 0.0008 32.8179 0.0009 -8.7349
# 5 -38.5193 -35.4774 -37.0339 0.0009 44.9979 0.0026
# 6 -0.0001 0.0003 0.0107 -8.7349 0.0026 49.9385
#
#
#
# Elastic Compliance Matrix: (Units=1/GPa)
#
#
# Indices 1 2 3 4 5 6 
#
# 1 0.012813 -0.002033 0.000630 -0.000001 0.009884 -0.000001
# 2 -0.002033 0.008215 -0.002026 0.000000 0.003069 0.000000
# 3 0.000630 -0.002026 0.007296 -0.000001 0.004946 -0.000002
# 4 -0.000001 0.000000 -0.000001 0.031959 -0.000002 0.005590
# 5 0.009884 0.003069 0.004946 -0.000002 0.037175 -0.000003
# 6 -0.000001 0.000000 -0.000002 0.005590 -0.000003 0.021002
#
#
# Mechanical properties :
#
#
# Convention : Reuss Voigt Hill
#
# Bulk Modulus (GPa) = 46.58613 82.89794 64.74204
# Shear Modulus (GPa) = 37.74325 46.21336 41.97831
#
# Velocity S-wave (km/s) = 3.81003 4.21592 4.01811
# Velocity P-wave (km/s) = 6.10512 7.45532 6.81375
#
# Compressibility (1/GPa) = 0.02146562
#
# Stress axis : x y z
#
# Youngs Moduli (GPa) = 78.04585 121.72471 137.06541
#
# Poissons Ratio (x) = 0.24745 -0.08637
# Poissons Ratio (y) = 0.15866 0.27776
# Poissons Ratio (z) = -0.04918 0.24667
#
# Static dielectric constant tensor:
#      x y z
#    x 2.085000 0.000000 0.060200 
#    y 0.000000 1.974710 0.000000 
#    z 0.060200 0.000000 2.267220 
# 
# From -- ./inp_files/66656.got.cif
#   From: 2010.05.17/outbox.cif.g08.bks.cpg/sg12_34_cif.got.tgz:66656.got - 2010.06.03 13:09:07.
