data_PCOD9219875
_publ_section_title
;
Structure prediction by ZEFSAII (Michael W. Deem and Ramdas Pophale) SiO2 
 PCOD9219875
Probable space group: C 2/M
;
_chemical_formula_sum "Si O2"
_cell_formula_units_Z 56
_cell_length_a 15.026105
_cell_length_b 8.160996
_cell_length_c 26.847618
_cell_angle_alpha 90.000000
_cell_angle_beta 65.817043
_cell_angle_gamma 90.000000
_cell_volume 3003.346308
_symmetry_space_group_name_H-M "C 2/M"
_symmetry_group_IT_number 12
_symmetry_cell_setting 'monoclinic'
loop_
_space_group_symop_operation_xyz
x,y,z
-x,y,-z
-x,-y,-z
x,-y,z
1/2+x,1/2+y,z
1/2-x,1/2+y,-z
1/2-x,1/2-y,-z
1/2+x,1/2-y,z
loop_
_atom_site_type_symbol
_atom_site_label
_atom_site_fract_x
_atom_site_fract_y
_atom_site_fract_z
Si Si1 0.682616 0.196338 0.561561
Si Si2 0.727710 0.193181 0.356511
Si Si3 0.019199 0.700000 0.438947
Si Si4 0.038062 0.697589 0.148740
Si Si5 0.953928 0.299994 0.062330
Si Si6 0.328942 0.803779 0.232866
Si Si7 0.243365 0.802451 0.148414
O O1 0.750000 0.250000 0.500000
O O2 0.715214 0.274548 0.605558
O O3 0.573076 0.244464 0.572828
O O4 0.688099 0.000000 0.564637
O O5 0.619528 0.260914 0.392428
O O6 0.781083 0.263431 0.296287
O O7 0.719047 0.000000 0.350272
O O8 0.024263 0.500000 0.439984
O O9 0.000000 0.755650 0.500000
O O10 0.037886 0.500000 0.149104
O O11 0.016670 0.749992 0.096506
O O12 0.941016 0.754867 0.200872
O O13 0.140874 0.750037 0.148355
O O14 0.954273 0.500000 0.061867
O O15 0.841050 0.249916 0.096089
O O16 0.000000 0.243003 0.000000
O O17 0.264419 0.745161 0.200422
O O18 0.333234 0.000000 0.227349
O O19 0.243164 0.000000 0.148753
#
# Coordination Sequence:
#
# PCOD9219875 Si02
#       7
#     8   8   8   8   8   8   8
#     4  11  21  36  57  79 106 138 170 207 254 310
#     4  11  22  37  57  80 103 133 174 216 261 313
#     4   9  18  35  55  74 102 135 162 196 250 311
#     4   9  18  33  54  76 103 141 179 215 263 318
#     4   8  15  30  51  76 108 146 182 214 258 318
#     4   9  20  38  53  71 103 139 173 212 263 317
#     4   9  18  33  54  77 104 139 178 222 264 306
#
# _framework density 18.645869999999999
#
# number of rings (size 3 to 8) (size 9 to 14) (size 15 to 20)
#    0.000    2.571    1.429    2.571    0.000    2.857 
#    0.000   10.000    0.000    0.857    0.000    0.000 
#    0.000    0.000    0.000    0.000    0.000    0.000 
#
# Total GULP energy -156129.654565 kJ/mol
# GULP energy per Si atom -5576.059092 kJ/mol
# Density = 1.860343 g / cm^3
# Si number density = 18.645870 Si / 1000 Ang^3
#
#
#
# Elastic Constant Matrix: (Units=GPa)
#
#
# Indices 1 2 3 4 5 6 
#
# 1 179.7893 6.2591 97.8482 0.0000 -11.7120 0.0000
# 2 6.2591 9.0927 5.7796 0.0000 -2.9080 0.0000
# 3 97.8482 5.7796 183.6988 0.0000 -4.0481 0.0000
# 4 0.0000 0.0000 0.0000 18.5568 0.0000 -2.2661
# 5 -11.7120 -2.9080 -4.0481 0.0000 15.0922 0.0000
# 6 0.0000 0.0000 0.0000 -2.2661 0.0000 27.1057
#
#
#
# Elastic Compliance Matrix: (Units=1/GPa)
#
#
# Indices 1 2 3 4 5 6 
#
# 1 0.008241 -0.001384 -0.004236 0.000000 0.004992 0.000000
# 2 -0.001384 0.119344 -0.002550 0.000000 0.021238 0.000000
# 3 -0.004236 -0.002550 0.007743 0.000000 -0.001702 0.000000
# 4 0.000000 0.000000 0.000000 0.054444 0.000000 0.004552
# 5 0.004992 0.021238 -0.001702 0.000000 0.073769 0.000000
# 6 0.000000 0.000000 0.000000 0.004552 0.000000 0.037273
#
#
# Mechanical properties :
#
#
# Convention : Reuss Voigt Hill
#
# Bulk Modulus (GPa) = 8.40418 65.81718 37.11068
# Shear Modulus (GPa) = 14.01284 29.66388 21.83836
#
# Velocity S-wave (km/s) = 2.74437 3.99295 3.42602
# Velocity P-wave (km/s) = 3.81564 7.52551 5.96626
#
# Compressibility (1/GPa) = 0.11898843
#
# Stress axis : x y z
#
# Youngs Moduli (GPa) = 121.34697 8.37917 129.15329
#
# Poissons Ratio (x) = 0.01159 0.54709
# Poissons Ratio (y) = 0.16789 0.32933
# Poissons Ratio (z) = 0.51402 0.02137
#
# Static dielectric constant tensor:
#      x y z
#    x 1.631290 0.000000 -0.014950 
#    y 0.000000 1.670100 0.000000 
#    z -0.014950 0.000000 1.612400 
# 
# From -- ./inp_files/337877.got.cif
#   From: 2010.05.17/outbox.cif.g08.bks.cpg/sg12_169_cif.got.tgz:337877.got - 2010.06.03 13:09:07.
