data_PCOD9219903
_publ_section_title
;
Structure prediction by ZEFSAII (Michael W. Deem and Ramdas Pophale) SiO2 
 PCOD9219903
Probable space group: C 2/M
;
_chemical_formula_sum "Si O2"
_cell_formula_units_Z 56
_cell_length_a 24.132690
_cell_length_b 8.521622
_cell_length_c 15.504123
_cell_angle_alpha 90.000000
_cell_angle_beta 115.251224
_cell_angle_gamma 90.000000
_cell_volume 2883.751698
_symmetry_space_group_name_H-M "C 2/M"
_symmetry_group_IT_number 12
_symmetry_cell_setting 'monoclinic'
loop_
_space_group_symop_operation_xyz
x,y,z
-x,y,-z
-x,-y,-z
x,-y,z
1/2+x,1/2+y,z
1/2-x,1/2+y,-z
1/2-x,1/2-y,-z
1/2+x,1/2-y,z
loop_
_atom_site_type_symbol
_atom_site_label
_atom_site_fract_x
_atom_site_fract_y
_atom_site_fract_z
Si Si1 0.275678 0.187384 0.272184
Si Si2 0.857757 0.313065 0.822921
Si Si3 0.402032 0.190468 0.427708
Si Si4 0.478423 0.315687 0.818870
Si Si5 0.494318 0.809634 0.637821
Si Si6 0.600981 0.814473 0.958012
Si Si7 0.198873 0.185444 0.900335
O O1 0.210381 0.263679 0.248272
O O2 0.332564 0.243213 0.368574
O O3 0.293568 0.230426 0.185998
O O4 0.270011 0.000000 0.275857
O O5 0.864587 0.500000 0.820915
O O6 0.910696 0.232702 0.802859
O O7 0.868991 0.269480 0.930810
O O8 0.444761 0.236392 0.374985
O O9 0.437429 0.235796 0.538173
O O10 0.401743 0.000000 0.426934
O O11 0.487327 0.500000 0.836369
O O12 0.489315 0.266660 0.727322
O O13 0.529424 0.225304 0.908733
O O14 0.494732 0.000000 0.647231
O O15 0.634559 0.723802 0.903170
O O16 0.610177 0.000000 0.951082
O O17 0.207126 0.000000 0.894037
O O18 0.250000 0.250000 0.000000
#
# Coordination Sequence:
#
# PCOD9219903 Si02
#       7
#     8   8   8   8   8   8   8
#     4  11  21  36  59  88 122 155 193 240 295 347
#     4  11  24  41  59  80 112 156 203 242 286 345
#     4   8  17  34  62  93 116 148 188 234 288 348
#     4  12  25  39  58  86 117 150 194 242 295 348
#     4   9  17  37  64  88 117 150 191 234 285 347
#     4  11  23  40  61  84 113 152 199 244 291 345
#     4  12  23  36  56  85 120 156 193 236 286 338
#
# _framework density 19.419146999999999
#
# number of rings (size 3 to 8) (size 9 to 14) (size 15 to 20)
#    0.000    1.429    1.429    6.000    0.000    4.571 
#    0.000    4.286    0.000    0.000    0.000    0.000 
#    0.000    0.000    0.000    0.000    0.000    0.000 
#
# Total GULP energy -156550.499942 kJ/mol
# GULP energy per Si atom -5591.089284 kJ/mol
# Density = 1.937495 g / cm^3
# Si number density = 19.419147 Si / 1000 Ang^3
#
#
#
# Elastic Constant Matrix: (Units=GPa)
#
#
# Indices 1 2 3 4 5 6 
#
# 1 79.3555 -0.8214 23.6559 0.0000 24.9066 0.0000
# 2 -0.8214 26.0796 1.4130 0.0000 -3.9527 0.0000
# 3 23.6559 1.4130 54.8947 0.0000 26.7213 0.0000
# 4 0.0000 0.0000 0.0000 21.0837 0.0000 3.6476
# 5 24.9066 -3.9527 26.7213 0.0000 32.5682 0.0000
# 6 0.0000 0.0000 0.0000 3.6476 0.0000 26.5274
#
#
#
# Elastic Compliance Matrix: (Units=1/GPa)
#
#
# Indices 1 2 3 4 5 6 
#
# 1 0.016703 -0.001170 -0.001466 0.000000 -0.011712 0.000000
# 2 -0.001170 0.040174 -0.005559 0.000000 0.010331 0.000000
# 3 -0.001466 -0.005559 0.031258 0.000000 -0.025200 0.000000
# 4 0.000000 0.000000 0.000000 0.048586 0.000000 -0.006681
# 5 -0.011712 0.010331 -0.025200 0.000000 0.061591 0.000000
# 6 0.000000 0.000000 0.000000 -0.006681 0.000000 0.038616
#
#
# Mechanical properties :
#
#
# Convention : Reuss Voigt Hill
#
# Bulk Modulus (GPa) = 13.93829 23.20276 18.57053
# Shear Modulus (GPa) = 18.03536 25.10803 21.57169
#
# Velocity S-wave (km/s) = 3.05083 3.59967 3.33655
# Velocity P-wave (km/s) = 4.42756 5.40843 4.94239
#
# Compressibility (1/GPa) = 0.07174482
#
# Stress axis : x y z
#
# Youngs Moduli (GPa) = 59.87126 24.89150 31.99141
#
# Poissons Ratio (x) = 0.02911 0.04691
# Poissons Ratio (y) = 0.07002 0.17785
# Poissons Ratio (z) = 0.08780 0.13838
#
# Static dielectric constant tensor:
#      x y z
#    x 1.681720 0.000000 0.029660 
#    y 0.000000 1.652630 0.000000 
#    z 0.029660 0.000000 1.674000 
# 
# From -- ./inp_files/238942.got.cif
#   From: 2010.05.17/outbox.cif.g08.bks.cpg/sg12_120_cif.got.tgz:238942.got - 2010.06.03 13:09:07.
