data_PCOD9219516
_publ_section_title
;
Structure prediction by ZEFSAII (Michael W. Deem and Ramdas Pophale) SiO2 
 PCOD9219516
Probable space group: C 2/M
;
_chemical_formula_sum "Si O2"
_cell_formula_units_Z 56
_cell_length_a 30.037946
_cell_length_b 11.105392
_cell_length_c 15.245247
_cell_angle_alpha 90.000000
_cell_angle_beta 39.075642
_cell_angle_gamma 90.000000
_cell_volume 3205.660130
_symmetry_space_group_name_H-M "C 2/M"
_symmetry_group_IT_number 12
_symmetry_cell_setting 'monoclinic'
loop_
_space_group_symop_operation_xyz
x,y,z
-x,y,-z
-x,-y,-z
x,-y,z
1/2+x,1/2+y,z
1/2-x,1/2+y,-z
1/2-x,1/2-y,-z
1/2+x,1/2-y,z
loop_
_atom_site_type_symbol
_atom_site_label
_atom_site_fract_x
_atom_site_fract_y
_atom_site_fract_z
Si Si1 0.420635 0.855412 0.353955
Si Si2 0.577105 0.854472 0.850946
Si Si3 0.828967 0.759026 0.638479
Si Si4 0.430338 0.500000 0.731173
Si Si5 0.921572 0.359643 0.641672
Si Si6 0.671436 0.853514 0.872021
Si Si7 0.572671 0.759706 0.179209
Si Si8 0.595214 0.500000 0.432340
O O1 0.408674 0.819785 0.271057
O O2 0.356015 0.817695 0.514541
O O3 0.491307 0.789684 0.280339
O O4 0.432198 0.000000 0.341204
O O5 0.635518 0.823009 0.833513
O O6 0.573642 0.000000 0.856412
O O7 0.500000 0.810306 0.000000
O O8 0.859954 0.695285 0.677529
O O9 0.746822 0.789535 0.764980
O O10 0.869770 0.885005 0.577511
O O11 0.416281 0.621126 0.808169
O O12 0.512735 0.500000 0.579606
O O13 0.393308 0.500000 0.691384
O O14 0.925091 0.500000 0.615473
O O15 0.909073 0.336601 0.762447
O O16 0.000000 0.306029 0.500000
O O17 0.677605 0.000000 0.869395
O O18 0.620013 0.803921 0.026284
#
# Coordination Sequence:
#
# PCOD9219516 Si02
#       8
#     8   8   8   4   8   8   8   4
#     4  11  21  37  65  94 117 153 207 257 301 349
#     4   9  18  36  64  92 117 150 202 258 302 353
#     4  12  23  38  59  88 126 162 194 248 302 361
#     4  11  22  38  62  86 117 161 216 241 284 359
#     4  11  21  36  60  92 121 154 203 251 293 348
#     4  11  24  41  62  90 122 159 202 252 310 361
#     4  12  22  38  62  90 119 159 205 252 295 355
#     4  11  20  40  58  81 121 162 207 239 286 363
#
# _framework density 17.469100000000001
#
# number of rings (size 3 to 8) (size 9 to 14) (size 15 to 20)
#    0.000    1.000    6.429    1.714    0.000    1.143 
#    2.571    0.000    0.000    2.571    0.000    0.000 
#    0.000    0.000    0.000    0.000    0.000    0.000 
#
# Total GULP energy -156299.688519 kJ/mol
# GULP energy per Si atom -5582.131733 kJ/mol
# Density = 1.742934 g / cm^3
# Si number density = 17.469100 Si / 1000 Ang^3
#
#
#
# Elastic Constant Matrix: (Units=GPa)
#
#
# Indices 1 2 3 4 5 6 
#
# 1 120.2156 24.6505 45.5577 0.0000 7.6262 0.0000
# 2 24.6505 52.3694 13.2747 0.0000 -5.8465 0.0000
# 3 45.5577 13.2747 79.1875 0.0000 1.5161 0.0000
# 4 0.0000 0.0000 0.0000 23.4720 0.0000 -0.8560
# 5 7.6262 -5.8465 1.5161 0.0000 35.3753 0.0000
# 6 0.0000 0.0000 0.0000 -0.8560 0.0000 24.3333
#
#
#
# Elastic Compliance Matrix: (Units=1/GPa)
#
#
# Indices 1 2 3 4 5 6 
#
# 1 0.011630 -0.004307 -0.005912 0.000000 -0.002966 0.000000
# 2 -0.004307 0.021965 -0.001293 0.000000 0.004614 0.000000
# 3 -0.005912 -0.001293 0.016239 0.000000 0.000365 0.000000
# 4 0.000000 0.000000 0.000000 0.042659 0.000000 0.001501
# 5 -0.002966 0.004614 0.000365 0.000000 0.029655 0.000000
# 6 0.000000 0.000000 0.000000 0.001501 0.000000 0.041149
#
#
# Mechanical properties :
#
#
# Convention : Reuss Voigt Hill
#
# Bulk Modulus (GPa) = 37.29793 46.52647 41.91220
# Shear Modulus (GPa) = 25.60725 27.85545 26.73135
#
# Velocity S-wave (km/s) = 3.83281 3.99752 3.91603
# Velocity P-wave (km/s) = 6.40190 6.92808 6.67018
#
# Compressibility (1/GPa) = 0.02681114
#
# Stress axis : x y z
#
# Youngs Moduli (GPa) = 85.98313 45.52666 61.57868
#
# Poissons Ratio (x) = 0.19607 0.36407
# Poissons Ratio (y) = 0.37031 0.07960
# Poissons Ratio (z) = 0.50835 0.05885
#
# Static dielectric constant tensor:
#      x y z
#    x 1.588820 0.000000 0.007320 
#    y 0.000000 1.611880 0.000000 
#    z 0.007320 0.000000 1.583410 
# 
# From -- ./inp_files/245650.got.cif
#   From: 2010.05.17/outbox.cif.g08.bks.cpg/sg12_123_cif.got.tgz:245650.got - 2010.06.03 13:09:07.
