data_PCOD9219453
_publ_section_title
;
Structure prediction by ZEFSAII (Michael W. Deem and Ramdas Pophale) SiO2 
 PCOD9219453
Probable space group: C 2/M
;
_chemical_formula_sum "Si O2"
_cell_formula_units_Z 56
_cell_length_a 10.027354
_cell_length_b 22.063466
_cell_length_c 15.235279
_cell_angle_alpha 90.000000
_cell_angle_beta 74.649025
_cell_angle_gamma 90.000000
_cell_volume 3250.369207
_symmetry_space_group_name_H-M "C 2/M"
_symmetry_group_IT_number 12
_symmetry_cell_setting 'monoclinic'
loop_
_space_group_symop_operation_xyz
x,y,z
-x,y,-z
-x,-y,-z
x,-y,z
1/2+x,1/2+y,z
1/2-x,1/2+y,-z
1/2-x,1/2-y,-z
1/2+x,1/2-y,z
loop_
_atom_site_type_symbol
_atom_site_label
_atom_site_fract_x
_atom_site_fract_y
_atom_site_fract_z
Si Si1 0.733670 0.500000 0.966714
Si Si2 0.481004 0.500000 0.148914
Si Si3 0.158091 0.375380 0.986011
Si Si4 0.270494 0.679071 0.809438
Si Si5 0.322294 0.300285 0.607505
Si Si6 0.563923 0.370190 0.775249
Si Si7 0.351613 0.298457 0.075923
Si Si8 0.144823 0.816307 0.587010
O O1 0.658494 0.500000 0.885869
O O2 0.608070 0.500000 0.058876
O O3 0.819360 0.439120 0.969960
O O4 0.483684 0.438798 0.204154
O O5 0.217309 0.376399 0.877073
O O6 0.241697 0.323842 0.024674
O O7 0.000000 0.359421 0.000000
O O8 0.251738 0.674978 0.708326
O O9 0.434983 0.676652 0.795574
O O10 0.199351 0.738576 0.863683
O O11 0.247351 0.237264 0.598146
O O12 0.485884 0.293420 0.600699
O O13 0.312476 0.337745 0.518187
O O14 0.640653 0.349839 0.850100
O O15 0.640697 0.361857 0.669479
O O16 0.500000 0.292687 0.000000
#
# Coordination Sequence:
#
# PCOD9219453 Si02
#       8
#     4   4   8   8   8   8   8   8
#     4  11  21  40  56  75 105 148 203 231 266 321
#     4  11  20  38  62  78 102 151 205 231 260 324
#     4  12  25  36  53  80 114 149 184 236 278 326
#     4  11  22  34  53  82 114 147 179 226 283 332
#     4   9  18  32  54  76 112 140 175 221 274 341
#     4  11  21  36  60  81 108 148 190 233 275 326
#     4  12  22  37  53  82 114 152 188 222 281 341
#     4   9  18  34  53  81 107 140 177 225 277 329
#
# _framework density 17.228812999999999
#
# number of rings (size 3 to 8) (size 9 to 14) (size 15 to 20)
#    0.000    1.286    5.714    1.071    2.000    0.000 
#    0.000    0.000    0.000    7.714    0.000    0.000 
#    0.000   10.286    0.000    0.000    0.000    0.000 
#
# Total GULP energy -155966.209857 kJ/mol
# GULP energy per Si atom -5570.221781 kJ/mol
# Density = 1.718960 g / cm^3
# Si number density = 17.228813 Si / 1000 Ang^3
#
#
#
# Elastic Constant Matrix: (Units=GPa)
#
#
# Indices 1 2 3 4 5 6 
#
# 1 71.7829 12.6752 33.1678 0.0000 5.9116 0.0000
# 2 12.6752 62.7568 26.7958 0.0000 -3.9319 0.0000
# 3 33.1678 26.7958 147.9954 0.0000 9.4673 0.0000
# 4 0.0000 0.0000 0.0000 17.2210 0.0000 3.4494
# 5 5.9116 -3.9319 9.4673 0.0000 17.9716 0.0000
# 6 0.0000 0.0000 0.0000 3.4494 0.0000 11.4000
#
#
#
# Elastic Compliance Matrix: (Units=1/GPa)
#
#
# Indices 1 2 3 4 5 6 
#
# 1 0.016023 -0.002258 -0.002912 0.000000 -0.004231 0.000000
# 2 -0.002258 0.018153 -0.003190 0.000000 0.006395 0.000000
# 3 -0.002912 -0.003190 0.008248 0.000000 -0.004085 0.000000
# 4 0.000000 0.000000 0.000000 0.061815 0.000000 -0.018704
# 5 -0.004231 0.006395 -0.004085 0.000000 0.060586 0.000000
# 6 0.000000 0.000000 0.000000 -0.018704 0.000000 0.093378
#
#
# Mechanical properties :
#
#
# Convention : Reuss Voigt Hill
#
# Bulk Modulus (GPa) = 38.90152 47.53474 43.21813
# Shear Modulus (GPa) = 17.63714 23.31161 20.47437
#
# Velocity S-wave (km/s) = 3.20300 3.68239 3.45103
# Velocity P-wave (km/s) = 6.02556 6.76240 6.40459
#
# Compressibility (1/GPa) = 0.02570593
#
# Stress axis : x y z
#
# Youngs Moduli (GPa) = 62.40878 55.08656 121.23633
#
# Poissons Ratio (x) = 0.12440 0.35298
# Poissons Ratio (y) = 0.14093 0.38672
# Poissons Ratio (z) = 0.18170 0.17571
#
# Static dielectric constant tensor:
#      x y z
#    x 1.650590 0.000000 -0.011440 
#    y 0.000000 1.567620 0.000000 
#    z -0.011440 0.000000 1.636980 
# 
# From -- ./inp_files/207255.got.cif
#   From: 2010.05.17/outbox.cif.g08.bks.cpg/sg12_104_cif.got.tgz:207255.got - 2010.06.03 13:09:07.
