data_PCOD9219960
_publ_section_title
;
Structure prediction by ZEFSAII (Michael W. Deem and Ramdas Pophale) SiO2 
 PCOD9219960
Probable space group: C 2/M
;
_chemical_formula_sum "Si O2"
_cell_formula_units_Z 64
_cell_length_a 16.166777
_cell_length_b 27.476662
_cell_length_c 9.861514
_cell_angle_alpha 90.000000
_cell_angle_beta 47.312730
_cell_angle_gamma 90.000000
_cell_volume 3220.007679
_symmetry_space_group_name_H-M "C 2/M"
_symmetry_group_IT_number 12
_symmetry_cell_setting 'monoclinic'
loop_
_space_group_symop_operation_xyz
x,y,z
-x,y,-z
-x,-y,-z
x,-y,z
1/2+x,1/2+y,z
1/2-x,1/2+y,-z
1/2-x,1/2-y,-z
1/2+x,1/2-y,z
loop_
_atom_site_type_symbol
_atom_site_label
_atom_site_fract_x
_atom_site_fract_y
_atom_site_fract_z
Si Si1 0.548719 0.844015 0.688524
Si Si2 0.894352 0.945453 0.020781
Si Si3 0.307533 0.793407 0.247190
Si Si4 0.279794 0.867281 0.714240
Si Si5 0.698580 0.862827 0.991048
Si Si6 0.606099 0.558983 0.283506
Si Si7 0.412444 0.692454 0.190992
Si Si8 0.446377 0.734523 0.416304
O O1 0.634035 0.833078 0.718758
O O2 0.604981 0.870190 0.496661
O O3 0.521945 0.789221 0.662773
O O4 0.436548 0.871198 0.862551
O O5 0.791099 0.915764 0.193757
O O6 0.852230 0.000000 0.053815
O O7 0.933136 0.931604 0.826959
O O8 0.000000 0.944251 0.000000
O O9 0.286173 0.816828 0.124869
O O10 0.388122 0.746735 0.162459
O O11 0.188265 0.772579 0.429974
O O12 0.205680 0.833070 0.698707
O O13 0.283606 0.850640 0.868034
O O14 0.781592 0.905876 0.842060
O O15 0.500000 0.571203 0.500000
O O16 0.629228 0.500000 0.276764
O O17 0.473755 0.697478 0.266030
O O18 0.500000 0.664995 0.000000
O O19 0.500000 0.723171 0.500000
#
# Coordination Sequence:
#
# PCOD9219960 Si02
#       8
#     8   8   8   8   8   8   8   8
#     4  11  21  42  58  81 122 165 202 251 313 362
#     4   9  19  37  60  88 118 153 194 243 309 374
#     4  11  22  40  56  82 122 163 207 259 301 364
#     4  11  21  37  58  85 119 156 203 251 312 362
#     4  11  24  36  63  91 115 161 208 248 307 377
#     4   9  20  42  67  92 125 155 194 255 312 365
#     4  11  22  37  55  81 117 158 203 255 311 354
#     4  11  22  38  59  83 115 164 209 255 303 363
#
# _framework density 19.875727999999999
#
# number of rings (size 3 to 8) (size 9 to 14) (size 15 to 20)
#    0.000    1.500    2.500    4.125    1.750    2.000 
#    2.250    0.625    0.000    4.500    0.000    0.000 
#    0.000    0.000    0.000    0.000    0.000    0.000 
#
# Total GULP energy -178259.827503 kJ/mol
# GULP energy per Si atom -5570.619609 kJ/mol
# Density = 1.983049 g / cm^3
# Si number density = 19.875728 Si / 1000 Ang^3
#
#
#
# Elastic Constant Matrix: (Units=GPa)
#
#
# Indices 1 2 3 4 5 6 
#
# 1 88.4086 22.1171 22.8184 0.0000 -1.7705 0.0000
# 2 22.1171 55.7114 49.2750 0.0000 2.5764 0.0000
# 3 22.8184 49.2750 124.1511 0.0000 -18.3979 0.0000
# 4 0.0000 0.0000 0.0000 24.5909 0.0000 -11.6126
# 5 -1.7705 2.5764 -18.3979 0.0000 25.0711 0.0000
# 6 0.0000 0.0000 0.0000 -11.6126 0.0000 15.8998
#
#
#
# Elastic Compliance Matrix: (Units=1/GPa)
#
#
# Indices 1 2 3 4 5 6 
#
# 1 0.012610 -0.004899 -0.000187 0.000000 0.001257 0.000000
# 2 -0.004899 0.033362 -0.014474 0.000000 -0.014396 0.000000
# 3 -0.000187 -0.014474 0.015767 0.000000 0.013044 0.000000
# 4 0.000000 0.000000 0.000000 0.062075 0.000000 0.045337
# 5 0.001257 -0.014396 0.013044 0.000000 0.051027 0.000000
# 6 0.000000 0.000000 0.000000 0.045337 0.000000 0.096006
#
#
# Mechanical properties :
#
#
# Convention : Reuss Voigt Hill
#
# Bulk Modulus (GPa) = 44.21080 50.74356 47.47718
# Shear Modulus (GPa) = 15.74767 24.71641 20.23204
#
# Velocity S-wave (km/s) = 2.81785 3.53022 3.19396
# Velocity P-wave (km/s) = 5.73401 6.49634 6.12705
#
# Compressibility (1/GPa) = 0.02261891
#
# Stress axis : x y z
#
# Youngs Moduli (GPa) = 79.30156 29.97405 63.42377
#
# Poissons Ratio (x) = 0.14683 0.01187
# Poissons Ratio (y) = 0.38847 0.91802
# Poissons Ratio (z) = 0.01485 0.43385
#
# Static dielectric constant tensor:
#      x y z
#    x 1.723920 0.000000 0.010500 
#    y 0.000000 1.724230 0.000000 
#    z 0.010500 0.000000 1.870750 
# 
# From -- ./inp_files/68591.got.cif
#   From: 2010.05.17/outbox.cif.g08.bks.cpg/sg12_35_cif.got.tgz:68591.got - 2010.06.03 13:09:07.
