data_PCOD9219719
_publ_section_title
;
Structure prediction by ZEFSAII (Michael W. Deem and Ramdas Pophale) SiO2 
 PCOD9219719
Probable space group: C 2/M
;
_chemical_formula_sum "Si O2"
_cell_formula_units_Z 56
_cell_length_a 17.296942
_cell_length_b 19.033678
_cell_length_c 13.249441
_cell_angle_alpha 90.000000
_cell_angle_beta 137.182640
_cell_angle_gamma 90.000000
_cell_volume 2964.719465
_symmetry_space_group_name_H-M "C 2/M"
_symmetry_group_IT_number 12
_symmetry_cell_setting 'monoclinic'
loop_
_space_group_symop_operation_xyz
x,y,z
-x,y,-z
-x,-y,-z
x,-y,z
1/2+x,1/2+y,z
1/2-x,1/2+y,-z
1/2-x,1/2-y,-z
1/2+x,1/2-y,z
loop_
_atom_site_type_symbol
_atom_site_label
_atom_site_fract_x
_atom_site_fract_y
_atom_site_fract_z
Si Si1 0.444001 0.000000 0.110807
Si Si2 0.180720 0.500000 0.222649
Si Si3 0.040368 0.358273 0.778832
Si Si4 0.667829 0.826005 0.525196
Si Si5 0.174131 0.260945 0.748122
Si Si6 0.898810 0.179276 0.647649
Si Si7 0.379825 0.613213 0.414063
Si Si8 0.559719 0.257203 0.950206
O O1 0.580299 0.000000 0.211511
O O2 0.406910 0.931469 0.137760
O O3 0.382434 0.000000 0.944578
O O4 0.266106 0.566780 0.305118
O O5 0.107945 0.301991 0.773669
O O6 0.020565 0.317202 0.865296
O O7 0.926721 0.377521 0.608225
O O8 0.658214 0.807882 0.632783
O O9 0.795895 0.844372 0.620378
O O10 0.635205 0.755684 0.430427
O O11 0.135363 0.183095 0.672333
O O12 0.305606 0.257070 0.905979
O O13 0.900591 0.133931 0.549875
O O14 0.011467 0.187263 0.822438
O O15 0.500000 0.579030 0.500000
O O16 0.500000 0.268407 0.000000
#
# Coordination Sequence:
#
# PCOD9219719 Si02
#       8
#     4   4   8   8   8   8   8   8
#     4  11  26  42  61  90 127 167 206 251 309 382
#     4  11  25  42  64  90 124 170 207 249 309 380
#     4  11  23  37  58  86 122 162 203 254 317 362
#     4   9  17  33  55  80 113 153 203 245 296 354
#     4  11  21  37  60  90 125 159 205 263 309 361
#     4   9  18  32  54  84 116 156 196 247 299 355
#     4  11  22  39  62  90 126 162 208 255 309 368
#     4  11  21  33  57  91 123 156 199 258 317 364
#
# _framework density 18.888801999999998
#
# number of rings (size 3 to 8) (size 9 to 14) (size 15 to 20)
#    0.000    1.571    1.429    5.357    6.000    1.143 
#    0.000    1.429    0.000    0.000    0.000    1.000 
#    0.000    0.000    0.000    0.000    0.000    0.000 
#
# Total GULP energy -156049.824428 kJ/mol
# GULP energy per Si atom -5573.208015 kJ/mol
# Density = 1.884581 g / cm^3
# Si number density = 18.888802 Si / 1000 Ang^3
#
#
#
# Elastic Constant Matrix: (Units=GPa)
#
#
# Indices 1 2 3 4 5 6 
#
# 1 93.3937 27.9016 36.6542 0.0000 1.5153 0.0000
# 2 27.9016 66.8275 32.5362 0.0000 -11.7426 0.0000
# 3 36.6542 32.5362 133.9001 0.0000 4.9363 0.0000
# 4 0.0000 0.0000 0.0000 44.4626 0.0000 5.0720
# 5 1.5153 -11.7426 4.9363 0.0000 36.7552 0.0000
# 6 0.0000 0.0000 0.0000 5.0720 0.0000 10.5912
#
#
#
# Elastic Compliance Matrix: (Units=1/GPa)
#
#
# Indices 1 2 3 4 5 6 
#
# 1 0.013041 -0.004573 -0.002397 0.000000 -0.001677 0.000000
# 2 -0.004573 0.020005 -0.003871 0.000000 0.007100 0.000000
# 3 -0.002397 -0.003871 0.009152 0.000000 -0.002367 0.000000
# 4 0.000000 0.000000 0.000000 0.023790 0.000000 -0.011393
# 5 -0.001677 0.007100 -0.002367 0.000000 0.029862 0.000000
# 6 0.000000 0.000000 0.000000 -0.011393 0.000000 0.099874
#
#
# Mechanical properties :
#
#
# Convention : Reuss Voigt Hill
#
# Bulk Modulus (GPa) = 48.73876 54.25613 51.49744
# Shear Modulus (GPa) = 22.29688 31.49708 26.89698
#
# Velocity S-wave (km/s) = 3.43946 4.08793 3.77764
# Velocity P-wave (km/s) = 6.45230 7.14618 6.80809
#
# Compressibility (1/GPa) = 0.02051755
#
# Stress axis : x y z
#
# Youngs Moduli (GPa) = 76.67882 49.98691 109.26167
#
# Poissons Ratio (x) = 0.22857 0.26191
# Poissons Ratio (y) = 0.35062 0.42296
# Poissons Ratio (z) = 0.18381 0.19350
#
# Static dielectric constant tensor:
#      x y z
#    x 1.695510 0.000000 0.021960 
#    y 0.000000 1.683530 0.000000 
#    z 0.021960 0.000000 1.664230 
# 
# From -- ./inp_files/159307.got.cif
#   From: 2010.05.17/outbox.cif.g08.bks.cpg/sg12_80_cif.got.tgz:159307.got - 2010.06.03 13:09:07.
