data_PCOD9219187
_publ_section_title
;
Structure prediction by ZEFSAII (Michael W. Deem and Ramdas Pophale) SiO2 
 PCOD9219187
Probable space group: C 2/M
;
_chemical_formula_sum "Si O2"
_cell_formula_units_Z 48
_cell_length_a 21.180066
_cell_length_b 7.688718
_cell_length_c 24.033272
_cell_angle_alpha 90.000000
_cell_angle_beta 39.277820
_cell_angle_gamma 90.000000
_cell_volume 2477.727847
_symmetry_space_group_name_H-M "C 2/M"
_symmetry_group_IT_number 12
_symmetry_cell_setting 'monoclinic'
loop_
_space_group_symop_operation_xyz
x,y,z
-x,y,-z
-x,-y,-z
x,-y,z
1/2+x,1/2+y,z
1/2-x,1/2+y,-z
1/2-x,1/2-y,-z
1/2+x,1/2-y,z
loop_
_atom_site_type_symbol
_atom_site_label
_atom_site_fract_x
_atom_site_fract_y
_atom_site_fract_z
Si Si1 0.365300 0.708680 0.929610
Si Si2 0.641100 0.795751 0.551337
Si Si3 0.817425 0.788120 0.268873
Si Si4 0.393942 0.213684 0.548944
Si Si5 0.536565 0.291188 0.732975
Si Si6 0.491713 0.712709 0.069224
O O1 0.373273 0.500000 0.924986
O O2 0.434611 0.771998 0.831175
O O3 0.418571 0.768564 0.950594
O O4 0.250000 0.750000 0.000000
O O5 0.750000 0.750000 0.500000
O O6 0.620435 0.721864 0.504433
O O7 0.560455 0.755486 0.653717
O O8 0.641470 0.000000 0.543167
O O9 0.703090 0.731814 0.349528
O O10 0.873861 0.733524 0.287156
O O11 0.888475 0.733767 0.169649
O O12 0.817664 0.000000 0.268360
O O13 0.500000 0.270326 0.500000
O O14 0.394121 0.000000 0.549273
O O15 0.535973 0.500000 0.735754
O O16 0.492797 0.500000 0.067659
O O17 0.500000 0.771985 0.000000
#
# Coordination Sequence:
#
# PCOD9219187 Si02
#       6
#     8   8   8   8   8   8
#     4   9  18  32  51  73 101 130 157 197 249 294
#     4  11  20  31  51  76  98 125 164 205 239 286
#     4   8  13  25  45  64  89 124 158 193 236 282
#     4   9  17  29  44  67  97 125 155 196 245 283
#     4   9  17  32  51  71  96 132 167 195 237 289
#     4   8  14  26  45  69  91 120 163 202 236 278
#
# _framework density 19.372588
#
# number of rings (size 3 to 8) (size 9 to 14) (size 15 to 20)
#    0.000    3.000    1.667    2.500    0.000    0.667 
#    3.000    0.000    0.000    2.500    0.000    0.000 
#    0.000    0.000    0.000    0.000    0.000    0.000 
#
# Total GULP energy -133766.183518 kJ/mol
# GULP energy per Si atom -5573.590980 kJ/mol
# Density = 1.932850 g / cm^3
# Si number density = 19.372588 Si / 1000 Ang^3
#
#
#
# Elastic Constant Matrix: (Units=GPa)
#
#
# Indices 1 2 3 4 5 6 
#
# 1 144.6486 5.3948 121.9638 0.0001 -6.5686 0.0002
# 2 5.3948 28.9732 4.0820 0.0013 -0.3662 -0.0001
# 3 121.9638 4.0820 183.8289 0.0003 -6.2739 -0.0001
# 4 0.0001 0.0013 0.0003 18.0087 -0.0002 -1.3647
# 5 -6.5686 -0.3662 -6.2739 -0.0002 40.2631 0.0001
# 6 0.0002 -0.0001 -0.0001 -1.3647 0.0001 14.0180
#
#
#
# Elastic Compliance Matrix: (Units=1/GPa)
#
#
# Indices 1 2 3 4 5 6 
#
# 1 0.015788 -0.001461 -0.010410 0.000000 0.000940 0.000000
# 2 -0.001461 0.034760 0.000201 -0.000003 0.000109 0.000000
# 3 -0.010410 0.000201 0.012350 0.000000 0.000228 0.000000
# 4 0.000000 -0.000003 0.000000 0.055941 0.000000 0.005446
# 5 0.000940 0.000109 0.000228 0.000000 0.025027 0.000000
# 6 0.000000 0.000000 0.000000 0.005446 0.000000 0.071867
#
#
# Mechanical properties :
#
#
# Convention : Reuss Voigt Hill
#
# Bulk Modulus (GPa) = 25.27968 68.92579 47.10273
# Shear Modulus (GPa) = 19.82085 29.52529 24.67307
#
# Velocity S-wave (km/s) = 3.20212 3.90818 3.57264
# Velocity P-wave (km/s) = 5.17194 7.48474 6.43313
#
# Compressibility (1/GPa) = 0.03955747
#
# Stress axis : x y z
#
# Youngs Moduli (GPa) = 63.33811 28.76895 80.97108
#
# Poissons Ratio (x) = 0.04204 0.84294
# Poissons Ratio (y) = 0.09255 -0.01630
# Poissons Ratio (z) = 0.65938 -0.00579
#
# Static dielectric constant tensor:
#      x y z
#    x 1.659610 0.000000 0.014440 
#    y 0.000000 1.749050 0.000000 
#    z 0.014440 0.000000 1.687060 
# 
# From -- ./inp_files/345388.got.cif
#   From: 2010.05.17/outbox.cif.g08.bks.cpg/sg12_173_cif.got.tgz:345388.got - 2010.06.03 13:09:07.
