data_PCOD9219883
_publ_section_title
;
Structure prediction by ZEFSAII (Michael W. Deem and Ramdas Pophale) SiO2 
 PCOD9219883
Probable space group: C 2/M
;
_chemical_formula_sum "Si O2"
_cell_formula_units_Z 56
_cell_length_a 30.965574
_cell_length_b 8.487652
_cell_length_c 12.697026
_cell_angle_alpha 90.000000
_cell_angle_beta 106.069597
_cell_angle_gamma 90.000000
_cell_volume 3206.702942
_symmetry_space_group_name_H-M "C 2/M"
_symmetry_group_IT_number 12
_symmetry_cell_setting 'monoclinic'
loop_
_space_group_symop_operation_xyz
x,y,z
-x,y,-z
-x,-y,-z
x,-y,z
1/2+x,1/2+y,z
1/2-x,1/2+y,-z
1/2-x,1/2-y,-z
1/2+x,1/2-y,z
loop_
_atom_site_type_symbol
_atom_site_label
_atom_site_fract_x
_atom_site_fract_y
_atom_site_fract_z
Si Si1 0.050085 0.691324 0.913158
Si Si2 0.358184 0.687519 0.691821
Si Si3 0.307672 0.313292 0.874824
Si Si4 0.789553 0.184917 0.236557
Si Si5 0.856810 0.687331 0.112669
Si Si6 0.294752 0.813629 0.473291
Si Si7 0.948977 0.309208 0.840955
O O1 0.050313 0.500000 0.913199
O O2 0.092038 0.743592 0.871802
O O3 0.999877 0.738898 0.846241
O O4 0.057329 0.737010 0.040307
O O5 0.353571 0.500000 0.675068
O O6 0.330796 0.732054 0.779597
O O7 0.335847 0.773018 0.577949
O O8 0.409598 0.734324 0.746513
O O9 0.314409 0.500000 0.894958
O O10 0.255030 0.275813 0.831644
O O11 0.330419 0.222632 0.986512
O O12 0.830708 0.229067 0.189009
O O13 0.799095 0.233351 0.362867
O O14 0.780102 0.000000 0.223946
O O15 0.857019 0.500000 0.131707
O O16 0.250000 0.750000 0.500000
O O17 0.290406 0.000000 0.455575
O O18 0.945922 0.500000 0.833267
#
# Coordination Sequence:
#
# PCOD9219883 Si02
#       7
#     8   8   8   8   8   8   8
#     4   8  16  30  54  82 111 145 184 227 273 329
#     4  11  22  35  55  84 117 148 182 227 278 329
#     4  11  22  36  54  80 115 151 188 227 274 332
#     4  12  25  40  57  79 111 150 190 230 278 332
#     4  11  21  36  57  82 114 151 190 230 278 332
#     4  12  24  40  61  83 108 144 187 232 277 325
#     4   9  16  32  55  82 111 145 186 227 274 327
#
# _framework density 17.463419999999999
#
# number of rings (size 3 to 8) (size 9 to 14) (size 15 to 20)
#    0.000    1.429    2.857    5.143    0.000    1.143 
#    0.000    2.857    0.000    0.857    0.000    6.000 
#    0.000    0.000    0.000    0.000    0.000    0.000 
#
# Total GULP energy -156446.289054 kJ/mol
# GULP energy per Si atom -5587.367466 kJ/mol
# Density = 1.742367 g / cm^3
# Si number density = 17.463420 Si / 1000 Ang^3
#
#
#
# Elastic Constant Matrix: (Units=GPa)
#
#
# Indices 1 2 3 4 5 6 
#
# 1 114.8457 -11.4653 33.9926 0.0000 5.8005 0.0000
# 2 -11.4653 21.6887 -7.3278 0.0000 -4.2496 0.0000
# 3 33.9926 -7.3278 39.0510 0.0000 -1.0052 0.0000
# 4 0.0000 0.0000 0.0000 27.1659 0.0000 1.9175
# 5 5.8005 -4.2496 -1.0052 0.0000 28.6600 0.0000
# 6 0.0000 0.0000 0.0000 1.9175 0.0000 22.3915
#
#
#
# Elastic Compliance Matrix: (Units=1/GPa)
#
#
# Indices 1 2 3 4 5 6 
#
# 1 0.012068 0.002492 -0.010100 0.000000 -0.002427 0.000000
# 2 0.002492 0.051468 0.007679 0.000000 0.007397 0.000000
# 3 -0.010100 0.007679 0.035954 0.000000 0.004444 0.000000
# 4 0.000000 0.000000 0.000000 0.037035 0.000000 -0.003171
# 5 -0.002427 0.007397 0.004444 0.000000 0.036636 0.000000
# 6 0.000000 0.000000 0.000000 -0.003171 0.000000 0.044931
#
#
# Mechanical properties :
#
#
# Convention : Reuss Voigt Hill
#
# Bulk Modulus (GPa) = 10.03686 22.88715 16.46201
# Shear Modulus (GPa) = 19.90757 26.33586 23.12172
#
# Velocity S-wave (km/s) = 3.37999 3.88759 3.64264
# Velocity P-wave (km/s) = 4.58173 5.76934 5.20949
#
# Compressibility (1/GPa) = 0.09963272
#
# Stress axis : x y z
#
# Youngs Moduli (GPa) = 82.86349 19.42958 27.81303
#
# Poissons Ratio (x) = -0.04841 0.28090
# Poissons Ratio (y) = -0.20646 -0.21359
# Poissons Ratio (z) = 0.83690 -0.14921
#
# Static dielectric constant tensor:
#      x y z
#    x 1.603240 0.000000 0.006130 
#    y 0.000000 1.596660 0.000000 
#    z 0.006130 0.000000 1.564720 
# 
# From -- ./inp_files/186387.got.cif
#   From: 2010.05.17/outbox.cif.g08.bks.cpg/sg12_94_cif.got.tgz:186387.got - 2010.06.03 13:09:07.
