data_PCOD9219376
_publ_section_title
;
Structure prediction by ZEFSAII (Michael W. Deem and Ramdas Pophale) SiO2 
 PCOD9219376
Probable space group: C 2/M
;
_chemical_formula_sum "Si O2"
_cell_formula_units_Z 42
_cell_length_a 27.609246
_cell_length_b 10.495421
_cell_length_c 21.875939
_cell_angle_alpha 90.000000
_cell_angle_beta 163.411522
_cell_angle_gamma 90.000000
_cell_volume 1809.758410
_symmetry_space_group_name_H-M "C 2/M"
_symmetry_group_IT_number 12
_symmetry_cell_setting 'monoclinic'
loop_
_space_group_symop_operation_xyz
x,y,z
-x,y,-z
-x,-y,-z
x,-y,z
1/2+x,1/2+y,z
1/2-x,1/2+y,-z
1/2-x,1/2-y,-z
1/2+x,1/2-y,z
loop_
_atom_site_type_symbol
_atom_site_label
_atom_site_fract_x
_atom_site_fract_y
_atom_site_fract_z
Si Si1 0.505465 0.220953 0.603557
Si Si2 0.879779 0.500000 0.911215
Si Si3 0.888970 0.349359 0.592885
Si Si4 0.997584 0.000000 0.424546
Si Si5 0.000000 0.500000 0.500000
Si Si6 0.843472 0.861267 0.858624
Si Si7 0.525850 0.773887 0.170552
O O1 0.499051 0.174356 0.665598
O O2 0.578628 0.364375 0.688146
O O3 0.566902 0.116115 0.629464
O O4 0.304867 0.230407 0.342109
O O5 0.698687 0.500000 0.658886
O O6 0.000000 0.500000 0.000000
O O7 0.934657 0.381481 0.019874
O O8 0.841579 0.500000 0.537383
O O9 0.720564 0.259884 0.388560
O O10 0.979364 0.311244 0.765349
O O11 0.000000 0.000000 0.500000
O O12 0.753299 0.000000 0.747916
O O13 0.000000 0.858523 0.000000
O O14 0.923381 0.846127 0.021476
#
# Coordination Sequence:
#
# PCOD9219376 Si02
#       7
#     8   4   8   4   2   8   8
#     4  12  23  42  66  93 122 169 219 265 316 382
#     4  12  22  39  63  93 129 168 211 263 332 389
#     4  11  22  39  59  90 136 172 211 265 331 393
#     4  12  26  42  67  96 132 160 214 282 324 382
#     4  12  24  40  70  90 118 166 226 264 304 368
#     4  11  20  36  62  92 125 160 208 270 322 378
#     4  11  22  35  58  94 130 168 202 264 332 395
#
# _framework density 23.207516999999999
#
# number of rings (size 3 to 8) (size 9 to 14) (size 15 to 20)
#    0.000    0.571    7.619    2.286    0.000    0.000 
#    3.429    0.000    0.000    6.857    0.000    0.000 
#    0.000    0.000    0.000    0.000    0.000    0.000 
#
# Total GULP energy -117025.773656 kJ/mol
# GULP energy per Si atom -5572.655888 kJ/mol
# Density = 2.315470 g / cm^3
# Si number density = 23.207517 Si / 1000 Ang^3
#
#
#
# Elastic Constant Matrix: (Units=GPa)
#
#
# Indices 1 2 3 4 5 6 
#
# 1 136.4347 29.1155 3.7198 0.0002 -27.1773 0.0002
# 2 29.1155 162.1539 -0.3737 0.0003 -9.9304 0.0002
# 3 3.7198 -0.3737 43.0436 0.0006 -9.7192 0.0001
# 4 0.0002 0.0003 0.0006 13.6068 0.0001 -2.1320
# 5 -27.1773 -9.9304 -9.7192 0.0001 36.2671 0.0002
# 6 0.0002 0.0002 0.0001 -2.1320 0.0002 33.1105
#
#
#
# Elastic Compliance Matrix: (Units=1/GPa)
#
#
# Indices 1 2 3 4 5 6 
#
# 1 0.008859 -0.001191 0.000691 0.000000 0.006498 0.000000
# 2 -0.001191 0.006441 0.000378 0.000000 0.000972 0.000000
# 3 0.000691 0.000378 0.024818 -0.000001 0.007273 0.000000
# 4 0.000000 0.000000 -0.000001 0.074242 -0.000001 0.004780
# 5 0.006498 0.000972 0.007273 -0.000001 0.034658 0.000000
# 6 0.000000 0.000000 0.000000 0.004780 0.000000 0.030510
#
#
# Mechanical properties :
#
#
# Convention : Reuss Voigt Hill
#
# Bulk Modulus (GPa) = 25.07805 45.17281 35.12543
# Shear Modulus (GPa) = 25.89835 37.20825 31.55330
#
# Velocity S-wave (km/s) = 3.34420 4.00845 3.69130
# Velocity P-wave (km/s) = 5.07356 6.39770 5.77372
#
# Compressibility (1/GPa) = 0.03987551
#
# Stress axis : x y z
#
# Youngs Moduli (GPa) = 112.87666 155.24837 40.29346
#
# Poissons Ratio (x) = 0.18493 -0.02785
# Poissons Ratio (y) = 0.13446 -0.01525
# Poissons Ratio (z) = -0.07803 -0.05875
#
# Static dielectric constant tensor:
#      x y z
#    x 1.790570 0.000000 -0.055700 
#    y 0.000000 2.076300 0.000000 
#    z -0.055700 0.000000 1.753020 
# 
# From -- ./inp_files/327922.got.cif
#   From: 2010.05.17/outbox.cif.g08.bks.cpg/sg12_164_cif.got.tgz:327922.got - 2010.06.03 13:09:07.
