data_PCOD9219210
_publ_section_title
;
Structure prediction by ZEFSAII (Michael W. Deem and Ramdas Pophale) SiO2 
 PCOD9219210
Probable space group: C 2/M
;
_chemical_formula_sum "Si O2"
_cell_formula_units_Z 64
_cell_length_a 11.060340
_cell_length_b 30.543309
_cell_length_c 19.218444
_cell_angle_alpha 90.000000
_cell_angle_beta 143.198779
_cell_angle_gamma 90.000000
_cell_volume 3889.189360
_symmetry_space_group_name_H-M "C 2/M"
_symmetry_group_IT_number 12
_symmetry_cell_setting 'monoclinic'
loop_
_space_group_symop_operation_xyz
x,y,z
-x,y,-z
-x,-y,-z
x,-y,z
1/2+x,1/2+y,z
1/2-x,1/2+y,-z
1/2-x,1/2-y,-z
1/2+x,1/2-y,z
loop_
_atom_site_type_symbol
_atom_site_label
_atom_site_fract_x
_atom_site_fract_y
_atom_site_fract_z
Si Si1 0.919145 0.190655 0.313088
Si Si2 0.285453 0.548274 0.495209
Si Si3 0.075987 0.213799 0.837138
Si Si4 0.590379 0.859095 0.249959
Si Si5 0.298194 0.306950 0.952193
Si Si6 0.744725 0.048231 0.308281
Si Si7 0.092768 0.720224 0.618224
Si Si8 0.824925 0.357432 0.547564
O O1 0.872826 0.188857 0.210202
O O2 0.729769 0.173314 0.269407
O O3 0.963609 0.240993 0.354612
O O4 0.114710 0.162687 0.423872
O O5 0.226178 0.500000 0.494452
O O6 0.257435 0.547384 0.398464
O O7 0.527133 0.553647 0.614929
O O8 0.172309 0.591173 0.470842
O O9 0.185542 0.260859 0.886107
O O10 0.834173 0.218713 0.726316
O O11 0.146183 0.191537 0.940813
O O12 0.360596 0.844086 0.140768
O O13 0.621015 0.908199 0.235593
O O14 0.666601 0.856021 0.364669
O O15 0.500000 0.308795 0.000000
O O16 0.670063 0.000000 0.251873
O O17 0.000000 0.731031 0.500000
O O18 0.999559 0.673923 0.598878
#
# Coordination Sequence:
#
# PCOD9219210 Si02
#       8
#     8   8   8   8   8   8   8   8
#     4  12  22  33  51  80 110 139 174 216 264 310
#     4   8  14  26  46  75 109 140 169 210 261 311
#     4  11  24  39  53  74 103 143 182 219 254 306
#     4  11  20  33  55  80 106 140 181 215 265 314
#     4  11  24  41  56  70 101 143 188 221 254 307
#     4   8  14  26  47  77 109 134 167 218 266 308
#     4  12  23  36  51  76 111 144 175 213 262 313
#     4  11  20  32  52  79 113 142 171 214 264 318
#
# _framework density 16.455871999999999
#
# number of rings (size 3 to 8) (size 9 to 14) (size 15 to 20)
#    0.000    1.500    3.750    4.500    1.750    0.000 
#    0.000    0.000    0.000    0.750    0.000    3.500 
#    0.000    0.000    0.000    0.000    0.000    0.000 
#
# Total GULP energy -178539.830626 kJ/mol
# GULP energy per Si atom -5579.369707 kJ/mol
# Density = 1.641842 g / cm^3
# Si number density = 16.455872 Si / 1000 Ang^3
#
#
#
# Elastic Constant Matrix: (Units=GPa)
#
#
# Indices 1 2 3 4 5 6 
#
# 1 64.4546 36.4494 37.8034 0.0000 -2.3552 0.0000
# 2 36.4494 115.3737 32.3381 0.0000 11.2028 0.0000
# 3 37.8034 32.3381 76.9632 0.0000 -0.1290 0.0000
# 4 0.0000 0.0000 0.0000 5.4224 0.0000 5.7003
# 5 -2.3552 11.2028 -0.1290 0.0000 32.1734 0.0000
# 6 0.0000 0.0000 0.0000 5.7003 0.0000 21.3119
#
#
#
# Elastic Compliance Matrix: (Units=1/GPa)
#
#
# Indices 1 2 3 4 5 6 
#
# 1 0.024357 -0.005319 -0.009723 0.000000 0.003596 0.000000
# 2 -0.005319 0.011381 -0.002177 0.000000 -0.004361 0.000000
# 3 -0.009723 -0.002177 0.018684 0.000000 0.000121 0.000000
# 4 0.000000 0.000000 0.000000 0.256561 0.000000 -0.068623
# 5 0.003596 -0.004361 0.000121 0.000000 0.032864 0.000000
# 6 0.000000 0.000000 0.000000 -0.068623 0.000000 0.065277
#
#
# Mechanical properties :
#
#
# Convention : Reuss Voigt Hill
#
# Bulk Modulus (GPa) = 50.03825 52.21925 51.12875
# Shear Modulus (GPa) = 11.10564 21.79492 16.45028
#
# Velocity S-wave (km/s) = 2.60065 3.64324 3.16517
# Velocity P-wave (km/s) = 6.28422 7.03558 6.67049
#
# Compressibility (1/GPa) = 0.01998471
#
# Stress axis : x y z
#
# Youngs Moduli (GPa) = 41.05674 87.86206 53.52209
#
# Poissons Ratio (x) = 0.46732 0.52038
# Poissons Ratio (y) = 0.21837 0.11652
# Poissons Ratio (z) = 0.39919 0.19128
#
# Static dielectric constant tensor:
#      x y z
#    x 1.559000 0.000000 -0.003200 
#    y 0.000000 1.578040 0.000000 
#    z -0.003200 0.000000 1.541410 
# 
# From -- ./inp_files/307486.got.cif
#   From: 2010.05.17/outbox.cif.g08.bks.cpg/sg12_154_cif.got.tgz:307486.got - 2010.06.03 13:09:07.
