data_PCOD9219005
_publ_section_title
;
Structure prediction by ZEFSAII (Michael W. Deem and Ramdas Pophale) SiO2 
 PCOD9219005
Probable space group: C 2/M
;
_chemical_formula_sum "Si O2"
_cell_formula_units_Z 56
_cell_length_a 19.178007
_cell_length_b 20.145292
_cell_length_c 12.383225
_cell_angle_alpha 90.000000
_cell_angle_beta 44.431974
_cell_angle_gamma 90.000000
_cell_volume 3349.247742
_symmetry_space_group_name_H-M "C 2/M"
_symmetry_group_IT_number 12
_symmetry_cell_setting 'monoclinic'
loop_
_space_group_symop_operation_xyz
x,y,z
-x,y,-z
-x,-y,-z
x,-y,z
1/2+x,1/2+y,z
1/2-x,1/2+y,-z
1/2-x,1/2-y,-z
1/2+x,1/2-y,z
loop_
_atom_site_type_symbol
_atom_site_label
_atom_site_fract_x
_atom_site_fract_y
_atom_site_fract_z
Si Si1 0.523332 0.770311 0.594182
Si Si2 0.180536 0.575480 0.718152
Si Si3 0.487212 0.864787 0.825834
Si Si4 0.836372 0.194493 0.902790
Si Si5 0.735016 0.286511 0.403213
Si Si6 0.284489 0.074472 0.062338
Si Si7 0.597375 0.262889 0.950640
O O1 0.500000 0.794692 0.500000
O O2 0.533433 0.829263 0.670099
O O3 0.431887 0.724320 0.735566
O O4 0.625629 0.729558 0.481097
O O5 0.201329 0.500000 0.660041
O O6 0.248140 0.635128 0.599551
O O7 0.196813 0.577950 0.829275
O O8 0.069032 0.595646 0.804132
O O9 0.393673 0.909094 0.894824
O O10 0.441678 0.804256 0.946885
O O11 0.791922 0.129735 0.895015
O O12 0.750000 0.250000 0.000000
O O13 0.864708 0.188562 0.997520
O O14 0.750000 0.250000 0.500000
O O15 0.817607 0.259180 0.227353
O O16 0.252472 0.000000 0.070841
O O17 0.500000 0.290917 0.000000
#
# Coordination Sequence:
#
# PCOD9219005 Si02
#       7
#     8   8   8   8   8   8   8
#     4  11  22  33  56  84 113 146 185 233 279 321
#     4  11  21  35  55  84 118 148 180 228 285 339
#     4  11  19  35  56  86 115 143 183 232 279 337
#     4  11  20  37  57  81 113 146 191 232 272 332
#     4  12  21  35  55  85 114 146 185 230 276 332
#     4  11  21  34  58  86 112 143 186 236 281 328
#     4  11  19  34  59  83 112 143 190 234 277 323
#
# _framework density 16.720172000000002
#
# number of rings (size 3 to 8) (size 9 to 14) (size 15 to 20)
#    0.000    0.857    7.143    3.429    0.000    1.143 
#    0.000    0.714    0.000    7.286    0.000    0.000 
#    0.000    0.000    0.000    0.000    0.000    0.000 
#
# Total GULP energy -156273.659336 kJ/mol
# GULP energy per Si atom -5581.202119 kJ/mol
# Density = 1.668212 g / cm^3
# Si number density = 16.720172 Si / 1000 Ang^3
#
#
#
# Elastic Constant Matrix: (Units=GPa)
#
#
# Indices 1 2 3 4 5 6 
#
# 1 118.3669 46.3695 39.9419 0.0000 -1.9137 0.0000
# 2 46.3695 110.9893 29.0006 0.0000 4.5465 0.0000
# 3 39.9419 29.0006 89.5995 0.0000 1.2933 0.0000
# 4 0.0000 0.0000 0.0000 15.0658 0.0000 2.3476
# 5 -1.9137 4.5465 1.2933 0.0000 31.4726 0.0000
# 6 0.0000 0.0000 0.0000 2.3476 0.0000 28.4490
#
#
#
# Elastic Compliance Matrix: (Units=1/GPa)
#
#
# Indices 1 2 3 4 5 6 
#
# 1 0.011226 -0.003751 -0.003810 0.000000 0.001381 0.000000
# 2 -0.003751 0.011148 -0.001911 0.000000 -0.001760 0.000000
# 3 -0.003810 -0.001911 0.013485 0.000000 -0.000510 0.000000
# 4 0.000000 0.000000 0.000000 0.067240 0.000000 -0.005549
# 5 0.001381 -0.001760 -0.000510 0.000000 0.032133 0.000000
# 6 0.000000 0.000000 0.000000 -0.005549 0.000000 0.035608
#
#
# Mechanical properties :
#
#
# Convention : Reuss Voigt Hill
#
# Bulk Modulus (GPa) = 59.11789 61.06440 60.09115
# Shear Modulus (GPa) = 25.58556 28.57375 27.07965
#
# Velocity S-wave (km/s) = 3.91605 4.13842 4.02877
# Velocity P-wave (km/s) = 7.47537 7.70947 7.59333
#
# Compressibility (1/GPa) = 0.01691535
#
# Stress axis : x y z
#
# Youngs Moduli (GPa) = 89.08107 89.69933 74.15597
#
# Poissons Ratio (x) = 0.33646 0.28254
# Poissons Ratio (y) = 0.33414 0.14170
# Poissons Ratio (z) = 0.33941 0.17140
#
# Static dielectric constant tensor:
#      x y z
#    x 1.612230 0.000000 0.002410 
#    y 0.000000 1.561700 0.000000 
#    z 0.002410 0.000000 1.575140 
# 
# From -- ./inp_files/169414.got.cif
#   From: 2010.05.17/outbox.cif.g08.bks.cpg/sg12_85_cif.got.tgz:169414.got - 2010.06.03 13:09:07.
