data_PCOD9219840
_publ_section_title
;
Structure prediction by ZEFSAII (Michael W. Deem and Ramdas Pophale) SiO2 
 PCOD9219840
Probable space group: C 2/M
;
_chemical_formula_sum "Si O2"
_cell_formula_units_Z 56
_cell_length_a 22.937830
_cell_length_b 23.009992
_cell_length_c 14.066972
_cell_angle_alpha 90.000000
_cell_angle_beta 159.295193
_cell_angle_gamma 90.000000
_cell_volume 2624.970007
_symmetry_space_group_name_H-M "C 2/M"
_symmetry_group_IT_number 12
_symmetry_cell_setting 'monoclinic'
loop_
_space_group_symop_operation_xyz
x,y,z
-x,y,-z
-x,-y,-z
x,-y,z
1/2+x,1/2+y,z
1/2-x,1/2+y,-z
1/2-x,1/2-y,-z
1/2+x,1/2-y,z
loop_
_atom_site_type_symbol
_atom_site_label
_atom_site_fract_x
_atom_site_fract_y
_atom_site_fract_z
Si Si1 0.071112 0.387814 0.699161
Si Si2 0.738019 0.889680 0.630496
Si Si3 0.435146 0.566871 0.765623
Si Si4 0.137556 0.157488 0.501121
Si Si5 0.185265 0.230978 0.249355
Si Si6 0.786144 0.215784 0.936696
Si Si7 0.804447 0.849099 0.200702
O O1 0.147938 0.330188 0.760892
O O2 0.000000 0.422862 0.500000
O O3 0.919130 0.392858 0.541237
O O4 0.223008 0.394933 0.004625
O O5 0.784553 0.929158 0.611393
O O6 0.725993 0.824575 0.571447
O O7 0.903893 0.899995 0.946682
O O8 0.479768 0.500000 0.819594
O O9 0.387989 0.600596 0.599165
O O10 0.241577 0.207863 0.610108
O O11 0.231214 0.143592 0.742049
O O12 0.959190 0.189885 0.238543
O O13 0.206970 0.220686 0.168311
O O14 0.000000 0.227469 0.000000
O O15 0.751746 0.282978 0.911538
O O16 0.000000 0.852535 0.500000
#
# Coordination Sequence:
#
# PCOD9219840 Si02
#       7
#     8   8   8   8   8   8   8
#     4  12  22  36  62  95 142 181 221 280 337 421
#     4  11  21  40  66 103 132 176 229 288 351 408
#     4  11  24  46  73  96 133 184 242 290 340 409
#     4  11  23  40  64  97 138 184 230 283 349 412
#     4  11  21  35  59  98 143 178 216 282 350 419
#     4  11  21  36  56  95 141 188 220 272 339 421
#     4  11  24  35  59  98 144 189 226 265 347 432
#
# _framework density 21.333577999999999
#
# number of rings (size 3 to 8) (size 9 to 14) (size 15 to 20)
#    0.000    0.857    5.714    2.571    4.000    4.571 
#    0.000    0.000    0.000   12.857    0.000    0.000 
#    0.000    0.000    0.000    0.000    0.000    0.000 
#
# Total GULP energy -155937.705532 kJ/mol
# GULP energy per Si atom -5569.203769 kJ/mol
# Density = 2.128502 g / cm^3
# Si number density = 21.333578 Si / 1000 Ang^3
#
#
#
# Elastic Constant Matrix: (Units=GPa)
#
#
# Indices 1 2 3 4 5 6 
#
# 1 90.0436 24.5820 48.7325 0.0000 2.6484 0.0000
# 2 24.5820 44.5033 -11.0479 0.0000 -13.5473 0.0000
# 3 48.7325 -11.0479 77.0155 0.0000 -8.0140 0.0000
# 4 0.0000 0.0000 0.0000 4.5745 0.0000 -5.2742
# 5 2.6484 -13.5473 -8.0140 0.0000 51.7255 0.0000
# 6 0.0000 0.0000 0.0000 -5.2742 0.0000 -0.7862
#
#
#
# Elastic Compliance Matrix: (Units=1/GPa)
#
#
# Indices 1 2 3 4 5 6 
#
# 1 0.035096 -0.030675 -0.028084 0.000000 -0.014182 0.000000
# 2 -0.030675 0.052668 0.029032 0.000000 0.019863 0.000000
# 3 -0.028084 0.029032 0.036448 0.000000 0.014689 0.000000
# 4 0.000000 0.000000 0.000000 0.025028 0.000000 -0.167895
# 5 -0.014182 0.019863 0.014689 0.000000 0.027537 0.000000
# 6 0.000000 0.000000 0.000000 -0.167895 0.000000 -0.145622
#
#
# Mechanical properties :
#
#
# Convention : Reuss Voigt Hill
#
# Bulk Modulus (GPa) = 15.44194 37.34393 26.39294
# Shear Modulus (GPa) = 44.56526 21.05580 32.81053
#
# Velocity S-wave (km/s) = 4.57549 3.14503 3.92596
# Velocity P-wave (km/s) = 5.93022 5.54356 5.74015
#
# Compressibility (1/GPa) = 0.06475870
#
# Stress axis : x y z
#
# Youngs Moduli (GPa) = 28.49287 18.98692 27.43636
#
# Poissons Ratio (x) = 0.58243 0.77052
# Poissons Ratio (y) = 0.87402 -0.79654
# Poissons Ratio (z) = 0.80019 -0.55123
#
# Static dielectric constant tensor:
#      x y z
#    x 1.893720 0.000000 -0.019130 
#    y 0.000000 1.766300 0.000000 
#    z -0.019130 0.000000 1.806500 
# 
# From -- ./inp_files/242178.got.cif
#   From: 2010.05.17/outbox.cif.g08.bks.cpg/sg12_122_cif.got.tgz:242178.got - 2010.06.03 13:09:07.
