data_PCOD9219764
_publ_section_title
;
Structure prediction by ZEFSAII (Michael W. Deem and Ramdas Pophale) SiO2 
 PCOD9219764
Probable space group: C 2/M
;
_chemical_formula_sum "Si O2"
_cell_formula_units_Z 64
_cell_length_a 20.814441
_cell_length_b 8.780937
_cell_length_c 20.370698
_cell_angle_alpha 90.000000
_cell_angle_beta 97.901893
_cell_angle_gamma 90.000000
_cell_volume 3687.806804
_symmetry_space_group_name_H-M "C 2/M"
_symmetry_group_IT_number 12
_symmetry_cell_setting 'monoclinic'
loop_
_space_group_symop_operation_xyz
x,y,z
-x,y,-z
-x,-y,-z
x,-y,z
1/2+x,1/2+y,z
1/2-x,1/2+y,-z
1/2-x,1/2-y,-z
1/2+x,1/2-y,z
loop_
_atom_site_type_symbol
_atom_site_label
_atom_site_fract_x
_atom_site_fract_y
_atom_site_fract_z
Si Si1 0.299385 0.317348 0.323610
Si Si2 0.585522 0.183735 0.574445
Si Si3 0.317023 0.317857 0.036635
Si Si4 0.365507 0.318857 0.829409
Si Si5 0.439455 0.185285 0.577424
Si Si6 0.570877 0.818222 0.037530
Si Si7 0.724436 0.317503 0.827093
Si Si8 0.149805 0.684370 0.314428
O O1 0.303620 0.500000 0.329394
O O2 0.354662 0.245641 0.375910
O O3 0.306133 0.276218 0.247439
O O4 0.225734 0.272760 0.332853
O O5 0.514932 0.231762 0.592407
O O6 0.586459 0.231798 0.498020
O O7 0.587213 0.000000 0.575913
O O8 0.317121 0.500000 0.027742
O O9 0.317792 0.284641 0.114696
O O10 0.250000 0.250000 0.000000
O O11 0.375668 0.245533 0.005030
O O12 0.415246 0.253852 0.889592
O O13 0.293716 0.264759 0.841716
O O14 0.374277 0.251561 0.757873
O O15 0.868209 0.000000 0.828262
O O16 0.394274 0.235432 0.630889
O O17 0.439025 0.000000 0.577763
O O18 0.577789 0.000000 0.043504
O O19 0.500000 0.781774 0.000000
O O20 0.737124 0.500000 0.827602
O O21 0.147661 0.500000 0.309940
#
# Coordination Sequence:
#
# PCOD9219764 Si02
#       8
#     8   8   8   8   8   8   8   8
#     4   9  18  32  50  75 106 140 171 209 262 313
#     4   9  17  32  54  78 103 134 174 220 260 304
#     4  11  21  35  60  86 109 142 184 228 271 323
#     4  11  21  34  56  82 108 138 176 227 274 317
#     4   8  16  33  55  75 100 139 180 212 255 313
#     4  11  24  41  58  78 110 148 184 225 274 327
#     4   9  19  36  56  77 108 146 178 212 266 329
#     4   9  18  35  56  74 102 142 179 211 257 324
#
# _framework density 17.354489000000001
#
# number of rings (size 3 to 8) (size 9 to 14) (size 15 to 20)
#    0.000    2.375    1.250    3.375    0.000    4.000 
#    2.250    2.500    0.000    0.000    0.000    0.000 
#    0.000    0.000    0.000    0.000    0.000    0.000 
#
# Total GULP energy -178509.839411 kJ/mol
# GULP energy per Si atom -5578.432482 kJ/mol
# Density = 1.731499 g / cm^3
# Si number density = 17.354489 Si / 1000 Ang^3
#
#
#
# Elastic Constant Matrix: (Units=GPa)
#
#
# Indices 1 2 3 4 5 6 
#
# 1 128.6421 44.8697 113.4712 0.0000 0.7189 0.0000
# 2 44.8697 31.5897 47.9366 0.0000 7.9517 0.0000
# 3 113.4712 47.9366 163.9957 0.0000 5.0008 0.0000
# 4 0.0000 0.0000 0.0000 28.3171 0.0000 5.3092
# 5 0.7189 7.9517 5.0008 0.0000 30.7889 0.0000
# 6 0.0000 0.0000 0.0000 5.3092 0.0000 23.6513
#
#
#
# Elastic Compliance Matrix: (Units=1/GPa)
#
#
# Indices 1 2 3 4 5 6 
#
# 1 0.024646 -0.018683 -0.011780 0.000000 0.006163 0.000000
# 2 -0.018683 0.075880 -0.008712 0.000000 -0.017746 0.000000
# 3 -0.011780 -0.008712 0.016801 0.000000 -0.000204 0.000000
# 4 0.000000 0.000000 0.000000 0.036866 0.000000 -0.008276
# 5 0.006163 -0.017746 -0.000204 0.000000 0.036952 0.000000
# 6 0.000000 0.000000 0.000000 -0.008276 0.000000 0.044139
#
#
# Mechanical properties :
#
#
# Convention : Reuss Voigt Hill
#
# Bulk Modulus (GPa) = 25.65564 81.86471 53.76018
# Shear Modulus (GPa) = 15.30806 24.41480 19.86143
#
# Velocity S-wave (km/s) = 2.97321 3.75484 3.38665
# Velocity P-wave (km/s) = 5.15771 8.12852 6.80716
#
# Compressibility (1/GPa) = 0.03897778
#
# Stress axis : x y z
#
# Youngs Moduli (GPa) = 40.57393 13.17878 59.51920
#
# Poissons Ratio (x) = 0.24622 0.70114
# Poissons Ratio (y) = 0.75803 0.51852
# Poissons Ratio (z) = 0.47797 0.11481
#
# Static dielectric constant tensor:
#      x y z
#    x 1.566920 0.000000 -0.013590 
#    y 0.000000 1.588310 0.000000 
#    z -0.013590 0.000000 1.591770 
# 
# From -- ./inp_files/276580.got.cif
#   From: 2010.05.17/outbox.cif.g08.bks.cpg/sg12_139_cif.got.tgz:276580.got - 2010.06.03 13:09:07.
