data_PCOD9219873
_publ_section_title
;
Structure prediction by ZEFSAII (Michael W. Deem and Ramdas Pophale) SiO2 
 PCOD9219873
Probable space group: C 2/M
;
_chemical_formula_sum "Si O2"
_cell_formula_units_Z 64
_cell_length_a 24.139015
_cell_length_b 8.666743
_cell_length_c 24.825313
_cell_angle_alpha 90.000000
_cell_angle_beta 43.013503
_cell_angle_gamma 90.000000
_cell_volume 3542.935600
_symmetry_space_group_name_H-M "C 2/M"
_symmetry_group_IT_number 12
_symmetry_cell_setting 'monoclinic'
loop_
_space_group_symop_operation_xyz
x,y,z
-x,y,-z
-x,-y,-z
x,-y,z
1/2+x,1/2+y,z
1/2-x,1/2+y,-z
1/2-x,1/2-y,-z
1/2+x,1/2-y,z
loop_
_atom_site_type_symbol
_atom_site_label
_atom_site_fract_x
_atom_site_fract_y
_atom_site_fract_z
Si Si1 0.961604 0.315568 0.848818
Si Si2 0.336779 0.316620 0.023315
Si Si3 0.955415 0.177897 0.473442
Si Si4 0.622985 0.684808 0.780391
Si Si5 0.595364 0.181188 0.918675
Si Si6 0.609513 0.185428 0.313927
Si Si7 0.155738 0.311922 0.162399
Si Si8 0.194228 0.685782 0.364640
O O1 0.970931 0.500000 0.841729
O O2 0.915444 0.264770 0.827419
O O3 0.048562 0.239420 0.796699
O O4 0.902177 0.269250 0.940079
O O5 0.343965 0.500000 0.009305
O O6 0.355583 0.277871 0.072051
O O7 0.244410 0.265156 0.078118
O O8 0.867313 0.248662 0.547273
O O9 0.000000 0.186809 0.500000
O O10 0.016694 0.265219 0.390336
O O11 0.949135 0.000000 0.462242
O O12 0.620689 0.500000 0.787871
O O13 0.611424 0.759537 0.847357
O O14 0.711996 0.729162 0.695523
O O15 0.615411 0.000000 0.909008
O O16 0.500000 0.199164 0.000000
O O17 0.641343 0.241998 0.233714
O O18 0.662736 0.238028 0.327607
O O19 0.613614 0.000000 0.310627
O O20 0.156487 0.500000 0.162828
O O21 0.188062 0.500000 0.370019
#
# Coordination Sequence:
#
# PCOD9219873 Si02
#       8
#     8   8   8   8   8   8   8   8
#     4  11  22  37  53  73 104 140 177 218 267 313
#     4  11  21  36  57  78 101 134 179 223 262 308
#     4   9  17  29  48  78 112 138 160 197 254 311
#     4  11  22  36  55  78 104 138 180 220 257 306
#     4  11  22  35  52  76 106 137 169 210 264 317
#     4   9  16  32  55  77 102 134 170 207 253 307
#     4   9  20  36  55  77 102 136 178 221 261 308
#     4   9  18  32  53  80 106 134 170 208 250 306
#
# _framework density 18.064117
#
# number of rings (size 3 to 8) (size 9 to 14) (size 15 to 20)
#    0.000    2.000    1.250    3.000    0.000    5.000 
#    0.000    6.875    0.000    0.750    0.000    0.000 
#    0.000    0.000    0.000    0.000    0.000    0.000 
#
# Total GULP energy -178624.511787 kJ/mol
# GULP energy per Si atom -5582.015993 kJ/mol
# Density = 1.802300 g / cm^3
# Si number density = 18.064117 Si / 1000 Ang^3
#
#
#
# Elastic Constant Matrix: (Units=GPa)
#
#
# Indices 1 2 3 4 5 6 
#
# 1 74.2766 1.3348 36.5481 0.0004 -20.4383 -0.0008
# 2 1.3348 20.9501 14.8418 0.0012 -9.0783 -0.0019
# 3 36.5481 14.8418 79.0379 0.0005 -34.9262 -0.0004
# 4 0.0004 0.0012 0.0005 5.1665 0.0000 -1.2104
# 5 -20.4383 -9.0783 -34.9262 0.0000 27.1284 0.0003
# 6 -0.0008 -0.0019 -0.0004 -1.2104 0.0003 18.6499
#
#
#
# Elastic Compliance Matrix: (Units=1/GPa)
#
#
# Indices 1 2 3 4 5 6 
#
# 1 0.018712 0.006852 -0.006255 -0.000002 0.008337 0.000001
# 2 0.006852 0.059262 -0.007544 -0.000012 0.015281 0.000005
# 3 -0.006255 -0.007544 0.031926 -0.000001 0.033866 -0.000001
# 4 -0.000002 -0.000012 -0.000001 0.196545 -0.000007 0.012757
# 5 0.008337 0.015281 0.033866 -0.000007 0.091857 0.000001
# 6 0.000001 0.000005 -0.000001 0.012757 0.000001 0.054448
#
#
# Mechanical properties :
#
#
# Convention : Reuss Voigt Hill
#
# Bulk Modulus (GPa) = 10.41601 31.07935 20.74768
# Shear Modulus (GPa) = 10.02713 18.29162 14.15937
#
# Velocity S-wave (km/s) = 2.35858 3.18558 2.80275
# Velocity P-wave (km/s) = 3.63261 5.54734 4.68875
#
# Compressibility (1/GPa) = 0.09600601
#
# Stress axis : x y z
#
# Youngs Moduli (GPa) = 53.44151 16.87419 31.32198
#
# Poissons Ratio (x) = -0.11562 0.19592
# Poissons Ratio (y) = -0.36618 0.23629
# Poissons Ratio (z) = 0.33429 0.12730
#
# Static dielectric constant tensor:
#      x y z
#    x 1.621650 0.000000 -0.010420 
#    y 0.000000 1.608260 0.000000 
#    z -0.010420 0.000000 1.606650 
# 
# From -- ./inp_files/345982.got.cif
#   From: 2010.05.17/outbox.cif.g08.bks.cpg/sg12_173_cif.got.tgz:345982.got - 2010.06.03 13:09:07.
