data_PCOD9219179
_publ_section_title
;
Structure prediction by ZEFSAII (Michael W. Deem and Ramdas Pophale) SiO2 
 PCOD9219179
Probable space group: C 2/M
;
_chemical_formula_sum "Si O2"
_cell_formula_units_Z 56
_cell_length_a 8.787107
_cell_length_b 27.917107
_cell_length_c 12.404284
_cell_angle_alpha 90.000000
_cell_angle_beta 68.872689
_cell_angle_gamma 90.000000
_cell_volume 2838.364097
_symmetry_space_group_name_H-M "C 2/M"
_symmetry_group_IT_number 12
_symmetry_cell_setting 'monoclinic'
loop_
_space_group_symop_operation_xyz
x,y,z
-x,y,-z
-x,-y,-z
x,-y,z
1/2+x,1/2+y,z
1/2-x,1/2+y,-z
1/2-x,1/2-y,-z
1/2+x,1/2-y,z
loop_
_atom_site_type_symbol
_atom_site_label
_atom_site_fract_x
_atom_site_fract_y
_atom_site_fract_z
Si Si1 0.280522 0.395805 0.755394
Si Si2 0.925284 0.765227 0.914385
Si Si3 0.645852 0.788448 0.384363
Si Si4 0.179592 0.896673 0.995556
Si Si5 0.693875 0.000000 0.057822
Si Si6 0.019637 0.808904 0.328231
Si Si7 0.958087 0.333578 0.815810
Si Si8 0.676530 0.000000 0.799618
O O1 0.421186 0.362885 0.666446
O O2 0.257745 0.451678 0.733838
O O3 0.112320 0.368384 0.770389
O O4 0.306740 0.396237 0.878313
O O5 0.933347 0.797439 0.807788
O O6 0.013298 0.715310 0.861153
O O7 0.750000 0.750000 0.000000
O O8 0.000000 0.788307 0.000000
O O9 0.500000 0.803732 0.500000
O O10 0.617537 0.731616 0.369844
O O11 0.616517 0.815258 0.278194
O O12 0.825734 0.799275 0.383702
O O13 0.220325 0.949858 0.940151
O O14 0.316867 0.860595 0.916894
O O15 0.000000 0.886359 0.000000
O O16 0.519351 0.000000 0.161887
O O17 0.685026 0.000000 0.928830
#
# Coordination Sequence:
#
# PCOD9219179 Si02
#       8
#     8   8   8   8   4   8   8   4
#     4  11  21  36  57  86 119 158 196 236 283 354
#     4  11  20  31  47  75 115 151 179 220 272 340
#     4  11  24  42  61  86 115 149 198 253 298 349
#     4  11  20  31  51  84 123 161 194 236 281 342
#     4   9  17  32  50  78 117 160 203 232 276 332
#     4  11  22  37  58  85 115 153 195 237 292 356
#     4  11  21  34  54  80 113 156 201 236 288 349
#     4   9  18  34  56  80 117 161 199 236 279 339
#
# _framework density 19.729672999999998
#
# number of rings (size 3 to 8) (size 9 to 14) (size 15 to 20)
#    0.000    1.286    1.429    7.929    0.000    1.143 
#    0.000    0.000    0.000    0.000    0.000    8.000 
#    0.000    0.000    0.000    0.000    0.000    0.000 
#
# Total GULP energy -156444.657359 kJ/mol
# GULP energy per Si atom -5587.309191 kJ/mol
# Density = 1.968477 g / cm^3
# Si number density = 19.729673 Si / 1000 Ang^3
#
#
#
# Elastic Constant Matrix: (Units=GPa)
#
#
# Indices 1 2 3 4 5 6 
#
# 1 111.3969 52.7801 13.0347 0.0000 -25.5663 0.0000
# 2 52.7801 180.6526 9.2611 0.0000 -14.9818 0.0000
# 3 13.0347 9.2611 34.4768 0.0000 -12.2759 0.0000
# 4 0.0000 0.0000 0.0000 -0.1403 0.0000 -7.0140
# 5 -25.5663 -14.9818 -12.2759 0.0000 31.2092 0.0000
# 6 0.0000 0.0000 0.0000 -7.0140 0.0000 24.7300
#
#
#
# Elastic Compliance Matrix: (Units=1/GPa)
#
#
# Indices 1 2 3 4 5 6 
#
# 1 0.012371 -0.002871 -0.000917 0.000000 0.008396 0.000000
# 2 -0.002871 0.006444 -0.000444 0.000000 0.000567 0.000000
# 3 -0.000917 -0.000444 0.033871 0.000000 0.012359 0.000000
# 4 0.000000 0.000000 0.000000 -0.469578 0.000000 -0.133182
# 5 0.008396 0.000567 0.012359 0.000000 0.044053 0.000000
# 6 0.000000 0.000000 0.000000 -0.133182 0.000000 0.002663
#
#
# Mechanical properties :
#
#
# Convention : Reuss Voigt Hill
#
# Bulk Modulus (GPa) = 22.61220 52.96423 37.78821
# Shear Modulus (GPa) = -14.41044 27.92315 6.75635
#
# Velocity S-wave (km/s) = -2.70551 3.76611 1.85254
# Velocity P-wave (km/s) = 1.31383 6.76866 4.87549
#
# Compressibility (1/GPa) = 0.04422392
#
# Stress axis : x y z
#
# Youngs Moduli (GPa) = 80.83136 155.18046 29.52345
#
# Poissons Ratio (x) = 0.44556 0.02706
# Poissons Ratio (y) = 0.23209 0.01310
# Poissons Ratio (z) = 0.07409 0.06884
#
# Static dielectric constant tensor:
#      x y z
#    x 1.692530 0.000000 -0.008860 
#    y 0.000000 1.721250 0.000000 
#    z -0.008860 0.000000 1.707170 
# 
# From -- ./inp_files/125662.got.cif
#   From: 2010.05.17/outbox.cif.g08.bks.cpg/sg12_63_cif.got.tgz:125662.got - 2010.06.03 13:09:07.
