data_PCOD9219287
_publ_section_title
;
Structure prediction by ZEFSAII (Michael W. Deem and Ramdas Pophale) SiO2 
 PCOD9219287
Probable space group: C 2/M
;
_chemical_formula_sum "Si O2"
_cell_formula_units_Z 48
_cell_length_a 27.856856
_cell_length_b 10.216836
_cell_length_c 10.135774
_cell_angle_alpha 90.000000
_cell_angle_beta 74.122998
_cell_angle_gamma 90.000000
_cell_volume 2774.682720
_symmetry_space_group_name_H-M "C 2/M"
_symmetry_group_IT_number 12
_symmetry_cell_setting 'monoclinic'
loop_
_space_group_symop_operation_xyz
x,y,z
-x,y,-z
-x,-y,-z
x,-y,z
1/2+x,1/2+y,z
1/2-x,1/2+y,-z
1/2-x,1/2-y,-z
1/2+x,1/2-y,z
loop_
_atom_site_type_symbol
_atom_site_label
_atom_site_fract_x
_atom_site_fract_y
_atom_site_fract_z
Si Si1 0.286027 0.153388 0.147393
Si Si2 0.981993 0.500000 0.663803
Si Si3 0.198652 0.651381 0.182755
Si Si4 0.393696 0.255553 0.100582
Si Si5 0.589150 0.755098 0.225681
Si Si6 0.470959 0.500000 0.657988
Si Si7 0.453378 0.000000 0.134715
Si Si8 0.043272 0.000000 0.855447
O O1 0.238054 0.244258 0.209981
O O2 0.335044 0.227847 0.164307
O O3 0.282731 0.000000 0.192159
O O4 0.292767 0.148874 0.982734
O O5 0.948619 0.374106 0.722636
O O6 0.000000 0.500000 0.500000
O O7 0.027727 0.500000 0.730556
O O8 0.204374 0.500000 0.223561
O O9 0.142501 0.703025 0.244476
O O10 0.421462 0.126392 0.126929
O O11 0.420654 0.375872 0.151435
O O12 0.402859 0.269119 0.936507
O O13 0.564172 0.626307 0.302769
O O14 0.500000 0.500000 0.500000
O O15 0.512182 0.500000 0.743678
O O16 0.500000 0.000000 0.000000
O O17 0.000000 0.000000 0.000000
#
# Coordination Sequence:
#
# PCOD9219287 Si02
#       8
#     8   4   8   8   8   4   4   4
#     4   9  18  31  49  83 116 143 177 228 282 334
#     4  12  24  36  55  83 113 147 190 234 274 331
#     4   9  18  31  52  79 114 147 180 223 284 335
#     4  11  20  34  57  85 113 147 188 231 278 336
#     4  11  20  37  56  81 114 150 189 231 279 334
#     4  12  26  40  55  81 117 153 190 232 278 333
#     4  12  20  34  59  79 109 151 186 228 284 328
#     4  12  22  38  55  83 111 151 194 226 278 338
#
# _framework density 17.299275000000002
#
# number of rings (size 3 to 8) (size 9 to 14) (size 15 to 20)
#    0.000    1.333    5.000    2.000    2.333    0.000 
#    0.000    0.000    0.000    0.000    0.000    7.000 
#    0.000    0.000    0.000    0.000    0.000    0.000 
#
# Total GULP energy -133933.584490 kJ/mol
# GULP energy per Si atom -5580.566020 kJ/mol
# Density = 1.725990 g / cm^3
# Si number density = 17.299275 Si / 1000 Ang^3
#
#
#
# Elastic Constant Matrix: (Units=GPa)
#
#
# Indices 1 2 3 4 5 6 
#
# 1 123.3493 62.6378 21.8326 0.0000 -10.9011 0.0000
# 2 62.6378 162.1732 11.7253 0.0000 -16.2012 0.0000
# 3 21.8326 11.7253 54.1673 0.0000 3.4750 0.0000
# 4 0.0000 0.0000 0.0000 3.3995 0.0000 5.2989
# 5 -10.9011 -16.2012 3.4750 0.0000 14.2661 0.0000
# 6 0.0000 0.0000 0.0000 5.2989 0.0000 37.3374
#
#
#
# Elastic Compliance Matrix: (Units=1/GPa)
#
#
# Indices 1 2 3 4 5 6 
#
# 1 0.011056 -0.003421 -0.004072 0.000000 0.005555 0.000000
# 2 -0.003421 0.008244 -0.000852 0.000000 0.006956 0.000000
# 3 -0.004072 -0.000852 0.020875 0.000000 -0.009164 0.000000
# 4 0.000000 0.000000 0.000000 0.377712 0.000000 -0.053604
# 5 0.005555 0.006956 -0.009164 0.000000 0.084473 0.000000
# 6 0.000000 0.000000 0.000000 -0.053604 0.000000 0.034390
#
#
# Mechanical properties :
#
#
# Convention : Reuss Voigt Hill
#
# Bulk Modulus (GPa) = 42.58027 59.12013 50.85020
# Shear Modulus (GPa) = 8.90840 27.23354 18.07097
#
# Velocity S-wave (km/s) = 2.27173 3.97200 3.23555
# Velocity P-wave (km/s) = 5.61679 7.43537 6.58913
#
# Compressibility (1/GPa) = 0.02348506
#
# Stress axis : x y z
#
# Youngs Moduli (GPa) = 90.44959 121.30024 47.90435
#
# Poissons Ratio (x) = 0.41495 0.19507
# Poissons Ratio (y) = 0.30941 0.04081
# Poissons Ratio (z) = 0.36832 0.10334
#
# Static dielectric constant tensor:
#      x y z
#    x 1.589120 0.000000 0.007360 
#    y 0.000000 1.541210 0.000000 
#    z 0.007360 0.000000 1.549160 
# 
# From -- ./inp_files/94963.got.cif
#   From: 2010.05.17/outbox.cif.g08.bks.cpg/sg12_48_cif.got.tgz:94963.got - 2010.06.03 13:09:07.
