data_PCOD9219946
_publ_section_title
;
Structure prediction by ZEFSAII (Michael W. Deem and Ramdas Pophale) SiO2 
 PCOD9219946
Probable space group: C 2/M
;
_chemical_formula_sum "Si O2"
_cell_formula_units_Z 56
_cell_length_a 14.367178
_cell_length_b 18.647019
_cell_length_c 11.520688
_cell_angle_alpha 90.000000
_cell_angle_beta 115.821425
_cell_angle_gamma 90.000000
_cell_volume 2778.286715
_symmetry_space_group_name_H-M "C 2/M"
_symmetry_group_IT_number 12
_symmetry_cell_setting 'monoclinic'
loop_
_space_group_symop_operation_xyz
x,y,z
-x,y,-z
-x,-y,-z
x,-y,z
1/2+x,1/2+y,z
1/2-x,1/2+y,-z
1/2-x,1/2-y,-z
1/2+x,1/2-y,z
loop_
_atom_site_type_symbol
_atom_site_label
_atom_site_fract_x
_atom_site_fract_y
_atom_site_fract_z
Si Si1 0.721402 0.332912 0.774608
Si Si2 0.161327 0.181918 0.147144
Si Si3 0.550590 0.300571 0.841653
Si Si4 0.471532 0.145718 0.270991
Si Si5 0.190183 0.415527 0.659986
Si Si6 0.897842 0.582817 0.005302
Si Si7 0.715979 0.168554 0.445329
O O1 0.764396 0.250761 0.796982
O O2 0.608186 0.340949 0.768564
O O3 0.727814 0.353722 0.643260
O O4 0.800641 0.374735 0.902007
O O5 0.226054 0.109882 0.199785
O O6 0.068097 0.185473 0.189717
O O7 0.113187 0.186299 0.993674
O O8 0.563109 0.218655 0.809719
O O9 0.413687 0.126279 0.358150
O O10 0.428946 0.087116 0.156933
O O11 0.593647 0.156988 0.352397
O O12 0.173841 0.500000 0.645195
O O13 0.233042 0.383137 0.563581
O O14 0.886132 0.500000 0.964609
O O15 0.000000 0.614992 0.000000
O O16 0.750000 0.250000 0.500000
#
# Coordination Sequence:
#
# PCOD9219946 Si02
#       7
#     8   8   8   8   8   8   8
#     4  12  21  39  65  92 128 164 215 264 326 386
#     4  11  21  41  66  97 132 168 213 273 323 389
#     4  11  21  36  70 100 124 165 215 269 329 386
#     4  12  21  39  64  94 128 167 212 267 325 385
#     4  12  27  44  63  94 134 179 223 271 329 392
#     4  11  22  36  58  93 129 161 199 261 334 394
#     4  12  24  41  63  89 128 172 222 267 312 383
#
# _framework density 20.156307999999999
#
# number of rings (size 3 to 8) (size 9 to 14) (size 15 to 20)
#    0.000    0.429    7.143    2.143    0.000    2.286 
#    0.000    2.857    0.000    0.857    0.000    0.000 
#    0.000    0.000    0.000    0.000    0.000    0.000 
#
# Total GULP energy -156313.998470 kJ/mol
# GULP energy per Si atom -5582.642803 kJ/mol
# Density = 2.011043 g / cm^3
# Si number density = 20.156308 Si / 1000 Ang^3
#
#
#
# Elastic Constant Matrix: (Units=GPa)
#
#
# Indices 1 2 3 4 5 6 
#
# 1 147.8982 36.8421 27.7582 0.0000 -18.5429 0.0000
# 2 36.8421 74.9237 27.9571 0.0000 2.0457 0.0000
# 3 27.7582 27.9571 85.3975 0.0000 -7.3319 0.0000
# 4 0.0000 0.0000 0.0000 20.0199 0.0000 -8.0058
# 5 -18.5429 2.0457 -7.3319 0.0000 24.2730 0.0000
# 6 0.0000 0.0000 0.0000 -8.0058 0.0000 15.2802
#
#
#
# Elastic Compliance Matrix: (Units=1/GPa)
#
#
# Indices 1 2 3 4 5 6 
#
# 1 0.008832 -0.004188 -0.000914 0.000000 0.006824 0.000000
# 2 -0.004188 0.017386 -0.004857 0.000000 -0.006132 0.000000
# 3 -0.000914 -0.004857 0.013934 0.000000 0.003920 0.000000
# 4 0.000000 0.000000 0.000000 0.063190 0.000000 0.033107
# 5 0.006824 -0.006132 0.003920 0.000000 0.048112 0.000000
# 6 0.000000 0.000000 0.000000 0.033107 0.000000 0.082790
#
#
# Mechanical properties :
#
#
# Convention : Reuss Voigt Hill
#
# Bulk Modulus (GPa) = 49.42242 54.81491 52.11867
# Shear Modulus (GPa) = 19.16402 26.29207 22.72805
#
# Velocity S-wave (km/s) = 3.08680 3.61558 3.36160
# Velocity P-wave (km/s) = 6.10551 6.68460 6.40161
#
# Compressibility (1/GPa) = 0.02023373
#
# Stress axis : x y z
#
# Youngs Moduli (GPa) = 113.22802 57.51731 71.76919
#
# Poissons Ratio (x) = 0.24089 0.06558
# Poissons Ratio (y) = 0.47422 0.34858
# Poissons Ratio (z) = 0.10346 0.27936
#
# Static dielectric constant tensor:
#      x y z
#    x 1.768140 0.000000 -0.035010 
#    y 0.000000 1.701880 0.000000 
#    z -0.035010 0.000000 1.766600 
# 
# From -- ./inp_files/146236.got.cif
#   From: 2010.05.17/outbox.cif.g08.bks.cpg/sg12_74_cif.got.tgz:146236.got - 2010.06.03 13:09:07.
