data_PCOD9219259
_publ_section_title
;
Structure prediction by ZEFSAII (Michael W. Deem and Ramdas Pophale) SiO2 
 PCOD9219259
Probable space group: C 2/M
;
_chemical_formula_sum "Si O2"
_cell_formula_units_Z 64
_cell_length_a 29.521829
_cell_length_b 21.650760
_cell_length_c 12.521237
_cell_angle_alpha 90.000000
_cell_angle_beta 153.458765
_cell_angle_gamma 90.000000
_cell_volume 3576.163821
_symmetry_space_group_name_H-M "C 2/M"
_symmetry_group_IT_number 12
_symmetry_cell_setting 'monoclinic'
loop_
_space_group_symop_operation_xyz
x,y,z
-x,y,-z
-x,-y,-z
x,-y,z
1/2+x,1/2+y,z
1/2-x,1/2+y,-z
1/2-x,1/2-y,-z
1/2+x,1/2-y,z
loop_
_atom_site_type_symbol
_atom_site_label
_atom_site_fract_x
_atom_site_fract_y
_atom_site_fract_z
Si Si1 0.434686 0.783692 0.755969
Si Si2 0.885209 0.072401 0.489319
Si Si3 0.181567 0.847672 0.849698
Si Si4 0.114605 0.285994 0.748274
Si Si5 0.227292 0.853378 0.315710
Si Si6 0.619251 0.571178 0.918625
Si Si7 0.689561 0.343693 0.482837
Si Si8 0.873024 0.727107 0.974119
O O1 0.343563 0.831946 0.551086
O O2 0.382676 0.716550 0.660577
O O3 0.500000 0.796189 0.000000
O O4 0.512129 0.783435 0.820849
O O5 0.830913 0.111215 0.281587
O O6 0.854513 0.102763 0.536294
O O7 0.005276 0.078818 0.721736
O O8 0.859671 0.000000 0.430384
O O9 0.125051 0.781820 0.717611
O O10 0.136243 0.884563 0.853635
O O11 0.298773 0.829679 0.116751
O O12 0.000000 0.308758 0.500000
O O13 0.140196 0.277590 0.927339
O O14 0.201689 0.862638 0.385744
O O15 0.161078 0.794792 0.136279
O O16 0.195970 0.909235 0.173848
O O17 0.632495 0.500000 0.914208
O O18 0.797687 0.320528 0.756592
#
# Coordination Sequence:
#
# PCOD9219259 Si02
#       8
#     8   8   8   8   8   8   8   8
#     4  11  20  33  60  88 116 157 185 229 297 355
#     4  11  24  41  62  83 112 160 202 240 287 339
#     4  11  23  41  60  87 122 152 192 242 290 353
#     4  11  24  35  61  97 121 150 183 239 305 349
#     4  11  22  37  57  90 122 151 194 239 289 347
#     4  11  24  40  61  85 114 156 199 243 288 336
#     4  11  22  36  58  88 122 152 192 241 284 346
#     4  11  20  37  55  88 123 153 188 229 300 356
#
# _framework density 17.896270999999999
#
# number of rings (size 3 to 8) (size 9 to 14) (size 15 to 20)
#    0.000    1.000    5.000    3.000    3.500    1.500 
#    0.000    1.250    0.000    4.125    0.000    0.000 
#    0.000    0.000    0.000    0.000    0.000    0.000 
#
# Total GULP energy -178903.244896 kJ/mol
# GULP energy per Si atom -5590.726403 kJ/mol
# Density = 1.785554 g / cm^3
# Si number density = 17.896271 Si / 1000 Ang^3
#
#
#
# Elastic Constant Matrix: (Units=GPa)
#
#
# Indices 1 2 3 4 5 6 
#
# 1 62.9249 9.2814 6.3159 0.0000 8.7994 0.0000
# 2 9.2814 60.8665 29.0987 0.0000 9.7411 0.0000
# 3 6.3159 29.0987 67.4410 0.0000 14.0302 0.0000
# 4 0.0000 0.0000 0.0000 16.2694 0.0000 5.5868
# 5 8.7994 9.7411 14.0302 0.0000 38.3681 0.0000
# 6 0.0000 0.0000 0.0000 5.5868 0.0000 22.2959
#
#
#
# Elastic Compliance Matrix: (Units=1/GPa)
#
#
# Indices 1 2 3 4 5 6 
#
# 1 0.016651 -0.002007 -0.000005 0.000000 -0.003307 0.000000
# 2 -0.002007 0.021107 -0.008550 0.000000 -0.001772 0.000000
# 3 -0.000005 -0.008550 0.019553 0.000000 -0.004978 0.000000
# 4 0.000000 0.000000 0.000000 0.067252 0.000000 -0.016852
# 5 -0.003307 -0.001772 -0.004978 0.000000 0.029092 0.000000
# 6 0.000000 0.000000 0.000000 -0.016852 0.000000 0.049074
#
#
# Mechanical properties :
#
#
# Convention : Reuss Voigt Hill
#
# Bulk Modulus (GPa) = 27.63570 31.18047 29.40809
# Shear Modulus (GPa) = 21.19399 25.15577 23.17488
#
# Velocity S-wave (km/s) = 3.44505 3.75326 3.60245
# Velocity P-wave (km/s) = 5.59466 6.02024 5.81135
#
# Compressibility (1/GPa) = 0.03618508
#
# Stress axis : x y z
#
# Youngs Moduli (GPa) = 60.05631 47.37828 51.14280
#
# Poissons Ratio (x) = 0.09510 0.00027
# Poissons Ratio (y) = 0.12055 0.43729
# Poissons Ratio (z) = 0.00032 0.40510
#
# Static dielectric constant tensor:
#      x y z
#    x 1.612900 0.000000 -0.000770 
#    y 0.000000 1.585420 0.000000 
#    z -0.000770 0.000000 1.618730 
# 
# From -- ./inp_files/184679.got.cif
#   From: 2010.05.17/outbox.cif.g08.bks.cpg/sg12_93_cif.got.tgz:184679.got - 2010.06.03 13:09:07.
