data_PCOD9219836
_publ_section_title
;
Structure prediction by ZEFSAII (Michael W. Deem and Ramdas Pophale) SiO2 
 PCOD9219836
Probable space group: C 2/M
;
_chemical_formula_sum "Si O2"
_cell_formula_units_Z 64
_cell_length_a 18.937817
_cell_length_b 8.836663
_cell_length_c 29.108226
_cell_angle_alpha 90.000000
_cell_angle_beta 136.670443
_cell_angle_gamma 90.000000
_cell_volume 3342.571225
_symmetry_space_group_name_H-M "C 2/M"
_symmetry_group_IT_number 12
_symmetry_cell_setting 'monoclinic'
loop_
_space_group_symop_operation_xyz
x,y,z
-x,y,-z
-x,-y,-z
x,-y,z
1/2+x,1/2+y,z
1/2-x,1/2+y,-z
1/2-x,1/2-y,-z
1/2+x,1/2-y,z
loop_
_atom_site_type_symbol
_atom_site_label
_atom_site_fract_x
_atom_site_fract_y
_atom_site_fract_z
Si Si1 0.680021 0.319506 0.368050
Si Si2 0.892624 0.818744 0.473850
Si Si3 0.676286 0.677618 0.844047
Si Si4 0.636273 0.824449 0.728526
Si Si5 0.407837 0.821865 0.581636
Si Si6 0.974396 0.322545 0.778527
Si Si7 0.890175 0.180161 0.928652
Si Si8 0.357457 0.322986 0.804698
O O1 0.680844 0.500000 0.370027
O O2 0.790801 0.257134 0.404421
O O3 0.656031 0.252325 0.407168
O O4 0.591050 0.261764 0.291933
O O5 0.895007 0.761383 0.527385
O O6 0.000000 0.776653 0.500000
O O7 0.882378 0.000000 0.467289
O O8 0.670651 0.500000 0.849341
O O9 0.645400 0.717698 0.776838
O O10 0.590906 0.763267 0.833306
O O11 0.792159 0.737666 0.904217
O O12 0.527588 0.809598 0.652703
O O13 0.734799 0.796541 0.743123
O O14 0.646671 0.000000 0.749761
O O15 0.381569 0.000000 0.565009
O O16 0.972119 0.500000 0.767618
O O17 0.920336 0.281938 0.800658
O O18 0.884484 0.202274 0.870942
O O19 0.880211 0.000000 0.932183
O O20 0.000000 0.230709 0.000000
O O21 0.377698 0.500000 0.803296
#
# Coordination Sequence:
#
# PCOD9219836 Si02
#       8
#     8   8   8   8   8   8   8   8
#     4  12  25  42  64  88 116 155 201 249 304 361
#     4  11  26  45  62  86 120 156 199 250 302 360
#     4  11  21  35  59  90 122 156 198 245 290 344
#     4   9  19  36  59  86 117 154 195 242 293 353
#     4  11  22  39  64  90 118 155 199 245 300 361
#     4  12  24  39  59  87 123 159 199 247 302 355
#     4   9  19  39  66  92 123 163 201 240 291 351
#     4   9  19  36  58  89 123 155 196 242 293 348
#
# _framework density 19.146937000000001
#
# number of rings (size 3 to 8) (size 9 to 14) (size 15 to 20)
#    0.000    1.500    1.250    5.250    1.750    3.750 
#    0.000    0.625    0.000    0.000    0.000    0.000 
#    0.000    0.000    0.000    0.000    0.000    0.000 
#
# Total GULP energy -178886.776957 kJ/mol
# GULP energy per Si atom -5590.211780 kJ/mol
# Density = 1.910336 g / cm^3
# Si number density = 19.146937 Si / 1000 Ang^3
#
#
#
# Elastic Constant Matrix: (Units=GPa)
#
#
# Indices 1 2 3 4 5 6 
#
# 1 103.5300 53.2983 36.8825 0.0000 29.5101 0.0000
# 2 53.2983 102.0863 32.7961 0.0000 18.7279 0.0000
# 3 36.8825 32.7961 75.8563 0.0000 32.5045 0.0000
# 4 0.0000 0.0000 0.0000 25.4690 0.0000 1.5002
# 5 29.5101 18.7279 32.5045 0.0000 27.2212 0.0000
# 6 0.0000 0.0000 0.0000 1.5002 0.0000 31.0655
#
#
#
# Elastic Compliance Matrix: (Units=1/GPa)
#
#
# Indices 1 2 3 4 5 6 
#
# 1 0.016893 -0.006371 0.001044 0.000000 -0.015177 0.000000
# 2 -0.006371 0.013995 -0.003659 0.000000 0.001647 0.000000
# 3 0.001044 -0.003659 0.027980 0.000000 -0.032025 0.000000
# 4 0.000000 0.000000 0.000000 0.039375 0.000000 -0.001902
# 5 -0.015177 0.001647 -0.032025 0.000000 0.090297 0.000000
# 6 0.000000 0.000000 0.000000 -0.001902 0.000000 0.032282
#
#
# Mechanical properties :
#
#
# Convention : Reuss Voigt Hill
#
# Bulk Modulus (GPa) = 24.45181 58.60295 41.52738
# Shear Modulus (GPa) = 19.80786 27.31751 23.56269
#
# Velocity S-wave (km/s) = 3.21988 3.78131 3.51183
# Velocity P-wave (km/s) = 5.15964 7.05250 6.17898
#
# Compressibility (1/GPa) = 0.04089677
#
# Stress axis : x y z
#
# Youngs Moduli (GPa) = 59.19662 71.45380 35.74014
#
# Poissons Ratio (x) = 0.45522 -0.03732
# Poissons Ratio (y) = 0.37713 0.13077
# Poissons Ratio (z) = -0.06181 0.26144
#
# Static dielectric constant tensor:
#      x y z
#    x 1.662240 0.000000 0.018790 
#    y 0.000000 1.643620 0.000000 
#    z 0.018790 0.000000 1.667230 
# 
# From -- ./inp_files/378438.got.cif
#   From: 2010.05.17/outbox.cif.g08.bks.cpg/sg12_190_cif.got.tgz:378438.got - 2010.06.03 13:09:07.
