data_PCOD9219945
_publ_section_title
;
Structure prediction by ZEFSAII (Michael W. Deem and Ramdas Pophale) SiO2 
 PCOD9219945
Probable space group: C 2/M
;
_chemical_formula_sum "Si O2"
_cell_formula_units_Z 34
_cell_length_a 8.229232
_cell_length_b 21.950918
_cell_length_c 16.077820
_cell_angle_alpha 90.000000
_cell_angle_beta 145.643173
_cell_angle_gamma 90.000000
_cell_volume 1639.018754
_symmetry_space_group_name_H-M "C 2/M"
_symmetry_group_IT_number 12
_symmetry_cell_setting 'monoclinic'
loop_
_space_group_symop_operation_xyz
x,y,z
-x,y,-z
-x,-y,-z
x,-y,z
1/2+x,1/2+y,z
1/2-x,1/2+y,-z
1/2-x,1/2-y,-z
1/2+x,1/2-y,z
loop_
_atom_site_type_symbol
_atom_site_label
_atom_site_fract_x
_atom_site_fract_y
_atom_site_fract_z
Si Si1 0.107280 0.403271 0.908273
Si Si2 0.782024 0.570275 0.230304
Si Si3 0.500000 0.000000 0.000000
Si Si4 0.212838 0.683923 0.662763
Si Si5 0.316221 0.783639 0.845088
O O1 0.065691 0.420663 0.794394
O O2 0.011604 0.334287 0.882977
O O3 0.444518 0.414840 0.071013
O O4 0.950835 0.446899 0.907622
O O5 0.801598 0.500000 0.264638
O O6 0.880105 0.618785 0.339761
O O7 0.222218 0.731330 0.742553
O O8 0.534003 0.683379 0.761559
O O9 0.000000 0.703864 0.500000
O O10 0.500000 0.758306 0.000000
#
# Coordination Sequence:
#
# PCOD9219945 Si02
#       5
#     8   8   2   8   8
#     4  11  21  36  67 101 131 164 220 280 329 383
#     4  11  22  41  65  98 138 177 218 272 337 394
#     4  12  16  34  56 100 138 154 204 272 340 370
#     4  12  27  45  67  97 141 180 220 277 341 398
#     4  12  24  43  69 101 128 176 230 281 328 393
#
# _framework density 20.744119999999999
#
# number of rings (size 3 to 8) (size 9 to 14) (size 15 to 20)
#    0.000    0.471    5.882    3.529    3.294    0.471 
#    0.000    0.000    0.000    1.412    0.000    0.000 
#    0.000    0.000    0.000    0.000    0.000    0.000 
#
# Total GULP energy -94850.348094 kJ/mol
# GULP energy per Si atom -5579.432241 kJ/mol
# Density = 2.069691 g / cm^3
# Si number density = 20.744120 Si / 1000 Ang^3
#
#
#
# Elastic Constant Matrix: (Units=GPa)
#
#
# Indices 1 2 3 4 5 6 
#
# 1 94.9149 71.7469 29.5673 -0.0006 -15.6003 0.0006
# 2 71.7469 149.2518 33.4602 0.0025 -28.7864 -0.0008
# 3 29.5673 33.4602 84.9134 -0.0027 -30.1697 -0.0067
# 4 -0.0006 0.0025 -0.0027 -29.1792 0.0001 -3.2531
# 5 -15.6003 -28.7864 -30.1697 0.0001 25.9008 0.0008
# 6 0.0006 -0.0008 -0.0067 -3.2531 0.0008 43.2423
#
#
#
# Elastic Compliance Matrix: (Units=1/GPa)
#
#
# Indices 1 2 3 4 5 6 
#
# 1 0.017347 -0.008051 -0.003983 -0.000001 -0.003140 -0.000001
# 2 -0.008051 0.012265 0.001861 0.000001 0.010950 0.000001
# 3 -0.003983 0.001861 0.021007 -0.000002 0.024138 0.000003
# 4 -0.000001 0.000001 -0.000002 -0.033986 -0.000001 -0.002557
# 5 -0.003140 0.010950 0.024138 -0.000001 0.077004 0.000002
# 6 -0.000001 0.000001 0.000003 -0.002557 0.000002 0.022933
#
#
# Mechanical properties :
#
#
# Convention : Reuss Voigt Hill
#
# Bulk Modulus (GPa) = 33.03474 66.51433 49.77454
# Shear Modulus (GPa) = 34.01199 20.94647 27.47923
#
# Velocity S-wave (km/s) = 4.05359 3.18111 3.64356
# Velocity P-wave (km/s) = 6.15371 6.75473 6.46122
#
# Compressibility (1/GPa) = 0.03027116
#
# Stress axis : x y z
#
# Youngs Moduli (GPa) = 57.64847 81.53185 47.60404
#
# Poissons Ratio (x) = 0.65644 0.18961
# Poissons Ratio (y) = 0.46414 -0.08859
# Poissons Ratio (z) = 0.22962 -0.15172
#
# Static dielectric constant tensor:
#      x y z
#    x 1.788570 0.000000 0.024420 
#    y 0.000000 1.725360 0.000000 
#    z 0.024420 0.000000 1.723450 
# 
# From -- ./inp_files/258610.got.cif
#   From: 2010.05.17/outbox.cif.g08.bks.cpg/sg12_130_cif.got.tgz:258610.got - 2010.06.03 13:09:07.
