data_PCOD9219926
_publ_section_title
;
Structure prediction by ZEFSAII (Michael W. Deem and Ramdas Pophale) SiO2 
 PCOD9219926
Probable space group: C 2/M
;
_chemical_formula_sum "Si O2"
_cell_formula_units_Z 32
_cell_length_a 17.304972
_cell_length_b 19.736022
_cell_length_c 5.808346
_cell_angle_alpha 90.000000
_cell_angle_beta 126.657548
_cell_angle_gamma 90.000000
_cell_volume 1591.385962
_symmetry_space_group_name_H-M "C 2/M"
_symmetry_group_IT_number 12
_symmetry_cell_setting 'monoclinic'
loop_
_space_group_symop_operation_xyz
x,y,z
-x,y,-z
-x,-y,-z
x,-y,z
1/2+x,1/2+y,z
1/2-x,1/2+y,-z
1/2-x,1/2-y,-z
1/2+x,1/2-y,z
loop_
_atom_site_type_symbol
_atom_site_label
_atom_site_fract_x
_atom_site_fract_y
_atom_site_fract_z
Si Si1 0.236885 0.810460 0.165170
Si Si2 0.906350 0.175171 0.721070
Si Si3 0.952871 0.682039 0.660716
Si Si4 0.383394 0.421117 0.310249
O O1 0.166639 0.786009 0.242469
O O2 0.340061 0.835354 0.437863
O O3 0.250000 0.750000 0.000000
O O4 0.175481 0.874673 0.968986
O O5 0.950742 0.235594 0.648029
O O6 0.854615 0.115267 0.496961
O O7 0.000000 0.142919 0.000000
O O8 0.000000 0.658642 0.500000
O O9 0.000000 0.665214 0.000000
O O10 0.500000 0.413689 0.500000
O O11 0.361045 0.500000 0.255494
#
# Coordination Sequence:
#
# PCOD9219926 Si02
#       4
#     8   8   8   8
#     4  12  23  39  65  95 131 175 227 278 335 397
#     4  11  21  36  61  93 133 171 211 274 338 407
#     4  11  24  39  62  96 131 167 219 283 335 385
#     4  11  24  41  62  95 138 177 216 269 343 422
#
# _framework density 20.108260000000001
#
# number of rings (size 3 to 8) (size 9 to 14) (size 15 to 20)
#    0.000    0.750    5.000    4.500    3.500    1.500 
#    0.000    0.000    0.000    1.500    0.000    0.000 
#    0.000    0.000    0.000    0.000    0.000    0.000 
#
# Total GULP energy -89098.150786 kJ/mol
# GULP energy per Si atom -5568.634424 kJ/mol
# Density = 2.006249 g / cm^3
# Si number density = 20.108260 Si / 1000 Ang^3
#
#
#
# Elastic Constant Matrix: (Units=GPa)
#
#
# Indices 1 2 3 4 5 6 
#
# 1 135.2489 5.9492 56.6195 0.0000 -8.0777 0.0000
# 2 5.9492 73.7647 34.3150 0.0000 1.8241 0.0000
# 3 56.6195 34.3150 144.3266 0.0000 19.2943 0.0000
# 4 0.0000 0.0000 0.0000 26.8869 0.0000 7.8847
# 5 -8.0777 1.8241 19.2943 0.0000 37.0851 0.0000
# 6 0.0000 0.0000 0.0000 7.8847 0.0000 16.0555
#
#
#
# Elastic Compliance Matrix: (Units=1/GPa)
#
#
# Indices 1 2 3 4 5 6 
#
# 1 0.009545 0.001280 -0.004641 0.000000 0.004431 0.000000
# 2 0.001280 0.015466 -0.004422 0.000000 0.001819 0.000000
# 3 -0.004641 -0.004422 0.010647 0.000000 -0.006333 0.000000
# 4 0.000000 0.000000 0.000000 0.043450 0.000000 -0.021338
# 5 0.004431 0.001819 -0.006333 0.000000 0.031135 0.000000
# 6 0.000000 0.000000 0.000000 -0.021338 0.000000 0.072763
#
#
# Mechanical properties :
#
#
# Convention : Reuss Voigt Hill
#
# Bulk Modulus (GPa) = 49.77417 60.78972 55.28195
# Shear Modulus (GPa) = 24.35802 33.10260 28.73031
#
# Velocity S-wave (km/s) = 3.48421 4.06176 3.78402
# Velocity P-wave (km/s) = 6.40259 7.23147 6.82961
#
# Compressibility (1/GPa) = 0.02009074
#
# Stress axis : x y z
#
# Youngs Moduli (GPa) = 104.76667 64.65948 93.91893
#
# Poissons Ratio (x) = -0.08274 0.43589
# Poissons Ratio (y) = -0.13406 0.41533
# Poissons Ratio (z) = 0.48623 0.28594
#
# Static dielectric constant tensor:
#      x y z
#    x 1.819460 0.000000 -0.098610 
#    y 0.000000 1.658080 0.000000 
#    z -0.098610 0.000000 1.910500 
# 
# From -- ./inp_files/6063.got.cif
#   From: 2010.05.17/outbox.cif.g08.bks.cpg/sg12_4_cif.got.tgz:6063.got - 2010.06.03 13:09:07.
