data_PCOD9219039
_publ_section_title
;
Structure prediction by ZEFSAII (Michael W. Deem and Ramdas Pophale) SiO2 
 PCOD9219039
Probable space group: C 2/M
;
_chemical_formula_sum "Si O2"
_cell_formula_units_Z 56
_cell_length_a 15.571821
_cell_length_b 16.749057
_cell_length_c 21.637665
_cell_angle_alpha 90.000000
_cell_angle_beta 150.347303
_cell_angle_gamma 90.000000
_cell_volume 2792.019053
_symmetry_space_group_name_H-M "C 2/M"
_symmetry_group_IT_number 12
_symmetry_cell_setting 'monoclinic'
loop_
_space_group_symop_operation_xyz
x,y,z
-x,y,-z
-x,-y,-z
x,-y,z
1/2+x,1/2+y,z
1/2-x,1/2+y,-z
1/2-x,1/2-y,-z
1/2+x,1/2-y,z
loop_
_atom_site_type_symbol
_atom_site_label
_atom_site_fract_x
_atom_site_fract_y
_atom_site_fract_z
Si Si1 0.492576 0.671286 0.179364
Si Si2 0.398363 0.364307 0.497676
Si Si3 0.429116 0.807334 0.572227
Si Si4 0.510173 0.169343 0.256484
Si Si5 0.665426 0.910370 0.647995
Si Si6 0.135913 0.904590 0.028807
Si Si7 0.575032 0.592310 0.349213
O O1 0.480402 0.765646 0.184063
O O2 0.689391 0.642814 0.292066
O O3 0.448248 0.627979 0.217045
O O4 0.408872 0.639565 0.063945
O O5 0.500000 0.388500 0.500000
O O6 0.419633 0.268614 0.521976
O O7 0.472125 0.401009 0.607620
O O8 0.190883 0.378305 0.360246
O O9 0.449477 0.780585 0.655638
O O10 0.592916 0.862443 0.660205
O O11 0.260104 0.862551 0.463361
O O12 0.338837 0.118380 0.162875
O O13 0.500000 0.915846 0.500000
O O14 0.726997 0.000000 0.700617
O O15 0.120422 0.000000 0.012133
O O16 0.000000 0.882262 0.000000
O O17 0.603846 0.500000 0.351087
#
# Coordination Sequence:
#
# PCOD9219039 Si02
#       7
#     8   8   8   8   8   8   8
#     4  12  21  40  59  87 129 163 204 252 305 379
#     4  11  22  39  61  91 130 166 203 259 303 365
#     4  11  19  36  58  90 129 158 199 257 311 374
#     4  11  22  39  65  90 125 169 208 247 308 383
#     4  11  20  30  55  94 129 159 198 252 321 380
#     4  11  26  45  65  93 125 160 205 262 324 376
#     4  11  21  35  58  86 120 164 207 251 310 359
#
# _framework density 20.057169999999999
#
# number of rings (size 3 to 8) (size 9 to 14) (size 15 to 20)
#    0.000    0.857    4.286    5.143    0.000    4.286 
#    0.000    0.000    0.000    0.000    0.000    2.000 
#    0.000    0.000    0.000    0.000    0.000    0.000 
#
# Total GULP energy -156175.208657 kJ/mol
# GULP energy per Si atom -5577.686023 kJ/mol
# Density = 2.001152 g / cm^3
# Si number density = 20.057170 Si / 1000 Ang^3
#
#
#
# Elastic Constant Matrix: (Units=GPa)
#
#
# Indices 1 2 3 4 5 6 
#
# 1 129.8837 8.5251 44.8271 0.0001 -5.8971 0.0002
# 2 8.5251 51.2652 -0.4117 -0.0032 -0.0793 0.0001
# 3 44.8271 -0.4117 86.0199 -0.0064 -6.6070 -0.0002
# 4 0.0001 -0.0032 -0.0064 20.9389 -0.0013 -0.3057
# 5 -5.8971 -0.0793 -6.6070 -0.0013 38.0136 0.0001
# 6 0.0002 0.0001 -0.0002 -0.3057 0.0001 22.4225
#
#
#
# Elastic Compliance Matrix: (Units=1/GPa)
#
#
# Indices 1 2 3 4 5 6 
#
# 1 0.009535 -0.001624 -0.004929 -0.000002 0.000619 0.000000
# 2 -0.001624 0.019784 0.000937 0.000003 -0.000048 0.000000
# 3 -0.004929 0.000937 0.014331 0.000005 0.001728 0.000000
# 4 -0.000002 0.000003 0.000005 0.047767 0.000002 0.000651
# 5 0.000619 -0.000048 0.001728 0.000002 0.026703 0.000000
# 6 0.000000 0.000000 0.000000 0.000651 0.000000 0.044607
#
#
# Mechanical properties :
#
#
# Convention : Reuss Voigt Hill
#
# Bulk Modulus (GPa) = 30.84682 41.44998 36.14840
# Shear Modulus (GPa) = 27.06133 30.55689 28.80911
#
# Velocity S-wave (km/s) = 3.67714 3.90742 3.79403
# Velocity P-wave (km/s) = 5.78285 6.40844 6.10366
#
# Compressibility (1/GPa) = 0.03241825
#
# Stress axis : x y z
#
# Youngs Moduli (GPa) = 104.87513 50.54594 69.77795
#
# Poissons Ratio (x) = 0.08210 0.34395
# Poissons Ratio (y) = 0.17034 -0.06541
# Poissons Ratio (z) = 0.51695 -0.04738
#
# Static dielectric constant tensor:
#      x y z
#    x 1.814490 0.000000 -0.055950 
#    y 0.000000 1.723180 0.000000 
#    z -0.055950 0.000000 1.781930 
# 
# From -- ./inp_files/311739.got.cif
#   From: 2010.05.17/outbox.cif.g08.bks.cpg/sg12_156_cif.got.tgz:311739.got - 2010.06.03 13:09:07.
