data_PCOD9219796
_publ_section_title
;
Structure prediction by ZEFSAII (Michael W. Deem and Ramdas Pophale) SiO2 
 PCOD9219796
Probable space group: C 2/M
;
_chemical_formula_sum "Si O2"
_cell_formula_units_Z 56
_cell_length_a 29.542457
_cell_length_b 8.251172
_cell_length_c 14.942726
_cell_angle_alpha 90.000000
_cell_angle_beta 120.581984
_cell_angle_gamma 90.000000
_cell_volume 3135.781732
_symmetry_space_group_name_H-M "C 2/M"
_symmetry_group_IT_number 12
_symmetry_cell_setting 'monoclinic'
loop_
_space_group_symop_operation_xyz
x,y,z
-x,y,-z
-x,-y,-z
x,-y,z
1/2+x,1/2+y,z
1/2-x,1/2+y,-z
1/2-x,1/2-y,-z
1/2+x,1/2-y,z
loop_
_atom_site_type_symbol
_atom_site_label
_atom_site_fract_x
_atom_site_fract_y
_atom_site_fract_z
Si Si1 0.380423 0.193023 0.564111
Si Si2 0.901518 0.694251 0.240962
Si Si3 0.333293 0.196674 0.334434
Si Si4 0.489760 0.692071 0.592573
Si Si5 0.297787 0.308399 0.612471
Si Si6 0.715737 0.697437 0.198586
Si Si7 0.692885 0.695168 0.980964
O O1 0.344014 0.251044 0.445129
O O2 0.438943 0.233262 0.589993
O O3 0.353920 0.270136 0.624115
O O4 0.375646 0.000000 0.568221
O O5 0.906910 0.500000 0.247264
O O6 0.877906 0.752316 0.312245
O O7 0.856569 0.740295 0.125022
O O8 0.959083 0.770262 0.295953
O O9 0.276338 0.244851 0.244176
O O10 0.334643 0.000000 0.336183
O O11 0.500000 0.753386 0.500000
O O12 0.481498 0.500000 0.577957
O O13 0.290199 0.500000 0.611175
O O14 0.250000 0.250000 0.500000
O O15 0.297347 0.244078 0.714390
O O16 0.712722 0.500000 0.197430
O O17 0.686905 0.748844 0.078890
O O18 0.692620 0.500000 0.977393
O O19 0.750000 0.750000 0.000000
#
# Coordination Sequence:
#
# PCOD9219796 Si02
#       7
#     8   8   8   8   8   8   8
#     4  11  21  36  56  80 112 151 186 224 277 335
#     4  11  21  36  56  80 112 151 186 224 277 335
#     4   9  16  29  51  78 110 146 182 213 262 334
#     4  11  23  37  55  84 115 144 185 233 274 324
#     4  11  21  35  55  81 111 148 188 231 277 330
#     4   9  18  34  53  76 111 151 184 218 274 335
#     4  11  21  35  55  81 111 148 188 231 277 330
#
# _framework density 17.858384999999998
#
# number of rings (size 3 to 8) (size 9 to 14) (size 15 to 20)
#    0.000    1.571    4.286    2.143    0.000    0.571 
#    0.000    4.286    0.000    0.857    0.000    6.000 
#    0.000    0.000    0.000    0.000    0.000    0.000 
#
# Total GULP energy -156120.348644 kJ/mol
# GULP energy per Si atom -5575.726737 kJ/mol
# Density = 1.781774 g / cm^3
# Si number density = 17.858385 Si / 1000 Ang^3
#
#
#
# Elastic Constant Matrix: (Units=GPa)
#
#
# Indices 1 2 3 4 5 6 
#
# 1 75.8577 -4.8790 28.4737 0.0000 -9.5265 0.0000
# 2 -4.8790 23.9831 0.0243 0.0000 -6.6442 0.0000
# 3 28.4737 0.0243 83.1567 0.0000 -6.6888 0.0000
# 4 0.0000 0.0000 0.0000 22.1387 0.0000 4.2898
# 5 -9.5265 -6.6442 -6.6888 0.0000 29.9730 0.0000
# 6 0.0000 0.0000 0.0000 4.2898 0.0000 24.4911
#
#
#
# Elastic Compliance Matrix: (Units=1/GPa)
#
#
# Indices 1 2 3 4 5 6 
#
# 1 0.016016 0.004644 -0.005084 0.000000 0.004985 0.000000
# 2 0.004644 0.045822 -0.000680 0.000000 0.011482 0.000000
# 3 -0.005084 -0.000680 0.013874 0.000000 0.001329 0.000000
# 4 0.000000 0.000000 0.000000 0.046757 0.000000 -0.008190
# 5 0.004985 0.011482 0.001329 0.000000 0.037790 0.000000
# 6 0.000000 0.000000 0.000000 -0.008190 0.000000 0.042266
#
#
# Mechanical properties :
#
#
# Convention : Reuss Voigt Hill
#
# Bulk Modulus (GPa) = 13.61065 25.58171 19.59618
# Shear Modulus (GPa) = 21.80983 25.94581 23.87782
#
# Velocity S-wave (km/s) = 3.49845 3.81578 3.66056
# Velocity P-wave (km/s) = 4.89458 5.81115 5.37244
#
# Compressibility (1/GPa) = 0.07347185
#
# Stress axis : x y z
#
# Youngs Moduli (GPa) = 62.43836 21.82334 72.07974
#
# Poissons Ratio (x) = -0.10136 0.36648
# Poissons Ratio (y) = -0.28999 0.04902
# Poissons Ratio (z) = 0.31746 0.01484
#
# Static dielectric constant tensor:
#      x y z
#    x 1.607940 0.000000 -0.018730 
#    y 0.000000 1.626020 0.000000 
#    z -0.018730 0.000000 1.624590 
# 
# From -- ./inp_files/244296.got.cif
#   From: 2010.05.17/outbox.cif.g08.bks.cpg/sg12_123_cif.got.tgz:244296.got - 2010.06.03 13:09:07.
