data_PCOD9219164
_publ_section_title
;
Structure prediction by ZEFSAII (Michael W. Deem and Ramdas Pophale) SiO2 
 PCOD9219164
Probable space group: C 2/M
;
_chemical_formula_sum "Si O2"
_cell_formula_units_Z 64
_cell_length_a 25.078280
_cell_length_b 8.707893
_cell_length_c 24.253627
_cell_angle_alpha 90.000000
_cell_angle_beta 46.337498
_cell_angle_gamma 90.000000
_cell_volume 3831.576714
_symmetry_space_group_name_H-M "C 2/M"
_symmetry_group_IT_number 12
_symmetry_cell_setting 'monoclinic'
loop_
_space_group_symop_operation_xyz
x,y,z
-x,y,-z
-x,-y,-z
x,-y,z
1/2+x,1/2+y,z
1/2-x,1/2+y,-z
1/2-x,1/2-y,-z
1/2+x,1/2-y,z
loop_
_atom_site_type_symbol
_atom_site_label
_atom_site_fract_x
_atom_site_fract_y
_atom_site_fract_z
Si Si1 0.601595 0.182733 0.570478
Si Si2 0.320529 0.183986 0.674847
Si Si3 0.108881 0.182760 0.684890
Si Si4 0.836031 0.184813 0.162792
Si Si5 0.729449 0.316243 0.406792
Si Si6 0.544822 0.180969 0.837431
Si Si7 0.062390 0.177383 0.003568
Si Si8 0.977641 0.182931 0.579580
O O1 0.588187 0.241378 0.641712
O O2 0.675420 0.260940 0.493801
O O3 0.535071 0.233753 0.578390
O O4 0.610603 0.000000 0.563161
O O5 0.248643 0.216466 0.763296
O O6 0.304643 0.256391 0.626263
O O7 0.395101 0.254855 0.645361
O O8 0.327839 0.000000 0.663861
O O9 0.190004 0.244490 0.643090
O O10 0.054998 0.232416 0.772652
O O11 0.111108 0.000000 0.678234
O O12 0.887885 0.264996 0.171049
O O13 0.847893 0.000000 0.159398
O O14 0.864871 0.228988 0.081368
O O15 0.734107 0.500000 0.402836
O O16 0.470486 0.225138 0.923212
O O17 0.549698 0.000000 0.825308
O O18 0.070297 0.000000 0.015325
O O19 0.000000 0.180937 0.000000
O O20 0.000000 0.212111 0.500000
O O21 0.981218 0.000000 0.586221
#
# Coordination Sequence:
#
# PCOD9219164 Si02
#       8
#     8   8   8   8   8   8   8   8
#     4  12  25  41  59  79 104 139 183 227 270 319
#     4  11  21  34  56  82 107 143 184 223 269 317
#     4  12  24  39  56  77 108 145 182 221 267 322
#     4   9  18  32  50  74 107 142 179 218 264 319
#     4  12  23  37  55  80 110 142 179 221 268 320
#     4  11  20  30  48  76 108 141 178 218 263 316
#     4   8  15  29  47  69 102 143 177 211 259 317
#     4  11  23  39  58  79 107 140 180 227 272 317
#
# _framework density 16.703306999999999
#
# number of rings (size 3 to 8) (size 9 to 14) (size 15 to 20)
#    0.000    1.250    2.500    6.375    0.000    3.250 
#    0.000    0.000    0.000    0.000    0.000    0.875 
#    0.000    0.000    0.000    0.000    0.000    0.000 
#
# Total GULP energy -178792.271083 kJ/mol
# GULP energy per Si atom -5587.258471 kJ/mol
# Density = 1.666529 g / cm^3
# Si number density = 16.703307 Si / 1000 Ang^3
#
#
#
# Elastic Constant Matrix: (Units=GPa)
#
#
# Indices 1 2 3 4 5 6 
#
# 1 31.9624 10.1263 11.9458 0.0004 7.5217 0.0007
# 2 10.1263 67.4602 16.1852 0.0011 -2.1225 0.0033
# 3 11.9458 16.1852 93.0274 0.0003 -3.1139 0.0011
# 4 0.0004 0.0011 0.0003 24.1940 -0.0001 1.3475
# 5 7.5217 -2.1225 -3.1139 -0.0001 18.2437 0.0004
# 6 0.0007 0.0033 0.0011 1.3475 0.0004 23.4375
#
#
#
# Elastic Compliance Matrix: (Units=1/GPa)
#
#
# Indices 1 2 3 4 5 6 
#
# 1 0.038782 -0.005253 -0.004648 0.000000 -0.017394 0.000000
# 2 -0.005253 0.016214 -0.002022 -0.000001 0.003707 -0.000002
# 3 -0.004648 -0.002022 0.011822 0.000000 0.003699 0.000000
# 4 0.000000 -0.000001 0.000000 0.041465 0.000000 -0.002384
# 5 -0.017394 0.003707 0.003699 0.000000 0.063047 -0.000001
# 6 0.000000 -0.000002 0.000000 -0.002384 -0.000001 0.042804
#
#
# Mechanical properties :
#
#
# Convention : Reuss Voigt Hill
#
# Bulk Modulus (GPa) = 23.27215 29.88496 26.57855
# Shear Modulus (GPa) = 19.81724 23.45456 21.63590
#
# Velocity S-wave (km/s) = 3.44819 3.75131 3.60294
# Velocity P-wave (km/s) = 5.46043 6.05753 5.76671
#
# Compressibility (1/GPa) = 0.04296982
#
# Stress axis : x y z
#
# Youngs Moduli (GPa) = 25.78529 61.67519 84.58760
#
# Poissons Ratio (x) = 0.32401 0.39319
# Poissons Ratio (y) = 0.13546 0.17106
# Poissons Ratio (z) = 0.11986 0.12472
#
# Static dielectric constant tensor:
#      x y z
#    x 1.531470 0.000000 -0.007340 
#    y 0.000000 1.555800 0.000000 
#    z -0.007340 0.000000 1.586910 
# 
# From -- ./inp_files/324105.got.cif
#   From: 2010.05.17/outbox.cif.g08.bks.cpg/sg12_163_cif.got.tgz:324105.got - 2010.06.03 13:09:07.
