data_PCOD9219157
_publ_section_title
;
Structure prediction by ZEFSAII (Michael W. Deem and Ramdas Pophale) SiO2 
 PCOD9219157
Probable space group: C 2/M
;
_chemical_formula_sum "Si O2"
_cell_formula_units_Z 48
_cell_length_a 24.553957
_cell_length_b 8.026369
_cell_length_c 21.707460
_cell_angle_alpha 90.000000
_cell_angle_beta 38.570143
_cell_angle_gamma 90.000000
_cell_volume 2667.268629
_symmetry_space_group_name_H-M "C 2/M"
_symmetry_group_IT_number 12
_symmetry_cell_setting 'monoclinic'
loop_
_space_group_symop_operation_xyz
x,y,z
-x,y,-z
-x,-y,-z
x,-y,z
1/2+x,1/2+y,z
1/2-x,1/2+y,-z
1/2-x,1/2-y,-z
1/2+x,1/2-y,z
loop_
_atom_site_type_symbol
_atom_site_label
_atom_site_fract_x
_atom_site_fract_y
_atom_site_fract_z
Si Si1 0.071917 0.296108 0.387659
Si Si2 0.921336 0.699485 0.757386
Si Si3 0.950683 0.803193 0.859256
Si Si4 0.228622 0.799611 0.782133
Si Si5 0.225090 0.202470 0.928189
Si Si6 0.952482 0.695701 0.104176
O O1 0.071622 0.500000 0.388222
O O2 0.052623 0.242604 0.334181
O O3 0.171136 0.246032 0.317089
O O4 0.000000 0.239160 0.500000
O O5 0.916187 0.500000 0.757787
O O6 0.977057 0.740714 0.768363
O O7 0.822343 0.764276 0.856396
O O8 0.011315 0.768303 0.864226
O O9 0.942020 0.000000 0.861543
O O10 0.855105 0.730227 0.961473
O O11 0.208273 0.759266 0.871450
O O12 0.150860 0.724779 0.811181
O O13 0.225777 0.000000 0.778280
O O14 0.226230 0.000000 0.932346
O O15 0.971452 0.500000 0.089101
O O16 0.000000 0.765250 0.000000
#
# Coordination Sequence:
#
# PCOD9219157 Si02
#       6
#     8   8   8   8   8   8
#     4   8  15  30  55  81 100 123 157 200 250 297
#     4   9  17  30  47  70 100 127 158 198 241 288
#     4  11  20  30  46  67  97 134 168 197 233 286
#     4   9  16  30  51  73  98 128 165 201 235 285
#     4   8  15  27  44  66  94 129 160 191 232 281
#     4  11  22  33  46  68  99 134 169 203 239 282
#
# _framework density 17.995937000000001
#
# number of rings (size 3 to 8) (size 9 to 14) (size 15 to 20)
#    0.000    2.667    1.667    3.500    0.000    0.667 
#    0.000    4.167    0.000    3.000    0.000    0.000 
#    0.000    0.000    0.000    0.000    0.000    0.000 
#
# Total GULP energy -133735.149479 kJ/mol
# GULP energy per Si atom -5572.297895 kJ/mol
# Density = 1.795498 g / cm^3
# Si number density = 17.995937 Si / 1000 Ang^3
#
#
#
# Elastic Constant Matrix: (Units=GPa)
#
#
# Indices 1 2 3 4 5 6 
#
# 1 120.5177 2.3545 64.1297 0.0037 24.8305 -0.0045
# 2 2.3545 13.7828 7.3087 0.0076 4.4910 -0.0161
# 3 64.1297 7.3087 111.8075 0.0020 11.8094 -0.0029
# 4 0.0037 0.0076 0.0020 8.6458 -0.0014 3.3375
# 5 24.8305 4.4910 11.8094 -0.0014 13.5303 0.0028
# 6 -0.0045 -0.0161 -0.0029 3.3375 0.0028 10.2945
#
#
#
# Elastic Compliance Matrix: (Units=1/GPa)
#
#
# Indices 1 2 3 4 5 6 
#
# 1 0.018936 0.011358 -0.008300 -0.000038 -0.031277 0.000045
# 2 0.011358 0.088921 -0.007720 -0.000169 -0.043621 0.000208
# 3 -0.008300 -0.007720 0.013582 0.000015 0.005941 -0.000018
# 4 -0.000038 -0.000169 0.000015 0.132209 0.000136 -0.042863
# 5 -0.031277 -0.043621 0.005941 0.000136 0.140600 -0.000162
# 6 0.000045 0.000208 -0.000018 -0.042863 -0.000162 0.111036
#
#
# Mechanical properties :
#
#
# Convention : Reuss Voigt Hill
#
# Bulk Modulus (GPa) = 8.91940 43.74376 26.33158
# Shear Modulus (GPa) = 9.05827 17.98180 13.52004
#
# Velocity S-wave (km/s) = 2.24598 3.16446 2.74393
# Velocity P-wave (km/s) = 3.41950 6.14102 4.97017
#
# Compressibility (1/GPa) = 0.11211521
#
# Stress axis : x y z
#
# Youngs Moduli (GPa) = 52.80813 11.24588 73.62693
#
# Poissons Ratio (x) = -0.12773 0.61113
# Poissons Ratio (y) = -0.59980 0.56840
# Poissons Ratio (z) = 0.43833 0.08682
#
# Static dielectric constant tensor:
#      x y z
#    x 1.635750 0.000000 0.007260 
#    y 0.000000 1.628890 0.000000 
#    z 0.007260 0.000000 1.620820 
# 
# From -- ./inp_files/287269.got.cif
#   From: 2010.05.17/outbox.cif.g08.bks.cpg/sg12_144_cif.got.tgz:287269.got - 2010.06.03 13:09:07.
