data_PCOD9219653
_publ_section_title
;
Structure prediction by ZEFSAII (Michael W. Deem and Ramdas Pophale) SiO2 
 PCOD9219653
Probable space group: C 2/M
;
_chemical_formula_sum "Si O2"
_cell_formula_units_Z 48
_cell_length_a 32.293300
_cell_length_b 15.445444
_cell_length_c 10.305696
_cell_angle_alpha 90.000000
_cell_angle_beta 29.548677
_cell_angle_gamma 90.000000
_cell_volume 2535.014650
_symmetry_space_group_name_H-M "C 2/M"
_symmetry_group_IT_number 12
_symmetry_cell_setting 'monoclinic'
loop_
_space_group_symop_operation_xyz
x,y,z
-x,y,-z
-x,-y,-z
x,-y,z
1/2+x,1/2+y,z
1/2-x,1/2+y,-z
1/2-x,1/2-y,-z
1/2+x,1/2-y,z
loop_
_atom_site_type_symbol
_atom_site_label
_atom_site_fract_x
_atom_site_fract_y
_atom_site_fract_z
Si Si1 0.583792 0.595501 0.002932
Si Si2 0.830093 0.904386 0.513974
Si Si3 0.170648 0.654773 0.821874
Si Si4 0.000702 0.264613 0.344885
Si Si5 0.826145 0.733364 0.694424
Si Si6 0.251240 0.654297 0.336498
O O1 0.544713 0.500000 0.115367
O O2 0.619566 0.609001 0.759089
O O3 0.665991 0.596950 0.871910
O O4 0.527237 0.675802 0.199575
O O5 0.731417 0.902979 0.743956
O O6 0.844608 0.823434 0.567870
O O7 0.851986 0.000000 0.504611
O O8 0.187623 0.632438 0.625907
O O9 0.210732 0.750096 0.737648
O O10 0.073498 0.665266 0.118545
O O11 0.909817 0.292231 0.542308
O O12 0.000000 0.247504 0.500000
O O13 0.794910 0.663563 0.673858
O O14 0.750000 0.750000 0.000000
#
# Coordination Sequence:
#
# PCOD9219653 Si02
#       6
#     8   8   8   8   8   8
#     4   9  18  33  53  78 106 133 162 201 253 310
#     4   9  18  34  56  78 101 131 166 206 253 303
#     4   8  15  30  51  72  95 126 166 204 243 293
#     4  11  21  32  49  72 102 138 172 210 251 295
#     4  11  21  33  50  72 101 135 172 212 251 295
#     4   8  15  30  50  71  96 129 164 199 243 297
#
# _framework density 18.934802000000001
#
# number of rings (size 3 to 8) (size 9 to 14) (size 15 to 20)
#    0.000    2.667    0.000    6.000    0.000    3.667 
#    0.000    4.167    0.000    5.500    0.000    4.667 
#    0.000    0.000    0.000    0.000    0.000    0.000 
#
# Total GULP energy -133772.125306 kJ/mol
# GULP energy per Si atom -5573.838554 kJ/mol
# Density = 1.889171 g / cm^3
# Si number density = 18.934802 Si / 1000 Ang^3
#
#
#
# Elastic Constant Matrix: (Units=GPa)
#
#
# Indices 1 2 3 4 5 6 
#
# 1 99.1378 -0.7383 38.6670 0.0000 -10.4826 0.0000
# 2 -0.7383 28.2800 -10.2139 0.0000 2.4177 0.0000
# 3 38.6670 -10.2139 85.0167 0.0000 -17.7122 0.0000
# 4 0.0000 0.0000 0.0000 11.5850 0.0000 -0.3883
# 5 -10.4826 2.4177 -17.7122 0.0000 24.8508 0.0000
# 6 0.0000 0.0000 0.0000 -0.3883 0.0000 11.3515
#
#
#
# Elastic Compliance Matrix: (Units=1/GPa)
#
#
# Indices 1 2 3 4 5 6 
#
# 1 0.012392 -0.001805 -0.005552 0.000000 0.001446 0.000000
# 2 -0.001805 0.037233 0.005145 0.000000 -0.000717 0.000000
# 3 -0.005552 0.005145 0.016809 0.000000 0.009138 0.000000
# 4 0.000000 0.000000 0.000000 0.086417 0.000000 0.002956
# 5 0.001446 -0.000717 0.009138 0.000000 0.047433 0.000000
# 6 0.000000 0.000000 0.000000 0.002956 0.000000 0.088195
#
#
# Mechanical properties :
#
#
# Convention : Reuss Voigt Hill
#
# Bulk Modulus (GPa) = 16.12636 29.76267 22.94451
# Shear Modulus (GPa) = 15.94523 21.87212 18.90867
#
# Velocity S-wave (km/s) = 2.90507 3.40240 3.16352
# Velocity P-wave (km/s) = 4.44835 5.58460 5.04854
#
# Compressibility (1/GPa) = 0.06201027
#
# Stress axis : x y z
#
# Youngs Moduli (GPa) = 80.69908 26.85789 59.49069
#
# Poissons Ratio (x) = 0.04848 0.33027
# Poissons Ratio (y) = 0.14568 -0.30607
# Poissons Ratio (z) = 0.44801 -0.13818
#
# Static dielectric constant tensor:
#      x y z
#    x 1.673420 0.000000 -0.013930 
#    y 0.000000 1.677240 0.000000 
#    z -0.013930 0.000000 1.660090 
# 
# From -- ./inp_files/112753.got.cif
#   From: 2010.05.17/outbox.cif.g08.bks.cpg/sg12_57_cif.got.tgz:112753.got - 2010.06.03 13:09:07.
