data_PCOD9219334
_publ_section_title
;
Structure prediction by ZEFSAII (Michael W. Deem and Ramdas Pophale) SiO2 
 PCOD9219334
Probable space group: C 2/M
;
_chemical_formula_sum "Si O2"
_cell_formula_units_Z 48
_cell_length_a 21.080067
_cell_length_b 20.832337
_cell_length_c 11.490354
_cell_angle_alpha 90.000000
_cell_angle_beta 23.912825
_cell_angle_gamma 90.000000
_cell_volume 2045.358865
_symmetry_space_group_name_H-M "C 2/M"
_symmetry_group_IT_number 12
_symmetry_cell_setting 'monoclinic'
loop_
_space_group_symop_operation_xyz
x,y,z
-x,y,-z
-x,-y,-z
x,-y,z
1/2+x,1/2+y,z
1/2-x,1/2+y,-z
1/2-x,1/2-y,-z
1/2+x,1/2-y,z
loop_
_atom_site_type_symbol
_atom_site_label
_atom_site_fract_x
_atom_site_fract_y
_atom_site_fract_z
Si Si1 0.961317 0.754938 0.202765
Si Si2 0.703982 0.572562 0.389623
Si Si3 0.770308 0.360330 0.487190
Si Si4 0.347816 0.574574 0.089569
Si Si5 0.835131 0.172921 0.737488
Si Si6 0.239459 0.693253 0.155703
O O1 0.899817 0.683582 0.332600
O O2 0.823880 0.807456 0.431683
O O3 0.000000 0.752483 0.000000
O O4 0.100743 0.780692 0.048994
O O5 0.725315 0.500000 0.312151
O O6 0.810909 0.587715 0.322255
O O7 0.734200 0.625005 0.239865
O O8 0.522262 0.578035 0.740826
O O9 0.665359 0.395052 0.759776
O O10 0.304547 0.500000 0.165138
O O11 0.230074 0.620975 0.217358
O O12 0.867213 0.245203 0.635914
O O13 0.000000 0.143792 0.500000
O O14 0.741108 0.184048 0.013846
#
# Coordination Sequence:
#
# PCOD9219334 Si02
#       6
#     8   8   8   8   8   8
#     4  11  20  35  60  91 120 153 197 242 295 353
#     4  11  22  38  61  90 124 155 197 247 297 356
#     4  11  21  34  59  89 125 154 188 242 299 357
#     4  11  22  36  57  87 123 154 191 243 299 350
#     4  11  23  40  61  87 117 154 203 250 296 343
#     4  11  23  39  59  90 118 152 201 251 295 350
#
# _framework density 23.467765
#
# number of rings (size 3 to 8) (size 9 to 14) (size 15 to 20)
#    0.000    1.000    5.000    2.000    4.667    2.333 
#    0.000    0.000    0.000    9.500    0.000    0.000 
#    0.000    0.000    0.000    0.000    0.000    0.000 
#
# Total GULP energy -133998.136778 kJ/mol
# GULP energy per Si atom -5583.255699 kJ/mol
# Density = 2.341435 g / cm^3
# Si number density = 23.467765 Si / 1000 Ang^3
#
#
#
# Elastic Constant Matrix: (Units=GPa)
#
#
# Indices 1 2 3 4 5 6 
#
# 1 101.5223 58.6676 26.8665 -0.0018 22.2097 0.0045
# 2 58.6676 195.4950 27.9663 -0.0086 23.0401 0.0125
# 3 26.8665 27.9663 34.3823 -0.0129 8.5829 0.0100
# 4 -0.0018 -0.0086 -0.0129 32.5616 0.0066 6.9207
# 5 22.2097 23.0401 8.5829 0.0066 32.3395 -0.0038
# 6 0.0045 0.0125 0.0100 6.9207 -0.0038 21.0259
#
#
#
# Elastic Compliance Matrix: (Units=1/GPa)
#
#
# Indices 1 2 3 4 5 6 
#
# 1 0.014793 -0.002574 -0.007912 -0.000002 -0.006226 0.000002
# 2 -0.002574 0.006538 -0.002768 0.000002 -0.002155 -0.000003
# 3 -0.007912 -0.002768 0.038201 0.000019 -0.002733 -0.000022
# 4 -0.000002 0.000002 0.000019 0.033021 -0.000013 -0.010869
# 5 -0.006226 -0.002155 -0.002733 -0.000013 0.037459 0.000015
# 6 0.000002 -0.000003 -0.000022 -0.010869 0.000015 0.051138
#
#
# Mechanical properties :
#
#
# Convention : Reuss Voigt Hill
#
# Bulk Modulus (GPa) = 30.28115 62.04448 46.16282
# Shear Modulus (GPa) = 22.86597 31.71202 27.28900
#
# Velocity S-wave (km/s) = 3.12486 3.67999 3.41373
# Velocity P-wave (km/s) = 5.09421 6.67473 5.93730
#
# Compressibility (1/GPa) = 0.03302384
#
# Stress axis : x y z
#
# Youngs Moduli (GPa) = 67.59870 152.95949 26.17730
#
# Poissons Ratio (x) = 0.39369 0.20711
# Poissons Ratio (y) = 0.17399 0.07247
# Poissons Ratio (z) = 0.53482 0.42346
#
# Static dielectric constant tensor:
#      x y z
#    x 1.991710 -0.000010 0.016710 
#    y -0.000010 1.904750 0.000010 
#    z 0.016710 0.000010 1.995600 
# 
# From -- ./inp_files/132446.got.cif
#   From: 2010.05.17/outbox.cif.g08.bks.cpg/sg12_67_cif.got.tgz:132446.got - 2010.06.03 13:09:07.
