data_PCOD9219078
_publ_section_title
;
Structure prediction by ZEFSAII (Michael W. Deem and Ramdas Pophale) SiO2 
 PCOD9219078
Probable space group: C 2/M
;
_chemical_formula_sum "Si O2"
_cell_formula_units_Z 52
_cell_length_a 7.881335
_cell_length_b 22.320299
_cell_length_c 16.306553
_cell_angle_alpha 90.000000
_cell_angle_beta 81.006286
_cell_angle_gamma 90.000000
_cell_volume 2833.279590
_symmetry_space_group_name_H-M "C 2/M"
_symmetry_group_IT_number 12
_symmetry_cell_setting 'monoclinic'
loop_
_space_group_symop_operation_xyz
x,y,z
-x,y,-z
-x,-y,-z
x,-y,z
1/2+x,1/2+y,z
1/2-x,1/2+y,-z
1/2-x,1/2-y,-z
1/2+x,1/2-y,z
loop_
_atom_site_type_symbol
_atom_site_label
_atom_site_fract_x
_atom_site_fract_y
_atom_site_fract_z
Si Si1 0.982881 0.789455 0.665054
Si Si2 0.657254 0.874642 0.691050
Si Si3 0.203945 0.000000 0.570101
Si Si4 0.974085 0.299781 0.821610
Si Si5 0.292389 0.500000 0.619485
Si Si6 0.500000 0.211828 0.500000
Si Si7 0.304381 0.130977 0.616464
Si Si8 0.349116 0.712206 0.061514
O O1 0.812292 0.828477 0.662297
O O2 0.955226 0.744666 0.743987
O O3 0.016574 0.752190 0.579487
O O4 0.145140 0.833299 0.668439
O O5 0.591224 0.855221 0.785679
O O6 0.727480 0.940702 0.669760
O O7 0.484319 0.866795 0.650767
O O8 0.264488 0.061900 0.604949
O O9 0.266830 0.000000 0.470987
O O10 0.997982 0.000000 0.594703
O O11 0.792865 0.320750 0.872860
O O12 0.065708 0.259606 0.882997
O O13 0.341269 0.167106 0.529470
O O14 0.500000 0.678761 0.000000
O O15 0.250000 0.750000 0.000000
#
# Coordination Sequence:
#
# PCOD9219078 Si02
#       8
#     8   8   4   8   4   4   8   8
#     4  12  25  39  57  90 130 164 203 262 310 364
#     4  12  24  40  63  84 120 164 207 259 305 364
#     4  11  25  43  61  74 113 166 230 290 303 343
#     4  11  19  38  58  92 131 159 194 246 315 369
#     4  11  25  45  59  80 113 167 224 274 317 342
#     4  12  26  37  58  85 124 166 214 254 306 374
#     4  12  25  40  58  82 112 166 224 262 309 352
#     4   9  19  34  60  92 128 157 189 231 302 392
#
# _framework density 18.353289
#
# number of rings (size 3 to 8) (size 9 to 14) (size 15 to 20)
#    0.000    0.769    4.615    3.692    4.308    0.923 
#    0.000    0.000    0.000    0.000    0.000    5.385 
#    0.000    0.154    0.000    0.000    0.000    0.000 
#
# Total GULP energy -145124.249188 kJ/mol
# GULP energy per Si atom -5581.701892 kJ/mol
# Density = 1.831152 g / cm^3
# Si number density = 18.353289 Si / 1000 Ang^3
#
#
#
# Elastic Constant Matrix: (Units=GPa)
#
#
# Indices 1 2 3 4 5 6 
#
# 1 99.8717 42.4433 36.9477 0.0000 -12.9515 0.0000
# 2 42.4433 122.5577 46.8293 0.0000 -10.4977 0.0000
# 3 36.9477 46.8293 104.1130 0.0000 -15.0136 0.0000
# 4 0.0000 0.0000 0.0000 9.3210 0.0000 -8.9307
# 5 -12.9515 -10.4977 -15.0136 0.0000 46.4843 0.0000
# 6 0.0000 0.0000 0.0000 -8.9307 0.0000 23.0922
#
#
#
# Elastic Compliance Matrix: (Units=1/GPa)
#
#
# Indices 1 2 3 4 5 6 
#
# 1 0.012629 -0.003143 -0.002793 0.000000 0.001907 0.000000
# 2 -0.003143 0.010666 -0.003630 0.000000 0.000361 0.000000
# 3 -0.002793 -0.003630 0.012585 0.000000 0.002467 0.000000
# 4 0.000000 0.000000 0.000000 0.170442 0.000000 0.065917
# 5 0.001907 0.000361 0.002467 0.000000 0.022922 0.000000
# 6 0.000000 0.000000 0.000000 0.065917 0.000000 0.068798
#
#
# Mechanical properties :
#
#
# Convention : Reuss Voigt Hill
#
# Bulk Modulus (GPa) = 59.71149 64.33144 62.02147
# Shear Modulus (GPa) = 15.49156 29.13431 22.31293
#
# Velocity S-wave (km/s) = 2.90845 3.98856 3.49054
# Velocity P-wave (km/s) = 6.62449 7.50595 7.07895
#
# Compressibility (1/GPa) = 0.01674720
#
# Stress axis : x y z
#
# Youngs Moduli (GPa) = 79.18170 93.75748 79.46196
#
# Poissons Ratio (x) = 0.29468 0.22195
# Poissons Ratio (y) = 0.24887 0.28845
# Poissons Ratio (z) = 0.22117 0.34034
#
# Static dielectric constant tensor:
#      x y z
#    x 1.706770 0.000000 -0.021370 
#    y 0.000000 1.602900 0.000000 
#    z -0.021370 0.000000 1.677080 
# 
# From -- ./inp_files/257584.got.cif
#   From: 2010.05.17/outbox.cif.g08.bks.cpg/sg12_129_cif.got.tgz:257584.got - 2010.06.03 13:09:07.
