data_PCOD9219512
_publ_section_title
;
Structure prediction by ZEFSAII (Michael W. Deem and Ramdas Pophale) SiO2 
 PCOD9219512
Probable space group: C 2/M
;
_chemical_formula_sum "Si O2"
_cell_formula_units_Z 48
_cell_length_a 20.383472
_cell_length_b 18.558925
_cell_length_c 11.362037
_cell_angle_alpha 90.000000
_cell_angle_beta 33.233344
_cell_angle_gamma 90.000000
_cell_volume 2355.631946
_symmetry_space_group_name_H-M "C 2/M"
_symmetry_group_IT_number 12
_symmetry_cell_setting 'monoclinic'
loop_
_space_group_symop_operation_xyz
x,y,z
-x,y,-z
-x,-y,-z
x,-y,z
1/2+x,1/2+y,z
1/2-x,1/2+y,-z
1/2-x,1/2-y,-z
1/2+x,1/2-y,z
loop_
_atom_site_type_symbol
_atom_site_label
_atom_site_fract_x
_atom_site_fract_y
_atom_site_fract_z
Si Si1 0.485376 0.699591 0.385780
Si Si2 0.861477 0.000000 0.172991
Si Si3 0.523140 0.000000 0.327087
Si Si4 0.862374 0.500000 0.359535
Si Si5 0.785237 0.705252 0.205670
Si Si6 0.500000 0.882783 0.000000
Si Si7 0.317821 0.641709 0.085530
Si Si8 0.629899 0.844982 0.163598
O O1 0.500000 0.676658 0.500000
O O2 0.348530 0.690112 0.550541
O O3 0.526453 0.784147 0.321899
O O4 0.573160 0.656200 0.168248
O O5 0.779870 0.000000 0.413891
O O6 0.833188 0.930132 0.136063
O O7 0.000000 0.000000 0.000000
O O8 0.500000 0.000000 0.500000
O O9 0.402615 0.000000 0.434353
O O10 0.588900 0.925763 0.195277
O O11 0.924203 0.567391 0.202780
O O12 0.897869 0.663183 0.088936
O O13 0.810881 0.789533 0.180711
O O14 0.784659 0.685682 0.067058
O O15 0.199224 0.646869 0.182447
#
# Coordination Sequence:
#
# PCOD9219512 Si02
#       8
#     8   4   4   4   8   4   8   8
#     4  11  20  39  70 101 135 171 213 294 351 393
#     4  12  31  49  60  95 144 189 233 274 346 420
#     4  12  23  37  70  98 128 175 221 277 342 400
#     4  11  26  50  71  96 136 180 232 292 331 396
#     4  11  23  41  69 100 133 170 232 283 343 407
#     4  11  26  48  74 101 132 186 238 281 344 412
#     4  11  24  43  66  98 138 180 225 281 350 418
#     4  11  21  40  64 104 134 167 224 282 346 411
#
# _framework density 20.376695999999999
#
# number of rings (size 3 to 8) (size 9 to 14) (size 15 to 20)
#    0.000    0.833    5.000    3.000    5.833    0.000 
#    0.000    5.417    0.000    0.000    0.000    0.000 
#    0.000    0.000    0.000    0.000    0.000    0.000 
#
# Total GULP energy -134094.280117 kJ/mol
# GULP energy per Si atom -5587.261672 kJ/mol
# Density = 2.033032 g / cm^3
# Si number density = 20.376696 Si / 1000 Ang^3
#
#
#
# Elastic Constant Matrix: (Units=GPa)
#
#
# Indices 1 2 3 4 5 6 
#
# 1 86.4760 38.7863 26.7129 0.0000 -20.9331 0.0000
# 2 38.7863 136.9154 33.5420 0.0000 -9.6212 0.0000
# 3 26.7129 33.5420 134.3312 0.0000 -21.9216 0.0000
# 4 0.0000 0.0000 0.0000 13.4670 0.0000 2.5286
# 5 -20.9331 -9.6212 -21.9216 0.0000 34.2385 0.0000
# 6 0.0000 0.0000 0.0000 2.5286 0.0000 10.3538
#
#
#
# Elastic Compliance Matrix: (Units=1/GPa)
#
#
# Indices 1 2 3 4 5 6 
#
# 1 0.015330 -0.003579 -0.000882 0.000000 0.007803 0.000000
# 2 -0.003579 0.008649 -0.001573 0.000000 -0.000764 0.000000
# 3 -0.000882 -0.001573 0.008768 0.000000 0.004633 0.000000
# 4 0.000000 0.000000 0.000000 0.077824 0.000000 -0.019007
# 5 0.007803 -0.000764 0.004633 0.000000 0.036729 0.000000
# 6 0.000000 0.000000 0.000000 -0.019007 0.000000 0.101225
#
#
# Mechanical properties :
#
#
# Convention : Reuss Voigt Hill
#
# Bulk Modulus (GPa) = 48.35198 61.75610 55.05404
# Shear Modulus (GPa) = 18.69258 28.85727 23.77493
#
# Velocity S-wave (km/s) = 3.03207 3.76731 3.41951
# Velocity P-wave (km/s) = 6.00320 7.02115 6.53204
#
# Compressibility (1/GPa) = 0.02068168
#
# Stress axis : x y z
#
# Youngs Moduli (GPa) = 65.23145 115.61884 114.04575
#
# Poissons Ratio (x) = 0.41374 0.10055
# Poissons Ratio (y) = 0.23343 0.17937
# Poissons Ratio (z) = 0.05751 0.18184
#
# Static dielectric constant tensor:
#      x y z
#    x 1.743720 0.000000 -0.013760 
#    y 0.000000 1.738950 0.000000 
#    z -0.013760 0.000000 1.762760 
# 
# From -- ./inp_files/169636.got.cif
#   From: 2010.05.17/outbox.cif.g08.bks.cpg/sg12_85_cif.got.tgz:169636.got - 2010.06.03 13:09:07.
