data_PCOD9219685
_publ_section_title
;
Structure prediction by ZEFSAII (Michael W. Deem and Ramdas Pophale) SiO2 
 PCOD9219685
Probable space group: C 2/M
;
_chemical_formula_sum "Si O2"
_cell_formula_units_Z 64
_cell_length_a 9.104884
_cell_length_b 29.255313
_cell_length_c 14.166056
_cell_angle_alpha 90.000000
_cell_angle_beta 98.226394
_cell_angle_gamma 90.000000
_cell_volume 3734.532678
_symmetry_space_group_name_H-M "C 2/M"
_symmetry_group_IT_number 12
_symmetry_cell_setting 'monoclinic'
loop_
_space_group_symop_operation_xyz
x,y,z
-x,y,-z
-x,-y,-z
x,-y,z
1/2+x,1/2+y,z
1/2-x,1/2+y,-z
1/2-x,1/2-y,-z
1/2+x,1/2-y,z
loop_
_atom_site_type_symbol
_atom_site_label
_atom_site_fract_x
_atom_site_fract_y
_atom_site_fract_z
Si Si1 0.749655 0.633673 0.732934
Si Si2 0.971819 0.290666 0.682831
Si Si3 0.443698 0.372610 0.599735
Si Si4 0.255269 0.281685 0.592127
Si Si5 0.110033 0.445708 0.364897
Si Si6 0.095486 0.718842 0.888865
Si Si7 0.771838 0.690153 0.921144
Si Si8 0.712747 0.945872 0.589766
O O1 0.858925 0.667639 0.685316
O O2 0.584669 0.638744 0.677204
O O3 0.811912 0.584094 0.708669
O O4 0.751914 0.649515 0.843393
O O5 0.864253 0.246490 0.672716
O O6 0.085668 0.288811 0.607411
O O7 0.088209 0.293471 0.779438
O O8 0.500000 0.383935 0.500000
O O9 0.334305 0.329613 0.581362
O O10 0.350567 0.415045 0.630784
O O11 0.250000 0.250000 0.500000
O O12 0.123035 0.500000 0.348684
O O13 0.180380 0.436774 0.475326
O O14 0.935880 0.434739 0.364867
O O15 0.147873 0.770974 0.902412
O O16 0.924930 0.714137 0.903379
O O17 0.194352 0.685330 0.963832
O O18 0.739554 0.000000 0.601327
#
# Coordination Sequence:
#
# PCOD9219685 Si02
#       8
#     8   8   8   8   8   8   8   8
#     4  11  21  33  51  76 104 136 176 222 265 319
#     4  11  21  35  51  68  98 141 183 218 259 305
#     4  12  22  33  47  71 105 142 180 212 256 310
#     4  12  24  35  47  69 105 148 185 218 252 306
#     4   9  18  35  55  75 101 136 176 218 266 316
#     4   9  17  32  51  71  95 130 171 221 263 305
#     4   9  18  31  51  75  98 128 169 219 274 309
#     4   9  19  35  55  75 100 138 183 221 257 310
#
# _framework density 17.137350999999999
#
# number of rings (size 3 to 8) (size 9 to 14) (size 15 to 20)
#    0.000    1.750    1.250    6.375    0.000    0.750 
#    0.000    0.000    0.000    0.000    0.000    7.000 
#    0.000    0.000    0.000   58.750    0.000    0.000 
#
# Total GULP energy -178342.952416 kJ/mol
# GULP energy per Si atom -5573.217263 kJ/mol
# Density = 1.709835 g / cm^3
# Si number density = 17.137351 Si / 1000 Ang^3
#
#
#
# Elastic Constant Matrix: (Units=GPa)
#
#
# Indices 1 2 3 4 5 6 
#
# 1 78.0290 30.6793 27.7147 0.0000 14.8180 0.0000
# 2 30.6793 54.1665 22.9330 0.0000 2.9482 0.0000
# 3 27.7147 22.9330 87.8187 0.0000 10.7545 0.0000
# 4 0.0000 0.0000 0.0000 22.4785 0.0000 -3.9089
# 5 14.8180 2.9482 10.7545 0.0000 19.6398 0.0000
# 6 0.0000 0.0000 0.0000 -3.9089 0.0000 31.2701
#
#
#
# Elastic Compliance Matrix: (Units=1/GPa)
#
#
# Indices 1 2 3 4 5 6 
#
# 1 0.019670 -0.009536 -0.002225 0.000000 -0.012191 0.000000
# 2 -0.009536 0.025379 -0.004323 0.000000 0.005752 0.000000
# 3 -0.002225 -0.004323 0.013863 0.000000 -0.005264 0.000000
# 4 0.000000 0.000000 0.000000 0.045475 0.000000 0.005685
# 5 -0.012191 0.005752 -0.005264 0.000000 0.062134 0.000000
# 6 0.000000 0.000000 0.000000 0.005685 0.000000 0.032690
#
#
# Mechanical properties :
#
#
# Convention : Reuss Voigt Hill
#
# Bulk Modulus (GPa) = 37.38788 42.51868 39.95328
# Shear Modulus (GPa) = 20.80792 23.92351 22.36572
#
# Velocity S-wave (km/s) = 3.48830 3.74034 3.61652
# Velocity P-wave (km/s) = 6.17157 6.59681 6.38773
#
# Compressibility (1/GPa) = 0.02674664
#
# Stress axis : x y z
#
# Youngs Moduli (GPa) = 50.83816 39.40190 72.13666
#
# Poissons Ratio (x) = 0.37572 0.16048
# Poissons Ratio (y) = 0.48477 0.31182
# Poissons Ratio (z) = 0.11310 0.17032
#
# Static dielectric constant tensor:
#      x y z
#    x 1.608660 0.000000 -0.017070 
#    y 0.000000 1.577820 0.000000 
#    z -0.017070 0.000000 1.697040 
# 
# From -- ./inp_files/199873.got.cif
#   From: 2010.05.17/outbox.cif.g08.bks.cpg/sg12_100_cif.got.tgz:199873.got - 2010.06.03 13:09:07.
