data_PCOD9219174
_publ_section_title
;
Structure prediction by ZEFSAII (Michael W. Deem and Ramdas Pophale) SiO2 
 PCOD9219174
Probable space group: C 2/M
;
_chemical_formula_sum "Si O2"
_cell_formula_units_Z 36
_cell_length_a 16.004438
_cell_length_b 10.851566
_cell_length_c 9.677980
_cell_angle_alpha 90.000000
_cell_angle_beta 62.069172
_cell_angle_gamma 90.000000
_cell_volume 1485.015098
_symmetry_space_group_name_H-M "C 2/M"
_symmetry_group_IT_number 12
_symmetry_cell_setting 'monoclinic'
loop_
_space_group_symop_operation_xyz
x,y,z
-x,y,-z
-x,-y,-z
x,-y,z
1/2+x,1/2+y,z
1/2-x,1/2+y,-z
1/2-x,1/2-y,-z
1/2+x,1/2-y,z
loop_
_atom_site_type_symbol
_atom_site_label
_atom_site_fract_x
_atom_site_fract_y
_atom_site_fract_z
Si Si1 0.316270 0.734792 0.788830
Si Si2 0.000000 0.707698 0.500000
Si Si3 0.392742 0.500000 0.365098
Si Si4 0.956459 0.142076 0.890254
Si Si5 0.268900 0.000000 0.274443
Si Si6 0.738523 0.000000 0.256074
Si Si7 0.923257 0.500000 0.383880
O O1 0.401826 0.726272 0.609535
O O2 0.370455 0.713643 0.890054
O O3 0.246622 0.623416 0.802797
O O4 0.274766 0.871313 0.810451
O O5 0.984465 0.618485 0.377948
O O6 0.462429 0.617218 0.289750
O O7 0.317475 0.500000 0.545811
O O8 0.332797 0.500000 0.271796
O O9 0.924804 0.000000 0.940167
O O10 0.000000 0.189802 0.000000
O O11 0.367468 0.000000 0.283054
O O12 0.657269 0.000000 0.436294
#
# Coordination Sequence:
#
# PCOD9219174 Si02
#       7
#     8   4   4   8   4   4   4
#     4  11  20  34  53  81 105 138 171 217 251 311
#     4   9  18  31  52  74 112 140 168 196 264 308
#     4   9  18  34  55  79 102 139 171 215 251 313
#     4   9  19  36  58  73  99 135 182 217 260 298
#     4  11  20  30  54  84 107 130 180 210 249 302
#     4   9  21  34  49  75 117 136 159 208 277 300
#     4   8  18  34  46  75 114 150 156 199 259 324
#
# _framework density 24.242177999999999
#
# number of rings (size 3 to 8) (size 9 to 14) (size 15 to 20)
#    0.667    1.778    1.111    2.000    0.000   11.111 
#    0.000    1.667    0.000    0.000    0.000    0.000 
#    0.000    0.000    0.000    0.000    0.000    0.000 
#
# Total GULP energy -100551.624190 kJ/mol
# GULP energy per Si atom -5586.201344 kJ/mol
# Density = 2.418700 g / cm^3
# Si number density = 24.242178 Si / 1000 Ang^3
#
#
#
# Elastic Constant Matrix: (Units=GPa)
#
#
# Indices 1 2 3 4 5 6 
#
# 1 143.9660 93.9028 16.3828 0.0000 56.9058 0.0000
# 2 93.9028 153.8489 25.6405 0.0000 45.3868 0.0000
# 3 16.3828 25.6405 92.4241 0.0000 7.8500 0.0000
# 4 0.0000 0.0000 0.0000 65.0521 0.0000 90.8319
# 5 56.9058 45.3868 7.8500 0.0000 60.9774 0.0000
# 6 0.0000 0.0000 0.0000 90.8319 0.0000 162.4662
#
#
#
# Elastic Compliance Matrix: (Units=1/GPa)
#
#
# Indices 1 2 3 4 5 6 
#
# 1 0.014550 -0.006232 -0.000092 0.000000 -0.008929 0.000000
# 2 -0.006232 0.011306 -0.001831 0.000000 -0.002364 0.000000
# 3 -0.000092 -0.001831 0.011345 0.000000 -0.000012 0.000000
# 4 0.000000 0.000000 0.000000 0.070079 0.000000 -0.039180
# 5 -0.008929 -0.002364 -0.000012 0.000000 0.026493 0.000000
# 6 0.000000 0.000000 0.000000 -0.039180 0.000000 0.028060
#
#
# Mechanical properties :
#
#
# Convention : Reuss Voigt Hill
#
# Bulk Modulus (GPa) = 47.86548 73.56571 60.71560
# Shear Modulus (GPa) = 27.01141 74.65333 50.83237
#
# Velocity S-wave (km/s) = 3.34163 5.55533 4.58411
# Velocity P-wave (km/s) = 5.88865 8.45937 7.28825
#
# Compressibility (1/GPa) = 0.02089188
#
# Stress axis : x y z
#
# Youngs Moduli (GPa) = 68.72659 88.44888 88.14464
#
# Poissons Ratio (x) = 0.55118 0.00811
# Poissons Ratio (y) = 0.42827 0.16141
# Poissons Ratio (z) = 0.00632 0.16196
#
# Static dielectric constant tensor:
#      x y z
#    x 1.911280 0.000000 -0.041300 
#    y 0.000000 1.921640 0.000000 
#    z -0.041300 0.000000 1.990910 
# 
# From -- ./inp_files/152357.got.cif
#   From: 2010.05.17/outbox.cif.g08.bks.cpg/sg12_77_cif.got.tgz:152357.got - 2010.06.03 13:09:07.
