data_PCOD9219144
_publ_section_title
;
Structure prediction by ZEFSAII (Michael W. Deem and Ramdas Pophale) SiO2 
 PCOD9219144
Probable space group: C 2/M
;
_chemical_formula_sum "Si O2"
_cell_formula_units_Z 48
_cell_length_a 20.893025
_cell_length_b 8.723542
_cell_length_c 32.151718
_cell_angle_alpha 90.000000
_cell_angle_beta 29.068493
_cell_angle_gamma 90.000000
_cell_volume 2847.114144
_symmetry_space_group_name_H-M "C 2/M"
_symmetry_group_IT_number 12
_symmetry_cell_setting 'monoclinic'
loop_
_space_group_symop_operation_xyz
x,y,z
-x,y,-z
-x,-y,-z
x,-y,z
1/2+x,1/2+y,z
1/2-x,1/2+y,-z
1/2-x,1/2-y,-z
1/2+x,1/2-y,z
loop_
_atom_site_type_symbol
_atom_site_label
_atom_site_fract_x
_atom_site_fract_y
_atom_site_fract_z
Si Si1 0.805922 0.180949 0.583451
Si Si2 0.258699 0.816048 0.948540
Si Si3 0.683614 0.682117 0.780466
Si Si4 0.507352 0.183516 0.044272
Si Si5 0.936194 0.818667 0.601523
Si Si6 0.556055 0.185787 0.768700
O O1 0.870798 0.192712 0.592604
O O2 0.658351 0.240410 0.674965
O O3 0.914835 0.242976 0.489406
O O4 0.796373 0.000000 0.579277
O O5 0.403693 0.776219 0.848763
O O6 0.247354 0.000000 0.956666
O O7 0.250000 0.750000 0.000000
O O8 0.140703 0.748144 0.988693
O O9 0.673947 0.500000 0.785607
O O10 0.613981 0.749215 0.860614
O O11 0.835208 0.733615 0.688911
O O12 0.604760 0.747902 0.785164
O O13 0.506417 0.000000 0.048844
O O14 0.500000 0.224443 0.000000
O O15 0.939321 0.000000 0.609898
O O16 0.567329 0.000000 0.765019
#
# Coordination Sequence:
#
# PCOD9219144 Si02
#       6
#     8   8   8   8   8   8
#     4   7  11  22  41  64  90 126 165 197 233 286
#     4  11  21  33  54  79 105 135 169 209 252 303
#     4  11  20  29  46  71  99 130 164 206 254 302
#     4  11  24  40  55  71  97 134 175 217 259 304
#     4   8  13  24  42  62  91 128 164 199 238 291
#     4   9  17  30  48  70  99 133 167 200 241 297
#
# _framework density 16.859176999999999
#
# number of rings (size 3 to 8) (size 9 to 14) (size 15 to 20)
#    0.000    2.500    1.667    4.500    0.000    2.000 
#    0.000    6.667    0.000    0.000    0.000    1.167 
#    0.000    0.000    0.000    0.000    0.000    0.000 
#
# Total GULP energy -133675.677140 kJ/mol
# GULP energy per Si atom -5569.819881 kJ/mol
# Density = 1.682080 g / cm^3
# Si number density = 16.859177 Si / 1000 Ang^3
#
#
#
# Elastic Constant Matrix: (Units=GPa)
#
#
# Indices 1 2 3 4 5 6 
#
# 1 61.0557 26.3254 59.0096 -0.0007 0.2875 0.0008
# 2 26.3254 39.3214 49.9326 -0.0020 0.4919 0.0012
# 3 59.0096 49.9326 205.5078 0.0007 -10.7869 -0.0002
# 4 -0.0007 -0.0020 0.0007 14.0159 0.0002 -7.8086
# 5 0.2875 0.4919 -10.7869 0.0002 14.0817 -0.0001
# 6 0.0008 0.0012 -0.0002 -7.8086 -0.0001 13.6424
#
#
#
# Elastic Compliance Matrix: (Units=1/GPa)
#
#
# Indices 1 2 3 4 5 6 
#
# 1 0.025962 -0.010992 -0.004992 0.000000 -0.003970 -0.000001
# 2 -0.010992 0.042429 -0.007521 0.000006 -0.007019 0.000000
# 3 -0.004992 -0.007521 0.008487 -0.000002 0.006866 0.000000
# 4 0.000000 0.000006 -0.000002 0.104751 -0.000002 0.059957
# 5 -0.003970 -0.007019 0.006866 -0.000002 0.076600 0.000001
# 6 -0.000001 0.000000 0.000000 0.059957 0.000001 0.107619
#
#
# Mechanical properties :
#
#
# Convention : Reuss Voigt Hill
#
# Bulk Modulus (GPa) = 33.48167 64.04668 48.76417
# Shear Modulus (GPa) = 11.82550 19.72249 15.77399
#
# Velocity S-wave (km/s) = 2.65132 3.42400 3.06213
# Velocity P-wave (km/s) = 5.41067 7.32826 6.44123
#
# Compressibility (1/GPa) = 0.02986709
#
# Stress axis : x y z
#
# Youngs Moduli (GPa) = 38.51853 23.56861 117.82259
#
# Poissons Ratio (x) = 0.25907 0.58820
# Poissons Ratio (y) = 0.42339 0.88618
# Poissons Ratio (z) = 0.19229 0.17727
#
# Static dielectric constant tensor:
#      x y z
#    x 1.527830 0.000000 -0.023650 
#    y 0.000000 1.568220 0.000000 
#    z -0.023650 0.000000 1.638200 
# 
# From -- ./inp_files/380139.got.cif
#   From: 2010.05.17/outbox.cif.g08.bks.cpg/sg12_191_cif.got.tgz:380139.got - 2010.06.03 13:09:07.
