data_PCOD9219406
_publ_section_title
;
Structure prediction by ZEFSAII (Michael W. Deem and Ramdas Pophale) SiO2 
 PCOD9219406
Probable space group: C 2/M
;
_chemical_formula_sum "Si O2"
_cell_formula_units_Z 48
_cell_length_a 25.064045
_cell_length_b 20.947560
_cell_length_c 15.209536
_cell_angle_alpha 90.000000
_cell_angle_beta 161.756426
_cell_angle_gamma 90.000000
_cell_volume 2499.910110
_symmetry_space_group_name_H-M "C 2/M"
_symmetry_group_IT_number 12
_symmetry_cell_setting 'monoclinic'
loop_
_space_group_symop_operation_xyz
x,y,z
-x,y,-z
-x,-y,-z
x,-y,z
1/2+x,1/2+y,z
1/2-x,1/2+y,-z
1/2-x,1/2-y,-z
1/2+x,1/2-y,z
loop_
_atom_site_type_symbol
_atom_site_label
_atom_site_fract_x
_atom_site_fract_y
_atom_site_fract_z
Si Si1 0.258541 0.649748 0.247457
Si Si2 0.192829 0.927531 0.840515
Si Si3 0.469229 0.757766 0.762683
Si Si4 0.618364 0.695728 0.825058
Si Si5 0.703162 0.073619 0.331604
Si Si6 0.670571 0.342466 0.316547
O O1 0.210308 0.602925 0.091599
O O2 0.427675 0.689179 0.485027
O O3 0.289656 0.610992 0.385628
O O4 0.104607 0.697251 0.022362
O O5 0.194403 0.874391 0.920258
O O6 0.000000 0.931758 0.500000
O O7 0.244759 0.000000 0.944615
O O8 0.568485 0.717846 0.844586
O O9 0.392534 0.709298 0.711686
O O10 0.316877 0.804621 0.490980
O O11 0.750000 0.750000 0.000000
O O12 0.748602 0.102519 0.497147
O O13 0.752855 0.000000 0.404157
O O14 0.500000 0.078711 0.000000
O O15 0.500000 0.363415 0.000000
#
# Coordination Sequence:
#
# PCOD9219406 Si02
#       6
#     8   8   8   8   8   8
#     4  11  20  37  60  89 124 160 209 259 314 367
#     4   9  19  34  55  83 120 158 198 251 310 366
#     4  11  22  37  61  89 123 162 205 259 315 375
#     4  11  21  35  56  92 123 160 201 258 314 369
#     4  11  23  40  64  93 125 166 214 263 315 385
#     4  11  24  40  62  90 123 166 207 261 320 376
#
# _framework density 19.200689000000001
#
# number of rings (size 3 to 8) (size 9 to 14) (size 15 to 20)
#    0.000    1.333    5.000    1.500    2.333    1.000 
#    0.000    0.000    0.000    0.000    0.000    2.333 
#    0.000    0.000    0.000    0.000    0.000    0.000 
#
# Total GULP energy -133746.003210 kJ/mol
# GULP energy per Si atom -5572.750134 kJ/mol
# Density = 1.915699 g / cm^3
# Si number density = 19.200689 Si / 1000 Ang^3
#
#
#
# Elastic Constant Matrix: (Units=GPa)
#
#
# Indices 1 2 3 4 5 6 
#
# 1 76.7374 35.2721 -0.3604 0.0000 0.5847 0.0000
# 2 35.2721 133.2533 35.0407 0.0000 -7.9556 0.0000
# 3 -0.3604 35.0407 67.5010 0.0000 -8.3924 0.0000
# 4 0.0000 0.0000 0.0000 18.2308 0.0000 4.4720
# 5 0.5847 -7.9556 -8.3924 0.0000 27.4218 0.0000
# 6 0.0000 0.0000 0.0000 4.4720 0.0000 0.6131
#
#
#
# Elastic Compliance Matrix: (Units=1/GPa)
#
#
# Indices 1 2 3 4 5 6 
#
# 1 0.015220 -0.004720 0.002413 0.000000 -0.000956 0.000000
# 2 -0.004720 0.010192 -0.005131 0.000000 0.001487 0.000000
# 3 0.002413 -0.005131 0.017984 0.000000 0.003964 -0.000001
# 4 0.000000 0.000000 0.000000 -0.069505 0.000000 0.506960
# 5 -0.000956 0.001487 0.003964 0.000000 0.038132 -0.000001
# 6 0.000000 0.000000 -0.000001 0.506960 -0.000001 -2.066695
#
#
# Mechanical properties :
#
#
# Convention : Reuss Voigt Hill
#
# Bulk Modulus (GPa) = 35.06484 46.37738 40.72111
# Shear Modulus (GPa) = -2.46270 23.08910 10.31320
#
# Velocity S-wave (km/s) = -1.13375 3.47149 2.32011
# Velocity P-wave (km/s) = 4.07284 6.34624 5.33211
#
# Compressibility (1/GPa) = 0.02851860
#
# Stress axis : x y z
#
# Youngs Moduli (GPa) = 65.70441 98.11608 55.60523
#
# Poissons Ratio (x) = 0.46312 -0.13416
# Poissons Ratio (y) = 0.31014 0.28532
# Poissons Ratio (z) = -0.15853 0.50344
#
# Static dielectric constant tensor:
#      x y z
#    x 1.718760 0.000000 0.013130 
#    y 0.000000 1.689160 0.000000 
#    z 0.013130 0.000000 1.701000 
# 
# From -- ./inp_files/241901.got.cif
#   From: 2010.05.17/outbox.cif.g08.bks.cpg/sg12_121_cif.got.tgz:241901.got - 2010.06.03 13:09:07.
