data_PCOD9219755
_publ_section_title
;
Structure prediction by ZEFSAII (Michael W. Deem and Ramdas Pophale) SiO2 
 PCOD9219755
Probable space group: C 2/M
;
_chemical_formula_sum "Si O2"
_cell_formula_units_Z 56
_cell_length_a 27.461970
_cell_length_b 8.817377
_cell_length_c 13.723141
_cell_angle_alpha 90.000000
_cell_angle_beta 115.360180
_cell_angle_gamma 90.000000
_cell_volume 3002.733529
_symmetry_space_group_name_H-M "C 2/M"
_symmetry_group_IT_number 12
_symmetry_cell_setting 'monoclinic'
loop_
_space_group_symop_operation_xyz
x,y,z
-x,y,-z
-x,-y,-z
x,-y,z
1/2+x,1/2+y,z
1/2-x,1/2+y,-z
1/2-x,1/2-y,-z
1/2+x,1/2-y,z
loop_
_atom_site_type_symbol
_atom_site_label
_atom_site_fract_x
_atom_site_fract_y
_atom_site_fract_z
Si Si1 0.800364 0.318058 0.101254
Si Si2 0.696388 0.679224 0.320733
Si Si3 0.128049 0.815566 0.448545
Si Si4 0.023824 0.817138 0.245815
Si Si5 0.414121 0.180394 0.106480
Si Si6 0.300831 0.318893 0.316188
Si Si7 0.912756 0.178153 0.894133
O O1 0.797011 0.500000 0.095295
O O2 0.856550 0.269424 0.099596
O O3 0.799861 0.261891 0.211706
O O4 0.750000 0.250000 0.000000
O O5 0.710447 0.500000 0.338977
O O6 0.671281 0.729458 0.402541
O O7 0.746917 0.774242 0.328458
O O8 0.647199 0.692527 0.201853
O O9 0.069031 0.766161 0.362290
O O10 0.149300 0.770085 0.572288
O O11 0.127528 0.000000 0.445380
O O12 0.047152 0.775533 0.158709
O O13 0.964746 0.750802 0.206339
O O14 0.021560 0.000000 0.246599
O O15 0.416819 0.000000 0.115300
O O16 0.418247 0.231043 0.997805
O O17 0.302848 0.500000 0.304424
O O18 0.922555 0.000000 0.923074
#
# Coordination Sequence:
#
# PCOD9219755 Si02
#       7
#     8   8   8   8   8   8   8
#     4  11  25  43  59  78 106 139 178 221 266 317
#     4   9  17  32  54  80 112 146 178 216 264 315
#     4   8  17  34  55  81 111 142 179 220 259 311
#     4   9  18  35  57  79 106 141 178 213 254 312
#     4  11  23  36  52  77 107 137 173 222 272 313
#     4  11  21  34  55  82 110 141 180 223 267 314
#     4   9  18  32  53  80 108 141 177 211 255 316
#
# _framework density 18.649673
#
# number of rings (size 3 to 8) (size 9 to 14) (size 15 to 20)
#    0.000    2.286    0.000    4.714    0.000    7.429 
#    0.000    5.000    0.000    4.286    0.000    0.000 
#    0.000    0.000    0.000    0.000    0.000    0.000 
#
# Total GULP energy -156332.615538 kJ/mol
# GULP energy per Si atom -5583.307698 kJ/mol
# Density = 1.860723 g / cm^3
# Si number density = 18.649673 Si / 1000 Ang^3
#
#
#
# Elastic Constant Matrix: (Units=GPa)
#
#
# Indices 1 2 3 4 5 6 
#
# 1 124.3455 35.1401 73.2618 0.0000 29.2929 0.0000
# 2 35.1401 27.0621 33.7083 0.0000 7.0384 0.0000
# 3 73.2618 33.7083 141.9878 0.0000 12.1349 0.0000
# 4 0.0000 0.0000 0.0000 19.4136 0.0000 0.4642
# 5 29.2929 7.0384 12.1349 0.0000 9.7356 0.0000
# 6 0.0000 0.0000 0.0000 0.4642 0.0000 29.5604
#
#
#
# Elastic Compliance Matrix: (Units=1/GPa)
#
#
# Indices 1 2 3 4 5 6 
#
# 1 0.043665 -0.017236 -0.009261 0.000000 -0.107376 0.000000
# 2 -0.017236 0.065378 -0.007857 0.000000 0.014390 0.000000
# 3 -0.009261 -0.007857 0.012110 0.000000 0.018452 0.000000
# 4 0.000000 0.000000 0.000000 0.051530 0.000000 -0.000809
# 5 -0.107376 0.014390 0.018452 0.000000 0.392391 0.000000
# 6 0.000000 0.000000 0.000000 -0.000809 0.000000 0.033842
#
#
# Mechanical properties :
#
#
# Convention : Reuss Voigt Hill
#
# Bulk Modulus (GPa) = 19.06834 64.17952 41.62393
# Shear Modulus (GPa) = 7.29816 21.82762 14.56289
#
# Velocity S-wave (km/s) = 1.98035 3.42483 2.79743
# Velocity P-wave (km/s) = 3.93392 7.08005 5.72725
#
# Compressibility (1/GPa) = 0.05244296
#
# Stress axis : x y z
#
# Youngs Moduli (GPa) = 22.90171 15.29578 82.57845
#
# Poissons Ratio (x) = 0.26364 0.76477
# Poissons Ratio (y) = 0.39474 0.64883
# Poissons Ratio (z) = 0.21210 0.12018
#
# Static dielectric constant tensor:
#      x y z
#    x 1.641430 0.000000 0.017120 
#    y 0.000000 1.629000 0.000000 
#    z 0.017120 0.000000 1.643050 
# 
# From -- ./inp_files/180995.got.cif
#   From: 2010.05.17/outbox.cif.g08.bks.cpg/sg12_91_cif.got.tgz:180995.got - 2010.06.03 13:09:07.
