data_PCOD9219709
_publ_section_title
;
Structure prediction by ZEFSAII (Michael W. Deem and Ramdas Pophale) SiO2 
 PCOD9219709
Probable space group: C 2/M
;
_chemical_formula_sum "Si O2"
_cell_formula_units_Z 64
_cell_length_a 8.361246
_cell_length_b 30.809679
_cell_length_c 12.181155
_cell_angle_alpha 90.000000
_cell_angle_beta 77.793477
_cell_angle_gamma 90.000000
_cell_volume 3067.011103
_symmetry_space_group_name_H-M "C 2/M"
_symmetry_group_IT_number 12
_symmetry_cell_setting 'monoclinic'
loop_
_space_group_symop_operation_xyz
x,y,z
-x,y,-z
-x,-y,-z
x,-y,z
1/2+x,1/2+y,z
1/2-x,1/2+y,-z
1/2-x,1/2-y,-z
1/2+x,1/2-y,z
loop_
_atom_site_type_symbol
_atom_site_label
_atom_site_fract_x
_atom_site_fract_y
_atom_site_fract_z
Si Si1 0.657100 0.949513 0.333909
Si Si2 0.390894 0.608556 0.730134
Si Si3 0.237955 0.610298 0.128141
Si Si4 0.651563 0.548705 0.062042
Si Si5 0.570036 0.842240 0.866998
Si Si6 0.921282 0.818729 0.198087
Si Si7 0.741477 0.741001 0.132135
Si Si8 0.231335 0.448639 0.573676
O O1 0.742191 0.922832 0.227235
O O2 0.726916 0.939599 0.444319
O O3 0.459632 0.943501 0.362403
O O4 0.686214 0.000000 0.309188
O O5 0.406371 0.569643 0.816330
O O6 0.231092 0.633240 0.802480
O O7 0.531682 0.646097 0.712683
O O8 0.344221 0.584489 0.624354
O O9 0.382783 0.645672 0.108567
O O10 0.078440 0.638368 0.178760
O O11 0.229957 0.581914 0.019216
O O12 0.717489 0.500000 0.067868
O O13 0.500000 0.546608 0.000000
O O14 0.612480 0.791791 0.856009
O O15 0.500000 0.848536 0.000000
O O16 0.078682 0.787795 0.168852
O O17 0.774009 0.783800 0.201267
O O18 0.750000 0.750000 0.000000
O O19 0.273972 0.500000 0.583886
#
# Coordination Sequence:
#
# PCOD9219709 Si02
#       8
#     8   8   8   8   8   8   8   8
#     4   9  19  36  61  89 119 157 202 254 294 330
#     4  11  21  36  56  85 117 159 197 239 291 350
#     4  12  21  36  56  86 119 156 197 240 290 353
#     4  11  23  36  51  76 124 168 196 229 285 355
#     4  11  21  33  54  85 120 149 193 241 292 355
#     4  11  24  36  57  82 117 151 190 239 291 354
#     4  11  23  37  57  82 114 158 195 238 299 352
#     4   9  18  37  61  88 120 155 204 253 293 334
#
# _framework density 20.867222000000002
#
# number of rings (size 3 to 8) (size 9 to 14) (size 15 to 20)
#    0.000    1.375    3.750    4.125    3.500    0.000 
#    0.000    1.250    0.000    1.500    0.000   15.750 
#    0.000    0.000    0.000    0.000    0.000    0.000 
#
# Total GULP energy -178289.662502 kJ/mol
# GULP energy per Si atom -5571.551953 kJ/mol
# Density = 2.081973 g / cm^3
# Si number density = 20.867222 Si / 1000 Ang^3
#
#
#
# Elastic Constant Matrix: (Units=GPa)
#
#
# Indices 1 2 3 4 5 6 
#
# 1 51.9749 40.7067 10.6937 0.0000 10.8252 0.0000
# 2 40.7067 139.6356 48.0344 0.0000 23.6401 0.0000
# 3 10.6937 48.0344 62.9907 0.0000 11.6309 0.0000
# 4 0.0000 0.0000 0.0000 19.9955 0.0000 15.3209
# 5 10.8252 23.6401 11.6309 0.0000 21.2822 0.0000
# 6 0.0000 0.0000 0.0000 15.3209 0.0000 42.7031
#
#
#
# Elastic Compliance Matrix: (Units=1/GPa)
#
#
# Indices 1 2 3 4 5 6 
#
# 1 0.025744 -0.007228 0.002310 0.000000 -0.006328 0.000000
# 2 -0.007228 0.012946 -0.007417 0.000000 -0.006650 0.000000
# 3 0.002310 -0.007417 0.022061 0.000000 -0.004993 0.000000
# 4 0.000000 0.000000 0.000000 0.068972 0.000000 -0.024746
# 5 -0.006328 -0.006650 -0.004993 0.000000 0.060322 0.000000
# 6 0.000000 0.000000 0.000000 -0.024746 0.000000 0.032296
#
#
# Mechanical properties :
#
#
# Convention : Reuss Voigt Hill
#
# Bulk Modulus (GPa) = 27.71600 50.38565 39.05082
# Shear Modulus (GPa) = 19.30219 27.14057 23.22138
#
# Velocity S-wave (km/s) = 3.04468 3.61034 3.33951
# Velocity P-wave (km/s) = 5.06666 6.44807 5.79865
#
# Compressibility (1/GPa) = 0.03608024
#
# Stress axis : x y z
#
# Youngs Moduli (GPa) = 38.84416 77.24384 45.32861
#
# Poissons Ratio (x) = 0.55833 -0.10471
# Poissons Ratio (y) = 0.28077 0.33621
# Poissons Ratio (z) = -0.08973 0.57293
#
# Static dielectric constant tensor:
#      x y z
#    x 1.891620 0.000000 0.051970 
#    y 0.000000 1.767900 0.000000 
#    z 0.051970 0.000000 1.732800 
# 
# From -- ./inp_files/125777.got.cif
#   From: 2010.05.17/outbox.cif.g08.bks.cpg/sg12_63_cif.got.tgz:125777.got - 2010.06.03 13:09:07.
