data_PCOD9219046
_publ_section_title
;
Structure prediction by ZEFSAII (Michael W. Deem and Ramdas Pophale) SiO2 
 PCOD9219046
Probable space group: C 2/M
;
_chemical_formula_sum "Si O2"
_cell_formula_units_Z 50
_cell_length_a 12.667526
_cell_length_b 25.494707
_cell_length_c 8.751441
_cell_angle_alpha 90.000000
_cell_angle_beta 126.874200
_cell_angle_gamma 90.000000
_cell_volume 2260.929005
_symmetry_space_group_name_H-M "C 2/M"
_symmetry_group_IT_number 12
_symmetry_cell_setting 'monoclinic'
loop_
_space_group_symop_operation_xyz
x,y,z
-x,y,-z
-x,-y,-z
x,-y,z
1/2+x,1/2+y,z
1/2-x,1/2+y,-z
1/2-x,1/2-y,-z
1/2+x,1/2-y,z
loop_
_atom_site_type_symbol
_atom_site_label
_atom_site_fract_x
_atom_site_fract_y
_atom_site_fract_z
Si Si1 0.000000 0.500000 0.000000
Si Si2 0.651976 0.091894 0.301101
Si Si3 0.009237 0.702862 0.181178
Si Si4 0.865032 0.149087 0.299729
Si Si5 0.650372 0.236505 0.577148
Si Si6 0.251190 0.338146 0.892685
Si Si7 0.840660 0.439525 0.356380
O O1 0.061572 0.545364 0.165145
O O2 0.566804 0.144353 0.243491
O O3 0.758058 0.107008 0.263305
O O4 0.708179 0.076587 0.516206
O O5 0.114929 0.736683 0.367743
O O6 0.860870 0.695299 0.113726
O O7 0.000000 0.720519 0.000000
O O8 0.829326 0.206065 0.337908
O O9 0.000000 0.134712 0.500000
O O10 0.866634 0.156256 0.117946
O O11 0.500000 0.218446 0.500000
O O12 0.751192 0.194548 0.735201
O O13 0.208640 0.396664 0.807472
O O14 0.805658 0.500000 0.290628
O O15 0.000000 0.436028 0.500000
#
# Coordination Sequence:
#
# PCOD9219046 Si02
#       7
#     2   8   8   8   8   8   8
#     4  12  24  40  72 104 118 158 196 286 340 364
#     4  12  22  39  63  93 135 153 212 263 322 384
#     4  11  19  36  61  99 129 159 206 278 324 366
#     4  11  25  43  59  88 130 180 218 252 306 391
#     4   9  20  37  62  90 129 167 216 262 323 374
#     4  11  19  38  63  89 127 166 211 270 319 370
#     4  11  22  36  63  98 128 152 198 271 344 379
#
# _framework density 22.114803999999999
#
# number of rings (size 3 to 8) (size 9 to 14) (size 15 to 20)
#    0.000    1.120    6.400    0.960    0.000    0.640 
#    0.000    1.200    0.000    0.960    0.000    0.000 
#    0.000    0.000    0.000    0.000    0.000    0.000 
#
# Total GULP energy -139428.094479 kJ/mol
# GULP energy per Si atom -5577.123779 kJ/mol
# Density = 2.206447 g / cm^3
# Si number density = 22.114804 Si / 1000 Ang^3
#
#
#
# Elastic Constant Matrix: (Units=GPa)
#
#
# Indices 1 2 3 4 5 6 
#
# 1 19.9871 4.0100 13.6287 0.0000 -7.7845 0.0000
# 2 4.0100 103.4870 54.3962 0.0000 -12.1463 0.0000
# 3 13.6287 54.3962 180.5318 0.0000 -26.7250 0.0000
# 4 0.0000 0.0000 0.0000 37.1405 0.0000 -4.9989
# 5 -7.7845 -12.1463 -26.7250 0.0000 26.8247 0.0000
# 6 0.0000 0.0000 0.0000 -4.9989 0.0000 1.0497
#
#
#
# Elastic Compliance Matrix: (Units=1/GPa)
#
#
# Indices 1 2 3 4 5 6 
#
# 1 0.057178 0.000747 -0.002387 0.000000 0.014553 0.000000
# 2 0.000747 0.011589 -0.003213 0.000000 0.002263 0.000000
# 3 -0.002387 -0.003213 0.007472 0.000000 0.005296 0.000000
# 4 0.000000 0.000000 0.000000 0.074995 0.000000 0.357149
# 5 0.014553 0.002263 0.005296 0.000000 0.047803 0.000000
# 6 0.000000 0.000000 0.000000 0.357149 0.000000 2.653523
#
#
# Mechanical properties :
#
#
# Convention : Reuss Voigt Hill
#
# Bulk Modulus (GPa) = 15.03032 49.78621 32.40827
# Shear Modulus (GPa) = 1.73344 28.46769 15.10056
#
# Velocity S-wave (km/s) = 0.88631 3.59174 2.61593
# Velocity P-wave (km/s) = 2.80333 6.30574 4.87960
#
# Compressibility (1/GPa) = 0.06653218
#
# Stress axis : x y z
#
# Youngs Moduli (GPa) = 17.48914 86.29120 133.84033
#
# Poissons Ratio (x) = -0.06449 0.31952
# Poissons Ratio (y) = -0.01307 0.43006
# Poissons Ratio (z) = 0.04175 0.27727
#
# Static dielectric constant tensor:
#      x y z
#    x 2.039900 0.000000 -0.078380 
#    y 0.000000 1.748280 0.000000 
#    z -0.078380 0.000000 1.894090 
# 
# From -- ./inp_files/54374.got.cif
#   From: 2010.05.17/outbox.cif.g08.bks.cpg/sg12_28_cif.got.tgz:54374.got - 2010.06.03 13:09:07.
