data_PCOD9219464
_publ_section_title
;
Structure prediction by ZEFSAII (Michael W. Deem and Ramdas Pophale) SiO2 
 PCOD9219464
Probable space group: C 2/M
;
_chemical_formula_sum "Si O2"
_cell_formula_units_Z 58
_cell_length_a 26.252046
_cell_length_b 11.121594
_cell_length_c 14.547404
_cell_angle_alpha 90.000000
_cell_angle_beta 142.279017
_cell_angle_gamma 90.000000
_cell_volume 2598.585826
_symmetry_space_group_name_H-M "C 2/M"
_symmetry_group_IT_number 12
_symmetry_cell_setting 'monoclinic'
loop_
_space_group_symop_operation_xyz
x,y,z
-x,y,-z
-x,-y,-z
x,-y,z
1/2+x,1/2+y,z
1/2-x,1/2+y,-z
1/2-x,1/2-y,-z
1/2+x,1/2-y,z
loop_
_atom_site_type_symbol
_atom_site_label
_atom_site_fract_x
_atom_site_fract_y
_atom_site_fract_z
Si Si1 0.477829 0.130631 0.861861
Si Si2 0.746456 0.132818 0.680035
Si Si3 0.942720 0.860968 0.294861
Si Si4 0.500000 0.500000 0.000000
Si Si5 0.228070 0.857563 0.897393
Si Si6 0.871158 0.163617 0.700735
Si Si7 0.373421 0.639549 0.486943
Si Si8 0.132241 0.229560 0.000842
O O1 0.389911 0.195060 0.728497
O O2 0.476343 0.000000 0.816171
O O3 0.500000 0.121098 0.000000
O O4 0.549677 0.208599 0.919013
O O5 0.787696 0.138296 0.637934
O O6 0.690189 0.249779 0.617591
O O7 0.824062 0.144742 0.862204
O O8 0.707933 0.000000 0.638280
O O9 0.869402 0.829441 0.262574
O O10 0.036041 0.813518 0.419139
O O11 0.957959 0.000000 0.331492
O O12 0.896770 0.840685 0.131672
O O13 0.554157 0.602409 0.134563
O O14 0.299449 0.832017 0.925247
O O15 0.232240 0.000000 0.930990
O O16 0.250000 0.750000 0.000000
O O17 0.876148 0.127119 0.602025
O O18 0.354893 0.500000 0.426863
#
# Coordination Sequence:
#
# PCOD9219464 Si02
#       8
#     8   8   8   2   8   8   8   8
#     4  11  22  34  53  90 126 155 193 245 305 360
#     4  12  26  41  60  91 126 167 213 258 309 373
#     4   9  19  37  64  92 118 153 204 257 309 370
#     4  12  20  36  66  92 108 148 214 258 296 352
#     4   9  19  36  61  95 127 156 199 258 322 376
#     4  12  22  38  62  88 121 160 202 255 301 364
#     4  11  24  41  62  87 124 168 207 253 315 374
#     4  11  20  38  64  91 123 161 205 257 311 367
#
# _framework density 22.319832999999999
#
# number of rings (size 3 to 8) (size 9 to 14) (size 15 to 20)
#    0.000    1.241    4.828    1.241    0.000    2.759 
#    0.000    1.379    0.000    3.310    0.000    0.000 
#    0.000    0.000    0.000    0.000    0.000    0.000 
#
# Total GULP energy -161439.940405 kJ/mol
# GULP energy per Si atom -5566.894497 kJ/mol
# Density = 2.226903 g / cm^3
# Si number density = 22.319833 Si / 1000 Ang^3
#
#
#
# Elastic Constant Matrix: (Units=GPa)
#
#
# Indices 1 2 3 4 5 6 
#
# 1 60.7716 25.5095 17.8935 0.0000 20.5315 0.0000
# 2 25.5095 135.7180 40.9644 0.0000 16.2983 0.0000
# 3 17.8935 40.9644 94.1587 0.0000 1.9895 0.0000
# 4 0.0000 0.0000 0.0000 31.7705 0.0000 11.4593
# 5 20.5315 16.2983 1.9895 0.0000 33.2155 0.0000
# 6 0.0000 0.0000 0.0000 11.4593 0.0000 14.2197
#
#
#
# Elastic Compliance Matrix: (Units=1/GPa)
#
#
# Indices 1 2 3 4 5 6 
#
# 1 0.022473 -0.001695 -0.003262 0.000000 -0.012864 0.000000
# 2 -0.001695 0.009160 -0.003595 0.000000 -0.003232 0.000000
# 3 -0.003262 -0.003595 0.012740 0.000000 0.003017 0.000000
# 4 0.000000 0.000000 0.000000 0.044374 0.000000 -0.035760
# 5 -0.012864 -0.003232 0.003017 0.000000 0.039463 0.000000
# 6 0.000000 0.000000 0.000000 -0.035760 0.000000 0.099143
#
#
# Mechanical properties :
#
#
# Convention : Reuss Voigt Hill
#
# Bulk Modulus (GPa) = 36.66876 51.04256 43.85566
# Shear Modulus (GPa) = 19.72031 29.59320 24.65675
#
# Velocity S-wave (km/s) = 2.97565 3.64520 3.32731
# Velocity P-wave (km/s) = 5.31700 6.37456 5.86964
#
# Compressibility (1/GPa) = 0.02727117
#
# Stress axis : x y z
#
# Youngs Moduli (GPa) = 44.49803 109.17190 78.49081
#
# Poissons Ratio (x) = 0.18501 0.25600
# Poissons Ratio (y) = 0.07541 0.28215
# Poissons Ratio (z) = 0.14513 0.39244
#
# Static dielectric constant tensor:
#      x y z
#    x 1.994090 0.000000 0.009730 
#    y 0.000000 1.850200 0.000000 
#    z 0.009730 0.000000 1.860080 
# 
# From -- ./inp_files/296318.got.cif
#   From: 2010.05.17/outbox.cif.g08.bks.cpg/sg12_149_cif.got.tgz:296318.got - 2010.06.03 13:09:07.
