data_PCOD9219231
_publ_section_title
;
Structure prediction by ZEFSAII (Michael W. Deem and Ramdas Pophale) SiO2 
 PCOD9219231
Probable space group: C 2/M
;
_chemical_formula_sum "Si O2"
_cell_formula_units_Z 64
_cell_length_a 14.977011
_cell_length_b 31.169527
_cell_length_c 17.231267
_cell_angle_alpha 90.000000
_cell_angle_beta 29.639403
_cell_angle_gamma 90.000000
_cell_volume 3978.082120
_symmetry_space_group_name_H-M "C 2/M"
_symmetry_group_IT_number 12
_symmetry_cell_setting 'monoclinic'
loop_
_space_group_symop_operation_xyz
x,y,z
-x,y,-z
-x,-y,-z
x,-y,z
1/2+x,1/2+y,z
1/2-x,1/2+y,-z
1/2-x,1/2-y,-z
1/2+x,1/2-y,z
loop_
_atom_site_type_symbol
_atom_site_label
_atom_site_fract_x
_atom_site_fract_y
_atom_site_fract_z
Si Si1 0.993260 0.207138 0.312161
Si Si2 0.628957 0.867767 0.188146
Si Si3 0.190408 0.175611 0.809591
Si Si4 0.617587 0.792862 0.687838
Si Si5 0.688391 0.774455 0.811612
Si Si6 0.005253 0.132231 0.811850
Si Si7 0.413703 0.049492 0.689152
Si Si8 0.208005 0.950508 0.689150
O O1 0.805687 0.208582 0.499999
O O2 0.993373 0.249999 0.256620
O O3 0.002039 0.163664 0.255651
O O4 0.155872 0.207394 0.250854
O O5 0.665927 0.847122 0.244658
O O6 0.486670 0.836332 0.255643
O O7 0.584459 0.916816 0.242383
O O8 0.812593 0.866207 0.999997
O O9 0.238676 0.224723 0.761322
O O10 0.155243 0.152878 0.755338
O O11 0.000000 0.174240 0.000000
O O12 0.657596 0.792609 0.749138
O O13 0.500000 0.776799 0.000000
O O14 0.069233 0.083182 0.757618
O O15 0.603730 0.052402 0.500001
O O16 0.258785 0.058992 0.741221
O O17 0.389347 0.000000 0.731835
O O18 0.146999 0.000000 0.731832
#
# Coordination Sequence:
#
# PCOD9219231 Si02
#       8
#     8   8   8   8   8   8   8   8
#     4  11  23  36  51  75 104 137 176 215 257 308
#     4  11  20  33  51  75 103 138 178 214 258 307
#     4   9  18  29  46  72 103 135 169 211 255 296
#     4  11  23  36  51  75 104 137 176 215 257 308
#     4  11  21  37  55  72 101 138 176 219 260 301
#     4  11  20  33  51  75 103 138 178 214 258 307
#     4   9  18  32  49  72 104 139 172 210 259 311
#     4   9  18  32  49  72 104 139 172 210 259 311
#
# _framework density 16.088153999999999
#
# number of rings (size 3 to 8) (size 9 to 14) (size 15 to 20)
#    0.000    1.750    3.750    2.625    0.000    1.500 
#    0.000    1.250    0.000    0.000    0.000    0.875 
#    0.000    7.000    0.000    0.000    0.000    0.000 
#
# Total GULP energy -178487.523540 kJ/mol
# GULP energy per Si atom -5577.735111 kJ/mol
# Density = 1.605154 g / cm^3
# Si number density = 16.088154 Si / 1000 Ang^3
#
#
#
# Elastic Constant Matrix: (Units=GPa)
#
#
# Indices 1 2 3 4 5 6 
#
# 1 117.9937 68.3059 32.6399 -0.0027 -1.4606 0.0037
# 2 68.3059 125.3970 34.9443 0.0004 -1.1296 0.0002
# 3 32.6399 34.9443 46.6234 -0.0040 -0.9757 0.0064
# 4 -0.0027 0.0004 -0.0040 23.1129 0.0029 0.1571
# 5 -1.4606 -1.1296 -0.9757 0.0029 21.2460 -0.0032
# 6 0.0037 0.0002 0.0064 0.1571 -0.0032 18.3555
#
#
#
# Elastic Compliance Matrix: (Units=1/GPa)
#
#
# Indices 1 2 3 4 5 6 
#
# 1 0.013201 -0.005833 -0.004862 0.000001 0.000374 -0.000001
# 2 -0.005833 0.012658 -0.005403 -0.000002 0.000024 0.000003
# 3 -0.004862 -0.005403 0.028917 0.000005 0.000706 -0.000009
# 4 0.000001 -0.000002 0.000005 0.043268 -0.000006 -0.000370
# 5 0.000374 0.000024 0.000706 -0.000006 0.047127 0.000008
# 6 -0.000001 0.000003 -0.000009 -0.000370 0.000008 0.054483
#
#
# Mechanical properties :
#
#
# Convention : Reuss Voigt Hill
#
# Bulk Modulus (GPa) = 44.28811 62.42158 53.35484
# Shear Modulus (GPa) = 20.88755 22.81782 21.85269
#
# Velocity S-wave (km/s) = 3.60713 3.77012 3.68952
# Velocity P-wave (km/s) = 6.70348 7.60498 7.16841
#
# Compressibility (1/GPa) = 0.02257942
#
# Stress axis : x y z
#
# Youngs Moduli (GPa) = 75.75098 79.00342 34.58160
#
# Poissons Ratio (x) = 0.46079 0.16815
# Poissons Ratio (y) = 0.44182 0.18685
# Poissons Ratio (z) = 0.36834 0.42688
#
# Static dielectric constant tensor:
#      x y z
#    x 1.533410 0.000000 0.000340 
#    y 0.000000 1.556280 0.000000 
#    z 0.000340 0.000000 1.543360 
# 
# From -- ./inp_files/273184.got.cif
#   From: 2010.05.17/outbox.cif.g08.bks.cpg/sg12_137_cif.got.tgz:273184.got - 2010.06.03 13:09:07.
