data_PCOD9219641
_publ_section_title
;
Structure prediction by ZEFSAII (Michael W. Deem and Ramdas Pophale) SiO2 
 PCOD9219641
Probable space group: C 2/M
;
_chemical_formula_sum "Si O2"
_cell_formula_units_Z 40
_cell_length_a 23.919605
_cell_length_b 7.588620
_cell_length_c 19.168577
_cell_angle_alpha 90.000000
_cell_angle_beta 143.726518
_cell_angle_gamma 90.000000
_cell_volume 2058.563618
_symmetry_space_group_name_H-M "C 2/M"
_symmetry_group_IT_number 12
_symmetry_cell_setting 'monoclinic'
loop_
_space_group_symop_operation_xyz
x,y,z
-x,y,-z
-x,-y,-z
x,-y,z
1/2+x,1/2+y,z
1/2-x,1/2+y,-z
1/2-x,1/2-y,-z
1/2+x,1/2-y,z
loop_
_atom_site_type_symbol
_atom_site_label
_atom_site_fract_x
_atom_site_fract_y
_atom_site_fract_z
Si Si1 0.856502 0.285179 0.818179
Si Si2 0.145141 0.784296 0.607900
Si Si3 0.046913 0.209949 0.650517
Si Si4 0.047084 0.715493 0.940270
Si Si5 0.639270 0.792002 0.891061
O O1 0.855924 0.500000 0.816513
O O2 0.750543 0.224127 0.696446
O O3 0.939951 0.228987 0.850037
O O4 0.888935 0.233778 0.928880
O O5 0.113994 0.728064 0.654633
O O6 0.059724 0.726016 0.471670
O O7 0.147664 0.000000 0.609544
O O8 0.088573 0.243893 0.768075
O O9 0.042996 0.000000 0.638144
O O10 0.047115 0.500000 0.939563
O O11 0.089106 0.782113 0.909904
O O12 0.631804 0.000000 0.889923
O O13 0.750000 0.750000 0.000000
#
# Coordination Sequence:
#
# PCOD9219641 Si02
#       5
#     8   8   8   8   8
#     4   8  12  23  43  66  88 114 148 188 224 256
#     4   8  14  26  47  69  91 119 153 188 221 258
#     4   9  17  30  47  70  94 118 150 187 222 264
#     4   8  15  25  41  66  92 113 145 189 226 259
#     4  11  21  32  46  67  93 120 147 184 229 273
#
# _framework density 19.431025000000002
#
# number of rings (size 3 to 8) (size 9 to 14) (size 15 to 20)
#    0.000    3.200    0.000    4.200    0.000    3.200 
#    0.000    3.000    0.000    0.000    0.000   28.000 
#    0.000    0.000    0.000    0.000    0.000    0.000 
#
# Total GULP energy -111495.371548 kJ/mol
# GULP energy per Si atom -5574.768577 kJ/mol
# Density = 1.938680 g / cm^3
# Si number density = 19.431025 Si / 1000 Ang^3
#
#
#
# Elastic Constant Matrix: (Units=GPa)
#
#
# Indices 1 2 3 4 5 6 
#
# 1 161.7006 -1.3031 121.2811 0.0000 9.2438 0.0000
# 2 -1.3031 35.5858 -0.7302 0.0000 2.2955 0.0000
# 3 121.2811 -0.7302 167.8351 0.0000 19.6362 0.0000
# 4 0.0000 0.0000 0.0000 14.2587 0.0000 -8.3950
# 5 9.2438 2.2955 19.6362 0.0000 35.8796 0.0000
# 6 0.0000 0.0000 0.0000 -8.3950 0.0000 10.2802
#
#
#
# Elastic Compliance Matrix: (Units=1/GPa)
#
#
# Indices 1 2 3 4 5 6 
#
# 1 0.013638 0.000164 -0.010088 0.000000 0.001997 0.000000
# 2 0.000164 0.028240 0.000236 0.000000 -0.001978 0.000000
# 3 -0.010088 0.000236 0.013832 0.000000 -0.004986 0.000000
# 4 0.000000 0.000000 0.000000 0.135077 0.000000 0.110307
# 5 0.001997 -0.001978 -0.004986 0.000000 0.030212 0.000000
# 6 0.000000 0.000000 0.000000 0.110307 0.000000 0.187354
#
#
# Mechanical properties :
#
#
# Convention : Reuss Voigt Hill
#
# Bulk Modulus (GPa) = 27.52303 67.06858 47.29580
# Shear Modulus (GPa) = 11.36777 28.47528 19.92153
#
# Velocity S-wave (km/s) = 2.42137 3.83228 3.20542
# Velocity P-wave (km/s) = 4.69176 7.36023 6.17193
#
# Compressibility (1/GPa) = 0.03633321
#
# Stress axis : x y z
#
# Youngs Moduli (GPa) = 73.32695 35.41136 72.29508
#
# Poissons Ratio (x) = -0.00579 0.72929
# Poissons Ratio (y) = -0.01199 -0.01707
# Poissons Ratio (z) = 0.73970 -0.00836
#
# Static dielectric constant tensor:
#      x y z
#    x 1.686640 0.000000 0.012820 
#    y 0.000000 1.742860 0.000000 
#    z 0.012820 0.000000 1.641280 
# 
# From -- ./inp_files/222285.got.cif
#   From: 2010.05.17/outbox.cif.g08.bks.cpg/sg12_112_cif.got.tgz:222285.got - 2010.06.03 13:09:07.
