data_PCOD9219318
_publ_section_title
;
Structure prediction by ZEFSAII (Michael W. Deem and Ramdas Pophale) SiO2 
 PCOD9219318
Probable space group: C 2/M
;
_chemical_formula_sum "Si O2"
_cell_formula_units_Z 40
_cell_length_a 20.122072
_cell_length_b 21.754299
_cell_length_c 14.804474
_cell_angle_alpha 90.000000
_cell_angle_beta 18.319719
_cell_angle_gamma 90.000000
_cell_volume 2036.956124
_symmetry_space_group_name_H-M "C 2/M"
_symmetry_group_IT_number 12
_symmetry_cell_setting 'monoclinic'
loop_
_space_group_symop_operation_xyz
x,y,z
-x,y,-z
-x,-y,-z
x,-y,z
1/2+x,1/2+y,z
1/2-x,1/2+y,-z
1/2-x,1/2-y,-z
1/2+x,1/2-y,z
loop_
_atom_site_type_symbol
_atom_site_label
_atom_site_fract_x
_atom_site_fract_y
_atom_site_fract_z
Si Si1 0.512157 0.666445 0.317575
Si Si2 0.372628 0.796262 0.574861
Si Si3 0.166356 0.568468 0.703120
Si Si4 0.497611 0.740188 0.842737
Si Si5 0.060799 0.365334 0.158259
O O1 0.436444 0.724922 0.473573
O O2 0.330649 0.621755 0.515997
O O3 0.592576 0.703194 0.126198
O O4 0.699196 0.626344 0.119136
O O5 0.500000 0.816767 0.500000
O O6 0.432131 0.837757 0.410788
O O7 0.123225 0.793004 0.920291
O O8 0.261675 0.500000 0.576813
O O9 0.055440 0.582894 0.749775
O O10 0.000000 0.568957 0.000000
O O11 0.750000 0.750000 0.500000
O O12 0.420680 0.809671 0.936993
#
# Coordination Sequence:
#
# PCOD9219318 Si02
#       5
#     8   8   8   8   8
#     4  11  22  36  62  91 128 159 202 254 306 375
#     4  11  20  35  62  99 132 161 198 244 317 394
#     4  11  26  44  62  86 119 166 219 266 311 361
#     4  11  20  35  56  98 131 161 195 245 314 378
#     4  11  22  39  63  92 127 164 205 252 312 376
#
# _framework density 19.637142999999998
#
# number of rings (size 3 to 8) (size 9 to 14) (size 15 to 20)
#    0.000    1.000    6.000    2.400    0.000    3.200 
#    0.000    2.000    0.000    3.000    0.000    0.000 
#    0.000    0.000    0.000    0.000    0.000    0.000 
#
# Total GULP energy -111405.112258 kJ/mol
# GULP energy per Si atom -5570.255613 kJ/mol
# Density = 1.959245 g / cm^3
# Si number density = 19.637143 Si / 1000 Ang^3
#
#
#
# Elastic Constant Matrix: (Units=GPa)
#
#
# Indices 1 2 3 4 5 6 
#
# 1 101.9890 4.3213 31.0476 0.0560 -5.5030 0.0075
# 2 4.3213 54.9598 -9.6955 0.0952 -0.8003 0.0519
# 3 31.0476 -9.6955 96.7259 0.0276 7.2058 0.0204
# 4 0.0560 0.0952 0.0276 -1.2922 -0.0280 -8.6935
# 5 -5.5030 -0.8003 7.2058 -0.0280 40.1108 -0.0059
# 6 0.0075 0.0519 0.0204 -8.6935 -0.0059 17.8911
#
#
#
# Elastic Compliance Matrix: (Units=1/GPa)
#
#
# Indices 1 2 3 4 5 6 
#
# 1 0.011178 -0.001536 -0.003906 0.000048 0.002205 0.000028
# 2 -0.001536 0.018733 0.002390 0.000410 -0.000266 0.000143
# 3 -0.003906 0.002390 0.012029 0.000107 -0.002649 0.000032
# 4 0.000048 0.000410 0.000107 -0.181263 -0.000144 -0.088079
# 5 0.002205 -0.000266 -0.002649 -0.000144 0.025704 -0.000059
# 6 0.000028 0.000143 0.000032 -0.088079 -0.000059 0.013094
#
#
# Mechanical properties :
#
#
# Convention : Reuss Voigt Hill
#
# Bulk Modulus (GPa) = 27.90442 33.89130 30.89786
# Shear Modulus (GPa) = -60.62442 26.54200 -17.04121
#
# Velocity S-wave (km/s) = -5.56231 3.68043 -2.94905
# Velocity P-wave (km/s) = 5.19727 5.94617 2.04272
#
# Compressibility (1/GPa) = 0.03583662
#
# Stress axis : x y z
#
# Youngs Moduli (GPa) = 89.46037 53.38210 83.13051
#
# Poissons Ratio (x) = 0.08200 0.32473
# Poissons Ratio (y) = 0.13741 -0.19872
# Poissons Ratio (z) = 0.34945 -0.12761
#
# Static dielectric constant tensor:
#      x y z
#    x 1.773250 -0.000010 -0.015920 
#    y -0.000010 1.657970 0.000010 
#    z -0.015920 0.000010 1.806390 
# 
# From -- ./inp_files/235136.got.cif
#   From: 2010.05.17/outbox.cif.g08.bks.cpg/sg12_118_cif.got.tgz:235136.got - 2010.06.03 13:09:07.
