data_PCOD9219563
_publ_section_title
;
Structure prediction by ZEFSAII (Michael W. Deem and Ramdas Pophale) SiO2 
 PCOD9219563
Probable space group: C 2/M
;
_chemical_formula_sum "Si O2"
_cell_formula_units_Z 56
_cell_length_a 16.489708
_cell_length_b 21.349675
_cell_length_c 13.609357
_cell_angle_alpha 90.000000
_cell_angle_beta 144.969943
_cell_angle_gamma 90.000000
_cell_volume 2750.162350
_symmetry_space_group_name_H-M "C 2/M"
_symmetry_group_IT_number 12
_symmetry_cell_setting 'monoclinic'
loop_
_space_group_symop_operation_xyz
x,y,z
-x,y,-z
-x,-y,-z
x,-y,z
1/2+x,1/2+y,z
1/2-x,1/2+y,-z
1/2-x,1/2-y,-z
1/2+x,1/2-y,z
loop_
_atom_site_type_symbol
_atom_site_label
_atom_site_fract_x
_atom_site_fract_y
_atom_site_fract_z
Si Si1 0.802406 0.255867 0.165109
Si Si2 0.198385 0.680902 0.417724
Si Si3 0.922019 0.661023 0.020984
Si Si4 0.528691 0.651870 0.418001
Si Si5 0.303405 0.570758 0.097859
Si Si6 0.826974 0.401449 0.233190
Si Si7 0.656918 0.929562 0.529532
O O1 0.822046 0.326414 0.217987
O O2 0.947119 0.217831 0.322807
O O3 0.750000 0.250000 0.000000
O O4 0.679900 0.219791 0.103106
O O5 0.250000 0.750000 0.500000
O O6 0.308462 0.658630 0.444248
O O7 0.204181 0.628518 0.509057
O O8 0.041247 0.680891 0.217582
O O9 0.819458 0.610092 0.969083
O O10 0.000000 0.639135 0.000000
O O11 0.500000 0.630724 0.500000
O O12 0.449535 0.604846 0.266675
O O13 0.303518 0.500000 0.133225
O O14 0.271247 0.573188 0.950532
O O15 0.788590 0.421390 0.305029
O O16 0.986422 0.423994 0.369298
O O17 0.691350 0.000000 0.527299
#
# Coordination Sequence:
#
# PCOD9219563 Si02
#       7
#     8   8   8   8   8   8   8
#     4  11  20  41  65  95 128 169 216 270 335 389
#     4  12  25  41  65 103 135 171 222 276 335 388
#     4  11  24  41  64  95 131 166 218 279 332 388
#     4  11  25  42  65  94 134 173 214 271 335 395
#     4  11  23  44  68  91 126 178 226 266 321 403
#     4  11  21  39  68  97 128 174 221 267 332 404
#     4  11  24  41  66 100 136 173 221 280 338 399
#
# _framework density 20.362435000000001
#
# number of rings (size 3 to 8) (size 9 to 14) (size 15 to 20)
#    0.000    0.857    4.286    5.143    6.000    1.143 
#    0.000    2.143    0.000    1.714    0.000    0.000 
#    0.000    0.000    0.000    0.000    0.000    0.000 
#
# Total GULP energy -156582.219664 kJ/mol
# GULP energy per Si atom -5592.222131 kJ/mol
# Density = 2.031609 g / cm^3
# Si number density = 20.362435 Si / 1000 Ang^3
#
#
#
# Elastic Constant Matrix: (Units=GPa)
#
#
# Indices 1 2 3 4 5 6 
#
# 1 73.1573 10.6271 7.7946 0.0000 -2.6670 0.0000
# 2 10.6271 157.8491 19.7884 0.0000 3.7152 0.0000
# 3 7.7946 19.7884 58.7044 0.0000 -1.3759 0.0000
# 4 0.0000 0.0000 0.0000 5.7316 0.0000 -9.8574
# 5 -2.6670 3.7152 -1.3759 0.0000 38.6256 0.0000
# 6 0.0000 0.0000 0.0000 -9.8574 0.0000 10.1677
#
#
#
# Elastic Compliance Matrix: (Units=1/GPa)
#
#
# Indices 1 2 3 4 5 6 
#
# 1 0.013984 -0.000767 -0.001575 0.000000 0.000983 0.000000
# 2 -0.000767 0.006677 -0.002167 0.000000 -0.000772 0.000000
# 3 -0.001575 -0.002167 0.017991 0.000000 0.000741 0.000000
# 4 0.000000 0.000000 0.000000 -0.261443 0.000000 -0.253463
# 5 0.000983 -0.000772 0.000741 0.000000 0.026058 0.000000
# 6 0.000000 0.000000 0.000000 -0.253463 0.000000 -0.147376
#
#
# Mechanical properties :
#
#
# Convention : Reuss Voigt Hill
#
# Bulk Modulus (GPa) = 33.74498 40.68122 37.21310
# Shear Modulus (GPa) = -15.37458 27.67169 6.14856
#
# Velocity S-wave (km/s) = -2.75079 3.69040 1.73957
# Velocity P-wave (km/s) = 2.55324 6.17905 4.72756
#
# Compressibility (1/GPa) = 0.02963404
#
# Stress axis : x y z
#
# Youngs Moduli (GPa) = 71.50886 149.77612 55.58215
#
# Poissons Ratio (x) = 0.11490 0.08755
# Poissons Ratio (y) = 0.05486 0.12044
# Poissons Ratio (z) = 0.11264 0.32454
#
# Static dielectric constant tensor:
#      x y z
#    x 1.733240 0.000000 -0.024490 
#    y 0.000000 1.739110 0.000000 
#    z -0.024490 0.000000 1.707490 
# 
# From -- ./inp_files/227657.got.cif
#   From: 2010.05.17/outbox.cif.g08.bks.cpg/sg12_114_cif.got.tgz:227657.got - 2010.06.03 13:09:07.
