data_PCOD9219387
_publ_section_title
;
Structure prediction by ZEFSAII (Michael W. Deem and Ramdas Pophale) SiO2 
 PCOD9219387
Probable space group: C 2/M
;
_chemical_formula_sum "Si O2"
_cell_formula_units_Z 56
_cell_length_a 23.462380
_cell_length_b 18.513528
_cell_length_c 22.242961
_cell_angle_alpha 90.000000
_cell_angle_beta 18.549764
_cell_angle_gamma 90.000000
_cell_volume 3073.661370
_symmetry_space_group_name_H-M "C 2/M"
_symmetry_group_IT_number 12
_symmetry_cell_setting 'monoclinic'
loop_
_space_group_symop_operation_xyz
x,y,z
-x,y,-z
-x,-y,-z
x,-y,z
1/2+x,1/2+y,z
1/2-x,1/2+y,-z
1/2-x,1/2-y,-z
1/2+x,1/2-y,z
loop_
_atom_site_type_symbol
_atom_site_label
_atom_site_fract_x
_atom_site_fract_y
_atom_site_fract_z
Si Si1 0.212559 0.315928 0.678974
Si Si2 0.792083 0.835347 0.463983
Si Si3 0.217272 0.581119 0.782729
Si Si4 0.787487 0.684093 0.104051
Si Si5 0.792022 0.835351 0.951905
Si Si6 0.500003 0.801991 0.427427
Si Si7 0.499943 0.086404 0.325015
O O1 0.251548 0.348563 0.574597
O O2 0.267874 0.373636 0.673779
O O3 0.329200 0.244787 0.575560
O O4 0.000026 0.300810 0.896242
O O5 0.750000 0.750000 0.500000
O O6 0.668599 0.882051 0.543864
O O7 0.000034 0.847060 0.243045
O O8 0.285298 0.500000 0.714720
O O9 0.267855 0.626398 0.790476
O O10 0.000000 0.578102 0.000000
O O11 0.670858 0.755240 0.233898
O O12 0.748477 0.651444 0.077678
O O13 0.668484 0.882054 0.119037
O O14 0.750000 0.750000 0.000000
O O15 0.500000 0.808029 0.500000
O O16 0.499969 0.876624 0.390702
O O17 0.499931 0.000000 0.327042
#
# Coordination Sequence:
#
# PCOD9219387 Si02
#       7
#     8   8   8   8   8   8   8
#     4  11  20  36  64  94 127 168 214 264 319 391
#     4  12  21  39  70  98 125 168 216 268 326 398
#     4   9  20  35  53  85 130 168 200 250 320 385
#     4  11  20  36  64  94 127 168 214 264 319 391
#     4  12  21  39  70  98 125 168 216 268 326 398
#     4  12  24  41  68  94 121 167 235 273 319 385
#     4  12  28  45  64  97 138 172 217 283 341 383
#
# _framework density 18.219314000000001
#
# number of rings (size 3 to 8) (size 9 to 14) (size 15 to 20)
#    0.000    0.714    8.571    0.000    0.000    2.000 
#    0.000    1.429    0.000    0.000    0.000    4.000 
#    0.000    0.000    0.000    0.000    0.000    0.000 
#
# Total GULP energy -156472.570325 kJ/mol
# GULP energy per Si atom -5588.306083 kJ/mol
# Density = 1.817785 g / cm^3
# Si number density = 18.219314 Si / 1000 Ang^3
#
#
#
# Elastic Constant Matrix: (Units=GPa)
#
#
# Indices 1 2 3 4 5 6 
#
# 1 107.8016 43.4879 49.4658 0.0066 8.2110 -0.0030
# 2 43.4879 139.9214 45.8450 -0.0100 -1.5312 0.0074
# 3 49.4658 45.8450 127.8199 0.0046 -20.9230 -0.0002
# 4 0.0066 -0.0100 0.0046 18.2845 0.0014 3.5505
# 5 8.2110 -1.5312 -20.9230 0.0014 41.0325 -0.0012
# 6 -0.0030 0.0074 -0.0002 3.5505 -0.0012 23.9160
#
#
#
# Elastic Compliance Matrix: (Units=1/GPa)
#
#
# Indices 1 2 3 4 5 6 
#
# 1 0.012952 -0.002448 -0.004990 -0.000005 -0.005228 0.000003
# 2 -0.002448 0.008624 -0.002196 0.000007 -0.000308 -0.000004
# 3 -0.004990 -0.002196 0.011666 -0.000003 0.006865 0.000001
# 4 -0.000005 0.000007 -0.000003 0.056314 -0.000002 -0.008360
# 5 -0.005228 -0.000308 0.006865 -0.000002 0.028906 0.000001
# 6 0.000003 -0.000004 0.000001 -0.008360 0.000001 0.043054
#
#
# Mechanical properties :
#
#
# Convention : Reuss Voigt Hill
#
# Bulk Modulus (GPa) = 71.56349 72.57115 72.06732
# Shear Modulus (GPa) = 26.96256 32.42956 29.69606
#
# Velocity S-wave (km/s) = 3.85111 4.22353 4.04161
# Velocity P-wave (km/s) = 7.69018 7.98140 7.83714
#
# Compressibility (1/GPa) = 0.01397361
#
# Stress axis : x y z
#
# Youngs Moduli (GPa) = 77.21059 115.95748 85.71766
#
# Poissons Ratio (x) = 0.28382 0.42774
# Poissons Ratio (y) = 0.18898 0.18827
# Poissons Ratio (z) = 0.38528 0.25469
#
# Static dielectric constant tensor:
#      x y z
#    x 1.646650 0.000000 -0.005960 
#    y 0.000000 1.597210 0.000000 
#    z -0.005960 0.000000 1.656140 
# 
# From -- ./inp_files/325999.got.cif
#   From: 2010.05.17/outbox.cif.g08.bks.cpg/sg12_163_cif.got.tgz:325999.got - 2010.06.03 13:09:07.
