data_PCOD9219589
_publ_section_title
;
Structure prediction by ZEFSAII (Michael W. Deem and Ramdas Pophale) SiO2 
 PCOD9219589
Probable space group: C 2/M
;
_chemical_formula_sum "Si O2"
_cell_formula_units_Z 60
_cell_length_a 15.133632
_cell_length_b 17.033969
_cell_length_c 10.925911
_cell_angle_alpha 90.000000
_cell_angle_beta 95.612523
_cell_angle_gamma 90.000000
_cell_volume 2803.042527
_symmetry_space_group_name_H-M "C 2/M"
_symmetry_group_IT_number 12
_symmetry_cell_setting 'monoclinic'
loop_
_space_group_symop_operation_xyz
x,y,z
-x,y,-z
-x,-y,-z
x,-y,z
1/2+x,1/2+y,z
1/2-x,1/2+y,-z
1/2-x,1/2-y,-z
1/2+x,1/2-y,z
loop_
_atom_site_type_symbol
_atom_site_label
_atom_site_fract_x
_atom_site_fract_y
_atom_site_fract_z
Si Si1 0.191847 0.199705 0.302068
Si Si2 0.134213 0.500000 0.494817
Si Si3 0.755255 0.082874 0.049226
Si Si4 0.923078 0.632875 0.074415
Si Si5 0.401185 0.307912 0.967073
Si Si6 0.607214 0.150671 0.657767
Si Si7 0.235674 0.382770 0.320972
Si Si8 0.903039 0.825476 0.457047
O O1 0.129302 0.186313 0.177408
O O2 0.287344 0.158890 0.298148
O O3 0.206283 0.292414 0.319377
O O4 0.150260 0.173263 0.423365
O O5 0.094440 0.571527 0.577978
O O6 0.183209 0.432193 0.414156
O O7 0.720500 0.087398 0.182561
O O8 0.801312 0.000000 0.033516
O O9 0.669683 0.089026 0.951924
O O10 0.824905 0.150910 0.034656
O O11 0.944883 0.643158 0.220416
O O12 0.904956 0.718300 0.012835
O O13 0.000000 0.597353 0.000000
O O14 0.500000 0.340628 0.000000
O O15 0.587361 0.235251 0.591422
O O16 0.341717 0.377166 0.359694
O O17 0.000000 0.856476 0.500000
#
# Coordination Sequence:
#
# PCOD9219589 Si02
#       8
#     8   4   8   8   8   8   8   8
#     4  11  20  42  68  96 128 172 225 267 318 389
#     4  12  22  44  65  94 127 170 222 259 334 397
#     4  12  25  42  68  95 137 182 211 267 341 394
#     4  11  25  44  69 101 128 173 227 278 324 392
#     4  11  24  41  70 101 132 170 225 274 324 389
#     4  11  23  42  68  94 131 173 217 271 328 393
#     4  11  22  42  67  92 127 174 224 266 321 398
#     4  11  24  39  67  98 128 168 223 277 323 377
#
# _framework density 21.405311000000001
#
# number of rings (size 3 to 8) (size 9 to 14) (size 15 to 20)
#    0.000    0.800    6.000    2.800    6.533    0.533 
#    0.000    0.667    2.933    0.000    0.000    0.000 
#    0.000    0.000    0.000    0.000    0.000    0.000 
#
# Total GULP energy -167186.045974 kJ/mol
# GULP energy per Si atom -5572.868199 kJ/mol
# Density = 2.135659 g / cm^3
# Si number density = 21.405311 Si / 1000 Ang^3
#
#
#
# Elastic Constant Matrix: (Units=GPa)
#
#
# Indices 1 2 3 4 5 6 
#
# 1 65.0618 -14.1687 13.4113 0.0000 -0.5816 0.0000
# 2 -14.1687 46.7860 1.1234 0.0000 -5.1991 0.0000
# 3 13.4113 1.1234 105.1241 0.0000 -9.7208 0.0000
# 4 0.0000 0.0000 0.0000 16.0538 0.0000 2.3214
# 5 -0.5816 -5.1991 -9.7208 0.0000 33.0640 0.0000
# 6 0.0000 0.0000 0.0000 2.3214 0.0000 -29.5499
#
#
#
# Elastic Compliance Matrix: (Units=1/GPa)
#
#
# Indices 1 2 3 4 5 6 
#
# 1 0.016965 0.005244 -0.002176 0.000000 0.000483 0.000000
# 2 0.005244 0.023375 -0.000586 0.000000 0.003595 0.000000
# 3 -0.002176 -0.000586 0.010058 0.000000 0.002827 0.000000
# 4 0.000000 0.000000 0.000000 0.061591 0.000000 0.004838
# 5 0.000483 0.003595 0.002827 0.000000 0.031649 0.000000
# 6 0.000000 0.000000 0.000000 0.004838 0.000000 -0.033461
#
#
# Mechanical properties :
#
#
# Convention : Reuss Voigt Hill
#
# Bulk Modulus (GPa) = 18.06321 24.18934 21.12627
# Shear Modulus (GPa) = 40.43097 18.35398 29.39247
#
# Velocity S-wave (km/s) = 4.35078 2.93140 3.70961
# Velocity P-wave (km/s) = 5.80483 4.77312 5.31407
#
# Compressibility (1/GPa) = 0.05536115
#
# Stress axis : x y z
#
# Youngs Moduli (GPa) = 58.94599 42.77989 99.42578
#
# Poissons Ratio (x) = -0.22432 0.21631
# Poissons Ratio (y) = -0.30908 0.05829
# Poissons Ratio (z) = 0.12824 0.02508
#
# Static dielectric constant tensor:
#      x y z
#    x 1.795060 0.000000 0.017530 
#    y 0.000000 1.846140 0.000000 
#    z 0.017530 0.000000 1.793740 
# 
# From -- ./inp_files/145572.got.cif
#   From: 2010.05.17/outbox.cif.g08.bks.cpg/sg12_73_cif.got.tgz:145572.got - 2010.06.03 13:09:07.
