data_PCOD9219420
_publ_section_title
;
Structure prediction by ZEFSAII (Michael W. Deem and Ramdas Pophale) SiO2 
 PCOD9219420
Probable space group: C 2/M
;
_chemical_formula_sum "Si O2"
_cell_formula_units_Z 48
_cell_length_a 19.891426
_cell_length_b 14.652022
_cell_length_c 19.898065
_cell_angle_alpha 90.000000
_cell_angle_beta 152.197244
_cell_angle_gamma 90.000000
_cell_volume 2704.955013
_symmetry_space_group_name_H-M "C 2/M"
_symmetry_group_IT_number 12
_symmetry_cell_setting 'monoclinic'
loop_
_space_group_symop_operation_xyz
x,y,z
-x,y,-z
-x,-y,-z
x,-y,z
1/2+x,1/2+y,z
1/2-x,1/2+y,-z
1/2-x,1/2-y,-z
1/2+x,1/2-y,z
loop_
_atom_site_type_symbol
_atom_site_label
_atom_site_fract_x
_atom_site_fract_y
_atom_site_fract_z
Si Si1 0.363900 0.500000 0.588516
Si Si2 0.130672 0.203052 0.443318
Si Si3 0.142175 0.000000 0.031985
Si Si4 0.709002 0.300401 0.895448
Si Si5 0.650035 0.816200 0.597725
Si Si6 0.340287 0.303491 0.887153
Si Si7 0.300238 0.500000 0.072000
Si Si8 0.805565 0.000000 0.690029
O O1 0.335323 0.594608 0.525084
O O2 0.530718 0.500000 0.759085
O O3 0.288085 0.500000 0.593976
O O4 0.250000 0.250000 0.500000
O O5 0.136175 0.252559 0.520238
O O6 0.964325 0.209583 0.269937
O O7 0.215618 0.000000 0.023071
O O8 0.971182 0.000000 0.862421
O O9 0.179196 0.090738 0.106670
O O10 0.797574 0.255278 0.913705
O O11 0.753155 0.405735 0.944263
O O12 0.750000 0.250000 0.000000
O O13 0.500000 0.839542 0.500000
O O14 0.740349 0.772547 0.737685
O O15 0.731691 0.908455 0.650175
O O16 0.500000 0.294719 0.000000
#
# Coordination Sequence:
#
# PCOD9219420 Si02
#       8
#     4   8   4   8   8   8   4   4
#     4   9  20  38  64  91 114 165 208 246 298 370
#     4  11  23  42  65  90 126 163 210 252 305 373
#     4  11  20  38  62  96 122 165 206 253 307 386
#     4  11  23  42  65  92 122 165 210 254 300 373
#     4  12  24  40  58  94 132 162 200 262 318 364
#     4  12  24  39  63  91 130 165 206 252 316 374
#     4   9  20  38  65  89 121 155 211 251 300 362
#     4  11  20  37  63  92 129 160 203 257 314 374
#
# _framework density 17.745211999999999
#
# number of rings (size 3 to 8) (size 9 to 14) (size 15 to 20)
#    0.000    1.000    6.667    1.000    2.333    0.000 
#    0.000    4.167    0.000    0.000    0.000    0.000 
#    0.000    0.000    0.000    0.000    0.000    0.000 
#
# Total GULP energy -133928.008274 kJ/mol
# GULP energy per Si atom -5580.333678 kJ/mol
# Density = 1.770482 g / cm^3
# Si number density = 17.745212 Si / 1000 Ang^3
#
#
#
# Elastic Constant Matrix: (Units=GPa)
#
#
# Indices 1 2 3 4 5 6 
#
# 1 128.0742 65.6588 24.8456 0.0002 -18.3204 0.0005
# 2 65.6588 137.5454 23.3187 0.0001 -17.0421 0.0006
# 3 24.8456 23.3187 53.9627 0.0002 -25.1916 0.0005
# 4 0.0002 0.0001 0.0002 21.7419 0.0000 18.4258
# 5 -18.3204 -17.0421 -25.1916 0.0000 32.0949 0.0004
# 6 0.0005 0.0006 0.0005 18.4258 0.0004 -15.4999
#
#
#
# Elastic Compliance Matrix: (Units=1/GPa)
#
#
# Indices 1 2 3 4 5 6 
#
# 1 0.010853 -0.004570 -0.001993 0.000000 0.002204 0.000000
# 2 -0.004570 0.009886 -0.001476 0.000000 0.001482 0.000000
# 3 -0.001993 -0.001476 0.030288 -0.000001 0.021852 0.000001
# 4 0.000000 0.000000 -0.000001 0.022912 -0.000001 0.027237
# 5 0.002204 0.001482 0.021852 -0.000001 0.050354 0.000001
# 6 0.000000 0.000000 0.000001 0.027237 0.000001 -0.032138
#
#
# Mechanical properties :
#
#
# Convention : Reuss Voigt Hill
#
# Bulk Modulus (GPa) = 28.61344 60.80317 44.70831
# Shear Modulus (GPa) = 41.70811 21.38465 31.54638
#
# Velocity S-wave (km/s) = 4.85334 3.47521 4.22090
# Velocity P-wave (km/s) = 6.89682 7.10223 7.00028
#
# Compressibility (1/GPa) = 0.03494861
#
# Stress axis : x y z
#
# Youngs Moduli (GPa) = 92.14404 101.15779 33.01643
#
# Poissons Ratio (x) = 0.46225 0.06581
# Poissons Ratio (y) = 0.42106 0.04873
# Poissons Ratio (z) = 0.18367 0.14930
#
# Static dielectric constant tensor:
#      x y z
#    x 1.555020 0.000000 -0.035060 
#    y 0.000000 1.594120 0.000000 
#    z -0.035060 0.000000 1.580930 
# 
# From -- ./inp_files/111796.got.cif
#   From: 2010.05.17/outbox.cif.g08.bks.cpg/sg12_56_cif.got.tgz:111796.got - 2010.06.03 13:09:07.
