data_PCOD9219113
_publ_section_title
;
Structure prediction by ZEFSAII (Michael W. Deem and Ramdas Pophale) SiO2 
 PCOD9219113
Probable space group: C 2/M
;
_chemical_formula_sum "Si O2"
_cell_formula_units_Z 58
_cell_length_a 16.132535
_cell_length_b 20.983248
_cell_length_c 10.536237
_cell_angle_alpha 90.000000
_cell_angle_beta 50.245030
_cell_angle_gamma 90.000000
_cell_volume 2741.994197
_symmetry_space_group_name_H-M "C 2/M"
_symmetry_group_IT_number 12
_symmetry_cell_setting 'monoclinic'
loop_
_space_group_symop_operation_xyz
x,y,z
-x,y,-z
-x,-y,-z
x,-y,z
1/2+x,1/2+y,z
1/2-x,1/2+y,-z
1/2-x,1/2-y,-z
1/2+x,1/2-y,z
loop_
_atom_site_type_symbol
_atom_site_label
_atom_site_fract_x
_atom_site_fract_y
_atom_site_fract_z
Si Si1 0.500000 0.000000 0.000000
Si Si2 0.243204 0.668309 0.753656
Si Si3 0.210285 0.302652 0.371334
Si Si4 0.126182 0.433550 0.343869
Si Si5 0.043525 0.844502 0.821718
Si Si6 0.447531 0.207938 0.238526
Si Si7 0.619441 0.100466 0.069663
Si Si8 0.583046 0.424193 0.536908
O O1 0.435612 0.054767 0.979507
O O2 0.294521 0.738570 0.707715
O O3 0.125665 0.682640 0.806650
O O4 0.313188 0.619445 0.600217
O O5 0.222489 0.633926 0.906177
O O6 0.168086 0.367233 0.353140
O O7 0.332546 0.321253 0.285880
O O8 0.138343 0.286511 0.563816
O O9 0.173012 0.500000 0.353433
O O10 0.144646 0.433381 0.175991
O O11 0.000000 0.434631 0.500000
O O12 0.992309 0.774978 0.843482
O O13 0.036248 0.893810 0.712851
O O14 0.000000 0.868317 0.000000
O O15 0.533360 0.154752 0.187712
O O16 0.500000 0.417730 0.500000
O O17 0.607804 0.500000 0.526628
#
# Coordination Sequence:
#
# PCOD9219113 Si02
#       8
#     2   8   8   8   8   8   8   8
#     4  12  24  40  62 104 130 176 218 250 334 406
#     4  11  22  41  66  96 129 166 222 269 320 385
#     4  11  22  41  68  98 125 172 216 262 326 403
#     4  11  25  42  61  96 139 169 207 267 332 395
#     4  11  23  43  70  94 127 169 220 277 329 383
#     4  11  19  41  68  99 127 162 215 263 319 405
#     4  12  24  39  68 100 133 172 212 264 326 403
#     4  11  26  44  64  93 128 174 225 276 325 380
#
# _framework density 21.152488999999999
#
# number of rings (size 3 to 8) (size 9 to 14) (size 15 to 20)
#    0.000    0.828    6.207    2.483    0.966    4.138 
#    0.000    1.379    0.000    0.000    0.000    0.000 
#    0.000    0.000    0.000    0.000    0.000    0.000 
#
# Total GULP energy -161673.067632 kJ/mol
# GULP energy per Si atom -5574.933367 kJ/mol
# Density = 2.110434 g / cm^3
# Si number density = 21.152489 Si / 1000 Ang^3
#
#
#
# Elastic Constant Matrix: (Units=GPa)
#
#
# Indices 1 2 3 4 5 6 
#
# 1 24.8352 38.6757 11.7710 0.0000 12.4144 0.0000
# 2 38.6757 192.0194 44.3637 0.0000 10.3888 0.0000
# 3 11.7710 44.3637 127.7837 0.0000 22.7630 0.0000
# 4 0.0000 0.0000 0.0000 54.6976 0.0000 -6.1441
# 5 12.4144 10.3888 22.7630 0.0000 24.5123 0.0000
# 6 0.0000 0.0000 0.0000 -6.1441 0.0000 32.1518
#
#
#
# Elastic Compliance Matrix: (Units=1/GPa)
#
#
# Indices 1 2 3 4 5 6 
#
# 1 0.081667 -0.015441 0.004841 0.000000 -0.039312 0.000000
# 2 -0.015441 0.008591 -0.002761 0.000000 0.006743 0.000000
# 3 0.004841 -0.002761 0.010265 0.000000 -0.010813 0.000000
# 4 0.000000 0.000000 0.000000 0.018683 0.000000 0.003570
# 5 -0.039312 0.006743 -0.010813 0.000000 0.067889 0.000000
# 6 0.000000 0.000000 0.000000 0.003570 0.000000 0.031785
#
#
# Mechanical properties :
#
#
# Convention : Reuss Voigt Hill
#
# Bulk Modulus (GPa) = 13.55009 59.36212 36.45610
# Shear Modulus (GPa) = 18.50458 38.92752 28.71605
#
# Velocity S-wave (km/s) = 2.96094 4.29456 3.68852
# Velocity P-wave (km/s) = 4.25551 7.26056 5.95085
#
# Compressibility (1/GPa) = 0.07380025
#
# Stress axis : x y z
#
# Youngs Moduli (GPa) = 12.24480 116.40162 97.42009
#
# Poissons Ratio (x) = 1.79730 -0.47157
# Poissons Ratio (y) = 0.18907 0.26903
# Poissons Ratio (z) = -0.05927 0.32144
#
# Static dielectric constant tensor:
#      x y z
#    x 1.775140 0.000000 0.010310 
#    y 0.000000 1.822660 0.000000 
#    z 0.010310 0.000000 1.785200 
# 
# From -- ./inp_files/168938.got.cif
#   From: 2010.05.17/outbox.cif.g08.bks.cpg/sg12_85_cif.got.tgz:168938.got - 2010.06.03 13:09:07.
