data_PCOD9219283
_publ_section_title
;
Structure prediction by ZEFSAII (Michael W. Deem and Ramdas Pophale) SiO2 
 PCOD9219283
Probable space group: C 2/M
;
_chemical_formula_sum "Si O2"
_cell_formula_units_Z 40
_cell_length_a 15.998861
_cell_length_b 23.120225
_cell_length_c 12.741276
_cell_angle_alpha 90.000000
_cell_angle_beta 154.318565
_cell_angle_gamma 90.000000
_cell_volume 2042.443151
_symmetry_space_group_name_H-M "C 2/M"
_symmetry_group_IT_number 12
_symmetry_cell_setting 'monoclinic'
loop_
_space_group_symop_operation_xyz
x,y,z
-x,y,-z
-x,-y,-z
x,-y,z
1/2+x,1/2+y,z
1/2-x,1/2+y,-z
1/2-x,1/2-y,-z
1/2+x,1/2-y,z
loop_
_atom_site_type_symbol
_atom_site_label
_atom_site_fract_x
_atom_site_fract_y
_atom_site_fract_z
Si Si1 0.729604 0.345600 0.523242
Si Si2 0.341458 0.220738 0.256958
Si Si3 0.302728 0.655358 0.102636
Si Si4 0.660172 0.270585 0.239895
Si Si5 0.537097 0.932817 0.917489
O O1 0.520464 0.361585 0.327029
O O2 0.706246 0.313301 0.387114
O O3 0.822720 0.296598 0.704533
O O4 0.854306 0.402793 0.656900
O O5 0.312202 0.283524 0.172797
O O6 0.603234 0.220162 0.551543
O O7 0.303773 0.170241 0.128252
O O8 0.100832 0.220331 0.046209
O O9 0.207083 0.607362 0.067000
O O10 0.563867 0.000000 0.922444
O O11 0.500000 0.927718 0.000000
#
# Coordination Sequence:
#
# PCOD9219283 Si02
#       5
#     8   8   8   8   8
#     4  11  22  37  62  90 123 159 198 242 295 358
#     4  11  20  34  56  92 128 151 186 240 304 363
#     4  11  23  37  59  92 119 157 201 239 296 361
#     4  11  20  34  57  94 127 154 187 240 306 363
#     4  11  26  44  61  84 118 160 205 250 294 346
#
# _framework density 19.584389000000002
#
# number of rings (size 3 to 8) (size 9 to 14) (size 15 to 20)
#    0.000    1.000    4.000    4.200    5.600    0.800 
#    0.000    2.000    0.000    6.000    0.000    0.000 
#    0.000    0.000    0.000    0.000    0.000    0.000 
#
# Total GULP energy -111546.217182 kJ/mol
# GULP energy per Si atom -5577.310859 kJ/mol
# Density = 1.953981 g / cm^3
# Si number density = 19.584389 Si / 1000 Ang^3
#
#
#
# Elastic Constant Matrix: (Units=GPa)
#
#
# Indices 1 2 3 4 5 6 
#
# 1 119.2899 46.8154 49.8539 0.0000 17.6001 0.0000
# 2 46.8154 118.0900 44.4061 0.0000 2.6404 0.0000
# 3 49.8539 44.4061 127.5719 0.0000 6.1553 0.0000
# 4 0.0000 0.0000 0.0000 16.2370 0.0000 4.5868
# 5 17.6001 2.6404 6.1553 0.0000 50.0673 0.0000
# 6 0.0000 0.0000 0.0000 4.5868 0.0000 26.5885
#
#
#
# Elastic Compliance Matrix: (Units=1/GPa)
#
#
# Indices 1 2 3 4 5 6 
#
# 1 0.011521 -0.003290 -0.003189 0.000000 -0.003484 0.000000
# 2 -0.003290 0.010684 -0.002476 0.000000 0.000898 0.000000
# 3 -0.003189 -0.002476 0.009945 0.000000 0.000029 0.000000
# 4 0.000000 0.000000 0.000000 0.064743 0.000000 -0.011169
# 5 -0.003484 0.000898 0.000029 0.000000 0.021147 0.000000
# 6 0.000000 0.000000 0.000000 -0.011169 0.000000 0.039537
#
#
# Mechanical properties :
#
#
# Convention : Reuss Voigt Hill
#
# Bulk Modulus (GPa) = 70.22910 71.90029 71.06469
# Shear Modulus (GPa) = 27.74168 33.50366 30.62267
#
# Velocity S-wave (km/s) = 3.76775 4.14059 3.95856
# Velocity P-wave (km/s) = 7.40713 7.72347 7.56695
#
# Compressibility (1/GPa) = 0.01423911
#
# Stress axis : x y z
#
# Youngs Moduli (GPa) = 86.79783 93.60103 100.54832
#
# Poissons Ratio (x) = 0.30798 0.32063
# Poissons Ratio (y) = 0.28559 0.24899
# Poissons Ratio (z) = 0.27679 0.23179
#
# Static dielectric constant tensor:
#      x y z
#    x 1.906710 0.000000 0.373190 
#    y 0.000000 1.566820 0.000000 
#    z 0.373190 0.000000 2.301800 
# 
# From -- ./inp_files/285687.got.cif
#   From: 2010.05.17/outbox.cif.g08.bks.cpg/sg12_143_cif.got.tgz:285687.got - 2010.06.03 13:09:07.
