data_PCOD9219061
_publ_section_title
;
Structure prediction by ZEFSAII (Michael W. Deem and Ramdas Pophale) SiO2 
 PCOD9219061
Probable space group: C 2/M
;
_chemical_formula_sum "Si O2"
_cell_formula_units_Z 28
_cell_length_a 13.915031
_cell_length_b 16.570311
_cell_length_c 12.538187
_cell_angle_alpha 90.000000
_cell_angle_beta 152.159559
_cell_angle_gamma 90.000000
_cell_volume 1350.133102
_symmetry_space_group_name_H-M "C 2/M"
_symmetry_group_IT_number 12
_symmetry_cell_setting 'monoclinic'
loop_
_space_group_symop_operation_xyz
x,y,z
-x,y,-z
-x,-y,-z
x,-y,z
1/2+x,1/2+y,z
1/2-x,1/2+y,-z
1/2-x,1/2-y,-z
1/2+x,1/2-y,z
loop_
_atom_site_type_symbol
_atom_site_label
_atom_site_fract_x
_atom_site_fract_y
_atom_site_fract_z
Si Si1 0.000000 0.295586 0.000000
Si Si2 0.187823 0.332641 0.600679
Si Si3 0.826169 0.500000 0.164075
Si Si4 0.796503 0.000000 0.718900
Si Si5 0.381202 0.168230 0.113115
O O1 0.813767 0.239397 0.776441
O O2 0.069677 0.342291 0.963131
O O3 0.344038 0.407512 0.737584
O O4 0.000000 0.352023 0.500000
O O5 0.080582 0.316546 0.382901
O O6 0.698316 0.500000 0.147430
O O7 0.790917 0.583262 0.066908
O O8 0.063313 0.500000 0.437004
O O9 0.250000 0.250000 0.000000
#
# Coordination Sequence:
#
# PCOD9219061 Si02
#       5
#     4   8   4   4   8
#     4  12  24  34  58  86 114 158 186 225 286 347
#     4  11  19  37  59  85 113 146 192 240 287 330
#     4   9  16  31  58  83 110 151 187 230 288 329
#     4   9  14  33  60  81 108 146 184 247 289 317
#     4  11  21  38  60  84 117 151 191 236 284 339
#
# _framework density 20.738697999999999
#
# number of rings (size 3 to 8) (size 9 to 14) (size 15 to 20)
#    0.000    1.429    8.571    0.857    0.000    1.143 
#    0.000    1.429    0.000    5.143    0.000    0.000 
#    0.000    0.000    0.000    0.000    0.000    0.000 
#
# Total GULP energy -78046.485204 kJ/mol
# GULP energy per Si atom -5574.748943 kJ/mol
# Density = 2.069150 g / cm^3
# Si number density = 20.738698 Si / 1000 Ang^3
#
#
#
# Elastic Constant Matrix: (Units=GPa)
#
#
# Indices 1 2 3 4 5 6 
#
# 1 118.5911 47.4578 42.6983 0.0000 -31.3808 0.0000
# 2 47.4578 139.6860 48.3541 0.0000 -14.7882 0.0000
# 3 42.6983 48.3541 101.7501 0.0000 -32.5370 0.0000
# 4 0.0000 0.0000 0.0000 39.4907 0.0000 -15.6945
# 5 -31.3808 -14.7882 -32.5370 0.0000 38.7128 0.0000
# 6 0.0000 0.0000 0.0000 -15.6945 0.0000 15.9340
#
#
#
# Elastic Compliance Matrix: (Units=1/GPa)
#
#
# Indices 1 2 3 4 5 6 
#
# 1 0.012041 -0.002847 -0.001267 0.000000 0.007608 0.000000
# 2 -0.002847 0.009243 -0.003838 0.000000 -0.002003 0.000000
# 3 -0.001267 -0.003838 0.015571 0.000000 0.010594 0.000000
# 4 0.000000 0.000000 0.000000 0.041611 0.000000 0.040986
# 5 0.007608 -0.002003 0.010594 0.000000 0.040137 0.000000
# 6 0.000000 0.000000 0.000000 0.040986 0.000000 0.103129
#
#
# Mechanical properties :
#
#
# Convention : Reuss Voigt Hill
#
# Bulk Modulus (GPa) = 47.73072 70.78308 59.25690
# Shear Modulus (GPa) = 20.43987 33.59529 27.01758
#
# Velocity S-wave (km/s) = 3.14282 4.02920 3.61329
# Velocity P-wave (km/s) = 6.01955 7.47335 6.78550
#
# Compressibility (1/GPa) = 0.02095087
#
# Stress axis : x y z
#
# Youngs Moduli (GPa) = 83.04965 108.19350 64.22020
#
# Poissons Ratio (x) = 0.30800 0.08138
# Poissons Ratio (y) = 0.23642 0.24649
# Poissons Ratio (z) = 0.10524 0.41527
#
# Static dielectric constant tensor:
#      x y z
#    x 1.828170 0.000000 0.105810 
#    y 0.000000 1.768920 0.000000 
#    z 0.105810 0.000000 1.820490 
# 
# From -- ./inp_files/145163.got.cif
#   From: 2010.05.17/outbox.cif.g08.bks.cpg/sg12_73_cif.got.tgz:145163.got - 2010.06.03 13:09:07.
