data_PCOD9219980
_publ_section_title
;
Structure prediction by ZEFSAII (Michael W. Deem and Ramdas Pophale) SiO2 
 PCOD9219980
Probable space group: C 2/M
;
_chemical_formula_sum "Si O2"
_cell_formula_units_Z 56
_cell_length_a 18.470524
_cell_length_b 14.971336
_cell_length_c 11.585883
_cell_angle_alpha 90.000000
_cell_angle_beta 58.458521
_cell_angle_gamma 90.000000
_cell_volume 2730.498072
_symmetry_space_group_name_H-M "C 2/M"
_symmetry_group_IT_number 12
_symmetry_cell_setting 'monoclinic'
loop_
_space_group_symop_operation_xyz
x,y,z
-x,y,-z
-x,-y,-z
x,-y,z
1/2+x,1/2+y,z
1/2-x,1/2+y,-z
1/2-x,1/2-y,-z
1/2+x,1/2-y,z
loop_
_atom_site_type_symbol
_atom_site_label
_atom_site_fract_x
_atom_site_fract_y
_atom_site_fract_z
Si Si1 0.417589 0.751292 0.501907
Si Si2 0.843255 0.396034 0.243786
Si Si3 0.020816 0.748566 0.810884
Si Si4 0.337501 0.700858 0.958095
Si Si5 0.670468 0.394765 0.271663
Si Si6 0.378206 0.603704 0.159267
Si Si7 0.713521 0.898709 0.446357
O O1 0.500000 0.785211 0.500000
O O2 0.445456 0.739189 0.347012
O O3 0.384506 0.662879 0.592979
O O4 0.343969 0.824692 0.565481
O O5 0.867942 0.500000 0.210643
O O6 0.923336 0.330436 0.179479
O O7 0.770153 0.373887 0.212742
O O8 0.796856 0.386486 0.407559
O O9 0.043494 0.838914 0.859342
O O10 0.919989 0.734871 0.893934
O O11 0.353171 0.633974 0.837707
O O12 0.250000 0.750000 0.000000
O O13 0.337918 0.648203 0.078582
O O14 0.659168 0.500000 0.299756
O O15 0.397259 0.500000 0.123412
O O16 0.307906 0.610157 0.319544
O O17 0.684588 0.000000 0.444485
#
# Coordination Sequence:
#
# PCOD9219980 Si02
#       7
#     8   8   8   8   8   8   8
#     4  11  21  37  60  93 125 157 196 248 310 362
#     4   9  19  39  67  94 120 152 196 253 308 359
#     4  11  23  40  64  91 119 158 205 253 299 358
#     4  12  25  42  62  85 122 166 205 250 301 358
#     4  11  23  40  61  91 127 161 197 246 304 361
#     4  11  24  41  63  90 122 163 207 246 294 359
#     4   9  19  37  63  92 122 155 198 248 303 363
#
# _framework density 20.509079
#
# number of rings (size 3 to 8) (size 9 to 14) (size 15 to 20)
#    0.000    1.429    1.429    4.286    0.000    6.286 
#    0.000    1.429    0.000    3.429    0.000    0.000 
#    0.000    0.000    0.000    0.000    0.000    0.000 
#
# Total GULP energy -156569.417386 kJ/mol
# GULP energy per Si atom -5591.764907 kJ/mol
# Density = 2.046240 g / cm^3
# Si number density = 20.509079 Si / 1000 Ang^3
#
#
#
# Elastic Constant Matrix: (Units=GPa)
#
#
# Indices 1 2 3 4 5 6 
#
# 1 85.1828 12.8692 17.2659 0.0000 0.2702 0.0000
# 2 12.8692 38.8515 25.1133 0.0000 1.5480 0.0000
# 3 17.2659 25.1133 65.2679 0.0000 -5.6709 0.0000
# 4 0.0000 0.0000 0.0000 16.4919 0.0000 15.6657
# 5 0.2702 1.5480 -5.6709 0.0000 35.9253 0.0000
# 6 0.0000 0.0000 0.0000 15.6657 0.0000 13.5857
#
#
#
# Elastic Compliance Matrix: (Units=1/GPa)
#
#
# Indices 1 2 3 4 5 6 
#
# 1 0.012617 -0.002646 -0.002350 0.000000 -0.000352 0.000000
# 2 -0.002646 0.035282 -0.013187 0.000000 -0.003582 0.000000
# 3 -0.002350 -0.013187 0.021361 0.000000 0.003958 0.000000
# 4 0.000000 0.000000 0.000000 -0.636102 0.000000 0.733486
# 5 -0.000352 -0.003582 0.003958 0.000000 0.028617 0.000000
# 6 0.000000 0.000000 0.000000 0.733486 0.000000 -0.772174
#
#
# Mechanical properties :
#
#
# Convention : Reuss Voigt Hill
#
# Bulk Modulus (GPa) = 30.40082 33.31100 31.85591
# Shear Modulus (GPa) = -3.95862 22.13751 9.08945
#
# Velocity S-wave (km/s) = -1.39082 3.28899 2.10749
# Velocity P-wave (km/s) = 3.50373 5.54081 4.63555
#
# Compressibility (1/GPa) = 0.03289385
#
# Stress axis : x y z
#
# Youngs Moduli (GPa) = 79.26023 28.34294 46.81442
#
# Poissons Ratio (x) = 0.07500 0.11001
# Poissons Ratio (y) = 0.20973 0.61733
# Poissons Ratio (z) = 0.18626 0.37375
#
# Static dielectric constant tensor:
#      x y z
#    x 1.716500 0.000000 -0.009340 
#    y 0.000000 1.710230 0.000000 
#    z -0.009340 0.000000 1.752630 
# 
# From -- ./inp_files/156517.got.cif
#   From: 2010.05.17/outbox.cif.g08.bks.cpg/sg12_79_cif.got.tgz:156517.got - 2010.06.03 13:09:07.
