data_PCOD9219794
_publ_section_title
;
Structure prediction by ZEFSAII (Michael W. Deem and Ramdas Pophale) SiO2 
 PCOD9219794
Probable space group: C 2/M
;
_chemical_formula_sum "Si O2"
_cell_formula_units_Z 52
_cell_length_a 12.685574
_cell_length_b 18.761374
_cell_length_c 19.179019
_cell_angle_alpha 90.000000
_cell_angle_beta 144.770852
_cell_angle_gamma 90.000000
_cell_volume 2633.070603
_symmetry_space_group_name_H-M "C 2/M"
_symmetry_group_IT_number 12
_symmetry_cell_setting 'monoclinic'
loop_
_space_group_symop_operation_xyz
x,y,z
-x,y,-z
-x,-y,-z
x,-y,z
1/2+x,1/2+y,z
1/2-x,1/2+y,-z
1/2-x,1/2-y,-z
1/2+x,1/2-y,z
loop_
_atom_site_type_symbol
_atom_site_label
_atom_site_fract_x
_atom_site_fract_y
_atom_site_fract_z
Si Si1 0.938127 0.849196 0.096474
Si Si2 0.245013 0.342072 0.307296
Si Si3 0.134739 0.652652 0.705554
Si Si4 0.086587 0.769419 0.463072
Si Si5 0.146310 0.000000 0.014159
Si Si6 0.467460 0.000000 0.297347
Si Si7 0.784938 0.000000 0.370535
Si Si8 0.117948 0.726326 0.846036
O O1 0.901786 0.810869 0.151260
O O2 0.151909 0.843934 0.195851
O O3 0.880381 0.929850 0.047206
O O4 0.813424 0.801386 0.977948
O O5 0.411929 0.318728 0.347274
O O6 0.319444 0.309148 0.421046
O O7 0.233212 0.426733 0.304813
O O8 0.043708 0.308564 0.193539
O O9 0.078036 0.571395 0.685936
O O10 0.097527 0.694368 0.758089
O O11 0.016887 0.693991 0.584743
O O12 0.250000 0.750000 0.500000
O O13 0.339775 0.000000 0.158836
O O14 0.000000 0.000000 0.000000
O O15 0.674335 0.000000 0.383084
O O16 0.000000 0.000000 0.500000
#
# Coordination Sequence:
#
# PCOD9219794 Si02
#       8
#     8   8   8   8   4   4   4   8
#     4  11  22  34  58  87 114 147 183 236 292 341
#     4  11  22  38  57  84 113 152 190 241 287 335
#     4  12  21  36  58  84 117 144 187 235 291 340
#     4  11  21  35  55  78 112 155 188 229 286 338
#     4  12  18  36  58  83 116 143 181 235 292 326
#     4  12  22  34  58  86 112 144 184 246 287 331
#     4  12  20  34  56  80 112 136 191 244 277 320
#     4  11  21  36  55  87 113 147 189 228 290 347
#
# _framework density 19.748805999999998
#
# number of rings (size 3 to 8) (size 9 to 14) (size 15 to 20)
#    0.000    0.615    9.231    0.462    0.000    0.000 
#    0.000    0.000    0.000    4.615    0.000    2.154 
#    0.000    0.000    0.000    0.000    0.000    0.000 
#
# Total GULP energy -144950.495957 kJ/mol
# GULP energy per Si atom -5575.019075 kJ/mol
# Density = 1.970386 g / cm^3
# Si number density = 19.748806 Si / 1000 Ang^3
#
#
#
# Elastic Constant Matrix: (Units=GPa)
#
#
# Indices 1 2 3 4 5 6 
#
# 1 60.3016 41.5567 21.8875 -0.0004 13.5847 0.0000
# 2 41.5567 190.0734 29.2775 0.0001 -3.3327 0.0000
# 3 21.8875 29.2775 88.2409 0.0013 28.2139 -0.0001
# 4 -0.0004 0.0001 0.0013 24.8364 0.0000 -5.4319
# 5 13.5847 -3.3327 28.2139 0.0000 37.4798 -0.0001
# 6 0.0000 0.0000 -0.0001 -5.4319 -0.0001 35.1874
#
#
#
# Elastic Compliance Matrix: (Units=1/GPa)
#
#
# Indices 1 2 3 4 5 6 
#
# 1 0.022020 -0.004693 -0.001606 0.000000 -0.007190 0.000000
# 2 -0.004693 0.006724 -0.002373 0.000000 0.004086 0.000000
# 3 -0.001606 -0.002373 0.016330 -0.000001 -0.011922 0.000000
# 4 0.000000 0.000000 -0.000001 0.041670 0.000000 0.006433
# 5 -0.007190 0.004086 -0.011922 0.000000 0.038625 0.000000
# 6 0.000000 0.000000 0.000000 0.006433 0.000000 0.029412
#
#
# Mechanical properties :
#
#
# Convention : Reuss Voigt Hill
#
# Bulk Modulus (GPa) = 36.06200 58.22882 47.14541
# Shear Modulus (GPa) = 27.56792 35.89368 31.73080
#
# Velocity S-wave (km/s) = 3.74027 4.26785 4.01274
# Velocity P-wave (km/s) = 6.07888 7.33722 6.73749
#
# Compressibility (1/GPa) = 0.02773002
#
# Stress axis : x y z
#
# Youngs Moduli (GPa) = 45.41308 148.71245 61.23579
#
# Poissons Ratio (x) = 0.69791 0.09835
# Poissons Ratio (y) = 0.21313 0.14533
# Poissons Ratio (z) = 0.07294 0.35294
#
# Static dielectric constant tensor:
#      x y z
#    x 1.760430 0.000000 -0.001490 
#    y 0.000000 1.720560 0.000000 
#    z -0.001490 0.000000 1.726860 
# 
# From -- ./inp_files/340535.got.cif
#   From: 2010.05.17/outbox.cif.g08.bks.cpg/sg12_171_cif.got.tgz:340535.got - 2010.06.03 13:09:07.
