data_PCOD9219799
_publ_section_title
;
Structure prediction by ZEFSAII (Michael W. Deem and Ramdas Pophale) SiO2 
 PCOD9219799
Probable space group: C 2/M
;
_chemical_formula_sum "Si O2"
_cell_formula_units_Z 56
_cell_length_a 30.132634
_cell_length_b 8.156122
_cell_length_c 21.730208
_cell_angle_alpha 90.000000
_cell_angle_beta 150.396738
_cell_angle_gamma 90.000000
_cell_volume 2638.177753
_symmetry_space_group_name_H-M "C 2/M"
_symmetry_group_IT_number 12
_symmetry_cell_setting 'monoclinic'
loop_
_space_group_symop_operation_xyz
x,y,z
-x,y,-z
-x,-y,-z
x,-y,z
1/2+x,1/2+y,z
1/2-x,1/2+y,-z
1/2-x,1/2-y,-z
1/2+x,1/2-y,z
loop_
_atom_site_type_symbol
_atom_site_label
_atom_site_fract_x
_atom_site_fract_y
_atom_site_fract_z
Si Si1 0.796720 0.699049 0.747901
Si Si2 0.151715 0.699729 0.059573
Si Si3 0.459926 0.191999 0.385873
Si Si4 0.227320 0.195777 0.903126
Si Si5 0.892217 0.807319 0.530222
Si Si6 0.042045 0.691947 0.137257
Si Si7 0.349789 0.811445 0.605904
O O1 0.800658 0.500000 0.746083
O O2 0.786184 0.736051 0.806883
O O3 0.708753 0.753808 0.605967
O O4 0.890925 0.761208 0.833585
O O5 0.144841 0.500000 0.046190
O O6 0.194957 0.760501 0.049043
O O7 0.054343 0.763928 0.962185
O O8 0.500000 0.258624 0.500000
O O9 0.367926 0.260521 0.244344
O O10 0.536058 0.218177 0.425824
O O11 0.443303 0.000000 0.375932
O O12 0.230977 0.000000 0.908149
O O13 0.250000 0.250000 0.000000
O O14 0.900701 0.784059 0.613386
O O15 0.897472 0.000000 0.521436
O O16 0.025715 0.500000 0.101060
O O17 0.097720 0.696388 0.267101
O O18 0.250000 0.750000 0.500000
O O19 0.345412 0.000000 0.580788
#
# Coordination Sequence:
#
# PCOD9219799 Si02
#       7
#     8   8   8   8   8   8   8
#     4   9  16  30  53  85 120 151 188 238 298 365
#     4   9  18  32  55  84 115 152 194 244 302 362
#     4  11  25  45  68  94 125 166 216 272 334 394
#     4  11  24  42  64  93 128 169 217 269 323 382
#     4  11  22  37  60  91 123 157 201 253 312 378
#     4   9  17  30  51  82 117 150 190 239 293 356
#     4  11  21  35  55  83 121 162 202 249 303 365
#
# _framework density 21.226773999999999
#
# number of rings (size 3 to 8) (size 9 to 14) (size 15 to 20)
#    0.000    1.857    1.429    3.000    2.000    4.000 
#    0.000    0.000    0.000    0.000    0.000    1.000 
#    0.000    0.000    0.000    0.000    0.000    0.000 
#
# Total GULP energy -156219.682767 kJ/mol
# GULP energy per Si atom -5579.274385 kJ/mol
# Density = 2.117846 g / cm^3
# Si number density = 21.226774 Si / 1000 Ang^3
#
#
#
# Elastic Constant Matrix: (Units=GPa)
#
#
# Indices 1 2 3 4 5 6 
#
# 1 159.1760 1.0214 57.7266 0.0000 -10.9368 0.0000
# 2 1.0214 24.4336 18.2102 0.0000 -4.0754 0.0000
# 3 57.7266 18.2102 104.4416 0.0000 -6.5173 0.0000
# 4 0.0000 0.0000 0.0000 18.3764 0.0000 -2.7204
# 5 -10.9368 -4.0754 -6.5173 0.0000 32.3449 0.0000
# 6 0.0000 0.0000 0.0000 -2.7204 0.0000 21.4719
#
#
#
# Elastic Compliance Matrix: (Units=1/GPa)
#
#
# Indices 1 2 3 4 5 6 
#
# 1 0.008259 0.003824 -0.005091 0.000000 0.002248 0.000000
# 2 0.003824 0.049417 -0.010391 0.000000 0.005426 0.000000
# 3 -0.005091 -0.010391 0.014190 0.000000 -0.000172 0.000000
# 4 0.000000 0.000000 0.000000 0.055458 0.000000 0.007026
# 5 0.002248 0.005426 -0.000172 0.000000 0.032326 0.000000
# 6 0.000000 0.000000 0.000000 0.007026 0.000000 0.047463
#
#
# Mechanical properties :
#
#
# Convention : Reuss Voigt Hill
#
# Bulk Modulus (GPa) = 20.59786 49.10752 34.85269
# Shear Modulus (GPa) = 20.27481 28.51150 24.39315
#
# Velocity S-wave (km/s) = 3.09391 3.66893 3.39362
# Velocity P-wave (km/s) = 4.74213 6.41350 5.64007
#
# Compressibility (1/GPa) = 0.04854872
#
# Stress axis : x y z
#
# Youngs Moduli (GPa) = 121.08496 20.23601 70.47313
#
# Poissons Ratio (x) = -0.07739 0.35879
# Poissons Ratio (y) = -0.46305 0.73231
# Poissons Ratio (z) = 0.61646 0.21028
#
# Static dielectric constant tensor:
#      x y z
#    x 1.750600 0.000000 -0.006150 
#    y 0.000000 1.759750 0.000000 
#    z -0.006150 0.000000 1.782460 
# 
# From -- ./inp_files/329732.got.cif
#   From: 2010.05.17/outbox.cif.g08.bks.cpg/sg12_165_cif.got.tgz:329732.got - 2010.06.03 13:09:07.
