data_PCOD9219866
_publ_section_title
;
Structure prediction by ZEFSAII (Michael W. Deem and Ramdas Pophale) SiO2 
 PCOD9219866
Probable space group: C 2/M
;
_chemical_formula_sum "Si O2"
_cell_formula_units_Z 40
_cell_length_a 7.894543
_cell_length_b 30.033881
_cell_length_c 11.613633
_cell_angle_alpha 90.000000
_cell_angle_beta 143.450752
_cell_angle_gamma 90.000000
_cell_volume 1639.827516
_symmetry_space_group_name_H-M "C 2/M"
_symmetry_group_IT_number 12
_symmetry_cell_setting 'monoclinic'
loop_
_space_group_symop_operation_xyz
x,y,z
-x,y,-z
-x,-y,-z
x,-y,z
1/2+x,1/2+y,z
1/2-x,1/2+y,-z
1/2-x,1/2-y,-z
1/2+x,1/2-y,z
loop_
_atom_site_type_symbol
_atom_site_label
_atom_site_fract_x
_atom_site_fract_y
_atom_site_fract_z
Si Si1 0.664882 0.798486 0.333943
Si Si2 0.958253 0.602701 0.225765
Si Si3 0.211924 0.949608 0.763235
Si Si4 0.658723 0.290882 0.208163
Si Si5 0.414405 0.612764 0.767785
O O1 0.575533 0.848633 0.256538
O O2 0.565131 0.756799 0.202749
O O3 0.495793 0.790032 0.361342
O O4 0.000000 0.797726 0.500000
O O5 0.174389 0.565847 0.298654
O O6 0.863858 0.602183 0.307337
O O7 0.672351 0.599525 0.993948
O O8 0.990673 0.914478 0.695987
O O9 0.105131 0.000000 0.707219
O O10 0.500000 0.948389 0.000000
O O11 0.585822 0.333663 0.246346
O O12 0.500000 0.300095 0.000000
#
# Coordination Sequence:
#
# PCOD9219866 Si02
#       5
#     8   8   8   8   8
#     4  11  23  36  53  83 118 149 192 237 287 335
#     4   9  18  33  52  74 112 148 185 227 285 339
#     4   9  18  30  52  84 109 139 186 240 291 330
#     4  11  21  36  56  80 110 156 196 228 283 341
#     4   9  17  33  51  77 110 144 190 230 278 338
#
# _framework density 24.392807999999999
#
# number of rings (size 3 to 8) (size 9 to 14) (size 15 to 20)
#    0.000    2.200    4.000    1.200    2.800    1.600 
#    0.000    4.000    0.000    0.600    0.000    5.600 
#    0.000    0.000    0.000    0.000    0.000    0.000 
#
# Total GULP energy -111858.836345 kJ/mol
# GULP energy per Si atom -5592.941817 kJ/mol
# Density = 2.433729 g / cm^3
# Si number density = 24.392808 Si / 1000 Ang^3
#
#
#
# Elastic Constant Matrix: (Units=GPa)
#
#
# Indices 1 2 3 4 5 6 
#
# 1 107.3099 76.7424 39.9649 0.0000 13.5154 0.0000
# 2 76.7424 152.0380 22.4216 0.0000 23.8947 0.0000
# 3 39.9649 22.4216 96.8566 0.0000 22.6913 0.0000
# 4 0.0000 0.0000 0.0000 17.0488 0.0000 10.8662
# 5 13.5154 23.8947 22.6913 0.0000 40.5027 0.0000
# 6 0.0000 0.0000 0.0000 10.8662 0.0000 39.6393
#
#
#
# Elastic Compliance Matrix: (Units=1/GPa)
#
#
# Indices 1 2 3 4 5 6 
#
# 1 0.016890 -0.008051 -0.005638 0.000000 0.002272 0.000000
# 2 -0.008051 0.011139 0.001903 0.000000 -0.004951 0.000000
# 3 -0.005638 0.001903 0.013850 0.000000 -0.007001 0.000000
# 4 0.000000 0.000000 0.000000 0.071072 0.000000 -0.019483
# 5 0.002272 -0.004951 -0.007001 0.000000 0.030775 0.000000
# 6 0.000000 0.000000 0.000000 -0.019483 0.000000 0.030568
#
#
# Mechanical properties :
#
#
# Convention : Reuss Voigt Hill
#
# Bulk Modulus (GPa) = 54.62005 70.49579 62.55792
# Shear Modulus (GPa) = 24.51372 33.90989 29.21180
#
# Velocity S-wave (km/s) = 3.17354 3.73253 3.46433
# Velocity P-wave (km/s) = 5.98907 6.89483 6.45785
#
# Compressibility (1/GPa) = 0.01830830
#
# Stress axis : x y z
#
# Youngs Moduli (GPa) = 59.20705 89.77860 72.20033
#
# Poissons Ratio (x) = 0.72281 0.40704
# Poissons Ratio (y) = 0.47668 -0.13743
# Poissons Ratio (z) = 0.33379 -0.17089
#
# Static dielectric constant tensor:
#      x y z
#    x 1.947840 0.000000 -0.044940 
#    y 0.000000 1.863280 0.000000 
#    z -0.044940 0.000000 2.046750 
# 
# From -- ./inp_files/201413.got.cif
#   From: 2010.05.17/outbox.cif.g08.bks.cpg/sg12_101_cif.got.tgz:201413.got - 2010.06.03 13:09:07.
