data_PCOD9219262
_publ_section_title
;
Structure prediction by ZEFSAII (Michael W. Deem and Ramdas Pophale) SiO2 
 PCOD9219262
Probable space group: C 2/M
;
_chemical_formula_sum "Si O2"
_cell_formula_units_Z 64
_cell_length_a 14.759698
_cell_length_b 17.881332
_cell_length_c 15.593466
_cell_angle_alpha 90.000000
_cell_angle_beta 96.567762
_cell_angle_gamma 90.000000
_cell_volume 4088.466548
_symmetry_space_group_name_H-M "C 2/M"
_symmetry_group_IT_number 12
_symmetry_cell_setting 'monoclinic'
loop_
_space_group_symop_operation_xyz
x,y,z
-x,y,-z
-x,-y,-z
x,-y,z
1/2+x,1/2+y,z
1/2-x,1/2+y,-z
1/2-x,1/2-y,-z
1/2+x,1/2-y,z
loop_
_atom_site_type_symbol
_atom_site_label
_atom_site_fract_x
_atom_site_fract_y
_atom_site_fract_z
Si Si1 0.610366 0.912882 0.013105
Si Si2 0.037736 0.919970 0.407105
Si Si3 0.388039 0.910065 0.175466
Si Si4 0.249188 0.086315 0.476091
Si Si5 0.484894 0.258725 0.600496
Si Si6 0.107391 0.409980 0.202300
Si Si7 0.202370 0.687444 0.358630
Si Si8 0.336391 0.176547 0.332759
O O1 0.638722 0.882561 0.923269
O O2 0.637480 0.000000 0.016116
O O3 0.500000 0.911614 0.000000
O O4 0.636489 0.883378 0.109639
O O5 0.146539 0.913732 0.428538
O O6 0.003142 0.843150 0.363316
O O7 0.000000 0.922245 0.500000
O O8 0.013990 0.000000 0.363559
O O9 0.497681 0.898227 0.198456
O O10 0.332846 0.868651 0.243768
O O11 0.374715 0.000000 0.178643
O O12 0.253638 0.136624 0.561864
O O13 0.311877 0.123039 0.409971
O O14 0.274631 0.000000 0.496884
O O15 0.500000 0.260885 0.500000
O O16 0.384303 0.229691 0.609543
O O17 0.560673 0.205043 0.646544
O O18 0.121311 0.500000 0.210400
O O19 0.162954 0.365463 0.279797
O O20 0.271398 0.750991 0.333088
#
# Coordination Sequence:
#
# PCOD9219262 Si02
#       8
#     8   8   8   8   8   8   8   8
#     4   7  12  26  49  72  94 121 155 192 232 284
#     4   9  18  33  51  66  84 125 176 209 228 262
#     4   9  17  31  51  74  97 124 158 196 239 289
#     4  11  22  35  49  69  97 129 166 203 235 278
#     4  11  20  34  50  65  95 132 163 195 242 282
#     4   9  17  31  51  74  97 125 158 193 239 292
#     4  12  21  33  47  72 101 129 158 195 244 288
#     4  12  22  33  48  73 100 129 160 198 244 287
#
# _framework density 15.653791999999999
#
# number of rings (size 3 to 8) (size 9 to 14) (size 15 to 20)
#    0.000    2.000    3.750    4.125    0.000    0.000 
#    0.000    1.875    0.000    0.000    0.000    0.000 
#    0.000    0.000    0.000    5.625    0.000    0.000 
#
# Total GULP energy -178216.579607 kJ/mol
# GULP energy per Si atom -5569.268113 kJ/mol
# Density = 1.561816 g / cm^3
# Si number density = 15.653792 Si / 1000 Ang^3
#
#
#
# Elastic Constant Matrix: (Units=GPa)
#
#
# Indices 1 2 3 4 5 6 
#
# 1 21.5719 10.9704 3.5169 0.0000 -10.7765 0.0000
# 2 10.9704 78.9016 39.0275 0.0000 -11.1160 0.0000
# 3 3.5169 39.0275 109.0653 0.0000 -7.8108 0.0000
# 4 0.0000 0.0000 0.0000 14.7106 0.0000 -4.6429
# 5 -10.7765 -11.1160 -7.8108 0.0000 10.9068 0.0000
# 6 0.0000 0.0000 0.0000 -4.6429 0.0000 16.9434
#
#
#
# Elastic Compliance Matrix: (Units=1/GPa)
#
#
# Indices 1 2 3 4 5 6 
#
# 1 0.093225 -0.001998 0.004385 0.000000 0.093216 0.000000
# 2 -0.001998 0.017212 -0.005249 0.000000 0.011809 0.000000
# 3 0.004385 -0.005249 0.011418 0.000000 0.007160 0.000000
# 4 0.000000 0.000000 0.000000 0.074414 0.000000 0.020392
# 5 0.093216 0.011809 0.007160 0.000000 0.200952 0.000000
# 6 0.000000 0.000000 0.000000 0.020392 0.000000 0.064608
#
#
# Mechanical properties :
#
#
# Convention : Reuss Voigt Hill
#
# Bulk Modulus (GPa) = 8.61099 35.17427 21.89263
# Shear Modulus (GPa) = 9.87626 18.91373 14.39500
#
# Velocity S-wave (km/s) = 2.51453 3.47976 3.03576
# Velocity P-wave (km/s) = 3.73408 6.21803 5.12871
#
# Compressibility (1/GPa) = 0.11613061
#
# Stress axis : x y z
#
# Youngs Moduli (GPa) = 10.72671 58.09984 87.57768
#
# Poissons Ratio (x) = 0.11609 -0.38400
# Poissons Ratio (y) = 0.02143 0.45968
# Poissons Ratio (z) = -0.04703 0.30496
#
# Static dielectric constant tensor:
#      x y z
#    x 1.511890 0.000000 -0.014850 
#    y 0.000000 1.548160 0.000000 
#    z -0.014850 0.000000 -0.937010 
# 
# From -- ./inp_files/215903.got.cif
#   From: 2010.05.17/outbox.cif.g08.bks.cpg/sg12_108_cif.got.tgz:215903.got - 2010.06.03 13:09:07.
