data_PCOD9219361
_publ_section_title
;
Structure prediction by ZEFSAII (Michael W. Deem and Ramdas Pophale) SiO2 
 PCOD9219361
Probable space group: C 2/M
;
_chemical_formula_sum "Si O2"
_cell_formula_units_Z 44
_cell_length_a 8.672857
_cell_length_b 15.188017
_cell_length_c 16.481770
_cell_angle_alpha 90.000000
_cell_angle_beta 79.495340
_cell_angle_gamma 90.000000
_cell_volume 2134.650032
_symmetry_space_group_name_H-M "C 2/M"
_symmetry_group_IT_number 12
_symmetry_cell_setting 'monoclinic'
loop_
_space_group_symop_operation_xyz
x,y,z
-x,y,-z
-x,-y,-z
x,-y,z
1/2+x,1/2+y,z
1/2-x,1/2+y,-z
1/2-x,1/2-y,-z
1/2+x,1/2-y,z
loop_
_atom_site_type_symbol
_atom_site_label
_atom_site_fract_x
_atom_site_fract_y
_atom_site_fract_z
Si Si1 0.907102 0.715841 0.726227
Si Si2 0.891423 0.101520 0.812786
Si Si3 0.500000 0.695472 0.500000
Si Si4 0.813529 0.344917 0.021173
Si Si5 0.225220 0.905257 0.862129
Si Si6 0.209062 0.291210 0.615735
O O1 0.915288 0.820522 0.745385
O O2 0.827983 0.669271 0.809779
O O3 0.793967 0.713163 0.658568
O O4 0.076339 0.674257 0.690163
O O5 0.747131 0.125866 0.885224
O O6 0.045308 0.107762 0.854931
O O7 0.879708 0.000000 0.784696
O O8 0.645124 0.653204 0.435287
O O9 0.600190 0.753196 0.554279
O O10 0.750000 0.250000 0.000000
O O11 0.747014 0.404815 0.955786
O O12 0.000000 0.345124 0.000000
O O13 0.275309 0.000000 0.823623
#
# Coordination Sequence:
#
# PCOD9219361 Si02
#       6
#     8   8   4   8   8   8
#     4  11  20  36  58  93 118 162 194 251 298 356
#     4  11  24  41  60  86 122 163 207 255 306 354
#     4   8  16  34  56  96 118 156 192 238 280 370
#     4  12  25  40  61  84 116 166 213 255 302 353
#     4  11  24  41  60  86 122 163 207 255 306 354
#     4   9  18  32  60  89 126 148 200 237 292 358
#
# _framework density 20.612276999999999
#
# number of rings (size 3 to 8) (size 9 to 14) (size 15 to 20)
#    0.000    1.455    3.636    2.182    2.545    2.909 
#    0.000    0.000    0.000    0.000    0.000   89.091 
#    0.000    0.000    0.000    0.000    0.000    0.000 
#
# Total GULP energy -122566.224723 kJ/mol
# GULP energy per Si atom -5571.192033 kJ/mol
# Density = 2.056536 g / cm^3
# Si number density = 20.612277 Si / 1000 Ang^3
#
#
#
# Elastic Constant Matrix: (Units=GPa)
#
#
# Indices 1 2 3 4 5 6 
#
# 1 114.6409 20.2913 30.2539 0.0000 -18.1514 0.0000
# 2 20.2913 86.5398 11.3925 0.0000 -5.5642 0.0000
# 3 30.2539 11.3925 76.7792 0.0000 -12.1821 0.0000
# 4 0.0000 0.0000 0.0000 -0.8689 0.0000 1.5592
# 5 -18.1514 -5.5642 -12.1821 0.0000 53.1624 0.0000
# 6 0.0000 0.0000 0.0000 1.5592 0.0000 0.9379
#
#
#
# Elastic Compliance Matrix: (Units=1/GPa)
#
#
# Indices 1 2 3 4 5 6 
#
# 1 0.010347 -0.001814 -0.003401 0.000000 0.002564 0.000000
# 2 -0.001814 0.012142 -0.001021 0.000000 0.000418 0.000000
# 3 -0.003401 -0.001021 0.014855 0.000000 0.002136 0.000000
# 4 0.000000 0.000000 0.000000 -0.288943 0.000000 0.480341
# 5 0.002564 0.000418 0.002136 0.000000 0.020219 0.000000
# 6 0.000000 0.000000 0.000000 0.480341 0.000000 0.267671
#
#
# Mechanical properties :
#
#
# Convention : Reuss Voigt Hill
#
# Bulk Modulus (GPa) = 40.20448 44.64835 42.42641
# Shear Modulus (GPa) = 87.63770 25.04778 56.34274
#
# Velocity S-wave (km/s) = 6.52760 3.48974 5.23392
# Velocity P-wave (km/s) = 8.73843 6.16001 7.55996
#
# Compressibility (1/GPa) = 0.02487285
#
# Stress axis : x y z
#
# Youngs Moduli (GPa) = 96.64218 82.35978 67.31754
#
# Poissons Ratio (x) = 0.14937 0.22897
# Poissons Ratio (y) = 0.17527 0.06871
# Poissons Ratio (z) = 0.32872 0.08407
#
# Static dielectric constant tensor:
#      x y z
#    x 1.772490 0.000000 -0.030200 
#    y 0.000000 1.753620 0.000000 
#    z -0.030200 0.000000 1.806960 
# 
# From -- ./inp_files/255291.got.cif
#   From: 2010.05.17/outbox.cif.g08.bks.cpg/sg12_128_cif.got.tgz:255291.got - 2010.06.03 13:09:07.
