data_PCOD9219886
_publ_section_title
;
Structure prediction by ZEFSAII (Michael W. Deem and Ramdas Pophale) SiO2 
 PCOD9219886
Probable space group: C 2/M
;
_chemical_formula_sum "Si O2"
_cell_formula_units_Z 64
_cell_length_a 32.743184
_cell_length_b 21.455217
_cell_length_c 15.930123
_cell_angle_alpha 90.000000
_cell_angle_beta 16.859444
_cell_angle_gamma 90.000000
_cell_volume 3245.698434
_symmetry_space_group_name_H-M "C 2/M"
_symmetry_group_IT_number 12
_symmetry_cell_setting 'monoclinic'
loop_
_space_group_symop_operation_xyz
x,y,z
-x,y,-z
-x,-y,-z
x,-y,z
1/2+x,1/2+y,z
1/2-x,1/2+y,-z
1/2-x,1/2-y,-z
1/2+x,1/2-y,z
loop_
_atom_site_type_symbol
_atom_site_label
_atom_site_fract_x
_atom_site_fract_y
_atom_site_fract_z
Si Si1 0.132222 0.766549 0.296265
Si Si2 0.087207 0.433220 0.743105
Si Si3 0.700668 0.772016 0.786170
Si Si4 0.769903 0.664439 0.782360
Si Si5 0.584210 0.794297 0.747607
Si Si6 0.551860 0.428643 0.300342
Si Si7 0.496174 0.069306 0.275113
Si Si8 0.790403 0.124257 0.732495
O O1 0.122236 0.707184 0.376640
O O2 0.182637 0.825128 0.248953
O O3 0.000000 0.779146 0.500000
O O4 0.250000 0.750000 0.000000
O O5 0.167947 0.500000 0.578284
O O6 0.151160 0.363964 0.618167
O O7 0.986809 0.432829 0.859128
O O8 0.000000 0.435297 0.000000
O O9 0.700991 0.714466 0.853023
O O10 0.792312 0.750998 0.525666
O O11 0.777376 0.832149 0.675747
O O12 0.541153 0.788776 0.074952
O O13 0.865119 0.614062 0.548710
O O14 0.660477 0.625439 0.055720
O O15 0.500000 0.782566 0.000000
O O16 0.500000 0.421438 0.500000
O O17 0.607942 0.500000 0.184013
O O18 0.420300 0.421721 0.494217
O O19 0.461478 0.000000 0.372857
O O20 0.639897 0.091459 0.034475
#
# Coordination Sequence:
#
# PCOD9219886 Si02
#       8
#     8   8   8   8   8   8   8   8
#     4  11  22  36  58  81 106 143 180 225 276 332
#     4   9  18  34  57  83 113 151 191 229 271 325
#     4  11  21  37  56  87 115 150 188 232 278 330
#     4  11  22  38  59  84 113 142 190 236 281 329
#     4  11  21  36  57  85 120 153 186 228 281 332
#     4  11  24  41  58  79 112 151 184 224 285 349
#     4  11  21  37  60  86 112 145 191 240 281 322
#     4  11  21  37  58  82 112 144 186 229 278 335
#
# _framework density 19.718406999999999
#
# number of rings (size 3 to 8) (size 9 to 14) (size 15 to 20)
#    0.000    1.250    2.500    4.500    0.000    4.000 
#    0.000    0.000    0.000    3.750    0.000    0.000 
#    0.000   14.000    0.000    0.000    0.000    0.000 
#
# Total GULP energy -178350.632936 kJ/mol
# GULP energy per Si atom -5573.457279 kJ/mol
# Density = 1.967353 g / cm^3
# Si number density = 19.718407 Si / 1000 Ang^3
#
#
#
# Elastic Constant Matrix: (Units=GPa)
#
#
# Indices 1 2 3 4 5 6 
#
# 1 74.1873 26.4162 22.0597 -0.0022 1.6727 0.0014
# 2 26.4162 119.4995 15.6510 -0.0053 12.1013 0.0038
# 3 22.0597 15.6510 42.0737 -0.0057 3.0262 0.0043
# 4 -0.0022 -0.0053 -0.0057 130.0100 0.0049 -71.4508
# 5 1.6727 12.1013 3.0262 0.0049 23.4982 -0.0033
# 6 0.0014 0.0038 0.0043 -71.4508 -0.0033 67.3581
#
#
#
# Elastic Compliance Matrix: (Units=1/GPa)
#
#
# Indices 1 2 3 4 5 6 
#
# 1 0.016785 -0.002811 -0.007846 0.000000 0.001263 0.000000
# 2 -0.002811 0.009687 -0.001802 0.000000 -0.004557 0.000000
# 3 -0.007846 -0.001802 0.028711 0.000001 -0.002211 -0.000001
# 4 0.000000 0.000000 0.000001 0.018444 -0.000001 0.019565
# 5 0.001263 -0.004557 -0.002211 -0.000001 0.045098 0.000001
# 6 0.000000 0.000000 -0.000001 0.019565 0.000001 0.035600
#
#
# Mechanical properties :
#
#
# Convention : Reuss Voigt Hill
#
# Bulk Modulus (GPa) = 33.04087 40.44603 36.74345
# Shear Modulus (GPa) = 26.40901 55.61550 41.01226
#
# Velocity S-wave (km/s) = 3.66363 5.31659 4.56554
# Velocity P-wave (km/s) = 5.88973 7.63181 6.81665
#
# Compressibility (1/GPa) = 0.03026555
#
# Stress axis : x y z
#
# Youngs Moduli (GPa) = 59.57817 103.23106 34.83019
#
# Poissons Ratio (x) = 0.29015 0.27327
# Poissons Ratio (y) = 0.16746 0.06277
# Poissons Ratio (z) = 0.46743 0.18603
#
# Static dielectric constant tensor:
#      x y z
#    x 1.716520 0.000000 0.029210 
#    y 0.000000 2.037350 0.000000 
#    z 0.029210 0.000000 1.648400 
# 
# From -- ./inp_files/251909.got.cif
#   From: 2010.05.17/outbox.cif.g08.bks.cpg/sg12_126_cif.got.tgz:251909.got - 2010.06.03 13:09:07.
