data_PCOD9219893
_publ_section_title
;
Structure prediction by ZEFSAII (Michael W. Deem and Ramdas Pophale) SiO2 
 PCOD9219893
Probable space group: C 2/M
;
_chemical_formula_sum "Si O2"
_cell_formula_units_Z 56
_cell_length_a 30.825116
_cell_length_b 8.709733
_cell_length_c 17.243220
_cell_angle_alpha 90.000000
_cell_angle_beta 45.786439
_cell_angle_gamma 90.000000
_cell_volume 3318.126613
_symmetry_space_group_name_H-M "C 2/M"
_symmetry_group_IT_number 12
_symmetry_cell_setting 'monoclinic'
loop_
_space_group_symop_operation_xyz
x,y,z
-x,y,-z
-x,-y,-z
x,-y,z
1/2+x,1/2+y,z
1/2-x,1/2+y,-z
1/2-x,1/2-y,-z
1/2+x,1/2-y,z
loop_
_atom_site_type_symbol
_atom_site_label
_atom_site_fract_x
_atom_site_fract_y
_atom_site_fract_z
Si Si1 0.258832 0.184810 0.201661
Si Si2 0.447651 0.684840 0.398988
Si Si3 0.157754 0.184618 0.584444
Si Si4 0.623054 0.816057 0.365752
Si Si5 0.717571 0.184633 0.654852
Si Si6 0.195978 0.183340 0.014318
Si Si7 0.080121 0.683557 0.244603
O O1 0.189515 0.242071 0.286755
O O2 0.286679 0.230021 0.250205
O O3 0.259251 0.000000 0.195225
O O4 0.292933 0.256949 0.086312
O O5 0.449053 0.500000 0.400761
O O6 0.402743 0.731476 0.384983
O O7 0.418180 0.748542 0.514732
O O8 0.514591 0.750341 0.306250
O O9 0.216352 0.233346 0.460402
O O10 0.168545 0.249413 0.656623
O O11 0.158632 0.000000 0.586871
O O12 0.594771 0.783329 0.316690
O O13 0.627862 0.000000 0.368202
O O14 0.715639 0.000000 0.653788
O O15 0.132994 0.242285 0.127645
O O16 0.198794 0.000000 0.012925
O O17 0.250000 0.250000 0.000000
O O18 0.081024 0.500000 0.233700
#
# Coordination Sequence:
#
# PCOD9219893 Si02
#       7
#     8   8   8   8   8   8   8
#     4  11  21  36  58  83 115 147 183 231 280 329
#     4  11  22  37  56  81 115 152 188 228 280 334
#     4   9  18  33  52  79 112 145 182 225 273 332
#     4  11  22  35  54  81 114 150 188 229 274 331
#     4   9  18  33  53  81 111 144 181 224 277 331
#     4  12  24  39  59  83 110 147 190 232 278 324
#     4  11  24  40  56  80 112 149 193 233 275 330
#
# _framework density 16.876992999999999
#
# number of rings (size 3 to 8) (size 9 to 14) (size 15 to 20)
#    0.000    1.429    2.857    3.429    0.000    5.714 
#    0.000    0.000    0.000    0.857    0.000    6.000 
#    0.000    0.000    0.000    0.000    0.000    0.000 
#
# Total GULP energy -156433.679672 kJ/mol
# GULP energy per Si atom -5586.917131 kJ/mol
# Density = 1.683858 g / cm^3
# Si number density = 16.876993 Si / 1000 Ang^3
#
#
#
# Elastic Constant Matrix: (Units=GPa)
#
#
# Indices 1 2 3 4 5 6 
#
# 1 154.0149 65.2935 105.8894 -0.0001 15.0926 0.0001
# 2 65.2935 70.7444 54.5977 0.0002 3.6184 -0.0001
# 3 105.8894 54.5977 133.5801 0.0001 -3.6764 0.0000
# 4 -0.0001 0.0002 0.0001 30.9792 -0.0001 -0.0849
# 5 15.0926 3.6184 -3.6764 -0.0001 26.9140 0.0000
# 6 0.0001 -0.0001 0.0000 -0.0849 0.0000 29.3532
#
#
#
# Elastic Compliance Matrix: (Units=1/GPa)
#
#
# Indices 1 2 3 4 5 6 
#
# 1 0.019719 -0.007719 -0.012800 0.000000 -0.011769 0.000000
# 2 -0.007719 0.024096 -0.003714 0.000000 0.000582 0.000000
# 3 -0.012800 -0.003714 0.019435 0.000000 0.010332 0.000000
# 4 0.000000 0.000000 0.000000 0.032280 0.000000 0.000093
# 5 -0.011769 0.000582 0.010332 0.000000 0.045088 0.000000
# 6 0.000000 0.000000 0.000000 0.000093 0.000000 0.034068
#
#
# Mechanical properties :
#
#
# Convention : Reuss Voigt Hill
#
# Bulk Modulus (GPa) = 67.63983 89.98895 78.81439
# Shear Modulus (GPa) = 21.92200 26.28653 24.10427
#
# Velocity S-wave (km/s) = 3.60797 3.95084 3.78330
# Velocity P-wave (km/s) = 7.58431 8.61676 8.11697
#
# Compressibility (1/GPa) = 0.01478419
#
# Stress axis : x y z
#
# Youngs Moduli (GPa) = 50.71197 41.50051 51.45270
#
# Poissons Ratio (x) = 0.32035 0.65861
# Poissons Ratio (y) = 0.39145 0.19108
# Poissons Ratio (z) = 0.64913 0.15412
#
# Static dielectric constant tensor:
#      x y z
#    x 1.564970 0.000000 0.009600 
#    y 0.000000 1.566990 0.000000 
#    z 0.009600 0.000000 1.540590 
# 
# From -- ./inp_files/292529.got.cif
#   From: 2010.05.17/outbox.cif.g08.bks.cpg/sg12_147_cif.got.tgz:292529.got - 2010.06.03 13:09:07.
