data_PCOD9219640
_publ_section_title
;
Structure prediction by ZEFSAII (Michael W. Deem and Ramdas Pophale) SiO2 
 PCOD9219640
Probable space group: C 2/M
;
_chemical_formula_sum "Si O2"
_cell_formula_units_Z 64
_cell_length_a 23.232253
_cell_length_b 8.578905
_cell_length_c 19.676241
_cell_angle_alpha 90.000000
_cell_angle_beta 85.657886
_cell_angle_gamma 90.000000
_cell_volume 3910.362285
_symmetry_space_group_name_H-M "C 2/M"
_symmetry_group_IT_number 12
_symmetry_cell_setting 'monoclinic'
loop_
_space_group_symop_operation_xyz
x,y,z
-x,y,-z
-x,-y,-z
x,-y,z
1/2+x,1/2+y,z
1/2-x,1/2+y,-z
1/2-x,1/2-y,-z
1/2+x,1/2-y,z
loop_
_atom_site_type_symbol
_atom_site_label
_atom_site_fract_x
_atom_site_fract_y
_atom_site_fract_z
Si Si1 0.114995 0.310531 0.767967
Si Si2 0.779453 0.818037 0.659144
Si Si3 0.312301 0.811907 0.519129
Si Si4 0.211013 0.185410 0.064650
Si Si5 0.645429 0.183229 0.622114
Si Si6 0.912993 0.311101 0.964210
Si Si7 0.260073 0.315184 0.200896
Si Si8 0.035375 0.310691 0.895866
O O1 0.114676 0.500000 0.766068
O O2 0.111148 0.251939 0.690194
O O3 0.176963 0.259880 0.791974
O O4 0.065391 0.257123 0.823992
O O5 0.291777 0.500000 0.667214
O O6 0.818388 0.748897 0.595210
O O7 0.712625 0.805578 0.639523
O O8 0.779461 0.732057 0.731097
O O9 0.250000 0.750000 0.500000
O O10 0.355657 0.756411 0.455255
O O11 0.311230 0.000000 0.519437
O O12 0.145484 0.236726 0.056625
O O13 0.233561 0.253748 0.133556
O O14 0.215694 0.000000 0.066006
O O15 0.250000 0.250000 0.000000
O O16 0.631073 0.000000 0.618844
O O17 0.908107 0.500000 0.962290
O O18 0.969464 0.263871 0.915806
O O19 0.927206 0.266755 0.041078
O O20 0.266391 0.500000 0.198185
O O21 0.035192 0.500000 0.894994
#
# Coordination Sequence:
#
# PCOD9219640 Si02
#       8
#     8   8   8   8   8   8   8   8
#     4   9  15  27  45  66  92 125 157 187 224 270
#     4   9  16  27  40  56  80 114 151 188 225 269
#     4   9  14  21  33  52  79 114 151 188 225 265
#     4  12  24  37  51  69  92 121 152 188 228 268
#     4   7  12  20  33  54  82 113 148 183 217 257
#     4   9  17  32  50  71  93 118 152 188 224 269
#     4  11  21  32  46  67  92 121 153 189 228 272
#     4   8  15  28  50  71  91 119 151 185 225 268
#
# _framework density 16.366769999999999
#
# number of rings (size 3 to 8) (size 9 to 14) (size 15 to 20)
#    0.000    2.750    0.000    6.000    0.000    1.000 
#    0.000    2.500    0.000    0.000    0.000    0.000 
#    0.000    1.000    0.000   11.750    0.000    4.125 
#
# Total GULP energy -178160.999732 kJ/mol
# GULP energy per Si atom -5567.531242 kJ/mol
# Density = 1.632952 g / cm^3
# Si number density = 16.366770 Si / 1000 Ang^3
#
#
#
# Elastic Constant Matrix: (Units=GPa)
#
#
# Indices 1 2 3 4 5 6 
#
# 1 44.3069 5.4991 47.3684 0.0000 -14.9727 0.0000
# 2 5.4991 42.4853 27.0593 0.0000 -4.6999 0.0000
# 3 47.3684 27.0593 155.1021 0.0000 -35.2062 0.0000
# 4 0.0000 0.0000 0.0000 22.7252 0.0000 0.6937
# 5 -14.9727 -4.6999 -35.2062 0.0000 24.8331 0.0000
# 6 0.0000 0.0000 0.0000 0.6937 0.0000 15.8262
#
#
#
# Elastic Compliance Matrix: (Units=1/GPa)
#
#
# Indices 1 2 3 4 5 6 
#
# 1 0.034929 0.002230 -0.009113 0.000000 0.008563 0.000000
# 2 0.002230 0.026709 -0.005733 0.000000 -0.001728 0.000000
# 3 -0.009113 -0.005733 0.012883 0.000000 0.011685 0.000000
# 4 0.000000 0.000000 0.000000 0.044063 0.000000 -0.001931
# 5 0.008563 -0.001728 0.011685 0.000000 0.061670 0.000000
# 6 0.000000 0.000000 0.000000 -0.001931 0.000000 0.063271
#
#
# Mechanical properties :
#
#
# Convention : Reuss Voigt Hill
#
# Bulk Modulus (GPa) = 20.28819 44.63866 32.46343
# Shear Modulus (GPa) = 17.53235 23.47473 20.50354
#
# Velocity S-wave (km/s) = 3.27650 3.79131 3.54327
# Velocity P-wave (km/s) = 5.17076 6.81899 6.05125
#
# Compressibility (1/GPa) = 0.04928975
#
# Stress axis : x y z
#
# Youngs Moduli (GPa) = 28.62932 37.44033 77.62184
#
# Poissons Ratio (x) = -0.08350 0.70736
# Poissons Ratio (y) = -0.06385 0.44502
# Poissons Ratio (z) = 0.26090 0.21465
#
# Static dielectric constant tensor:
#      x y z
#    x 1.524140 0.000000 -0.032470 
#    y 0.000000 1.555580 0.000000 
#    z -0.032470 0.000000 1.604940 
# 
# From -- ./inp_files/319189.got.cif
#   From: 2010.05.17/outbox.cif.g08.bks.cpg/sg12_160_cif.got.tgz:319189.got - 2010.06.03 13:09:07.
