data_PCOD9219121
_publ_section_title
;
Structure prediction by ZEFSAII (Michael W. Deem and Ramdas Pophale) SiO2 
 PCOD9219121
Probable space group: C 2/M
;
_chemical_formula_sum "Si O2"
_cell_formula_units_Z 56
_cell_length_a 28.351528
_cell_length_b 8.827423
_cell_length_c 16.531526
_cell_angle_alpha 90.000000
_cell_angle_beta 114.713251
_cell_angle_gamma 90.000000
_cell_volume 3758.425808
_symmetry_space_group_name_H-M "C 2/M"
_symmetry_group_IT_number 12
_symmetry_cell_setting 'monoclinic'
loop_
_space_group_symop_operation_xyz
x,y,z
-x,y,-z
-x,-y,-z
x,-y,z
1/2+x,1/2+y,z
1/2-x,1/2+y,-z
1/2-x,1/2-y,-z
1/2+x,1/2-y,z
loop_
_atom_site_type_symbol
_atom_site_label
_atom_site_fract_x
_atom_site_fract_y
_atom_site_fract_z
Si Si1 0.098722 0.683834 0.690607
Si Si2 0.809071 0.682697 0.953556
Si Si3 0.555895 0.174366 0.494583
Si Si4 0.301079 0.817736 0.136124
Si Si5 0.417807 0.184040 0.961908
Si Si6 0.993779 0.820427 0.689746
Si Si7 0.514989 0.183227 0.141574
O O1 0.094314 0.500000 0.690257
O O2 0.094570 0.727813 0.593016
O O3 0.151914 0.729271 0.772110
O O4 0.049151 0.750487 0.701915
O O5 0.807105 0.500000 0.948046
O O6 0.754799 0.748540 0.883606
O O7 0.860305 0.736201 0.943249
O O8 0.813530 0.724477 0.051835
O O9 0.500000 0.174845 0.500000
O O10 0.547607 0.270325 0.408263
O O11 0.567519 0.000000 0.481381
O O12 0.297516 0.000000 0.136660
O O13 0.440894 0.229028 0.891562
O O14 0.417114 0.000000 0.961506
O O15 0.460095 0.226563 0.060418
O O16 0.979752 0.755662 0.767269
O O17 0.997972 0.000000 0.694829
O O18 0.515584 0.000000 0.149221
#
# Coordination Sequence:
#
# PCOD9219121 Si02
#       7
#     8   8   8   8   8   8   8
#     4   9  17  30  46  61  81 112 148 178 202 239
#     4   9  16  27  42  62  88 112 137 170 206 244
#     4   8  15  28  44  60  79 108 143 174 205 244
#     4   9  17  28  43  63  85 111 141 170 203 244
#     4   8  15  28  47  65  80 108 148 182 205 234
#     4  11  20  27  39  63  92 115 135 166 213 258
#     4   9  16  29  47  63  81 110 148 178 203 241
#
# _framework density 14.899855000000001
#
# number of rings (size 3 to 8) (size 9 to 14) (size 15 to 20)
#    0.000    3.000    0.000    3.857    0.000    5.429 
#    0.000    5.714    0.000    0.000    0.000    1.000 
#    0.000    0.000    0.000    0.000    0.000    0.000 
#
# Total GULP energy -155938.228800 kJ/mol
# GULP energy per Si atom -5569.222457 kJ/mol
# Density = 1.486594 g / cm^3
# Si number density = 14.899855 Si / 1000 Ang^3
#
#
#
# Elastic Constant Matrix: (Units=GPa)
#
#
# Indices 1 2 3 4 5 6 
#
# 1 105.3624 24.2719 65.7746 0.0000 5.1494 0.0000
# 2 24.2719 23.0457 36.0123 0.0000 -2.3214 0.0000
# 3 65.7746 36.0123 138.2837 0.0000 5.4167 0.0000
# 4 0.0000 0.0000 0.0000 4.7848 0.0000 4.3394
# 5 5.1494 -2.3214 5.4167 0.0000 23.8442 0.0000
# 6 0.0000 0.0000 0.0000 4.3394 0.0000 17.0471
#
#
#
# Elastic Compliance Matrix: (Units=1/GPa)
#
#
# Indices 1 2 3 4 5 6 
#
# 1 0.014401 -0.008313 -0.004572 0.000000 -0.002881 0.000000
# 2 -0.008313 0.081263 -0.017747 0.000000 0.013738 0.000000
# 3 -0.004572 -0.017747 0.014183 0.000000 -0.003962 0.000000
# 4 0.000000 0.000000 0.000000 0.271722 0.000000 -0.069167
# 5 -0.002881 0.013738 -0.003962 0.000000 0.044799 0.000000
# 6 0.000000 0.000000 0.000000 -0.069167 0.000000 0.076268
#
#
# Mechanical properties :
#
#
# Convention : Reuss Voigt Hill
#
# Bulk Modulus (GPa) = 20.58305 57.64550 39.11427
# Shear Modulus (GPa) = 8.61928 18.51075 13.56501
#
# Velocity S-wave (km/s) = 2.40777 3.52851 3.02058
# Velocity P-wave (km/s) = 4.64479 7.44131 6.20271
#
# Compressibility (1/GPa) = 0.04858366
#
# Stress axis : x y z
#
# Youngs Moduli (GPa) = 69.43904 12.30566 70.50571
#
# Poissons Ratio (x) = 0.10229 0.32237
# Poissons Ratio (y) = 0.57723 1.25127
# Poissons Ratio (z) = 0.31749 0.21839
#
# Static dielectric constant tensor:
#      x y z
#    x 1.478560 0.000000 0.005420 
#    y 0.000000 1.500570 0.000000 
#    z 0.005420 0.000000 1.502980 
# 
# From -- ./inp_files/243246.got.cif
#   From: 2010.05.17/outbox.cif.g08.bks.cpg/sg12_122_cif.got.tgz:243246.got - 2010.06.03 13:09:07.
