data_PCOD9219003
_publ_section_title
;
Structure prediction by ZEFSAII (Michael W. Deem and Ramdas Pophale) SiO2 
 PCOD9219003
Probable space group: C 2/M
;
_chemical_formula_sum "Si O2"
_cell_formula_units_Z 48
_cell_length_a 19.478813
_cell_length_b 18.874285
_cell_length_c 11.053620
_cell_angle_alpha 90.000000
_cell_angle_beta 147.119468
_cell_angle_gamma 90.000000
_cell_volume 2206.219277
_symmetry_space_group_name_H-M "C 2/M"
_symmetry_group_IT_number 12
_symmetry_cell_setting 'monoclinic'
loop_
_space_group_symop_operation_xyz
x,y,z
-x,y,-z
-x,-y,-z
x,-y,z
1/2+x,1/2+y,z
1/2-x,1/2+y,-z
1/2-x,1/2-y,-z
1/2+x,1/2-y,z
loop_
_atom_site_type_symbol
_atom_site_label
_atom_site_fract_x
_atom_site_fract_y
_atom_site_fract_z
Si Si1 0.002428 0.809886 0.672868
Si Si2 0.232462 0.169345 0.842357
Si Si3 0.989187 0.641115 0.338522
Si Si4 0.140576 0.256809 0.181938
Si Si5 0.044642 0.075607 0.203831
Si Si6 0.195394 0.368102 0.459198
O O1 0.139655 0.812205 0.814392
O O2 0.978221 0.725420 0.633626
O O3 0.882841 0.846693 0.424345
O O4 0.004899 0.856760 0.796376
O O5 0.312530 0.226172 0.882924
O O6 0.348507 0.126443 0.076410
O O7 0.000000 0.627920 0.500000
O O8 0.091585 0.605041 0.400872
O O9 0.144691 0.330447 0.263303
O O10 0.230205 0.196886 0.367416
O O11 0.000000 0.233063 0.000000
O O12 0.196095 0.078974 0.420623
O O13 0.003329 0.000000 0.197762
O O14 0.000000 0.076658 0.000000
#
# Coordination Sequence:
#
# PCOD9219003 Si02
#       6
#     8   8   8   8   8   8
#     4  11  22  40  61  85 131 162 199 250 297 369
#     4  11  22  36  58  94 131 161 194 236 305 382
#     4  12  23  35  59 101 131 159 191 243 319 380
#     4  11  19  34  57  92 124 155 193 237 303 379
#     4  11  26  43  63  87 115 161 215 260 296 343
#     4  11  21  35  59  85 121 159 198 247 302 357
#
# _framework density 21.756677
#
# number of rings (size 3 to 8) (size 9 to 14) (size 15 to 20)
#    0.000    0.833    6.667    2.000    4.667    0.000 
#    0.000    1.667    0.000    6.000    0.000    0.000 
#    0.000    0.000    0.000    0.000    0.000    0.000 
#
# Total GULP energy -133642.010081 kJ/mol
# GULP energy per Si atom -5568.417087 kJ/mol
# Density = 2.170716 g / cm^3
# Si number density = 21.756677 Si / 1000 Ang^3
#
#
#
# Elastic Constant Matrix: (Units=GPa)
#
#
# Indices 1 2 3 4 5 6 
#
# 1 165.9695 34.9380 38.3891 0.0000 20.3548 0.0000
# 2 34.9380 26.0678 -2.4423 0.0000 -6.5060 0.0000
# 3 38.3891 -2.4423 109.4510 0.0000 14.0955 0.0000
# 4 0.0000 0.0000 0.0000 15.0770 0.0000 4.5187
# 5 20.3548 -6.5060 14.0955 0.0000 53.6324 0.0000
# 6 0.0000 0.0000 0.0000 4.5187 0.0000 8.1916
#
#
#
# Elastic Compliance Matrix: (Units=1/GPa)
#
#
# Indices 1 2 3 4 5 6 
#
# 1 0.010884 -0.016208 -0.003513 0.000000 -0.005174 0.000000
# 2 -0.016208 0.063704 0.005505 0.000000 0.012432 0.000000
# 3 -0.003513 0.005505 0.010592 0.000000 -0.000783 0.000000
# 4 0.000000 0.000000 0.000000 0.079463 0.000000 -0.043834
# 5 -0.005174 0.012432 -0.000783 0.000000 0.022323 0.000000
# 6 0.000000 0.000000 0.000000 -0.043834 0.000000 0.146256
#
#
# Mechanical properties :
#
#
# Convention : Reuss Voigt Hill
#
# Bulk Modulus (GPa) = 17.62159 49.25089 33.43624
# Shear Modulus (GPa) = 13.13817 30.75377 21.94597
#
# Velocity S-wave (km/s) = 2.46004 3.76378 3.17945
# Velocity P-wave (km/s) = 4.02319 6.44781 5.37403
#
# Compressibility (1/GPa) = 0.05674855
#
# Stress axis : x y z
#
# Youngs Moduli (GPa) = 91.87567 15.69764 94.40823
#
# Poissons Ratio (x) = 0.25443 0.33165
# Poissons Ratio (y) = 1.48915 -0.51975
# Poissons Ratio (z) = 0.32275 -0.08642
#
# Static dielectric constant tensor:
#      x y z
#    x 1.822010 0.000000 -0.045800 
#    y 0.000000 1.838200 0.000000 
#    z -0.045800 0.000000 1.959920 
# 
# From -- ./inp_files/132968.got.cif
#   From: 2010.05.17/outbox.cif.g08.bks.cpg/sg12_67_cif.got.tgz:132968.got - 2010.06.03 13:09:07.
