data_PCOD9219962
_publ_section_title
;
Structure prediction by ZEFSAII (Michael W. Deem and Ramdas Pophale) SiO2 
 PCOD9219962
Probable space group: C 2/M
;
_chemical_formula_sum "Si O2"
_cell_formula_units_Z 64
_cell_length_a 29.693938
_cell_length_b 23.377183
_cell_length_c 9.390923
_cell_angle_alpha 90.000000
_cell_angle_beta 152.043833
_cell_angle_gamma 90.000000
_cell_volume 3055.991198
_symmetry_space_group_name_H-M "C 2/M"
_symmetry_group_IT_number 12
_symmetry_cell_setting 'monoclinic'
loop_
_space_group_symop_operation_xyz
x,y,z
-x,y,-z
-x,-y,-z
x,-y,z
1/2+x,1/2+y,z
1/2-x,1/2+y,-z
1/2-x,1/2-y,-z
1/2+x,1/2-y,z
loop_
_atom_site_type_symbol
_atom_site_label
_atom_site_fract_x
_atom_site_fract_y
_atom_site_fract_z
Si Si1 0.138340 0.625223 0.610186
Si Si2 0.387496 0.936008 0.732185
Si Si3 0.393655 0.438267 0.770928
Si Si4 0.282156 0.760964 0.253975
Si Si5 0.714409 0.936888 0.063087
Si Si6 0.587494 0.745642 0.852265
Si Si7 0.420536 0.877645 0.100510
Si Si8 0.901688 0.188317 0.812907
O O1 0.162981 0.581662 0.553346
O O2 0.141585 0.687932 0.552047
O O3 0.033770 0.614508 0.387143
O O4 0.212920 0.613195 0.943352
O O5 0.364722 0.000000 0.718406
O O6 0.500000 0.934893 0.000000
O O7 0.372821 0.889796 0.814181
O O8 0.382304 0.500000 0.816370
O O9 0.313593 0.437680 0.424286
O O10 0.378984 0.376480 0.801029
O O11 0.500000 0.438372 0.000000
O O12 0.326164 0.713971 0.486267
O O13 0.250000 0.750000 0.000000
O O14 0.184350 0.779879 0.057180
O O15 0.698029 0.000000 0.953677
O O16 0.628483 0.922789 0.932018
O O17 0.500000 0.732262 0.500000
O O18 0.595331 0.814681 0.882097
O O19 0.581525 0.725432 0.998681
O O20 0.000000 0.186518 0.000000
#
# Coordination Sequence:
#
# PCOD9219962 Si02
#       8
#     8   8   8   8   8   8   8   8
#     4  11  22  36  57  86 123 161 196 243 304 363
#     4   9  19  35  55  81 118 161 197 231 284 359
#     4   9  20  39  61  85 114 152 201 254 304 359
#     4  12  24  40  61  88 124 163 206 253 305 369
#     4  11  22  36  60  90 119 157 205 252 298 353
#     4  12  25  41  61  89 123 160 206 258 309 366
#     4  11  21  37  58  86 122 158 196 244 301 360
#     4  11  22  39  65  93 121 158 202 251 314 375
#
# _framework density 20.942468999999999
#
# number of rings (size 3 to 8) (size 9 to 14) (size 15 to 20)
#    0.000    1.250    0.000    7.500    0.000    5.000 
#    0.000    0.000    0.000    1.125    0.000    0.000 
#    0.000    0.000    0.000    0.000    0.000    0.000 
#
# Total GULP energy -178520.533314 kJ/mol
# GULP energy per Si atom -5578.766666 kJ/mol
# Density = 2.089480 g / cm^3
# Si number density = 20.942469 Si / 1000 Ang^3
#
#
#
# Elastic Constant Matrix: (Units=GPa)
#
#
# Indices 1 2 3 4 5 6 
#
# 1 73.7867 9.6607 35.8605 0.0000 -9.8469 0.0000
# 2 9.6607 88.7303 26.7673 0.0000 -8.1265 0.0000
# 3 35.8605 26.7673 94.8091 0.0000 -2.4871 0.0000
# 4 0.0000 0.0000 0.0000 32.9408 0.0000 -3.2025
# 5 -9.8469 -8.1265 -2.4871 0.0000 31.7652 0.0000
# 6 0.0000 0.0000 0.0000 -3.2025 0.0000 24.4950
#
#
#
# Elastic Compliance Matrix: (Units=1/GPa)
#
#
# Indices 1 2 3 4 5 6 
#
# 1 0.017349 0.000557 -0.006588 0.000000 0.005005 0.000000
# 2 0.000557 0.012607 -0.003688 0.000000 0.003109 0.000000
# 3 -0.006588 -0.003688 0.014031 0.000000 -0.001887 0.000000
# 4 0.000000 0.000000 0.000000 0.030748 0.000000 0.004020
# 5 0.005005 0.003109 -0.001887 0.000000 0.033680 0.000000
# 6 0.000000 0.000000 0.000000 0.004020 0.000000 0.041350
#
#
# Mechanical properties :
#
#
# Convention : Reuss Voigt Hill
#
# Bulk Modulus (GPa) = 40.73609 44.65589 42.69599
# Shear Modulus (GPa) = 28.18678 30.17604 29.18141
#
# Velocity S-wave (km/s) = 3.67265 3.80004 3.73689
# Velocity P-wave (km/s) = 6.12194 6.37363 6.24905
#
# Compressibility (1/GPa) = 0.02454825
#
# Stress axis : x y z
#
# Youngs Moduli (GPa) = 57.63880 79.32175 71.26966
#
# Poissons Ratio (x) = -0.04417 0.46954
# Poissons Ratio (y) = -0.03210 0.26287
# Poissons Ratio (z) = 0.37973 0.29257
#
# Static dielectric constant tensor:
#      x y z
#    x 1.722320 0.000000 -0.011580 
#    y 0.000000 1.792470 0.000000 
#    z -0.011580 0.000000 1.775490 
# 
# From -- ./inp_files/113649.got.cif
#   From: 2010.05.17/outbox.cif.g08.bks.cpg/sg12_57_cif.got.tgz:113649.got - 2010.06.03 13:09:07.
