data_PCOD9219186
_publ_section_title
;
Structure prediction by ZEFSAII (Michael W. Deem and Ramdas Pophale) SiO2 
 PCOD9219186
Probable space group: C 2/M
;
_chemical_formula_sum "Si O2"
_cell_formula_units_Z 64
_cell_length_a 19.285162
_cell_length_b 14.865508
_cell_length_c 14.707931
_cell_angle_alpha 90.000000
_cell_angle_beta 56.423441
_cell_angle_gamma 90.000000
_cell_volume 3512.987183
_symmetry_space_group_name_H-M "C 2/M"
_symmetry_group_IT_number 12
_symmetry_cell_setting 'monoclinic'
loop_
_space_group_symop_operation_xyz
x,y,z
-x,y,-z
-x,-y,-z
x,-y,z
1/2+x,1/2+y,z
1/2-x,1/2+y,-z
1/2-x,1/2-y,-z
1/2+x,1/2-y,z
loop_
_atom_site_type_symbol
_atom_site_label
_atom_site_fract_x
_atom_site_fract_y
_atom_site_fract_z
Si Si1 0.881861 0.702561 0.828073
Si Si2 0.621589 0.399379 0.133474
Si Si3 0.723987 0.897743 0.232409
Si Si4 0.050739 0.607089 0.703126
Si Si5 0.594139 0.633492 0.940112
Si Si6 0.087734 0.391455 0.480596
Si Si7 0.815607 0.401370 0.038837
Si Si8 0.080844 0.660711 0.886592
O O1 0.910968 0.805819 0.800149
O O2 0.803032 0.674082 0.824567
O O3 0.857433 0.676483 0.948648
O O4 0.956555 0.636333 0.749125
O O5 0.587875 0.500000 0.179538
O O6 0.615540 0.384420 0.029859
O O7 0.718062 0.399228 0.092040
O O8 0.823329 0.899327 0.172510
O O9 0.667334 0.872691 0.359938
O O10 0.700339 0.000000 0.221002
O O11 0.057355 0.500000 0.708100
O O12 0.098897 0.637587 0.577244
O O13 0.072993 0.648715 0.784755
O O14 0.586810 0.735555 0.910576
O O15 0.500000 0.596885 0.000000
O O16 0.080363 0.500000 0.489220
O O17 0.000000 0.358551 0.500000
O O18 0.846594 0.500000 0.985842
O O19 0.840464 0.387471 0.124949
O O20 0.000000 0.623758 0.000000
#
# Coordination Sequence:
#
# PCOD9219186 Si02
#       8
#     8   8   8   8   8   8   8   8
#     4  12  19  32  54  83 114 148 186 229 284 344
#     4  11  23  37  53  75 110 154 193 235 281 335
#     4  11  21  34  58  87 115 149 189 238 289 338
#     4  11  21  34  56  86 121 149 178 232 293 349
#     4  11  22  38  53  77 112 156 195 234 279 331
#     4   9  18  34  55  86 119 146 185 232 285 345
#     4  11  20  31  50  79 113 148 186 224 279 350
#     4  11  21  33  50  78 120 156 184 222 282 345
#
# _framework density 18.218114
#
# number of rings (size 3 to 8) (size 9 to 14) (size 15 to 20)
#    0.000    1.125    5.000    3.750    0.000    1.500 
#    0.000    0.625    0.000    0.000    0.000    1.750 
#    0.000    0.000    0.000    1.125    0.000    0.000 
#
# Total GULP energy -178308.086676 kJ/mol
# GULP energy per Si atom -5572.127709 kJ/mol
# Density = 1.817665 g / cm^3
# Si number density = 18.218114 Si / 1000 Ang^3
#
#
#
# Elastic Constant Matrix: (Units=GPa)
#
#
# Indices 1 2 3 4 5 6 
#
# 1 111.2851 16.9637 50.8483 0.0000 4.5567 0.0000
# 2 16.9637 88.1994 7.8782 0.0000 10.7922 0.0000
# 3 50.8483 7.8782 90.8115 0.0000 7.6878 0.0000
# 4 0.0000 0.0000 0.0000 36.1887 0.0000 79.5168
# 5 4.5567 10.7922 7.6878 0.0000 25.9752 0.0000
# 6 0.0000 0.0000 0.0000 79.5168 0.0000 259.4193
#
#
#
# Elastic Compliance Matrix: (Units=1/GPa)
#
#
# Indices 1 2 3 4 5 6 
#
# 1 0.012353 -0.001843 -0.006809 0.000000 0.000614 0.000000
# 2 -0.001843 0.012256 0.000382 0.000000 -0.004882 0.000000
# 3 -0.006809 0.000382 0.015081 0.000000 -0.003428 0.000000
# 4 0.000000 0.000000 0.000000 0.084636 0.000000 -0.025942
# 5 0.000614 -0.004882 -0.003428 0.000000 0.041433 0.000000
# 6 0.000000 0.000000 0.000000 -0.025942 0.000000 0.011807
#
#
# Mechanical properties :
#
#
# Convention : Reuss Voigt Hill
#
# Bulk Modulus (GPa) = 43.19599 49.07515 46.13557
# Shear Modulus (GPa) = 24.77437 78.62371 51.69904
#
# Velocity S-wave (km/s) = 3.69165 6.57652 5.33286
# Velocity P-wave (km/s) = 6.47557 9.20128 7.95602
#
# Compressibility (1/GPa) = 0.02315030
#
# Stress axis : x y z
#
# Youngs Moduli (GPa) = 80.95355 81.59546 66.30713
#
# Poissons Ratio (x) = 0.15036 0.45147
# Poissons Ratio (y) = 0.14918 -0.02532
# Poissons Ratio (z) = 0.55120 -0.03116
#
# Static dielectric constant tensor:
#      x y z
#    x 1.650480 0.000000 -0.002100 
#    y 0.000000 1.694980 0.000000 
#    z -0.002100 0.000000 1.637410 
# 
# From -- ./inp_files/225284.got.cif
#   From: 2010.05.17/outbox.cif.g08.bks.cpg/sg12_113_cif.got.tgz:225284.got - 2010.06.03 13:09:07.
