data_PCOD9219139
_publ_section_title
;
Structure prediction by ZEFSAII (Michael W. Deem and Ramdas Pophale) SiO2 
 PCOD9219139
Probable space group: C 2/M
;
_chemical_formula_sum "Si O2"
_cell_formula_units_Z 48
_cell_length_a 24.878885
_cell_length_b 7.620712
_cell_length_c 15.537974
_cell_angle_alpha 90.000000
_cell_angle_beta 60.466328
_cell_angle_gamma 90.000000
_cell_volume 2563.144716
_symmetry_space_group_name_H-M "C 2/M"
_symmetry_group_IT_number 12
_symmetry_cell_setting 'monoclinic'
loop_
_space_group_symop_operation_xyz
x,y,z
-x,y,-z
-x,-y,-z
x,-y,z
1/2+x,1/2+y,z
1/2-x,1/2+y,-z
1/2-x,1/2-y,-z
1/2+x,1/2-y,z
loop_
_atom_site_type_symbol
_atom_site_label
_atom_site_fract_x
_atom_site_fract_y
_atom_site_fract_z
Si Si1 0.308080 0.703971 0.892827
Si Si2 0.599807 0.286988 0.925885
Si Si3 0.571810 0.285743 0.754775
Si Si4 0.061545 0.784720 0.142959
Si Si5 0.791335 0.789579 0.385257
Si Si6 0.738143 0.711399 0.781284
O O1 0.315855 0.500000 0.902039
O O2 0.375233 0.781432 0.863294
O O3 0.289482 0.733045 0.808582
O O4 0.250000 0.750000 0.000000
O O5 0.597895 0.500000 0.926972
O O6 0.574409 0.232988 0.853398
O O7 0.671587 0.234113 0.871813
O O8 0.566578 0.231807 0.038735
O O9 0.572455 0.500000 0.751639
O O10 0.505739 0.228234 0.769752
O O11 0.637456 0.226336 0.664082
O O12 0.061020 0.000000 0.146202
O O13 0.750000 0.750000 0.500000
O O14 0.761965 0.726438 0.317700
O O15 0.794860 0.000000 0.374772
O O16 0.738989 0.500000 0.779447
#
# Coordination Sequence:
#
# PCOD9219139 Si02
#       6
#     8   8   8   8   8   8
#     4  11  20  29  44  67  97 132 162 189 221 266
#     4   8  12  21  39  63  90 117 146 184 225 264
#     4   8  14  24  41  67  92 115 148 190 235 272
#     4   9  15  23  39  64  93 122 153 188 222 263
#     4   9  18  32  53  75  93 115 148 196 245 285
#     4   9  17  31  47  68  95 122 157 193 226 270
#
# _framework density 18.726994999999999
#
# number of rings (size 3 to 8) (size 9 to 14) (size 15 to 20)
#    0.000    3.000    1.667    3.000    0.000    2.667 
#    0.000    0.000    0.000    3.000    0.000    9.333 
#    0.000    0.000    0.000    0.000    0.000    0.000 
#
# Total GULP energy -133657.857143 kJ/mol
# GULP energy per Si atom -5569.077381 kJ/mol
# Density = 1.868437 g / cm^3
# Si number density = 18.726995 Si / 1000 Ang^3
#
#
#
# Elastic Constant Matrix: (Units=GPa)
#
#
# Indices 1 2 3 4 5 6 
#
# 1 177.7689 5.2272 77.8142 0.0000 -23.7896 0.0000
# 2 5.2272 32.5772 -0.6939 0.0000 -3.0006 0.0001
# 3 77.8142 -0.6939 107.8832 0.0000 -17.9905 0.0000
# 4 0.0000 0.0000 0.0000 17.3400 0.0000 1.8777
# 5 -23.7896 -3.0006 -17.9905 0.0000 13.8186 0.0000
# 6 0.0000 0.0001 0.0000 1.8777 0.0000 11.7134
#
#
#
# Elastic Compliance Matrix: (Units=1/GPa)
#
#
# Indices 1 2 3 4 5 6 
#
# 1 0.009040 -0.000746 -0.005054 0.000000 0.008821 0.000000
# 2 -0.000746 0.031632 0.002137 0.000000 0.008367 0.000000
# 3 -0.005054 0.002137 0.014759 0.000000 0.010978 0.000000
# 4 0.000000 0.000000 0.000000 0.058689 0.000000 -0.009408
# 5 0.008821 0.008367 0.010978 0.000000 0.103660 0.000000
# 6 0.000000 0.000000 0.000000 -0.009408 0.000000 0.086881
#
#
# Mechanical properties :
#
#
# Convention : Reuss Voigt Hill
#
# Bulk Modulus (GPa) = 20.78808 53.65824 37.22316
# Shear Modulus (GPa) = 15.24284 24.29987 19.77135
#
# Velocity S-wave (km/s) = 2.85608 3.60611 3.25278
# Velocity P-wave (km/s) = 4.69051 6.78629 5.83330
#
# Compressibility (1/GPa) = 0.04810448
#
# Stress axis : x y z
#
# Youngs Moduli (GPa) = 110.61930 31.61346 67.75434
#
# Poissons Ratio (x) = 0.02357 0.34245
# Poissons Ratio (y) = 0.08249 -0.14476
# Poissons Ratio (z) = 0.55910 -0.06754
#
# Static dielectric constant tensor:
#      x y z
#    x 1.567900 0.000000 0.707930 
#    y 0.000000 1.728540 0.000010 
#    z 0.707930 0.000010 -1.908320 
# 
# From -- ./inp_files/236623.got.cif
#   From: 2010.05.17/outbox.cif.g08.bks.cpg/sg12_119_cif.got.tgz:236623.got - 2010.06.03 13:09:07.
