data_PCOD9219838
_publ_section_title
;
Structure prediction by ZEFSAII (Michael W. Deem and Ramdas Pophale) SiO2 
 PCOD9219838
Probable space group: C 2/M
;
_chemical_formula_sum "Si O2"
_cell_formula_units_Z 48
_cell_length_a 17.075264
_cell_length_b 17.871462
_cell_length_c 19.310070
_cell_angle_alpha 90.000000
_cell_angle_beta 156.442027
_cell_angle_gamma 90.000000
_cell_volume 2355.159138
_symmetry_space_group_name_H-M "C 2/M"
_symmetry_group_IT_number 12
_symmetry_cell_setting 'monoclinic'
loop_
_space_group_symop_operation_xyz
x,y,z
-x,y,-z
-x,-y,-z
x,-y,z
1/2+x,1/2+y,z
1/2-x,1/2+y,-z
1/2-x,1/2-y,-z
1/2+x,1/2-y,z
loop_
_atom_site_type_symbol
_atom_site_label
_atom_site_fract_x
_atom_site_fract_y
_atom_site_fract_z
Si Si1 0.726088 0.079002 0.704188
Si Si2 0.153315 0.411481 0.355689
Si Si3 0.768545 0.836074 0.995604
Si Si4 0.324784 0.632911 0.640707
Si Si5 0.694048 0.713617 0.127429
Si Si6 0.081090 0.219205 0.486777
O O1 0.500000 0.082711 0.500000
O O2 0.820855 0.083276 0.706017
O O3 0.770649 0.147933 0.788716
O O4 0.769046 0.000000 0.774291
O O5 0.170454 0.500000 0.354868
O O6 0.202663 0.396898 0.476939
O O7 0.305374 0.357508 0.438033
O O8 0.933386 0.381336 0.163193
O O9 0.831195 0.827977 0.965893
O O10 0.750000 0.750000 0.000000
O O11 0.944560 0.863854 0.186690
O O12 0.231148 0.713036 0.588498
O O13 0.886693 0.764981 0.283674
O O14 0.500000 0.753754 0.000000
O O15 0.000000 0.222709 0.500000
#
# Coordination Sequence:
#
# PCOD9219838 Si02
#       6
#     8   8   8   8   8   8
#     4  11  21  35  59  94 136 172 208 263 338 405
#     4  12  28  46  68 100 140 180 224 281 344 399
#     4  12  24  41  70  99 130 174 231 278 324 399
#     4  12  21  44  69  98 131 179 223 271 331 404
#     4  12  22  39  64 102 132 173 226 274 335 403
#     4  12  22  44  71  96 131 177 233 282 332 398
#
# _framework density 20.380789
#
# number of rings (size 3 to 8) (size 9 to 14) (size 15 to 20)
#    0.000    0.167    8.333    2.000    0.000    4.000 
#    0.000    0.000    0.000    0.500    0.000    0.000 
#    0.000    0.000    0.000    0.000    0.000    0.000 
#
# Total GULP energy -134009.529655 kJ/mol
# GULP energy per Si atom -5583.730402 kJ/mol
# Density = 2.033440 g / cm^3
# Si number density = 20.380789 Si / 1000 Ang^3
#
#
#
# Elastic Constant Matrix: (Units=GPa)
#
#
# Indices 1 2 3 4 5 6 
#
# 1 68.4787 32.4541 19.4119 -0.0183 -0.0807 -0.0311
# 2 32.4541 141.7395 52.8836 -0.0111 13.2515 -0.0325
# 3 19.4119 52.8836 146.2954 0.0380 20.4964 -0.0009
# 4 -0.0183 -0.0111 0.0380 56.0471 0.0110 33.6300
# 5 -0.0807 13.2515 20.4964 0.0110 29.1086 -0.0086
# 6 -0.0311 -0.0325 -0.0009 33.6300 -0.0086 39.2158
#
#
#
# Elastic Compliance Matrix: (Units=1/GPa)
#
#
# Indices 1 2 3 4 5 6 
#
# 1 0.016665 -0.003580 -0.001278 -0.000003 0.002576 0.000013
# 2 -0.003580 0.009011 -0.002448 0.000001 -0.002389 0.000003
# 3 -0.001278 -0.002448 0.008581 -0.000007 -0.004931 0.000002
# 4 -0.000003 0.000001 -0.000007 0.036755 -0.000019 -0.031520
# 5 0.002576 -0.002389 -0.004931 -0.000019 0.038921 0.000024
# 6 0.000013 0.000003 0.000002 -0.031520 0.000024 0.052530
#
#
# Mechanical properties :
#
#
# Convention : Reuss Voigt Hill
#
# Bulk Modulus (GPa) = 50.90134 62.89033 56.89583
# Shear Modulus (GPa) = 27.22964 41.65857 34.44410
#
# Velocity S-wave (km/s) = 3.65916 4.52598 4.11545
# Velocity P-wave (km/s) = 6.54843 7.63134 7.11053
#
# Compressibility (1/GPa) = 0.01964585
#
# Stress axis : x y z
#
# Youngs Moduli (GPa) = 60.00606 110.96952 116.53893
#
# Poissons Ratio (x) = 0.39724 0.14895
# Poissons Ratio (y) = 0.21481 0.28527
# Poissons Ratio (z) = 0.07670 0.27164
#
# Static dielectric constant tensor:
#      x y z
#    x 1.631160 0.000140 -0.009700 
#    y 0.000140 1.780650 -0.000020 
#    z -0.009700 -0.000020 1.787790 
# 
# From -- ./inp_files/285334.got.cif
#   From: 2010.05.17/outbox.cif.g08.bks.cpg/sg12_143_cif.got.tgz:285334.got - 2010.06.03 13:09:07.
