data_PCOD9219995
_publ_section_title
;
Structure prediction by ZEFSAII (Michael W. Deem and Ramdas Pophale) SiO2 
 PCOD9219995
Probable space group: C 2/M
;
_chemical_formula_sum "Si O2"
_cell_formula_units_Z 32
_cell_length_a 28.103252
_cell_length_b 7.988574
_cell_length_c 15.716584
_cell_angle_alpha 90.000000
_cell_angle_beta 26.741402
_cell_angle_gamma 90.000000
_cell_volume 1587.677114
_symmetry_space_group_name_H-M "C 2/M"
_symmetry_group_IT_number 12
_symmetry_cell_setting 'monoclinic'
loop_
_space_group_symop_operation_xyz
x,y,z
-x,y,-z
-x,-y,-z
x,-y,z
1/2+x,1/2+y,z
1/2-x,1/2+y,-z
1/2-x,1/2-y,-z
1/2+x,1/2-y,z
loop_
_atom_site_type_symbol
_atom_site_label
_atom_site_fract_x
_atom_site_fract_y
_atom_site_fract_z
Si Si1 0.459123 0.814186 0.303455
Si Si2 0.920019 0.802082 0.554553
Si Si3 0.586328 0.500000 0.735748
Si Si4 0.808112 0.808398 0.096607
Si Si5 0.342962 0.500000 0.193425
O O1 0.441307 0.788315 0.431764
O O2 0.405987 0.665555 0.334035
O O3 0.425296 0.000000 0.331231
O O4 0.585425 0.792401 0.088094
O O5 0.797652 0.768764 0.771912
O O6 0.000000 0.744828 0.500000
O O7 0.936357 0.000000 0.515560
O O8 0.659842 0.500000 0.701440
O O9 0.466019 0.500000 0.965725
O O10 0.822731 0.000000 0.040259
O O11 0.795114 0.840859 0.219538
#
# Coordination Sequence:
#
# PCOD9219995 Si02
#       5
#     8   8   4   8   4
#     4  11  21  37  62  87 119 159 193 238 294 344
#     4  11  23  39  59  85 119 156 196 246 294 346
#     4   9  16  38  59  86 119 151 194 247 278 348
#     4   9  19  38  60  84 119 151 194 243 285 344
#     4   7  16  34  63  80 117 155 186 245 294 326
#
# _framework density 20.155232000000002
#
# number of rings (size 3 to 8) (size 9 to 14) (size 15 to 20)
#    0.750    1.500    2.500    1.500    0.000    3.000 
#    0.000   12.500    0.000    0.000    0.000    0.000 
#    0.000    0.000    0.000    0.000    0.000    0.000 
#
# Total GULP energy -89220.689404 kJ/mol
# GULP energy per Si atom -5576.293088 kJ/mol
# Density = 2.010936 g / cm^3
# Si number density = 20.155232 Si / 1000 Ang^3
#
#
#
# Elastic Constant Matrix: (Units=GPa)
#
#
# Indices 1 2 3 4 5 6 
#
# 1 72.1510 22.0539 22.9611 0.0000 -10.3685 0.0000
# 2 22.0539 117.5819 12.5284 -0.0001 8.8310 0.0000
# 3 22.9611 12.5284 42.8433 0.0000 -3.3480 0.0000
# 4 0.0000 -0.0001 0.0000 25.5999 0.0000 -1.0770
# 5 -10.3685 8.8310 -3.3480 0.0000 26.6045 0.0000
# 6 0.0000 0.0000 0.0000 -1.0770 0.0000 4.3158
#
#
#
# Elastic Compliance Matrix: (Units=1/GPa)
#
#
# Indices 1 2 3 4 5 6 
#
# 1 0.018539 -0.003116 -0.008462 0.000000 0.007195 0.000000
# 2 -0.003116 0.009593 -0.001494 0.000000 -0.004587 0.000000
# 3 -0.008462 -0.001494 0.028373 0.000000 0.000768 0.000000
# 4 0.000000 0.000000 0.000000 0.039477 0.000000 0.009852
# 5 0.007195 -0.004587 0.000768 0.000000 0.042011 0.000000
# 6 0.000000 0.000000 0.000000 0.009852 0.000000 0.234163
#
#
# Mechanical properties :
#
#
# Convention : Reuss Voigt Hill
#
# Bulk Modulus (GPa) = 32.93695 38.62923 35.78309
# Shear Modulus (GPa) = 12.24230 22.97291 17.60760
#
# Velocity S-wave (km/s) = 2.46722 3.37975 2.95888
# Velocity P-wave (km/s) = 4.94908 5.86837 5.42822
#
# Compressibility (1/GPa) = 0.03036104
#
# Stress axis : x y z
#
# Youngs Moduli (GPa) = 53.93982 104.24526 35.24486
#
# Poissons Ratio (x) = 0.32482 0.29825
# Poissons Ratio (y) = 0.16807 0.05264
# Poissons Ratio (z) = 0.45646 0.15570
#
# Static dielectric constant tensor:
#      x y z
#    x 1.714570 0.000000 -0.015010 
#    y 0.000000 1.710580 0.000000 
#    z -0.015010 0.000000 1.746270 
# 
# From -- ./inp_files/243443.got.cif
#   From: 2010.05.17/outbox.cif.g08.bks.cpg/sg12_122_cif.got.tgz:243443.got - 2010.06.03 13:09:07.
