data_PCOD9219059
_publ_section_title
;
Structure prediction by ZEFSAII (Michael W. Deem and Ramdas Pophale) SiO2 
 PCOD9219059
Probable space group: C 2/M
;
_chemical_formula_sum "Si O2"
_cell_formula_units_Z 40
_cell_length_a 15.373529
_cell_length_b 23.979089
_cell_length_c 14.948590
_cell_angle_alpha 90.000000
_cell_angle_beta 160.503448
_cell_angle_gamma 90.000000
_cell_volume 1839.195633
_symmetry_space_group_name_H-M "C 2/M"
_symmetry_group_IT_number 12
_symmetry_cell_setting 'monoclinic'
loop_
_space_group_symop_operation_xyz
x,y,z
-x,y,-z
-x,-y,-z
x,-y,z
1/2+x,1/2+y,z
1/2-x,1/2+y,-z
1/2-x,1/2-y,-z
1/2+x,1/2-y,z
loop_
_atom_site_type_symbol
_atom_site_label
_atom_site_fract_x
_atom_site_fract_y
_atom_site_fract_z
Si Si1 0.934877 0.778831 0.606042
Si Si2 0.865229 0.937366 0.257017
Si Si3 0.630604 0.872519 0.241824
Si Si4 0.746936 0.376428 0.010858
Si Si5 0.267274 0.818425 0.207454
O O1 0.750000 0.750000 0.500000
O O2 0.762706 0.812096 0.364614
O O3 0.104964 0.824552 0.823583
O O4 0.123189 0.734510 0.741914
O O5 0.863645 0.930510 0.147059
O O6 0.149323 0.918363 0.562707
O O7 0.798113 0.000000 0.217186
O O8 0.644926 0.891179 0.067400
O O9 0.545264 0.874427 0.264784
O O10 0.720774 0.366769 0.089377
O O11 0.500000 0.833510 0.500000
O O12 0.000000 0.806411 0.000000
#
# Coordination Sequence:
#
# PCOD9219059 Si02
#       5
#     8   8   8   8   8
#     4  11  19  37  59  75 109 151 190 214 271 338
#     4   9  17  31  53  82 106 130 178 239 278 299
#     4   9  19  29  55  77 101 138 182 217 271 316
#     4   9  21  36  55  78 106 150 185 215 271 328
#     4  12  26  34  52  82 116 146 186 229 264 311
#
# _framework density 21.748636999999999
#
# number of rings (size 3 to 8) (size 9 to 14) (size 15 to 20)
#    1.200    0.800    2.000    2.400    5.600    0.000 
#    0.000    0.000    0.000    1.200    0.000    0.000 
#    0.000   84.800    0.000    0.000    0.000    0.000 
#
# Total GULP energy -111562.972089 kJ/mol
# GULP energy per Si atom -5578.148604 kJ/mol
# Density = 2.169914 g / cm^3
# Si number density = 21.748637 Si / 1000 Ang^3
#
#
#
# Elastic Constant Matrix: (Units=GPa)
#
#
# Indices 1 2 3 4 5 6 
#
# 1 110.9714 22.8086 43.4330 0.0004 17.5322 0.0007
# 2 22.8086 68.6321 26.9079 -0.0002 2.3400 0.0003
# 3 43.4330 26.9079 136.5110 0.0005 7.5502 0.0024
# 4 0.0004 -0.0002 0.0005 23.1497 0.0011 -2.4083
# 5 17.5322 2.3400 7.5502 0.0011 53.3888 0.0006
# 6 0.0007 0.0003 0.0024 -2.4083 0.0006 15.0573
#
#
#
# Elastic Compliance Matrix: (Units=1/GPa)
#
#
# Indices 1 2 3 4 5 6 
#
# 1 0.011144 -0.002465 -0.002886 0.000000 -0.003143 0.000000
# 2 -0.002465 0.016339 -0.002461 0.000000 0.000441 0.000000
# 3 -0.002886 -0.002461 0.008739 0.000000 -0.000180 -0.000001
# 4 0.000000 0.000000 0.000000 0.043928 -0.000001 0.007026
# 5 -0.003143 0.000441 -0.000180 -0.000001 0.019769 -0.000001
# 6 0.000000 0.000000 -0.000001 0.007026 -0.000001 0.067537
#
#
# Mechanical properties :
#
#
# Convention : Reuss Voigt Hill
#
# Bulk Modulus (GPa) = 48.54663 55.82371 52.18517
# Shear Modulus (GPa) = 26.32334 33.18349 29.75342
#
# Velocity S-wave (km/s) = 3.48277 3.91035 3.70274
# Velocity P-wave (km/s) = 6.20831 6.79052 6.50593
#
# Compressibility (1/GPa) = 0.02059875
#
# Stress axis : x y z
#
# Youngs Moduli (GPa) = 89.73348 61.20187 114.43406
#
# Poissons Ratio (x) = 0.15086 0.33025
# Poissons Ratio (y) = 0.22118 0.28161
# Poissons Ratio (z) = 0.25897 0.15061
#
# Static dielectric constant tensor:
#      x y z
#    x 1.948150 0.000000 -0.057900 
#    y 0.000000 1.756810 0.000000 
#    z -0.057900 0.000000 1.837800 
# 
# From -- ./inp_files/219180.got.cif
#   From: 2010.05.17/outbox.cif.g08.bks.cpg/sg12_110_cif.got.tgz:219180.got - 2010.06.03 13:09:07.
