data_PCOD9219717
_publ_section_title
;
Structure prediction by ZEFSAII (Michael W. Deem and Ramdas Pophale) SiO2 
 PCOD9219717
Probable space group: C 2/M
;
_chemical_formula_sum "Si O2"
_cell_formula_units_Z 40
_cell_length_a 7.202003
_cell_length_b 22.274923
_cell_length_c 13.151808
_cell_angle_alpha 90.000000
_cell_angle_beta 114.791181
_cell_angle_gamma 90.000000
_cell_volume 1915.425455
_symmetry_space_group_name_H-M "C 2/M"
_symmetry_group_IT_number 12
_symmetry_cell_setting 'monoclinic'
loop_
_space_group_symop_operation_xyz
x,y,z
-x,y,-z
-x,-y,-z
x,-y,z
1/2+x,1/2+y,z
1/2-x,1/2+y,-z
1/2-x,1/2-y,-z
1/2+x,1/2-y,z
loop_
_atom_site_type_symbol
_atom_site_label
_atom_site_fract_x
_atom_site_fract_y
_atom_site_fract_z
Si Si1 0.626611 0.275338 0.375152
Si Si2 0.360124 0.381411 0.379568
Si Si3 0.798568 0.428954 0.090597
Si Si4 0.418021 0.841533 0.289933
Si Si5 0.717829 0.431424 0.853905
O O1 0.750000 0.250000 0.500000
O O2 0.944012 0.185372 0.379475
O O3 0.520384 0.223013 0.283067
O O4 0.774545 0.320339 0.348487
O O5 0.500000 0.408929 0.500000
O O6 0.380852 0.408253 0.271865
O O7 0.123690 0.379722 0.360116
O O8 0.750815 0.500000 0.101740
O O9 0.791609 0.381374 0.180624
O O10 0.039784 0.428551 0.115546
O O11 0.686770 0.407188 0.961218
O O12 0.658426 0.500000 0.850604
#
# Coordination Sequence:
#
# PCOD9219717 Si02
#       5
#     8   8   8   8   8
#     4  12  22  36  56  83 116 155 189 230 287 346
#     4  11  21  33  57  86 115 149 192 234 283 341
#     4   8  16  35  62  84 111 153 193 235 290 343
#     4  11  21  35  60  85 113 152 193 232 280 345
#     4   8  16  34  59  84 113 151 192 236 289 343
#
# _framework density 20.883089999999999
#
# number of rings (size 3 to 8) (size 9 to 14) (size 15 to 20)
#    0.000    2.000    4.000    1.800    0.000    0.400 
#    0.000    3.000    4.400    4.800    0.000    0.000 
#    0.000    0.000    0.000    0.000    0.000    0.000 
#
# Total GULP energy -111357.447950 kJ/mol
# GULP energy per Si atom -5567.872397 kJ/mol
# Density = 2.083556 g / cm^3
# Si number density = 20.883090 Si / 1000 Ang^3
#
#
#
# Elastic Constant Matrix: (Units=GPa)
#
#
# Indices 1 2 3 4 5 6 
#
# 1 98.8309 17.4170 44.5280 0.0000 -10.2423 0.0000
# 2 17.4170 56.0395 77.0533 0.0000 -12.8302 0.0000
# 3 44.5280 77.0533 204.0897 0.0000 -9.7288 0.0000
# 4 0.0000 0.0000 0.0000 33.7710 0.0000 -50.0830
# 5 -10.2423 -12.8302 -9.7288 0.0000 33.0863 0.0000
# 6 0.0000 0.0000 0.0000 -50.0830 0.0000 -104.3066
#
#
#
# Elastic Compliance Matrix: (Units=1/GPa)
#
#
# Indices 1 2 3 4 5 6 
#
# 1 0.011497 0.000789 -0.002659 0.000000 0.003083 0.000000
# 2 0.000789 0.041075 -0.015121 0.000000 0.011726 0.000000
# 3 -0.002659 -0.015121 0.011025 0.000000 -0.003445 0.000000
# 4 0.000000 0.000000 0.000000 0.017296 0.000000 -0.008304
# 5 0.003083 0.011726 -0.003445 0.000000 0.034712 0.000000
# 6 0.000000 0.000000 0.000000 -0.008304 0.000000 -0.005600
#
#
# Mechanical properties :
#
#
# Convention : Reuss Voigt Hill
#
# Bulk Modulus (GPa) = 33.76740 70.77300 52.27020
# Shear Modulus (GPa) = 32.49745 7.17425 19.83585
#
# Velocity S-wave (km/s) = 3.94910 1.85550 3.08531
# Velocity P-wave (km/s) = 6.08265 6.20920 6.14625
#
# Compressibility (1/GPa) = 0.02961436
#
# Stress axis : x y z
#
# Youngs Moduli (GPa) = 86.98002 24.34577 90.70590
#
# Poissons Ratio (x) = -0.01921 0.24122
# Poissons Ratio (y) = -0.06865 1.37155
# Poissons Ratio (z) = 0.23131 0.36813
#
# Static dielectric constant tensor:
#      x y z
#    x 1.843730 0.000000 0.036400 
#    y 0.000000 1.774920 0.000000 
#    z 0.036400 0.000000 1.811430 
# 
# From -- ./inp_files/123208.got.cif
#   From: 2010.05.17/outbox.cif.g08.bks.cpg/sg12_62_cif.got.tgz:123208.got - 2010.06.03 13:09:07.
