data_PCOD9219871
_publ_section_title
;
Structure prediction by ZEFSAII (Michael W. Deem and Ramdas Pophale) SiO2 
 PCOD9219871
Probable space group: C 2/M
;
_chemical_formula_sum "Si O2"
_cell_formula_units_Z 40
_cell_length_a 29.741393
_cell_length_b 7.360707
_cell_length_c 21.881003
_cell_angle_alpha 90.000000
_cell_angle_beta 29.246455
_cell_angle_gamma 90.000000
_cell_volume 2340.304784
_symmetry_space_group_name_H-M "C 2/M"
_symmetry_group_IT_number 12
_symmetry_cell_setting 'monoclinic'
loop_
_space_group_symop_operation_xyz
x,y,z
-x,y,-z
-x,-y,-z
x,-y,z
1/2+x,1/2+y,z
1/2-x,1/2+y,-z
1/2-x,1/2-y,-z
1/2+x,1/2-y,z
loop_
_atom_site_type_symbol
_atom_site_label
_atom_site_fract_x
_atom_site_fract_y
_atom_site_fract_z
Si Si1 0.764313 0.214717 0.911665
Si Si2 0.445116 0.219620 0.127493
Si Si3 0.598623 0.000000 0.305344
Si Si4 0.115012 0.500000 0.432942
Si Si5 0.231994 0.281670 0.727495
Si Si6 0.880890 0.280464 0.014573
O O1 0.850098 0.326849 0.784187
O O2 0.674702 0.276500 0.979164
O O3 0.776763 0.000000 0.886524
O O4 0.750000 0.250000 0.000000
O O5 0.340374 0.276230 0.239628
O O6 0.441198 0.000000 0.135517
O O7 0.500000 0.263114 0.000000
O O8 0.514508 0.284044 0.097968
O O9 0.612760 0.000000 0.361663
O O10 0.490139 0.000000 0.421147
O O11 0.173370 0.673725 0.385723
O O12 0.243976 0.500000 0.711392
O O13 0.180945 0.236541 0.852441
O O14 0.885804 0.500000 0.007294
#
# Coordination Sequence:
#
# PCOD9219871 Si02
#       6
#     8   8   4   4   8   8
#     4  11  21  36  57  76 103 134 173 217 262 303
#     4   7  11  22  42  68 101 132 161 197 253 313
#     4  11  24  38  49  78 105 141 175 216 255 298
#     4  11  22  34  52  73 112 139 176 210 246 312
#     4   9  16  29  48  71 103 140 165 202 256 309
#     4   8  14  26  46  73 103 134 163 204 260 310
#
# _framework density 17.091791000000001
#
# number of rings (size 3 to 8) (size 9 to 14) (size 15 to 20)
#    0.000    2.800    3.000    2.400    0.000    0.800 
#    0.000    7.500    0.000    0.000    0.000    1.400 
#    0.000    0.000    0.000    0.000    0.000    0.000 
#
# Total GULP energy -111385.189358 kJ/mol
# GULP energy per Si atom -5569.259468 kJ/mol
# Density = 1.705289 g / cm^3
# Si number density = 17.091791 Si / 1000 Ang^3
#
#
#
# Elastic Constant Matrix: (Units=GPa)
#
#
# Indices 1 2 3 4 5 6 
#
# 1 123.0739 29.4111 75.7346 0.0009 -38.0995 0.0000
# 2 29.4111 92.7420 42.2797 -0.0181 -15.8227 0.0024
# 3 75.7346 42.2797 109.4089 -0.0148 -42.3263 -0.0046
# 4 0.0009 -0.0181 -0.0148 23.7025 0.0001 0.3406
# 5 -38.0995 -15.8227 -42.3263 0.0001 37.1287 0.0015
# 6 0.0000 0.0024 -0.0046 0.3406 0.0015 23.4480
#
#
#
# Elastic Compliance Matrix: (Units=1/GPa)
#
#
# Indices 1 2 3 4 5 6 
#
# 1 0.014944 -0.000073 -0.007864 -0.000006 0.006339 -0.000002
# 2 -0.000073 0.013091 -0.005151 0.000007 -0.000367 -0.000002
# 3 -0.007864 -0.005151 0.022547 0.000010 0.015438 0.000004
# 4 -0.000006 0.000007 0.000010 0.042198 0.000009 -0.000613
# 5 0.006339 -0.000367 0.015438 0.000009 0.050880 0.000000
# 6 -0.000002 -0.000002 0.000004 -0.000613 0.000000 0.042656
#
#
# Mechanical properties :
#
#
# Convention : Reuss Voigt Hill
#
# Bulk Modulus (GPa) = 40.97252 68.89729 54.93490
# Shear Modulus (GPa) = 22.66255 28.70914 25.68584
#
# Velocity S-wave (km/s) = 3.64529 4.10286 3.88082
# Velocity P-wave (km/s) = 6.46077 7.92732 7.23132
#
# Compressibility (1/GPa) = 0.02440660
#
# Stress axis : x y z
#
# Youngs Moduli (GPa) = 66.91562 76.38775 44.35228
#
# Poissons Ratio (x) = 0.00554 0.34880
# Poissons Ratio (y) = 0.00485 0.22845
# Poissons Ratio (z) = 0.52625 0.39346
#
# Static dielectric constant tensor:
#      x y z
#    x 1.604080 0.000000 -0.052190 
#    y 0.000000 1.647320 0.000000 
#    z -0.052190 0.000000 1.550240 
# 
# From -- ./inp_files/352970.got.cif
#   From: 2010.05.17/outbox.cif.g08.bks.cpg/sg12_177_cif.got.tgz:352970.got - 2010.06.03 13:09:07.
