data_PCOD9219424
_publ_section_title
;
Structure prediction by ZEFSAII (Michael W. Deem and Ramdas Pophale) SiO2 
 PCOD9219424
Probable space group: C 2/M
;
_chemical_formula_sum "Si O2"
_cell_formula_units_Z 64
_cell_length_a 15.475088
_cell_length_b 18.961314
_cell_length_c 14.830646
_cell_angle_alpha 90.000000
_cell_angle_beta 132.801526
_cell_angle_gamma 90.000000
_cell_volume 3192.913191
_symmetry_space_group_name_H-M "C 2/M"
_symmetry_group_IT_number 12
_symmetry_cell_setting 'monoclinic'
loop_
_space_group_symop_operation_xyz
x,y,z
-x,y,-z
-x,-y,-z
x,-y,z
1/2+x,1/2+y,z
1/2-x,1/2+y,-z
1/2-x,1/2-y,-z
1/2+x,1/2-y,z
loop_
_atom_site_type_symbol
_atom_site_label
_atom_site_fract_x
_atom_site_fract_y
_atom_site_fract_z
Si Si1 0.269072 0.152671 0.349261
Si Si2 0.841426 0.364806 0.699895
Si Si3 0.951260 0.776377 0.719956
Si Si4 0.543100 0.920563 0.388301
Si Si5 0.891763 0.787877 0.477311
Si Si6 0.791999 0.170874 0.051578
Si Si7 0.724521 0.084678 0.828468
Si Si8 0.640589 0.083105 0.090020
O O1 0.156664 0.173449 0.328704
O O2 0.369055 0.112852 0.477098
O O3 0.333652 0.227023 0.374311
O O4 0.225291 0.110371 0.231506
O O5 0.927754 0.295821 0.759647
O O6 0.896678 0.416806 0.666647
O O7 0.715178 0.338834 0.576152
O O8 0.818838 0.397804 0.780751
O O9 0.935211 0.757022 0.603403
O O10 0.073655 0.816261 0.821802
O O11 0.412128 0.891392 0.279818
O O12 0.524367 0.000000 0.405092
O O13 0.000000 0.820120 0.500000
O O14 0.709299 0.132053 0.067176
O O15 0.750000 0.250000 0.000000
O O16 0.781145 0.124141 0.953352
O O17 0.730187 0.000000 0.843576
O O18 0.658113 0.000000 0.080615
O O19 0.500000 0.095463 0.000000
#
# Coordination Sequence:
#
# PCOD9219424 Si02
#       8
#     8   8   8   8   8   8   8   8
#     4  11  22  39  65  94 130 167 210 266 334 389
#     4  11  21  39  64  95 130 164 214 269 331 389
#     4  11  23  42  63  97 132 172 212 270 333 387
#     4  11  20  37  64  95 127 163 213 267 323 393
#     4  11  21  37  66  93 131 164 209 269 333 382
#     4  12  27  43  68  96 131 171 227 272 321 390
#     4  11  25  43  64  94 130 174 220 272 326 383
#     4  11  24  44  67  94 129 175 221 273 329 383
#
# _framework density 20.044391000000001
#
# number of rings (size 3 to 8) (size 9 to 14) (size 15 to 20)
#    0.000    0.875    2.500    6.000    5.250    3.500 
#    0.000    3.125    0.000    1.500    0.000    0.000 
#    0.000    0.000    0.000    0.000    0.000    0.000 
#
# Total GULP energy -178670.131061 kJ/mol
# GULP energy per Si atom -5583.441596 kJ/mol
# Density = 1.999877 g / cm^3
# Si number density = 20.044391 Si / 1000 Ang^3
#
#
#
# Elastic Constant Matrix: (Units=GPa)
#
#
# Indices 1 2 3 4 5 6 
#
# 1 103.5978 36.7056 25.6995 0.0000 0.6492 0.0000
# 2 36.7056 70.3419 20.4067 0.0000 2.7356 0.0000
# 3 25.6995 20.4067 65.9273 0.0000 -1.0188 0.0000
# 4 0.0000 0.0000 0.0000 15.9945 0.0000 -2.2477
# 5 0.6492 2.7356 -1.0188 0.0000 42.4110 0.0000
# 6 0.0000 0.0000 0.0000 -2.2477 0.0000 30.7154
#
#
#
# Elastic Compliance Matrix: (Units=1/GPa)
#
#
# Indices 1 2 3 4 5 6 
#
# 1 0.012397 -0.005571 -0.003106 0.000000 0.000095 0.000000
# 2 -0.005571 0.018176 -0.003473 0.000000 -0.001171 0.000000
# 3 -0.003106 -0.003473 0.017465 0.000000 0.000691 0.000000
# 4 0.000000 0.000000 0.000000 0.063171 0.000000 0.004623
# 5 0.000095 -0.001171 0.000691 0.000000 0.023669 0.000000
# 6 0.000000 0.000000 0.000000 0.004623 0.000000 0.032895
#
#
# Mechanical properties :
#
#
# Convention : Reuss Voigt Hill
#
# Bulk Modulus (GPa) = 42.12785 45.05452 43.59118
# Shear Modulus (GPa) = 25.00166 28.29453 26.64810
#
# Velocity S-wave (km/s) = 3.53557 3.76119 3.65012
# Velocity P-wave (km/s) = 6.14246 6.43337 6.28960
#
# Compressibility (1/GPa) = 0.02373727
#
# Stress axis : x y z
#
# Youngs Moduli (GPa) = 80.66669 55.01638 57.25829
#
# Poissons Ratio (x) = 0.30651 0.17787
# Poissons Ratio (y) = 0.44942 0.19883
# Poissons Ratio (z) = 0.25059 0.19105
#
# Static dielectric constant tensor:
#      x y z
#    x 1.731450 0.000000 -0.044870 
#    y 0.000000 1.691900 0.000000 
#    z -0.044870 0.000000 1.796960 
# 
# From -- ./inp_files/216848.got.cif
#   From: 2010.05.17/outbox.cif.g08.bks.cpg/sg12_109_cif.got.tgz:216848.got - 2010.06.03 13:09:07.
