data_PCOD9219001
_publ_section_title
;
Structure prediction by ZEFSAII (Michael W. Deem and Ramdas Pophale) SiO2 
 PCOD9219001
Probable space group: C 2/M
;
_chemical_formula_sum "Si O2"
_cell_formula_units_Z 48
_cell_length_a 15.315437
_cell_length_b 19.941622
_cell_length_c 9.417063
_cell_angle_alpha 90.000000
_cell_angle_beta 68.606865
_cell_angle_gamma 90.000000
_cell_volume 2677.943779
_symmetry_space_group_name_H-M "C 2/M"
_symmetry_group_IT_number 12
_symmetry_cell_setting 'monoclinic'
loop_
_space_group_symop_operation_xyz
x,y,z
-x,y,-z
-x,-y,-z
x,-y,z
1/2+x,1/2+y,z
1/2-x,1/2+y,-z
1/2-x,1/2-y,-z
1/2+x,1/2-y,z
loop_
_atom_site_type_symbol
_atom_site_label
_atom_site_fract_x
_atom_site_fract_y
_atom_site_fract_z
Si Si1 0.059173 0.782950 0.817122
Si Si2 0.421424 0.079025 0.936713
Si Si3 0.997379 0.926190 0.828964
Si Si4 0.245614 0.786553 0.849073
Si Si5 0.785323 0.922864 0.983663
Si Si6 0.450296 0.183761 0.676512
O O1 0.162663 0.760320 0.800241
O O2 0.053735 0.859042 0.760452
O O3 0.011528 0.734385 0.733651
O O4 0.000000 0.782271 0.000000
O O5 0.434404 0.118565 0.783252
O O6 0.436799 0.000000 0.908023
O O7 0.500000 0.103973 0.000000
O O8 0.311741 0.087477 0.045759
O O9 0.887593 0.916459 0.852201
O O10 0.028754 0.000000 0.759139
O O11 0.000000 0.929530 0.000000
O O12 0.347364 0.784171 0.719647
O O13 0.250000 0.750000 0.000000
O O14 0.218764 0.864146 0.898011
O O15 0.781608 0.000000 0.040216
O O16 0.500000 0.168963 0.500000
#
# Coordination Sequence:
#
# PCOD9219001 Si02
#       6
#     8   8   8   8   8   8
#     4  11  19  34  56  80 103 141 181 222 267 322
#     4   9  19  35  56  79 103 139 184 225 263 316
#     4   9  15  26  48  81 106 123 162 222 271 307
#     4  11  20  33  56  79 104 139 182 222 266 319
#     4   9  16  27  47  78 107 127 162 218 272 311
#     4  11  24  37  52  79 113 145 178 224 276 325
#
# _framework density 17.924199999999999
#
# number of rings (size 3 to 8) (size 9 to 14) (size 15 to 20)
#    0.000    2.000    5.000    0.500    2.333    1.000 
#    0.000    0.000    0.000    0.500    0.000    0.000 
#    0.000    0.000    0.000    0.000    0.000    0.000 
#
# Total GULP energy -133667.380090 kJ/mol
# GULP energy per Si atom -5569.474170 kJ/mol
# Density = 1.788340 g / cm^3
# Si number density = 17.924200 Si / 1000 Ang^3
#
#
#
# Elastic Constant Matrix: (Units=GPa)
#
#
# Indices 1 2 3 4 5 6 
#
# 1 152.9205 20.7055 28.9713 0.0000 -5.4322 0.0000
# 2 20.7055 62.3300 6.1320 0.0000 6.6058 0.0000
# 3 28.9713 6.1320 46.1253 0.0000 -7.9064 0.0000
# 4 0.0000 0.0000 0.0000 -2.6561 0.0000 -1.0953
# 5 -5.4322 6.6058 -7.9064 0.0000 13.7891 0.0000
# 6 0.0000 0.0000 0.0000 -1.0953 0.0000 25.2705
#
#
#
# Elastic Compliance Matrix: (Units=1/GPa)
#
#
# Indices 1 2 3 4 5 6 
#
# 1 0.007720 -0.002330 -0.004244 0.000000 0.001724 0.000000
# 2 -0.002330 0.018309 -0.002918 0.000000 -0.011362 0.000000
# 3 -0.004244 -0.002918 0.027377 0.000000 0.015424 0.000000
# 4 0.000000 0.000000 0.000000 -0.369879 0.000000 -0.016031
# 5 0.001724 -0.011362 0.015424 0.000000 0.087487 0.000000
# 6 0.000000 0.000000 0.000000 -0.016031 0.000000 0.038877
#
#
# Mechanical properties :
#
#
# Convention : Reuss Voigt Hill
#
# Bulk Modulus (GPa) = 29.05058 41.44372 35.24715
# Shear Modulus (GPa) = -31.31846 20.98516 -5.16665
#
# Velocity S-wave (km/s) = -4.18457 3.42537 -1.69963
# Velocity P-wave (km/s) = 2.66550 6.23025 3.98191
#
# Compressibility (1/GPa) = 0.03442272
#
# Stress axis : x y z
#
# Youngs Moduli (GPa) = 129.53327 54.61847 36.52651
#
# Poissons Ratio (x) = 0.12725 0.15501
# Poissons Ratio (y) = 0.30178 0.10660
# Poissons Ratio (z) = 0.54970 0.15939
#
# Static dielectric constant tensor:
#      x y z
#    x 1.679500 0.000000 -0.012080 
#    y 0.000000 1.656450 0.000000 
#    z -0.012080 0.000000 1.568540 
# 
# From -- ./inp_files/63340.got.cif
#   From: 2010.05.17/outbox.cif.g08.bks.cpg/sg12_32_cif.got.tgz:63340.got - 2010.06.03 13:09:07.
