data_PCOD9219240
_publ_section_title
;
Structure prediction by ZEFSAII (Michael W. Deem and Ramdas Pophale) SiO2 
 PCOD9219240
Probable space group: C 2/M
;
_chemical_formula_sum "Si O2"
_cell_formula_units_Z 48
_cell_length_a 20.879013
_cell_length_b 7.922875
_cell_length_c 17.780520
_cell_angle_alpha 90.000000
_cell_angle_beta 39.494614
_cell_angle_gamma 90.000000
_cell_volume 1870.674484
_symmetry_space_group_name_H-M "C 2/M"
_symmetry_group_IT_number 12
_symmetry_cell_setting 'monoclinic'
loop_
_space_group_symop_operation_xyz
x,y,z
-x,y,-z
-x,-y,-z
x,-y,z
1/2+x,1/2+y,z
1/2-x,1/2+y,-z
1/2-x,1/2-y,-z
1/2+x,1/2-y,z
loop_
_atom_site_type_symbol
_atom_site_label
_atom_site_fract_x
_atom_site_fract_y
_atom_site_fract_z
Si Si1 0.789702 0.696523 0.850891
Si Si2 0.157289 0.305373 0.518939
Si Si3 0.888045 0.206344 0.080165
Si Si4 0.527767 0.693093 0.215472
Si Si5 0.644184 0.293765 0.726056
Si Si6 0.119639 0.193169 0.389123
O O1 0.774626 0.500000 0.876583
O O2 0.678713 0.768720 0.929676
O O3 0.865671 0.750277 0.847895
O O4 0.848591 0.729861 0.719525
O O5 0.151364 0.500000 0.547973
O O6 0.273194 0.235853 0.409697
O O7 0.142967 0.301791 0.441367
O O8 0.061587 0.208300 0.640609
O O9 0.833211 0.250262 0.208666
O O10 0.892521 0.000000 0.070339
O O11 0.000000 0.263023 0.000000
O O12 0.544397 0.500000 0.180749
O O13 0.466041 0.768268 0.200677
O O14 0.643926 0.500000 0.722434
O O15 0.000000 0.181400 0.500000
O O16 0.157960 0.000000 0.361235
#
# Coordination Sequence:
#
# PCOD9219240 Si02
#       6
#     8   8   8   8   8   8
#     4  11  21  35  57  82 109 141 185 232 271 320
#     4  11  20  33  54  80 112 148 191 227 260 314
#     4   9  18  36  62  86 104 132 183 238 282 324
#     4  11  22  35  52  79 119 154 182 216 270 333
#     4   9  19  35  54  80 112 148 185 225 272 322
#     4  11  21  32  50  79 114 149 184 220 270 327
#
# _framework density 25.659192999999998
#
# number of rings (size 3 to 8) (size 9 to 14) (size 15 to 20)
#    0.000    1.667    3.333    2.500    0.000    0.667 
#    0.000    3.333    0.000    2.000    0.000    0.000 
#    0.000    0.000    0.000    0.000    0.000    0.000 
#
# Total GULP energy -133935.070649 kJ/mol
# GULP energy per Si atom -5580.627944 kJ/mol
# Density = 2.560079 g / cm^3
# Si number density = 25.659193 Si / 1000 Ang^3
#
#
#
# Elastic Constant Matrix: (Units=GPa)
#
#
# Indices 1 2 3 4 5 6 
#
# 1 175.2914 26.8841 29.6571 0.0000 -40.8712 0.0000
# 2 26.8841 40.6720 1.3769 -0.0006 -9.2013 0.0001
# 3 29.6571 1.3769 83.6777 -0.0003 -24.1917 0.0001
# 4 0.0000 -0.0006 -0.0003 15.1772 0.0001 -6.8693
# 5 -40.8712 -9.2013 -24.1917 0.0001 56.1152 0.0000
# 6 0.0000 0.0001 0.0001 -6.8693 0.0000 33.6429
#
#
#
# Elastic Compliance Matrix: (Units=1/GPa)
#
#
# Indices 1 2 3 4 5 6 
#
# 1 0.007537 -0.003975 -0.001379 0.000000 0.004243 0.000000
# 2 -0.003975 0.027691 0.001632 0.000001 0.002349 0.000000
# 3 -0.001379 0.001632 0.013937 0.000000 0.005271 0.000000
# 4 0.000000 0.000001 0.000000 0.072597 0.000000 0.014823
# 5 0.004243 0.002349 0.005271 0.000000 0.023569 0.000000
# 6 0.000000 0.000000 0.000000 0.014823 0.000000 0.032751
#
#
# Mechanical properties :
#
#
# Convention : Reuss Voigt Hill
#
# Bulk Modulus (GPa) = 23.96932 46.16415 35.06673
# Shear Modulus (GPa) = 25.07119 37.10192 31.08656
#
# Velocity S-wave (km/s) = 3.12923 3.80669 3.48446
# Velocity P-wave (km/s) = 4.73474 6.11159 5.46668
#
# Compressibility (1/GPa) = 0.04172000
#
# Stress axis : x y z
#
# Youngs Moduli (GPa) = 132.67550 36.11310 71.75394
#
# Poissons Ratio (x) = 0.14356 0.09896
# Poissons Ratio (y) = 0.52744 -0.11713
# Poissons Ratio (z) = 0.18298 -0.05895
#
# Static dielectric constant tensor:
#      x y z
#    x 2.234580 0.000000 -0.096000 
#    y 0.000000 1.940360 0.000000 
#    z -0.096000 0.000000 2.153920 
# 
# From -- ./inp_files/319555.got.cif
#   From: 2010.05.17/outbox.cif.g08.bks.cpg/sg12_160_cif.got.tgz:319555.got - 2010.06.03 13:09:07.
