data_PCOD9219806
_publ_section_title
;
Structure prediction by ZEFSAII (Michael W. Deem and Ramdas Pophale) SiO2 
 PCOD9219806
Probable space group: C 2/M
;
_chemical_formula_sum "Si O2"
_cell_formula_units_Z 40
_cell_length_a 31.347413
_cell_length_b 15.244050
_cell_length_c 9.572737
_cell_angle_alpha 90.000000
_cell_angle_beta 27.180501
_cell_angle_gamma 90.000000
_cell_volume 2089.583554
_symmetry_space_group_name_H-M "C 2/M"
_symmetry_group_IT_number 12
_symmetry_cell_setting 'monoclinic'
loop_
_space_group_symop_operation_xyz
x,y,z
-x,y,-z
-x,-y,-z
x,-y,z
1/2+x,1/2+y,z
1/2-x,1/2+y,-z
1/2-x,1/2-y,-z
1/2+x,1/2-y,z
loop_
_atom_site_type_symbol
_atom_site_label
_atom_site_fract_x
_atom_site_fract_y
_atom_site_fract_z
Si Si1 0.371981 0.600914 0.300039
Si Si2 0.952936 0.105594 0.362999
Si Si3 0.154368 0.746218 0.191782
Si Si4 0.189191 0.687253 0.776873
Si Si5 0.504734 0.898679 0.656123
O O1 0.398395 0.500000 0.229379
O O2 0.400986 0.632834 0.369106
O O3 0.263715 0.610584 0.589194
O O4 0.440069 0.634377 0.979188
O O5 0.904398 0.164542 0.619551
O O6 0.944597 0.000000 0.411284
O O7 0.091598 0.665366 0.432282
O O8 0.250000 0.750000 0.000000
O O9 0.172525 0.731474 0.975462
O O10 0.250000 0.750000 0.500000
O O11 0.091254 0.646686 0.012224
O O12 0.500000 0.901000 0.500000
O O13 0.514349 0.000000 0.675166
#
# Coordination Sequence:
#
# PCOD9219806 Si02
#       5
#     8   8   8   8   8
#     4   9  17  32  56  80 104 140 189 234 278 334
#     4   9  18  33  54  83 111 140 184 240 287 331
#     4  11  21  36  57  83 112 147 193 239 285 338
#     4  11  21  35  56  84 115 151 190 231 286 345
#     4   9  20  37  58  83 114 152 194 236 281 343
#
# _framework density 19.142569999999999
#
# number of rings (size 3 to 8) (size 9 to 14) (size 15 to 20)
#    0.000    2.200    2.000    3.000    0.000    1.600 
#    0.000    2.000    0.000    9.000    0.000    0.000 
#    0.000    0.000    0.000    0.000    0.000    0.000 
#
# Total GULP energy -111410.752326 kJ/mol
# GULP energy per Si atom -5570.537616 kJ/mol
# Density = 1.909900 g / cm^3
# Si number density = 19.142570 Si / 1000 Ang^3
#
#
#
# Elastic Constant Matrix: (Units=GPa)
#
#
# Indices 1 2 3 4 5 6 
#
# 1 38.2690 27.4897 40.6793 0.0000 -16.2000 0.0000
# 2 27.4897 117.4464 71.0408 0.0000 -4.6942 0.0000
# 3 40.6793 71.0408 151.8317 0.0000 -15.3279 0.0000
# 4 0.0000 0.0000 0.0000 37.4160 0.0000 -2.1478
# 5 -16.2000 -4.6942 -15.3279 0.0000 32.1118 0.0000
# 6 0.0000 0.0000 0.0000 -2.1478 0.0000 22.8031
#
#
#
# Elastic Compliance Matrix: (Units=1/GPa)
#
#
# Indices 1 2 3 4 5 6 
#
# 1 0.046457 -0.005219 -0.008107 0.000000 0.018805 0.000000
# 2 -0.005219 0.012490 -0.004756 0.000000 -0.003077 0.000000
# 3 -0.008107 -0.004756 0.011032 0.000000 0.000481 0.000000
# 4 0.000000 0.000000 0.000000 0.026872 0.000000 0.002531
# 5 0.018805 -0.003077 0.000481 0.000000 0.040408 0.000000
# 6 0.000000 0.000000 0.000000 0.002531 0.000000 0.044092
#
#
# Mechanical properties :
#
#
# Convention : Reuss Voigt Hill
#
# Bulk Modulus (GPa) = 29.57196 65.10742 47.33969
# Shear Modulus (GPa) = 21.85436 29.68866 25.77151
#
# Velocity S-wave (km/s) = 3.38252 3.94245 3.67317
# Velocity P-wave (km/s) = 5.54410 7.40335 6.54013
#
# Compressibility (1/GPa) = 0.03381582
#
# Stress axis : x y z
#
# Youngs Moduli (GPa) = 21.52513 80.06344 90.64249
#
# Poissons Ratio (x) = 0.41782 0.73483
# Poissons Ratio (y) = 0.11233 0.43114
# Poissons Ratio (z) = 0.17450 0.38082
#
# Static dielectric constant tensor:
#      x y z
#    x 1.693530 0.000000 -0.018080 
#    y 0.000000 1.702230 0.000000 
#    z -0.018080 0.000000 1.865580 
# 
# From -- ./inp_files/73340.got.cif
#   From: 2010.05.17/outbox.cif.g08.bks.cpg/sg12_37_cif.got.tgz:73340.got - 2010.06.03 13:09:07.
