data_PCOD9219504
_publ_section_title
;
Structure prediction by ZEFSAII (Michael W. Deem and Ramdas Pophale) SiO2 
 PCOD9219504
Probable space group: C 2/M
;
_chemical_formula_sum "Si O2"
_cell_formula_units_Z 40
_cell_length_a 26.957570
_cell_length_b 18.047761
_cell_length_c 9.599362
_cell_angle_alpha 90.000000
_cell_angle_beta 26.108184
_cell_angle_gamma 90.000000
_cell_volume 2055.254827
_symmetry_space_group_name_H-M "C 2/M"
_symmetry_group_IT_number 12
_symmetry_cell_setting 'monoclinic'
loop_
_space_group_symop_operation_xyz
x,y,z
-x,y,-z
-x,-y,-z
x,-y,z
1/2+x,1/2+y,z
1/2-x,1/2+y,-z
1/2-x,1/2-y,-z
1/2+x,1/2-y,z
loop_
_atom_site_type_symbol
_atom_site_label
_atom_site_fract_x
_atom_site_fract_y
_atom_site_fract_z
Si Si1 0.500296 0.303268 0.666154
Si Si2 0.736675 0.721349 0.687660
Si Si3 0.000675 0.500000 0.830858
Si Si4 0.372904 0.000000 0.893059
Si Si5 0.602224 0.841792 0.518173
Si Si6 0.743296 0.649089 0.135421
O O1 0.500000 0.299947 0.500000
O O2 0.512990 0.220382 0.697942
O O3 0.608283 0.348181 0.450818
O O4 0.375550 0.328357 0.021475
O O5 0.750000 0.750000 0.500000
O O6 0.845662 0.677266 0.464226
O O7 0.728717 0.789363 0.818306
O O8 0.060404 0.425029 0.628610
O O9 0.887634 0.500000 0.023433
O O10 0.000000 0.500000 0.000000
O O11 0.500000 0.000000 0.500000
O O12 0.302111 0.927713 0.028661
O O13 0.699407 0.831598 0.156894
#
# Coordination Sequence:
#
# PCOD9219504 Si02
#       6
#     8   8   4   4   8   8
#     4  11  20  39  66  90 128 169 217 265 317 382
#     4  11  24  38  64  94 132 166 212 276 326 378
#     4  12  28  40  63  94 135 169 211 274 335 381
#     4  12  24  42  66  94 131 166 215 272 326 391
#     4  11  22  39  61  95 123 165 220 257 319 390
#     4  11  22  40  64  95 121 169 218 262 321 388
#
# _framework density 19.462306999999999
#
# number of rings (size 3 to 8) (size 9 to 14) (size 15 to 20)
#    0.000    0.800    6.000    2.400    5.600    2.400 
#    0.000    1.500    0.000    1.200    0.000    0.000 
#    0.000    0.000    0.000    0.000    0.000    0.000 
#
# Total GULP energy -111652.023570 kJ/mol
# GULP energy per Si atom -5582.601179 kJ/mol
# Density = 1.941801 g / cm^3
# Si number density = 19.462307 Si / 1000 Ang^3
#
#
#
# Elastic Constant Matrix: (Units=GPa)
#
#
# Indices 1 2 3 4 5 6 
#
# 1 162.1537 34.4990 37.9896 0.0000 -5.1607 0.0000
# 2 34.4990 106.0209 2.8308 0.0000 -12.3107 0.0000
# 3 37.9896 2.8308 45.2538 0.0000 -3.4872 0.0000
# 4 0.0000 0.0000 0.0000 22.1862 0.0000 -3.9696
# 5 -5.1607 -12.3107 -3.4872 0.0000 43.9366 0.0000
# 6 0.0000 0.0000 0.0000 -3.9696 0.0000 20.5075
#
#
#
# Elastic Compliance Matrix: (Units=1/GPa)
#
#
# Indices 1 2 3 4 5 6 
#
# 1 0.008301 -0.002552 -0.006831 0.000000 -0.000282 0.000000
# 2 -0.002552 0.010541 0.001697 0.000000 0.002788 0.000000
# 3 -0.006831 0.001697 0.027871 0.000000 0.001885 0.000000
# 4 0.000000 0.000000 0.000000 0.046690 0.000000 0.009038
# 5 -0.000282 0.002788 0.001885 0.000000 0.023658 0.000000
# 6 0.000000 0.000000 0.000000 0.009038 0.000000 0.050512
#
#
# Mechanical properties :
#
#
# Convention : Reuss Voigt Hill
#
# Bulk Modulus (GPa) = 31.90474 51.56302 41.73388
# Shear Modulus (GPa) = 25.85441 33.19999 29.52720
#
# Velocity S-wave (km/s) = 3.64872 4.13469 3.89928
# Velocity P-wave (km/s) = 5.84633 7.02463 6.46239
#
# Compressibility (1/GPa) = 0.03134331
#
# Stress axis : x y z
#
# Youngs Moduli (GPa) = 120.46440 94.86906 35.87953
#
# Poissons Ratio (x) = 0.24206 0.24509
# Poissons Ratio (y) = 0.30737 -0.06090
# Poissons Ratio (z) = 0.82287 -0.16104
#
# Static dielectric constant tensor:
#      x y z
#    x 1.694100 0.000000 -0.017840 
#    y 0.000000 1.708030 0.000000 
#    z -0.017840 0.000000 1.723670 
# 
# From -- ./inp_files/48829.got.cif
#   From: 2010.05.17/outbox.cif.g08.bks.cpg/sg12_25_cif.got.tgz:48829.got - 2010.06.03 13:09:07.
