data_PCOD9219930
_publ_section_title
;
Structure prediction by ZEFSAII (Michael W. Deem and Ramdas Pophale) SiO2 
 PCOD9219930
Probable space group: C 2/M
;
_chemical_formula_sum "Si O2"
_cell_formula_units_Z 56
_cell_length_a 9.237099
_cell_length_b 29.957675
_cell_length_c 18.256145
_cell_angle_alpha 90.000000
_cell_angle_beta 144.088585
_cell_angle_gamma 90.000000
_cell_volume 2963.096335
_symmetry_space_group_name_H-M "C 2/M"
_symmetry_group_IT_number 12
_symmetry_cell_setting 'monoclinic'
loop_
_space_group_symop_operation_xyz
x,y,z
-x,y,-z
-x,-y,-z
x,-y,z
1/2+x,1/2+y,z
1/2-x,1/2+y,-z
1/2-x,1/2-y,-z
1/2+x,1/2-y,z
loop_
_atom_site_type_symbol
_atom_site_label
_atom_site_fract_x
_atom_site_fract_y
_atom_site_fract_z
Si Si1 0.528435 0.640789 0.183876
Si Si2 0.294830 0.950142 0.518790
Si Si3 0.887475 0.644922 0.598016
Si Si4 0.727182 0.787977 0.324231
Si Si5 0.368516 0.696307 0.632807
Si Si6 0.780177 0.204220 0.968149
Si Si7 0.376723 0.450531 0.713474
O O1 0.512302 0.666706 0.254344
O O2 0.492825 0.588917 0.189100
O O3 0.814427 0.645320 0.274400
O O4 0.351592 0.664195 0.052640
O O5 0.279256 0.905064 0.558642
O O6 0.585592 0.950231 0.615613
O O7 0.135189 0.944017 0.379214
O O8 0.241528 0.000000 0.526854
O O9 0.766738 0.675501 0.609772
O O10 0.822158 0.666387 0.492067
O O11 0.724576 0.740258 0.363549
O O12 0.473662 0.799551 0.179073
O O13 0.935447 0.788490 0.347892
O O14 0.750000 0.250000 0.000000
O O15 0.000000 0.208363 0.000000
O O16 0.474084 0.500000 0.769115
#
# Coordination Sequence:
#
# PCOD9219930 Si02
#       7
#     8   8   8   8   8   8   8
#     4  11  21  36  62  86 114 149 189 239 280 330
#     4   8  14  27  53  84 116 146 179 225 280 338
#     4  11  21  37  57  87 121 145 185 235 289 339
#     4  12  25  40  56  79 115 157 193 234 275 341
#     4  12  24  39  57  83 113 152 189 234 293 329
#     4  12  24  42  59  78 111 151 198 233 276 331
#     4   8  14  28  52  87 115 140 182 232 279 330
#
# _framework density 18.899149000000001
#
# number of rings (size 3 to 8) (size 9 to 14) (size 15 to 20)
#    0.000    1.429    4.286    3.857    0.000    1.143 
#    0.000    0.000    0.000    3.857    0.000    1.000 
#    0.000    0.000    0.000    0.000    0.000    0.000 
#
# Total GULP energy -156320.613707 kJ/mol
# GULP energy per Si atom -5582.879061 kJ/mol
# Density = 1.885613 g / cm^3
# Si number density = 18.899149 Si / 1000 Ang^3
#
#
#
# Elastic Constant Matrix: (Units=GPa)
#
#
# Indices 1 2 3 4 5 6 
#
# 1 68.9206 24.4917 7.7001 0.0000 -11.0503 0.0000
# 2 24.4917 169.8288 40.3462 0.0000 -21.1382 0.0000
# 3 7.7001 40.3462 101.2676 0.0000 -10.8322 0.0000
# 4 0.0000 0.0000 0.0000 19.7127 0.0000 4.6148
# 5 -11.0503 -21.1382 -10.8322 0.0000 23.9444 0.0000
# 6 0.0000 0.0000 0.0000 4.6148 0.0000 3.4478
#
#
#
# Elastic Compliance Matrix: (Units=1/GPa)
#
#
# Indices 1 2 3 4 5 6 
#
# 1 0.016030 -0.001574 0.000053 0.000000 0.006033 0.000000
# 2 -0.001574 0.007230 -0.002265 0.000000 0.004632 0.000000
# 3 0.000053 -0.002265 0.011099 0.000000 0.003046 0.000000
# 4 0.000000 0.000000 0.000000 0.073877 0.000000 -0.098883
# 5 0.006033 0.004632 0.003046 0.000000 0.050014 0.000000
# 6 0.000000 0.000000 0.000000 -0.098883 0.000000 0.422395
#
#
# Mechanical properties :
#
#
# Convention : Reuss Voigt Hill
#
# Bulk Modulus (GPa) = 37.33049 53.89924 45.61486
# Shear Modulus (GPa) = 8.37317 27.25291 17.81304
#
# Velocity S-wave (km/s) = 2.10715 3.80151 3.07340
# Velocity P-wave (km/s) = 5.07104 6.91737 6.06487
#
# Compressibility (1/GPa) = 0.02678775
#
# Stress axis : x y z
#
# Youngs Moduli (GPa) = 62.38340 138.31503 90.09705
#
# Poissons Ratio (x) = 0.21764 -0.00481
# Poissons Ratio (y) = 0.09816 0.20411
# Poissons Ratio (z) = -0.00333 0.31334
#
# Static dielectric constant tensor:
#      x y z
#    x 1.693800 0.000000 -0.158290 
#    y 0.000000 1.682860 0.000000 
#    z -0.158290 0.000000 2.842300 
# 
# From -- ./inp_files/125850.got.cif
#   From: 2010.05.17/outbox.cif.g08.bks.cpg/sg12_63_cif.got.tgz:125850.got - 2010.06.03 13:09:07.
