data_PCOD9219306
_publ_section_title
;
Structure prediction by ZEFSAII (Michael W. Deem and Ramdas Pophale) SiO2 
 PCOD9219306
Probable space group: C 2/M
;
_chemical_formula_sum "Si O2"
_cell_formula_units_Z 44
_cell_length_a 15.533773
_cell_length_b 18.989702
_cell_length_c 7.626045
_cell_angle_alpha 90.000000
_cell_angle_beta 76.662815
_cell_angle_gamma 90.000000
_cell_volume 2188.872247
_symmetry_space_group_name_H-M "C 2/M"
_symmetry_group_IT_number 12
_symmetry_cell_setting 'monoclinic'
loop_
_space_group_symop_operation_xyz
x,y,z
-x,y,-z
-x,-y,-z
x,-y,z
1/2+x,1/2+y,z
1/2-x,1/2+y,-z
1/2-x,1/2-y,-z
1/2+x,1/2-y,z
loop_
_atom_site_type_symbol
_atom_site_label
_atom_site_fract_x
_atom_site_fract_y
_atom_site_fract_z
Si Si1 0.500000 0.617125 0.000000
Si Si2 0.100946 0.500000 0.017511
Si Si3 0.104380 0.000000 0.471187
Si Si4 0.203306 0.500000 0.292789
Si Si5 0.836528 0.798476 0.139697
Si Si6 0.208880 0.355704 0.895373
Si Si7 0.130797 0.000000 0.067372
Si Si8 0.277679 0.621104 0.476677
O O1 0.568022 0.668089 0.873225
O O2 0.434956 0.565818 0.925352
O O3 0.151868 0.427226 0.940623
O O4 0.115321 0.500000 0.219856
O O5 0.000000 0.500000 0.000000
O O6 0.156081 0.000000 0.259827
O O7 0.136346 0.069771 0.555970
O O8 0.000000 0.000000 0.500000
O O9 0.209756 0.568092 0.412649
O O10 0.288747 0.500000 0.113318
O O11 0.844440 0.717711 0.080219
O O12 0.787327 0.812774 0.345187
O O13 0.780709 0.841434 0.016644
O O14 0.254390 0.359598 0.684493
#
# Coordination Sequence:
#
# PCOD9219306 Si02
#       8
#     4   4   4   4   8   8   4   8
#     4  11  20  34  64  95 128 166 200 259 318 378
#     4  12  24  44  71  91 122 168 226 279 313 374
#     4  11  22  31  56  99 135 162 208 252 311 380
#     4  11  20  40  64  93 126 169 211 257 324 389
#     4  11  23  41  67  91 133 165 209 264 321 389
#     4  11  25  44  65  92 122 176 216 260 325 377
#     4  11  20  35  62  95 135 168 200 248 327 391
#     4  11  21  39  64  92 127 172 208 258 310 394
#
# _framework density 20.101676000000001
#
# number of rings (size 3 to 8) (size 9 to 14) (size 15 to 20)
#    0.000    0.909    3.636    4.909    3.818    0.727 
#    0.000    1.818    0.000    4.364    0.000    0.000 
#    0.000    0.000    0.000    0.000    0.000    0.000 
#
# Total GULP energy -122677.790639 kJ/mol
# GULP energy per Si atom -5576.263211 kJ/mol
# Density = 2.005592 g / cm^3
# Si number density = 20.101676 Si / 1000 Ang^3
#
#
#
# Elastic Constant Matrix: (Units=GPa)
#
#
# Indices 1 2 3 4 5 6 
#
# 1 93.5522 43.0957 21.7969 0.0000 13.4593 0.0000
# 2 43.0957 143.6349 20.1522 0.0000 -0.5981 0.0000
# 3 21.7969 20.1522 107.3790 0.0000 13.6454 0.0000
# 4 0.0000 0.0000 0.0000 27.8697 0.0000 3.2263
# 5 13.4593 -0.5981 13.6454 0.0000 22.3488 0.0000
# 6 0.0000 0.0000 0.0000 3.2263 0.0000 25.5100
#
#
#
# Elastic Compliance Matrix: (Units=1/GPa)
#
#
# Indices 1 2 3 4 5 6 
#
# 1 0.013941 -0.004065 -0.001069 0.000000 -0.007852 0.000000
# 2 -0.004065 0.008361 -0.001175 0.000000 0.003389 0.000000
# 3 -0.001069 -0.001175 0.010486 0.000000 -0.005790 0.000000
# 4 0.000000 0.000000 0.000000 0.036414 0.000000 -0.004605
# 5 -0.007852 0.003389 -0.005790 0.000000 0.053099 0.000000
# 6 0.000000 0.000000 0.000000 -0.004605 0.000000 0.039783
#
#
# Mechanical properties :
#
#
# Convention : Reuss Voigt Hill
#
# Bulk Modulus (GPa) = 49.58010 57.18396 53.38203
# Shear Modulus (GPa) = 27.55954 32.44712 30.00333
#
# Velocity S-wave (km/s) = 3.70673 4.02201 3.86758
# Velocity P-wave (km/s) = 6.56033 7.07657 6.82334
#
# Compressibility (1/GPa) = 0.02016938
#
# Stress axis : x y z
#
# Youngs Moduli (GPa) = 71.73234 119.60610 95.36500
#
# Poissons Ratio (x) = 0.48625 0.10195
# Poissons Ratio (y) = 0.29162 0.11201
# Poissons Ratio (z) = 0.07669 0.14048
#
# Static dielectric constant tensor:
#      x y z
#    x 1.703890 0.000000 -0.002330 
#    y 0.000000 1.769530 0.000000 
#    z -0.002330 0.000000 1.745120 
# 
# From -- ./inp_files/62752.got.cif
#   From: 2010.05.17/outbox.cif.g08.bks.cpg/sg12_32_cif.got.tgz:62752.got - 2010.06.03 13:09:07.
