data_PCOD9219612
_publ_section_title
;
Structure prediction by ZEFSAII (Michael W. Deem and Ramdas Pophale) SiO2 
 PCOD9219612
Probable space group: C 2/M
;
_chemical_formula_sum "Si O2"
_cell_formula_units_Z 56
_cell_length_a 28.569981
_cell_length_b 7.667522
_cell_length_c 16.734308
_cell_angle_alpha 90.000000
_cell_angle_beta 130.345538
_cell_angle_gamma 90.000000
_cell_volume 2793.929798
_symmetry_space_group_name_H-M "C 2/M"
_symmetry_group_IT_number 12
_symmetry_cell_setting 'monoclinic'
loop_
_space_group_symop_operation_xyz
x,y,z
-x,y,-z
-x,-y,-z
x,-y,z
1/2+x,1/2+y,z
1/2-x,1/2+y,-z
1/2-x,1/2-y,-z
1/2+x,1/2-y,z
loop_
_atom_site_type_symbol
_atom_site_label
_atom_site_fract_x
_atom_site_fract_y
_atom_site_fract_z
Si Si1 0.401248 0.287215 0.892054
Si Si2 0.264229 0.713475 0.763528
Si Si3 0.784720 0.708338 0.119340
Si Si4 0.366042 0.206440 0.433284
Si Si5 0.470086 0.296454 0.663034
Si Si6 0.998383 0.786891 0.127243
Si Si7 0.415682 0.788739 0.319061
O O1 0.400530 0.500000 0.891491
O O2 0.331242 0.226053 0.810916
O O3 0.444231 0.235963 0.865370
O O4 0.436808 0.232219 0.012231
O O5 0.266113 0.500000 0.763636
O O6 0.250499 0.768026 0.839808
O O7 0.204110 0.771775 0.647495
O O8 0.787655 0.500000 0.129085
O O9 0.855284 0.769132 0.202892
O O10 0.750000 0.750000 0.000000
O O11 0.406082 0.232174 0.556009
O O12 0.403005 0.272648 0.395793
O O13 0.361156 0.000000 0.414928
O O14 0.461593 0.500000 0.666817
O O15 0.492286 0.221622 0.772506
O O16 0.522701 0.270746 0.655125
O O17 0.996438 0.000000 0.126256
O O18 0.418692 0.000000 0.323260
#
# Coordination Sequence:
#
# PCOD9219612 Si02
#       7
#     8   8   8   8   8   8   8
#     4   8  13  27  48  67  93 124 154 191 236 284
#     4   8  15  28  49  68  86 123 167 194 222 276
#     4   9  18  30  45  70  99 123 154 195 234 276
#     4   9  18  34  50  67  92 127 166 197 226 275
#     4  11  21  30  46  74 100 122 155 200 245 280
#     4   8  16  27  42  71 101 120 146 195 248 280
#     4   9  19  34  48  65  94 132 166 192 226 277
#
# _framework density 20.043451999999998
#
# number of rings (size 3 to 8) (size 9 to 14) (size 15 to 20)
#    0.000    3.143    0.000    3.429    2.000    2.857 
#    0.000    2.857    0.000    0.000    0.000   11.000 
#    0.000    0.000    0.000    0.000    0.000    0.000 
#
# Total GULP energy -156086.062728 kJ/mol
# GULP energy per Si atom -5574.502240 kJ/mol
# Density = 1.999783 g / cm^3
# Si number density = 20.043452 Si / 1000 Ang^3
#
#
#
# Elastic Constant Matrix: (Units=GPa)
#
#
# Indices 1 2 3 4 5 6 
#
# 1 99.0107 0.3240 60.6290 0.0000 30.4462 0.0000
# 2 0.3240 21.5294 4.3675 0.0000 -0.9690 0.0000
# 3 60.6290 4.3675 123.8328 0.0000 14.7382 0.0000
# 4 0.0000 0.0000 0.0000 20.2144 0.0000 0.8167
# 5 30.4462 -0.9690 14.7382 0.0000 23.3745 0.0000
# 6 0.0000 0.0000 0.0000 0.8167 0.0000 0.0033
#
#
#
# Elastic Compliance Matrix: (Units=1/GPa)
#
#
# Indices 1 2 3 4 5 6 
#
# 1 0.022541 0.000227 -0.008163 0.000000 -0.024203 -0.000001
# 2 0.000227 0.047011 -0.002126 0.000001 0.002993 -0.000024
# 3 -0.008163 -0.002126 0.011776 0.000000 0.003120 0.000001
# 4 0.000000 0.000001 0.000000 -0.005415 0.000000 1.358464
# 5 -0.024203 0.002993 0.003120 0.000000 0.072464 0.000000
# 6 -0.000001 -0.000024 0.000001 1.358464 0.000000-33.623646
#
#
# Mechanical properties :
#
#
# Convention : Reuss Voigt Hill
#
# Bulk Modulus (GPa) = 16.33881 41.66822 29.00351
# Shear Modulus (GPa) = -0.14955 20.65526 10.25286
#
# Velocity S-wave (km/s) = -0.27345 3.21366 2.26416
# Velocity P-wave (km/s) = 2.84072 5.88254 4.61919
#
# Compressibility (1/GPa) = 0.06120396
#
# Stress axis : x y z
#
# Youngs Moduli (GPa) = 44.36432 21.27180 84.91943
#
# Poissons Ratio (x) = -0.00484 0.69323
# Poissons Ratio (y) = -0.01009 0.18051
# Poissons Ratio (z) = 0.36216 0.04522
#
# Static dielectric constant tensor:
#      x y z
#    x 1.688870 0.000000 0.008630 
#    y 0.000000 1.757120 0.000000 
#    z 0.008630 0.000000 1.736540 
# 
# From -- ./inp_files/239038.got.cif
#   From: 2010.05.17/outbox.cif.g08.bks.cpg/sg12_120_cif.got.tgz:239038.got - 2010.06.03 13:09:07.
