data_PCOD9219947
_publ_section_title
;
Structure prediction by ZEFSAII (Michael W. Deem and Ramdas Pophale) SiO2 
 PCOD9219947
Probable space group: C 2/M
;
_chemical_formula_sum "Si O2"
_cell_formula_units_Z 48
_cell_length_a 24.444446
_cell_length_b 20.188818
_cell_length_c 6.093378
_cell_angle_alpha 90.000000
_cell_angle_beta 50.017567
_cell_angle_gamma 90.000000
_cell_volume 2304.171893
_symmetry_space_group_name_H-M "C 2/M"
_symmetry_group_IT_number 12
_symmetry_cell_setting 'monoclinic'
loop_
_space_group_symop_operation_xyz
x,y,z
-x,y,-z
-x,-y,-z
x,-y,z
1/2+x,1/2+y,z
1/2-x,1/2+y,-z
1/2-x,1/2-y,-z
1/2+x,1/2-y,z
loop_
_atom_site_type_symbol
_atom_site_label
_atom_site_fract_x
_atom_site_fract_y
_atom_site_fract_z
Si Si1 0.681405 0.924833 0.803576
Si Si2 0.465547 0.325311 0.834845
Si Si3 0.165718 0.925247 0.841329
Si Si4 0.732562 0.367530 0.057927
Si Si5 0.430041 0.815197 0.059036
Si Si6 0.200849 0.252580 0.410671
O O1 0.755437 0.916965 0.473314
O O2 0.705431 0.909010 0.988733
O O3 0.620255 0.872535 0.904430
O O4 0.657471 0.000000 0.836011
O O5 0.500000 0.343614 0.500000
O O6 0.500000 0.330656 0.000000
O O7 0.394534 0.370318 0.043281
O O8 0.448895 0.246554 0.853208
O O9 0.141888 0.000000 0.848332
O O10 0.182164 0.916085 0.056634
O O11 0.695941 0.321275 0.332163
O O12 0.761648 0.308900 0.829852
O O13 0.378510 0.778445 0.361973
O O14 0.500000 0.840768 0.000000
O O15 0.250000 0.250000 0.500000
#
# Coordination Sequence:
#
# PCOD9219947 Si02
#       6
#     8   8   8   8   8   8
#     4  11  24  43  66  99 138 182 236 289 353 427
#     4  11  28  48  72 106 145 186 238 301 364 429
#     4  11  25  44  70 101 139 186 234 287 353 431
#     4  11  21  36  72  97 133 168 234 289 352 412
#     4  11  24  43  66  99 137 182 235 293 359 414
#     4  11  21  39  66 102 127 175 225 294 355 413
#
# _framework density 20.831778
#
# number of rings (size 3 to 8) (size 9 to 14) (size 15 to 20)
#    0.000    1.000    3.333    2.500    9.333    1.000 
#    0.000    0.000    0.000    1.500    0.000    0.000 
#    0.000    0.000    0.000    0.000    0.000    0.000 
#
# Total GULP energy -133642.461305 kJ/mol
# GULP energy per Si atom -5568.435888 kJ/mol
# Density = 2.078436 g / cm^3
# Si number density = 20.831778 Si / 1000 Ang^3
#
#
#
# Elastic Constant Matrix: (Units=GPa)
#
#
# Indices 1 2 3 4 5 6 
#
# 1 131.2425 69.1470 50.1801 0.0000 -15.2752 0.0000
# 2 69.1470 106.1660 27.7884 0.0000 -5.8883 0.0000
# 3 50.1801 27.7884 73.5588 0.0000 2.0859 0.0000
# 4 0.0000 0.0000 0.0000 20.3136 0.0000 -5.4976
# 5 -15.2752 -5.8883 2.0859 0.0000 25.0800 0.0000
# 6 0.0000 0.0000 0.0000 -5.4976 0.0000 4.5554
#
#
#
# Elastic Compliance Matrix: (Units=1/GPa)
#
#
# Indices 1 2 3 4 5 6 
#
# 1 0.015726 -0.007661 -0.008074 0.000000 0.008451 0.000000
# 2 -0.007661 0.014383 -0.000171 0.000000 -0.001275 0.000000
# 3 -0.008074 -0.000171 0.019353 0.000000 -0.006567 0.000000
# 4 0.000000 0.000000 0.000000 0.073106 0.000000 0.088227
# 5 0.008451 -0.001275 -0.006567 0.000000 0.045267 0.000000
# 6 0.000000 0.000000 0.000000 0.088227 0.000000 0.325997
#
#
# Mechanical properties :
#
#
# Convention : Reuss Voigt Hill
#
# Bulk Modulus (GPa) = 56.65465 67.24426 61.94945
# Shear Modulus (GPa) = 9.40686 20.91325 15.16005
#
# Velocity S-wave (km/s) = 2.12731 3.17189 2.70059
# Velocity P-wave (km/s) = 5.76968 6.76493 6.28703
#
# Compressibility (1/GPa) = 0.01765080
#
# Stress axis : x y z
#
# Youngs Moduli (GPa) = 63.58824 69.52740 51.67099
#
# Poissons Ratio (x) = 0.53262 0.41718
# Poissons Ratio (y) = 0.48713 0.00885
# Poissons Ratio (z) = 0.51339 0.01191
#
# Static dielectric constant tensor:
#      x y z
#    x 1.781820 0.000000 0.110220 
#    y 0.000000 1.756220 0.000000 
#    z 0.110220 0.000000 1.873660 
# 
# From -- ./inp_files/25517.got.cif
#   From: 2010.05.17/outbox.cif.g08.bks.cpg/sg12_13_cif.got.tgz:25517.got - 2010.06.03 13:09:07.
