data_PCOD9219776
_publ_section_title
;
Structure prediction by ZEFSAII (Michael W. Deem and Ramdas Pophale) SiO2 
 PCOD9219776
Probable space group: C 2/M
;
_chemical_formula_sum "Si O2"
_cell_formula_units_Z 64
_cell_length_a 28.615048
_cell_length_b 14.344830
_cell_length_c 11.541741
_cell_angle_alpha 90.000000
_cell_angle_beta 136.704959
_cell_angle_gamma 90.000000
_cell_volume 3248.855686
_symmetry_space_group_name_H-M "C 2/M"
_symmetry_group_IT_number 12
_symmetry_cell_setting 'monoclinic'
loop_
_space_group_symop_operation_xyz
x,y,z
-x,y,-z
-x,-y,-z
x,-y,z
1/2+x,1/2+y,z
1/2-x,1/2+y,-z
1/2-x,1/2-y,-z
1/2+x,1/2-y,z
loop_
_atom_site_type_symbol
_atom_site_label
_atom_site_fract_x
_atom_site_fract_y
_atom_site_fract_z
Si Si1 0.872895 0.310151 0.808770
Si Si2 0.686892 0.144285 0.542011
Si Si3 0.780872 0.106023 0.090862
Si Si4 0.560171 0.108522 0.870920
Si Si5 0.359725 0.213687 0.177179
Si Si6 0.772689 0.853129 0.344125
Si Si7 0.422659 0.900246 0.478446
Si Si8 0.667699 0.600566 0.302675
O O1 0.860857 0.344892 0.656901
O O2 0.805555 0.348850 0.754656
O O3 0.869451 0.197126 0.798578
O O4 0.935675 0.353210 0.991155
O O5 0.703857 0.246461 0.620420
O O6 0.644286 0.096036 0.563701
O O7 0.758891 0.104466 0.629315
O O8 0.836820 0.179214 0.144503
O O9 0.782154 0.105540 0.234057
O O10 0.787689 0.000000 0.061328
O O11 0.708333 0.151582 0.926734
O O12 0.608089 0.177992 0.883887
O O13 0.486752 0.111790 0.678068
O O14 0.583120 0.000000 0.908100
O O15 0.412892 0.183023 0.371393
O O16 0.814731 0.894375 0.528226
O O17 0.429095 0.000000 0.426592
O O18 0.635113 0.500000 0.218174
#
# Coordination Sequence:
#
# PCOD9219776 Si02
#       8
#     8   8   8   8   8   8   8   8
#     4   9  19  33  53  79 112 141 182 219 264 319
#     4   9  18  33  51  83 114 139 169 224 274 314
#     4  11  21  34  60  87 108 140 179 221 274 327
#     4  11  23  38  57  76 102 152 194 219 261 324
#     4  11  23  38  55  81 115 137 179 229 274 311
#     4   9  16  32  53  80 112 145 177 209 266 333
#     4  11  22  36  56  79 107 146 186 222 271 323
#     4   9  17  29  53  84 116 146 169 211 275 333
#
# _framework density 19.699242999999999
#
# number of rings (size 3 to 8) (size 9 to 14) (size 15 to 20)
#    0.000    2.000    2.500    3.750    0.000    4.000 
#    0.000    3.125    0.000    2.250    0.000    1.750 
#    0.000    0.000    0.000    0.000    0.000    0.000 
#
# Total GULP energy -178549.937111 kJ/mol
# GULP energy per Si atom -5579.685535 kJ/mol
# Density = 1.965441 g / cm^3
# Si number density = 19.699243 Si / 1000 Ang^3
#
#
#
# Elastic Constant Matrix: (Units=GPa)
#
#
# Indices 1 2 3 4 5 6 
#
# 1 49.9447 11.4426 -5.9965 0.0000 -8.4039 0.0000
# 2 11.4426 120.7328 14.7752 0.0000 -2.5822 0.0000
# 3 -5.9965 14.7752 66.8498 0.0000 -8.9499 0.0000
# 4 0.0000 0.0000 0.0000 16.8963 0.0000 0.7665
# 5 -8.4039 -2.5822 -8.9499 0.0000 17.1313 0.0000
# 6 0.0000 0.0000 0.0000 0.7665 0.0000 -11.3017
#
#
#
# Elastic Compliance Matrix: (Units=1/GPa)
#
#
# Indices 1 2 3 4 5 6 
#
# 1 0.023379 -0.002472 0.004440 0.000000 0.013416 0.000000
# 2 -0.002472 0.008776 -0.002308 0.000000 -0.001096 0.000000
# 3 0.004440 -0.002308 0.017324 0.000000 0.010881 0.000000
# 4 0.000000 0.000000 0.000000 0.059003 0.000000 0.004002
# 5 0.013416 -0.001096 0.010881 0.000000 0.070473 0.000000
# 6 0.000000 0.000000 0.000000 0.004002 0.000000 -0.088211
#
#
# Mechanical properties :
#
#
# Convention : Reuss Voigt Hill
#
# Bulk Modulus (GPa) = 20.49280 30.88554 25.68917
# Shear Modulus (GPa) = 46.42874 19.03223 32.73049
#
# Velocity S-wave (km/s) = 4.86004 3.11165 4.08058
# Velocity P-wave (km/s) = 6.47447 5.34999 5.93890
#
# Compressibility (1/GPa) = 0.04879762
#
# Stress axis : x y z
#
# Youngs Moduli (GPa) = 42.77351 113.94594 57.72336
#
# Poissons Ratio (x) = 0.28169 -0.25627
# Poissons Ratio (y) = 0.10574 0.13324
# Poissons Ratio (z) = -0.18990 0.26301
#
# Static dielectric constant tensor:
#      x y z
#    x 1.700920 0.000000 -0.013850 
#    y 0.000000 1.712060 0.000000 
#    z -0.013850 0.000000 1.709080 
# 
# From -- ./inp_files/189479.got.cif
#   From: 2010.05.17/outbox.cif.g08.bks.cpg/sg12_95_cif.got.tgz:189479.got - 2010.06.03 13:09:07.
