data_PCOD9219732
_publ_section_title
;
Structure prediction by ZEFSAII (Michael W. Deem and Ramdas Pophale) SiO2 
 PCOD9219732
Probable space group: C 2/M
;
_chemical_formula_sum "Si O2"
_cell_formula_units_Z 64
_cell_length_a 9.195465
_cell_length_b 21.687675
_cell_length_c 22.584749
_cell_angle_alpha 90.000000
_cell_angle_beta 128.113076
_cell_angle_gamma 90.000000
_cell_volume 3543.750197
_symmetry_space_group_name_H-M "C 2/M"
_symmetry_group_IT_number 12
_symmetry_cell_setting 'monoclinic'
loop_
_space_group_symop_operation_xyz
x,y,z
-x,y,-z
-x,-y,-z
x,-y,z
1/2+x,1/2+y,z
1/2-x,1/2+y,-z
1/2-x,1/2-y,-z
1/2+x,1/2-y,z
loop_
_atom_site_type_symbol
_atom_site_label
_atom_site_fract_x
_atom_site_fract_y
_atom_site_fract_z
Si Si1 0.018619 0.329432 0.654156
Si Si2 0.115702 0.200161 0.329984
Si Si3 0.685569 0.815812 0.508129
Si Si4 0.894058 0.128991 0.180113
Si Si5 0.790253 0.730213 0.943694
Si Si6 0.003878 0.570445 0.072285
Si Si7 0.204188 0.867243 0.077420
Si Si8 0.240300 0.572277 0.782346
O O1 0.201729 0.304724 0.665451
O O2 0.087234 0.384534 0.712787
O O3 0.934865 0.270991 0.668212
O O4 0.875210 0.351039 0.566701
O O5 0.162951 0.166619 0.404517
O O6 0.956023 0.165994 0.253866
O O7 0.500000 0.808757 0.500000
O O8 0.750000 0.750000 0.500000
O O9 0.843580 0.179667 0.117269
O O10 0.708424 0.090539 0.142954
O O11 0.064717 0.088092 0.200616
O O12 0.781397 0.794177 0.904987
O O13 0.750000 0.750000 0.000000
O O14 0.000000 0.707132 0.000000
O O15 0.964455 0.500000 0.080023
O O16 0.853069 0.613545 0.065448
O O17 0.000000 0.572487 0.000000
O O18 0.238104 0.906678 0.144434
O O19 0.000000 0.877573 0.000000
O O20 0.200345 0.500000 0.767696
#
# Coordination Sequence:
#
# PCOD9219732 Si02
#       8
#     8   8   8   8   8   8   8   8
#     4   9  18  33  53  78 108 136 170 213 262 314
#     4   9  18  30  52  81 107 134 166 215 271 318
#     4   8  14  28  49  75 106 133 162 204 257 316
#     4  11  21  35  53  75 104 134 171 216 262 309
#     4  11  21  34  52  74 101 129 162 208 265 314
#     4  11  23  38  55  73  97 134 175 211 249 297
#     4  11  23  38  56  78 103 133 173 218 263 310
#     4  11  23  37  52  73 105 145 182 214 252 304
#
# _framework density 18.059963
#
# number of rings (size 3 to 8) (size 9 to 14) (size 15 to 20)
#    0.000    1.875    0.000    5.625    0.000    6.000 
#    0.000    0.000    0.000   10.125    0.000    0.000 
#    0.000   47.000    0.000    0.000    0.000    0.000 
#
# Total GULP energy -178537.122881 kJ/mol
# GULP energy per Si atom -5579.285090 kJ/mol
# Density = 1.801886 g / cm^3
# Si number density = 18.059963 Si / 1000 Ang^3
#
#
#
# Elastic Constant Matrix: (Units=GPa)
#
#
# Indices 1 2 3 4 5 6 
#
# 1 33.8250 9.2348 7.3555 0.0000 -5.8486 0.0000
# 2 9.2348 103.0234 40.6523 0.0000 -4.6083 0.0000
# 3 7.3555 40.6523 109.1783 0.0000 -7.4732 0.0000
# 4 0.0000 0.0000 0.0000 11.6838 0.0000 -2.4846
# 5 -5.8486 -4.6083 -7.4732 0.0000 22.2080 0.0000
# 6 0.0000 0.0000 0.0000 -2.4846 0.0000 22.0558
#
#
#
# Elastic Compliance Matrix: (Units=1/GPa)
#
#
# Indices 1 2 3 4 5 6 
#
# 1 0.031650 -0.002181 -0.000799 0.000000 0.007614 0.000000
# 2 -0.002181 0.011549 -0.004123 0.000000 0.000434 0.000000
# 3 -0.000799 -0.004123 0.010927 0.000000 0.002611 0.000000
# 4 0.000000 0.000000 0.000000 0.087689 0.000000 0.009878
# 5 0.007614 0.000434 0.002611 0.000000 0.048003 0.000000
# 6 0.000000 0.000000 0.000000 0.009878 0.000000 0.046452
#
#
# Mechanical properties :
#
#
# Convention : Reuss Voigt Hill
#
# Bulk Modulus (GPa) = 25.05119 40.05687 32.55403
# Shear Modulus (GPa) = 18.95498 23.77512 21.36505
#
# Velocity S-wave (km/s) = 3.24320 3.63223 3.44322
# Velocity P-wave (km/s) = 5.28448 6.31022 5.81999
#
# Compressibility (1/GPa) = 0.03991827
#
# Stress axis : x y z
#
# Youngs Moduli (GPa) = 31.59600 86.59102 91.51454
#
# Poissons Ratio (x) = 0.18887 0.07312
# Poissons Ratio (y) = 0.06892 0.37735
# Poissons Ratio (z) = 0.02524 0.35705
#
# Static dielectric constant tensor:
#      x y z
#    x 1.612230 0.000000 -0.014940 
#    y 0.000000 1.610590 0.000000 
#    z -0.014940 0.000000 1.671610 
# 
# From -- ./inp_files/301680.got.cif
#   From: 2010.05.17/outbox.cif.g08.bks.cpg/sg12_151_cif.got.tgz:301680.got - 2010.06.03 13:09:07.
