data_PCOD9219616
_publ_section_title
;
Structure prediction by ZEFSAII (Michael W. Deem and Ramdas Pophale) SiO2 
 PCOD9219616
Probable space group: C 2/M
;
_chemical_formula_sum "Si O2"
_cell_formula_units_Z 48
_cell_length_a 23.529957
_cell_length_b 7.530621
_cell_length_c 20.568582
_cell_angle_alpha 90.000000
_cell_angle_beta 135.790282
_cell_angle_gamma 90.000000
_cell_volume 2541.368553
_symmetry_space_group_name_H-M "C 2/M"
_symmetry_group_IT_number 12
_symmetry_cell_setting 'monoclinic'
loop_
_space_group_symop_operation_xyz
x,y,z
-x,y,-z
-x,-y,-z
x,-y,z
1/2+x,1/2+y,z
1/2-x,1/2+y,-z
1/2-x,1/2-y,-z
1/2+x,1/2-y,z
loop_
_atom_site_type_symbol
_atom_site_label
_atom_site_fract_x
_atom_site_fract_y
_atom_site_fract_z
Si Si1 0.055058 0.211388 0.453982
Si Si2 0.944833 0.706839 0.020352
Si Si3 0.156115 0.709026 0.408448
Si Si4 0.595236 0.218186 0.219885
Si Si5 0.380730 0.282800 0.354890
Si Si6 0.799557 0.717521 0.819596
O O1 0.100550 0.244474 0.424341
O O2 0.104818 0.274255 0.558333
O O3 0.961789 0.275865 0.383005
O O4 0.050312 0.000000 0.457990
O O5 0.931032 0.500000 0.025436
O O6 0.004787 0.780409 0.124627
O O7 0.858139 0.781277 0.926059
O O8 0.000000 0.710961 0.000000
O O9 0.150969 0.500000 0.396428
O O10 0.250000 0.750000 0.500000
O O11 0.124755 0.783724 0.314023
O O12 0.657964 0.267849 0.213918
O O13 0.593320 0.000000 0.217789
O O14 0.378345 0.500000 0.352080
O O15 0.293790 0.223491 0.256673
O O16 0.800980 0.500000 0.822589
#
# Coordination Sequence:
#
# PCOD9219616 Si02
#       6
#     8   8   8   8   8   8
#     4   9  17  30  45  62  86 113 142 173 208 249
#     4   7  10  17  31  54  82 106 129 165 210 246
#     4  11  21  31  44  62  86 114 141 169 206 252
#     4   8  14  23  36  57  85 111 132 164 211 252
#     4   8  14  25  43  63  83 111 142 175 212 246
#     4   8  11  18  36  60  82 104 135 172 208 245
#
# _framework density 18.887460000000001
#
# number of rings (size 3 to 8) (size 9 to 14) (size 15 to 20)
#    0.000    3.500    0.000    4.500    0.000    2.667 
#    0.000    1.667    0.000    1.000    0.000    0.000 
#    0.000   45.333    0.000    0.000    0.000    0.167 
#
# Total GULP energy -133650.979911 kJ/mol
# GULP energy per Si atom -5568.790830 kJ/mol
# Density = 1.884447 g / cm^3
# Si number density = 18.887460 Si / 1000 Ang^3
#
#
#
# Elastic Constant Matrix: (Units=GPa)
#
#
# Indices 1 2 3 4 5 6 
#
# 1 101.6417 -0.4850 93.0267 0.0000 15.6418 0.0000
# 2 -0.4850 41.7619 3.1856 0.0000 3.6793 0.0001
# 3 93.0267 3.1856 199.5970 0.0000 30.3606 0.0000
# 4 0.0000 0.0000 0.0000 1.6653 0.0000 -6.1290
# 5 15.6418 3.6793 30.3606 0.0000 34.1494 0.0000
# 6 0.0000 0.0001 0.0000 -6.1290 0.0000 12.7484
#
#
#
# Elastic Compliance Matrix: (Units=1/GPa)
#
#
# Indices 1 2 3 4 5 6 
#
# 1 0.017212 0.000887 -0.007889 0.000000 -0.000965 0.000000
# 2 0.000887 0.024220 -0.000394 0.000002 -0.002665 0.000001
# 3 -0.007889 -0.000394 0.009410 0.000000 -0.004710 0.000000
# 4 0.000000 0.000002 0.000000 -0.780459 0.000000 -0.375217
# 5 -0.000965 -0.002665 -0.004710 0.000000 0.034199 0.000000
# 6 0.000000 0.000001 0.000000 -0.375217 0.000000 -0.101950
#
#
# Mechanical properties :
#
#
# Convention : Reuss Voigt Hill
#
# Bulk Modulus (GPa) = 27.74080 59.38392 43.56236
# Shear Modulus (GPa) = -6.48881 26.19752 9.85435
#
# Velocity S-wave (km/s) = -1.85552 3.72833 2.28664
# Velocity P-wave (km/s) = 3.18256 7.07411 5.48506
#
# Compressibility (1/GPa) = 0.03604799
#
# Stress axis : x y z
#
# Youngs Moduli (GPa) = 58.09937 41.28743 106.27257
#
# Poissons Ratio (x) = -0.03661 0.83842
# Poissons Ratio (y) = -0.05152 0.04192
# Poissons Ratio (z) = 0.45836 0.01629
#
# Static dielectric constant tensor:
#      x y z
#    x 1.607690 0.000000 0.009940 
#    y 0.000000 1.728330 0.000000 
#    z 0.009940 0.000000 1.702250 
# 
# From -- ./inp_files/281837.got.cif
#   From: 2010.05.17/outbox.cif.g08.bks.cpg/sg12_141_cif.got.tgz:281837.got - 2010.06.03 13:09:07.
