data_PCOD9219301
_publ_section_title
;
Structure prediction by ZEFSAII (Michael W. Deem and Ramdas Pophale) SiO2 
 PCOD9219301
Probable space group: C 2/M
;
_chemical_formula_sum "Si O2"
_cell_formula_units_Z 36
_cell_length_a 15.370709
_cell_length_b 17.231390
_cell_length_c 8.700313
_cell_angle_alpha 90.000000
_cell_angle_beta 129.822418
_cell_angle_gamma 90.000000
_cell_volume 1769.819501
_symmetry_space_group_name_H-M "C 2/M"
_symmetry_group_IT_number 12
_symmetry_cell_setting 'monoclinic'
loop_
_space_group_symop_operation_xyz
x,y,z
-x,y,-z
-x,-y,-z
x,-y,z
1/2+x,1/2+y,z
1/2-x,1/2+y,-z
1/2-x,1/2-y,-z
1/2+x,1/2-y,z
loop_
_atom_site_type_symbol
_atom_site_label
_atom_site_fract_x
_atom_site_fract_y
_atom_site_fract_z
Si Si1 0.000000 0.629139 0.000000
Si Si2 0.593335 0.260515 0.475683
Si Si3 0.606863 0.371453 0.204302
Si Si4 0.308715 0.762812 0.903540
Si Si5 0.353822 0.083357 0.555984
O O1 0.916130 0.681039 0.011400
O O2 0.915153 0.584847 0.790894
O O3 0.500000 0.273561 0.500000
O O4 0.570887 0.309575 0.296230
O O5 0.712984 0.290805 0.676177
O O6 0.608406 0.167468 0.469062
O O7 0.654850 0.319841 0.119874
O O8 0.716525 0.414656 0.395767
O O9 0.500000 0.411814 0.000000
O O10 0.250000 0.750000 0.000000
O O11 0.386752 0.000000 0.518894
#
# Coordination Sequence:
#
# PCOD9219301 Si02
#       5
#     4   8   8   8   8
#     4  12  19  40  58  90 127 152 206 244 309 370
#     4  11  21  38  63  93 121 157 206 257 301 354
#     4  11  20  39  61  89 119 154 209 254 297 353
#     4  11  20  34  62  95 120 152 200 260 309 347
#     4  11  23  37  57  86 125 164 196 243 305 370
#
# _framework density 20.341056999999999
#
# number of rings (size 3 to 8) (size 9 to 14) (size 15 to 20)
#    0.000    0.889    5.556    4.333    0.000    0.889 
#    0.000    0.000    0.000    2.000    0.000    0.000 
#    0.000    0.000    0.000    0.000    0.000    0.000 
#
# Total GULP energy -100254.613461 kJ/mol
# GULP energy per Si atom -5569.700748 kJ/mol
# Density = 2.029476 g / cm^3
# Si number density = 20.341057 Si / 1000 Ang^3
#
#
#
# Elastic Constant Matrix: (Units=GPa)
#
#
# Indices 1 2 3 4 5 6 
#
# 1 116.8409 47.1574 37.6887 0.0000 -6.2637 0.0000
# 2 47.1574 106.0681 32.9751 0.0000 -0.9589 0.0000
# 3 37.6887 32.9751 182.1067 0.0000 33.7697 0.0000
# 4 0.0000 0.0000 0.0000 -17.4094 0.0000 0.8089
# 5 -6.2637 -0.9589 33.7697 0.0000 45.3704 0.0000
# 6 0.0000 0.0000 0.0000 0.8089 0.0000 -1.5941
#
#
#
# Elastic Compliance Matrix: (Units=1/GPa)
#
#
# Indices 1 2 3 4 5 6 
#
# 1 0.011113 -0.004266 -0.002083 0.000000 0.002994 0.000000
# 2 -0.004266 0.011757 -0.001372 0.000000 0.000681 0.000000
# 3 -0.002083 -0.001372 0.007227 0.000000 -0.005696 0.000000
# 4 0.000000 0.000000 0.000000 -0.058827 0.000000 -0.029852
# 5 0.002994 0.000681 -0.005696 0.000000 0.026708 0.000000
# 6 0.000000 0.000000 0.000000 -0.029852 0.000000 -0.642442
#
#
# Mechanical properties :
#
#
# Convention : Reuss Voigt Hill
#
# Bulk Modulus (GPa) = 68.23637 71.18423 69.71030
# Shear Modulus (GPa) = -8.01107 24.41966 8.20430
#
# Velocity S-wave (km/s) = -1.98669 3.46860 2.01050
# Velocity P-wave (km/s) = 5.32507 7.14933 6.30354
#
# Compressibility (1/GPa) = 0.01465494
#
# Stress axis : x y z
#
# Youngs Moduli (GPa) = 89.98640 85.05269 138.36997
#
# Poissons Ratio (x) = 0.36285 0.28817
# Poissons Ratio (y) = 0.38390 0.18989
# Poissons Ratio (z) = 0.18741 0.11672
#
# Static dielectric constant tensor:
#      x y z
#    x 1.678620 0.000000 0.046090 
#    y 0.000000 1.720050 0.000000 
#    z 0.046090 0.000000 1.816440 
# 
# From -- ./inp_files/61449.got.cif
#   From: 2010.05.17/outbox.cif.g08.bks.cpg/sg12_31_cif.got.tgz:61449.got - 2010.06.03 13:09:07.
