data_PCOD9219085
_publ_section_title
;
Structure prediction by ZEFSAII (Michael W. Deem and Ramdas Pophale) SiO2 
 PCOD9219085
Probable space group: C 2/M
;
_chemical_formula_sum "Si O2"
_cell_formula_units_Z 56
_cell_length_a 12.607721
_cell_length_b 15.371938
_cell_length_c 28.925816
_cell_angle_alpha 90.000000
_cell_angle_beta 27.441558
_cell_angle_gamma 90.000000
_cell_volume 2583.475873
_symmetry_space_group_name_H-M "C 2/M"
_symmetry_group_IT_number 12
_symmetry_cell_setting 'monoclinic'
loop_
_space_group_symop_operation_xyz
x,y,z
-x,y,-z
-x,-y,-z
x,-y,z
1/2+x,1/2+y,z
1/2-x,1/2+y,-z
1/2-x,1/2-y,-z
1/2+x,1/2-y,z
loop_
_atom_site_type_symbol
_atom_site_label
_atom_site_fract_x
_atom_site_fract_y
_atom_site_fract_z
Si Si1 0.282908 0.326950 0.299453
Si Si2 0.504029 0.650763 0.389307
Si Si3 0.363334 0.903084 0.175406
Si Si4 0.388485 0.904434 0.391316
Si Si5 0.271504 0.903525 0.886829
Si Si6 0.261282 0.735519 0.402544
Si Si7 0.275596 0.211921 0.119123
O O1 0.173825 0.229772 0.337562
O O2 0.303985 0.335075 0.346603
O O3 0.549249 0.329230 0.181768
O O4 0.103759 0.388561 0.342832
O O5 0.660361 0.598707 0.292444
O O6 0.355931 0.604943 0.486470
O O7 0.306768 0.693651 0.434247
O O8 0.591798 0.888014 0.117893
O O9 0.323543 0.833108 0.150213
O O10 0.374438 0.000000 0.150515
O O11 0.399139 0.825468 0.351064
O O12 0.400810 0.000000 0.366223
O O13 0.289551 0.814217 0.851150
O O14 0.350528 0.000000 0.839102
O O15 0.000000 0.910672 0.000000
O O16 0.000000 0.760840 0.500000
O O17 0.500000 0.204263 0.000000
#
# Coordination Sequence:
#
# PCOD9219085 Si02
#       7
#     8   8   8   8   8   8   8
#     4  11  21  41  63  87 126 167 204 252 315 369
#     4  11  20  38  64  89 122 168 207 246 303 380
#     4  11  23  39  63  95 126 162 213 262 307 371
#     4  11  24  38  60  96 129 157 204 257 306 370
#     4   9  20  41  65  90 120 156 204 260 312 368
#     4  11  19  38  63  87 121 169 202 243 308 373
#     4  11  24  41  68  93 122 168 215 262 317 370
#
# _framework density 21.676223
#
# number of rings (size 3 to 8) (size 9 to 14) (size 15 to 20)
#    0.000    1.286    5.714    1.286    0.000    3.429 
#    0.000    1.429    0.000    2.571    0.000    0.000 
#    0.000    0.000    0.000    0.000    0.000    0.000 
#
# Total GULP energy -156051.311440 kJ/mol
# GULP energy per Si atom -5573.261123 kJ/mol
# Density = 2.162689 g / cm^3
# Si number density = 21.676223 Si / 1000 Ang^3
#
#
#
# Elastic Constant Matrix: (Units=GPa)
#
#
# Indices 1 2 3 4 5 6 
#
# 1 74.7279 17.3240 46.8652 0.0120 -24.1572 -0.0105
# 2 17.3240 86.6034 -0.7747 -0.0088 -4.9106 -0.0037
# 3 46.8652 -0.7747 110.2327 0.0082 -13.3052 0.0238
# 4 0.0120 -0.0088 0.0082 12.2188 -0.0191 -0.9330
# 5 -24.1572 -4.9106 -13.3052 -0.0191 36.0083 -0.0040
# 6 -0.0105 -0.0037 0.0238 -0.9330 -0.0040 19.4456
#
#
#
# Elastic Compliance Matrix: (Units=1/GPa)
#
#
# Indices 1 2 3 4 5 6 
#
# 1 0.023670 -0.004124 -0.008628 0.000000 0.012129 0.000025
# 2 -0.004124 0.012364 0.001790 0.000011 -0.000419 -0.000002
# 3 -0.008628 0.001790 0.012647 -0.000002 -0.000871 -0.000020
# 4 0.000000 0.000011 -0.000002 0.082142 0.000045 0.003941
# 5 0.012129 -0.000419 -0.000871 0.000045 0.035529 0.000017
# 6 0.000025 -0.000002 -0.000020 0.003941 0.000017 0.051615
#
#
# Mechanical properties :
#
#
# Convention : Reuss Voigt Hill
#
# Bulk Modulus (GPa) = 37.37498 44.26591 40.82044
# Shear Modulus (GPa) = 20.09541 27.41116 23.75329
#
# Velocity S-wave (km/s) = 3.04809 3.55994 3.31391
# Velocity P-wave (km/s) = 5.44680 6.11255 5.78925
#
# Compressibility (1/GPa) = 0.02675587
#
# Stress axis : x y z
#
# Youngs Moduli (GPa) = 42.24712 80.87897 79.06722
#
# Poissons Ratio (x) = 0.33358 0.68222
# Poissons Ratio (y) = 0.17424 -0.14151
# Poissons Ratio (z) = 0.36452 -0.14475
#
# Static dielectric constant tensor:
#      x y z
#    x 1.839780 0.000020 0.029550 
#    y 0.000020 1.816480 -0.000020 
#    z 0.029550 -0.000020 1.843150 
# 
# From -- ./inp_files/374182.got.cif
#   From: 2010.05.17/outbox.cif.g08.bks.cpg/sg12_188_cif.got.tgz:374182.got - 2010.06.03 13:09:07.
