data_PCOD9219812
_publ_section_title
;
Structure prediction by ZEFSAII (Michael W. Deem and Ramdas Pophale) SiO2 
 PCOD9219812
Probable space group: C 2/M
;
_chemical_formula_sum "Si O2"
_cell_formula_units_Z 56
_cell_length_a 21.050595
_cell_length_b 30.575553
_cell_length_c 9.410883
_cell_angle_alpha 90.000000
_cell_angle_beta 151.126454
_cell_angle_gamma 90.000000
_cell_volume 2924.870210
_symmetry_space_group_name_H-M "C 2/M"
_symmetry_group_IT_number 12
_symmetry_cell_setting 'monoclinic'
loop_
_space_group_symop_operation_xyz
x,y,z
-x,y,-z
-x,-y,-z
x,-y,z
1/2+x,1/2+y,z
1/2-x,1/2+y,-z
1/2-x,1/2-y,-z
1/2+x,1/2-y,z
loop_
_atom_site_type_symbol
_atom_site_label
_atom_site_fract_x
_atom_site_fract_y
_atom_site_fract_z
Si Si1 0.782410 0.362856 0.748413
Si Si2 0.784577 0.951442 0.504073
Si Si3 0.373043 0.198284 0.154158
Si Si4 0.074488 0.048880 0.926678
Si Si5 0.148545 0.711456 0.336374
Si Si6 0.788541 0.209182 0.887927
Si Si7 0.492692 0.360547 0.319061
O O1 0.797853 0.412485 0.726438
O O2 0.805990 0.331255 0.661014
O O3 0.634342 0.359246 0.520823
O O4 0.872278 0.343645 0.050749
O O5 0.928560 0.951735 0.710921
O O6 0.727499 0.000000 0.375267
O O7 0.821477 0.944349 0.741745
O O8 0.500000 0.203905 0.500000
O O9 0.256903 0.196602 0.042913
O O10 0.343504 0.241549 0.003806
O O11 0.071135 0.091205 0.821159
O O12 0.096000 0.000000 0.907239
O O13 0.250000 0.750000 0.500000
O O14 0.167938 0.705440 0.542813
O O15 0.000000 0.721702 0.000000
O O16 0.901359 0.175462 0.065595
O O17 0.500000 0.350245 0.500000
#
# Coordination Sequence:
#
# PCOD9219812 Si02
#       7
#     8   8   8   8   8   8   8
#     4  11  22  38  61  86 118 159 200 247 299 350
#     4   8  15  31  55  84 113 152 197 239 296 355
#     4  11  23  38  57  78 112 163 198 239 294 355
#     4   8  15  29  51  82 122 154 184 238 301 356
#     4  12  27  42  61  91 122 157 203 254 298 351
#     4  11  24  38  58  81 120 154 201 241 291 352
#     4  11  21  35  56  89 120 158 201 241 293 362
#
# _framework density 19.146148
#
# number of rings (size 3 to 8) (size 9 to 14) (size 15 to 20)
#    0.000    1.714    2.857    3.000    4.000    1.429 
#    0.000    0.000    0.000    0.857    0.000    2.000 
#    0.000    0.000    0.000    0.000    0.000    0.000 
#
# Total GULP energy -156248.232198 kJ/mol
# GULP energy per Si atom -5580.294007 kJ/mol
# Density = 1.910257 g / cm^3
# Si number density = 19.146148 Si / 1000 Ang^3
#
#
#
# Elastic Constant Matrix: (Units=GPa)
#
#
# Indices 1 2 3 4 5 6 
#
# 1 39.9982 31.7949 25.6825 0.0000 -6.1793 0.0000
# 2 31.7949 98.3470 62.7549 0.0000 -8.5004 0.0000
# 3 25.6825 62.7549 114.5842 0.0000 -16.2875 0.0000
# 4 0.0000 0.0000 0.0000 30.0496 0.0000 -5.3524
# 5 -6.1793 -8.5004 -16.2875 0.0000 26.1706 0.0000
# 6 0.0000 0.0000 0.0000 -5.3524 0.0000 24.0846
#
#
#
# Elastic Compliance Matrix: (Units=1/GPa)
#
#
# Indices 1 2 3 4 5 6 
#
# 1 0.034441 -0.009569 -0.001936 0.000000 0.003819 0.000000
# 2 -0.009569 0.018291 -0.008063 0.000000 -0.001336 0.000000
# 3 -0.001936 -0.008063 0.014415 0.000000 0.005895 0.000000
# 4 0.000000 0.000000 0.000000 0.034650 0.000000 0.007700
# 5 0.003819 -0.001336 0.005895 0.000000 0.042348 0.000000
# 6 0.000000 0.000000 0.000000 0.007700 0.000000 0.043232
#
#
# Mechanical properties :
#
#
# Convention : Reuss Voigt Hill
#
# Bulk Modulus (GPa) = 35.69985 54.82154 45.26069
# Shear Modulus (GPa) = 21.20012 24.90741 23.05377
#
# Velocity S-wave (km/s) = 3.33119 3.61073 3.47377
# Velocity P-wave (km/s) = 5.78638 6.78811 6.30717
#
# Compressibility (1/GPa) = 0.02801132
#
# Stress axis : x y z
#
# Youngs Moduli (GPa) = 29.03548 54.67176 69.37315
#
# Poissons Ratio (x) = 0.52316 0.13429
# Poissons Ratio (y) = 0.27784 0.55933
# Poissons Ratio (z) = 0.05621 0.44080
#
# Static dielectric constant tensor:
#      x y z
#    x 1.707240 0.000000 0.002030 
#    y 0.000000 1.673360 0.000000 
#    z 0.002030 0.000000 1.667260 
# 
# From -- ./inp_files/91639.got.cif
#   From: 2010.05.17/outbox.cif.g08.bks.cpg/sg12_46_cif.got.tgz:91639.got - 2010.06.03 13:09:07.
