data_PCOD9219229
_publ_section_title
;
Structure prediction by ZEFSAII (Michael W. Deem and Ramdas Pophale) SiO2 
 PCOD9219229
Probable space group: C 2/M
;
_chemical_formula_sum "Si O2"
_cell_formula_units_Z 64
_cell_length_a 14.916506
_cell_length_b 15.829428
_cell_length_c 26.189697
_cell_angle_alpha 90.000000
_cell_angle_beta 40.404822
_cell_angle_gamma 90.000000
_cell_volume 4008.308157
_symmetry_space_group_name_H-M "C 2/M"
_symmetry_group_IT_number 12
_symmetry_cell_setting 'monoclinic'
loop_
_space_group_symop_operation_xyz
x,y,z
-x,y,-z
-x,-y,-z
x,-y,z
1/2+x,1/2+y,z
1/2-x,1/2+y,-z
1/2-x,1/2-y,-z
1/2+x,1/2-y,z
loop_
_atom_site_type_symbol
_atom_site_label
_atom_site_fract_x
_atom_site_fract_y
_atom_site_fract_z
Si Si1 0.109303 0.905432 0.499055
Si Si2 0.768269 0.815009 0.319717
Si Si3 0.039531 0.266837 0.585144
Si Si4 0.618046 0.598459 0.993093
Si Si5 0.323014 0.898847 0.823905
Si Si6 0.613771 0.169349 0.662884
Si Si7 0.099307 0.102696 0.834197
Si Si8 0.851499 0.406129 0.535911
O O1 0.073481 0.827349 0.551526
O O2 0.262509 0.890928 0.409803
O O3 0.000000 0.899033 0.500000
O O4 0.097963 0.000000 0.525940
O O5 0.616989 0.793371 0.361984
O O6 0.825317 0.730978 0.320923
O O7 0.864932 0.853840 0.234402
O O8 0.750287 0.880196 0.374482
O O9 0.066281 0.279915 0.633022
O O10 0.135519 0.333065 0.511867
O O11 0.646565 0.500000 0.992019
O O12 0.752838 0.635539 0.906614
O O13 0.500000 0.599603 0.000000
O O14 0.542133 0.631985 0.076521
O O15 0.478528 0.874244 0.744400
O O16 0.223837 0.875752 0.819438
O O17 0.314804 0.000000 0.830916
O O18 0.096978 0.000000 0.830170
O O19 0.825161 0.500000 0.526483
O O20 0.000000 0.407951 0.500000
#
# Coordination Sequence:
#
# PCOD9219229 Si02
#       8
#     8   8   8   8   8   8   8   8
#     4  11  22  38  54  69  95 136 178 215 252 294
#     4  11  20  33  49  71 107 130 167 208 251 297
#     4  11  21  39  51  68 101 133 172 217 254 295
#     4   7  12  25  47  73 103 129 155 193 244 308
#     4   9  17  30  50  79 102 125 165 206 248 302
#     4  12  22  34  52  74 100 133 169 214 253 295
#     4   9  16  30  52  76 101 133 160 195 256 310
#     4   9  18  31  49  69  96 129 159 201 255 306
#
# _framework density 15.966837
#
# number of rings (size 3 to 8) (size 9 to 14) (size 15 to 20)
#    0.000    2.125    3.750    3.000    0.000    1.500 
#    0.000    1.250    0.000    0.000    0.000    0.000 
#    0.000    0.000    0.000    5.625    0.000    0.000 
#
# Total GULP energy -178283.654298 kJ/mol
# GULP energy per Si atom -5571.364197 kJ/mol
# Density = 1.593050 g / cm^3
# Si number density = 15.966837 Si / 1000 Ang^3
#
#
#
# Elastic Constant Matrix: (Units=GPa)
#
#
# Indices 1 2 3 4 5 6 
#
# 1 54.4139 9.6807 24.4642 0.0000 3.0452 0.0000
# 2 9.6807 67.7425 24.8020 0.0000 9.4442 0.0000
# 3 24.4642 24.8020 122.7170 0.0000 14.4664 0.0000
# 4 0.0000 0.0000 0.0000 18.0719 0.0000 0.2018
# 5 3.0452 9.4442 14.4664 0.0000 24.3200 0.0000
# 6 0.0000 0.0000 0.0000 0.2018 0.0000 -5.4106
#
#
#
# Elastic Compliance Matrix: (Units=1/GPa)
#
#
# Indices 1 2 3 4 5 6 
#
# 1 0.020336 -0.001567 -0.003773 0.000000 0.000307 0.000000
# 2 -0.001567 0.016555 -0.002472 0.000000 -0.004762 0.000000
# 3 -0.003773 -0.002472 0.009928 0.000000 -0.004473 0.000000
# 4 0.000000 0.000000 0.000000 0.055312 0.000000 0.002063
# 5 0.000307 -0.004762 -0.004473 0.000000 0.045590 0.000000
# 6 0.000000 0.000000 0.000000 0.002063 0.000000 -0.184745
#
#
# Mechanical properties :
#
#
# Convention : Reuss Voigt Hill
#
# Bulk Modulus (GPa) = 32.05850 40.30748 36.18299
# Shear Modulus (GPa) = -454.48475 19.79135 -217.34670
#
# Velocity S-wave (km/s) = -16.88967 3.52451 -11.67987
# Velocity P-wave (km/s) = 18.97962 6.47010 12.61673
#
# Compressibility (1/GPa) = 0.03119297
#
# Stress axis : x y z
#
# Youngs Moduli (GPa) = 49.17420 60.40585 100.72514
#
# Poissons Ratio (x) = 0.09468 0.38008
# Poissons Ratio (y) = 0.07707 0.24899
# Poissons Ratio (z) = 0.18556 0.14932
#
# Static dielectric constant tensor:
#      x y z
#    x 1.531320 0.000000 -0.006750 
#    y 0.000000 1.531760 0.000000 
#    z -0.006750 0.000000 1.564990 
# 
# From -- ./inp_files/340178.got.cif
#   From: 2010.05.17/outbox.cif.g08.bks.cpg/sg12_171_cif.got.tgz:340178.got - 2010.06.03 13:09:07.
