data_PCOD9219206
_publ_section_title
;
Structure prediction by ZEFSAII (Michael W. Deem and Ramdas Pophale) SiO2 
 PCOD9219206
Probable space group: C 2/M
;
_chemical_formula_sum "Si O2"
_cell_formula_units_Z 48
_cell_length_a 8.531805
_cell_length_b 24.260640
_cell_length_c 24.073393
_cell_angle_alpha 90.000000
_cell_angle_beta 148.764602
_cell_angle_gamma 90.000000
_cell_volume 2583.899462
_symmetry_space_group_name_H-M "C 2/M"
_symmetry_group_IT_number 12
_symmetry_cell_setting 'monoclinic'
loop_
_space_group_symop_operation_xyz
x,y,z
-x,y,-z
-x,-y,-z
x,-y,z
1/2+x,1/2+y,z
1/2-x,1/2+y,-z
1/2-x,1/2-y,-z
1/2+x,1/2-y,z
loop_
_atom_site_type_symbol
_atom_site_label
_atom_site_fract_x
_atom_site_fract_y
_atom_site_fract_z
Si Si1 0.838959 0.288027 0.180241
Si Si2 0.645410 0.229660 0.393835
Si Si3 0.589666 0.349059 0.673519
Si Si4 0.660628 0.436529 0.489199
Si Si5 0.742949 0.130892 0.680940
Si Si6 0.156047 0.822436 0.893551
O O1 0.839519 0.233909 0.142184
O O2 0.505969 0.307802 0.097294
O O3 0.999095 0.274977 0.288023
O O4 0.055905 0.333957 0.219089
O O5 0.575287 0.291443 0.391637
O O6 0.468662 0.185148 0.377090
O O7 0.000000 0.218481 0.500000
O O8 0.499138 0.395587 0.602395
O O9 0.460045 0.364841 0.694083
O O10 0.500000 0.430282 0.500000
O O11 0.638194 0.500000 0.464674
O O12 0.008345 0.418449 0.602245
O O13 0.945510 0.133908 0.797539
O O14 0.500000 0.841155 0.000000
#
# Coordination Sequence:
#
# PCOD9219206 Si02
#       6
#     8   8   8   8   8   8
#     4  11  20  34  50  79 115 153 185 221 274 330
#     4  11  20  32  51  83 114 149 182 218 268 337
#     4  12  21  34  56  82 114 149 184 220 272 338
#     4  11  25  41  57  81 113 149 185 225 276 334
#     4  11  21  36  55  81 114 148 189 228 273 325
#     4  11  21  35  53  78 114 151 190 231 276 323
#
# _framework density 18.576574000000001
#
# number of rings (size 3 to 8) (size 9 to 14) (size 15 to 20)
#    0.000    0.833    5.000    5.500    0.000    3.333 
#    0.000    0.000    0.000    0.500    0.000    0.000 
#    0.000    6.000    0.000    0.000    0.000    0.000 
#
# Total GULP energy -134215.684324 kJ/mol
# GULP energy per Si atom -5592.320180 kJ/mol
# Density = 1.853429 g / cm^3
# Si number density = 18.576574 Si / 1000 Ang^3
#
#
#
# Elastic Constant Matrix: (Units=GPa)
#
#
# Indices 1 2 3 4 5 6 
#
# 1 92.9341 16.0869 -1.4116 0.0011 21.7584 0.0012
# 2 16.0869 73.0978 -3.0924 0.0019 -1.8690 0.0003
# 3 -1.4116 -3.0924 52.0062 0.0019 26.1068 0.0014
# 4 0.0011 0.0019 0.0019 11.4110 0.0004 -0.8902
# 5 21.7584 -1.8690 26.1068 0.0004 30.3214 0.0000
# 6 0.0012 0.0003 0.0014 -0.8902 0.0000 22.9649
#
#
#
# Elastic Compliance Matrix: (Units=1/GPa)
#
#
# Indices 1 2 3 4 5 6 
#
# 1 0.016700 -0.003760 0.011205 -0.000002 -0.021863 -0.000002
# 2 -0.003760 0.014563 -0.001834 -0.000002 0.005175 0.000000
# 3 0.011205 -0.001834 0.041418 -0.000006 -0.043815 -0.000003
# 4 -0.000002 -0.000002 -0.000006 0.087901 0.000006 0.003408
# 5 -0.021863 0.005175 -0.043815 0.000006 0.086712 0.000004
# 6 -0.000002 0.000000 -0.000003 0.003408 0.000004 0.043677
#
#
# Mechanical properties :
#
#
# Convention : Reuss Voigt Hill
#
# Bulk Modulus (GPa) = 11.91862 26.80042 19.35952
# Shear Modulus (GPa) = 16.24867 26.70312 21.47590
#
# Velocity S-wave (km/s) = 2.96072 3.79550 3.40380
# Velocity P-wave (km/s) = 4.25649 5.80225 5.08841
#
# Compressibility (1/GPa) = 0.08390232
#
# Stress axis : x y z
#
# Youngs Moduli (GPa) = 59.87969 68.66927 24.14389
#
# Poissons Ratio (x) = 0.25821 -0.27053
# Poissons Ratio (y) = 0.22516 0.04428
# Poissons Ratio (z) = -0.67094 0.12594
#
# Static dielectric constant tensor:
#      x y z
#    x 1.699850 0.000000 0.002450 
#    y 0.000000 1.621940 0.000000 
#    z 0.002450 0.000000 1.682570 
# 
# From -- ./inp_files/357033.got.cif
#   From: 2010.05.17/outbox.cif.g08.bks.cpg/sg12_179_cif.got.tgz:357033.got - 2010.06.03 13:09:07.
