data_PCOD9219969
_publ_section_title
;
Structure prediction by ZEFSAII (Michael W. Deem and Ramdas Pophale) SiO2 
 PCOD9219969
Probable space group: C 2/M
;
_chemical_formula_sum "Si O2"
_cell_formula_units_Z 48
_cell_length_a 10.038331
_cell_length_b 20.528636
_cell_length_c 15.606462
_cell_angle_alpha 90.000000
_cell_angle_beta 119.431594
_cell_angle_gamma 90.000000
_cell_volume 2801.017297
_symmetry_space_group_name_H-M "C 2/M"
_symmetry_group_IT_number 12
_symmetry_cell_setting 'monoclinic'
loop_
_space_group_symop_operation_xyz
x,y,z
-x,y,-z
-x,-y,-z
x,-y,z
1/2+x,1/2+y,z
1/2-x,1/2+y,-z
1/2-x,1/2-y,-z
1/2+x,1/2-y,z
loop_
_atom_site_type_symbol
_atom_site_label
_atom_site_fract_x
_atom_site_fract_y
_atom_site_fract_z
Si Si1 0.764428 0.192699 0.384279
Si Si2 0.104650 0.371544 0.180164
Si Si3 0.933197 0.878476 0.193892
Si Si4 0.062913 0.500000 0.923439
Si Si5 0.076914 0.000000 0.931905
Si Si6 0.930673 0.241091 0.067677
Si Si7 0.917208 0.817655 0.606758
O O1 0.661479 0.146255 0.293260
O O2 0.820382 0.162846 0.492272
O O3 0.673602 0.258572 0.377588
O O4 0.918307 0.206561 0.377866
O O5 0.257852 0.382087 0.171854
O O6 0.001250 0.435326 0.141725
O O7 0.012641 0.309191 0.115626
O O8 0.961939 0.937347 0.138388
O O9 0.955667 0.811233 0.149896
O O10 0.041592 0.873052 0.311451
O O11 0.243522 0.500000 0.990332
O O12 0.000000 0.500000 0.000000
O O13 0.000000 0.000000 0.000000
O O14 0.750000 0.250000 0.000000
O O15 0.000000 0.216804 0.000000
#
# Coordination Sequence:
#
# PCOD9219969 Si02
#       7
#     8   8   8   4   4   8   8
#     4   9  18  34  56  86 117 142 188 231 286 340
#     4  11  21  37  59  86 110 152 194 230 284 339
#     4  11  21  38  59  83 114 151 190 234 288 333
#     4  12  22  42  63  75 111 163 192 226 280 346
#     4  12  26  44  57  83 115 155 194 236 286 343
#     4  12  22  33  51  82 111 142 190 240 276 326
#     4   9  18  34  57  85 115 148 180 236 288 335
#
# _framework density 17.13663
#
# number of rings (size 3 to 8) (size 9 to 14) (size 15 to 20)
#    0.000    1.333    5.000    2.000    0.000    0.000 
#    3.000    0.833    0.000    4.000    0.000    1.167 
#    0.000    0.000    0.000    0.000    0.000    0.000 
#
# Total GULP energy -133950.026409 kJ/mol
# GULP energy per Si atom -5581.251100 kJ/mol
# Density = 1.709763 g / cm^3
# Si number density = 17.136630 Si / 1000 Ang^3
#
#
#
# Elastic Constant Matrix: (Units=GPa)
#
#
# Indices 1 2 3 4 5 6 
#
# 1 77.7686 16.5315 51.4870 0.0000 -6.8692 0.0000
# 2 16.5315 83.8167 51.1854 0.0000 -3.1879 0.0000
# 3 51.4870 51.1854 138.7835 0.0000 0.1857 0.0000
# 4 0.0000 0.0000 0.0000 33.5195 0.0000 -1.5310
# 5 -6.8692 -3.1879 0.1857 0.0000 26.8396 0.0000
# 6 0.0000 0.0000 0.0000 -1.5310 0.0000 19.1434
#
#
#
# Elastic Compliance Matrix: (Units=1/GPa)
#
#
# Indices 1 2 3 4 5 6 
#
# 1 0.017635 0.000901 -0.006881 0.000000 0.004668 0.000000
# 2 0.000901 0.015539 -0.006068 0.000000 0.002118 0.000000
# 3 -0.006881 -0.006068 0.012000 0.000000 -0.002565 0.000000
# 4 0.000000 0.000000 0.000000 0.029943 0.000000 0.002395
# 5 0.004668 0.002118 -0.002565 0.000000 0.038722 0.000000
# 6 0.000000 0.000000 0.000000 0.002395 0.000000 0.052429
#
#
# Mechanical properties :
#
#
# Convention : Reuss Voigt Hill
#
# Bulk Modulus (GPa) = 47.44245 59.86409 53.65327
# Shear Modulus (GPa) = 25.33049 27.97817 26.65433
#
# Velocity S-wave (km/s) = 3.84884 4.04499 3.94814
# Velocity P-wave (km/s) = 6.89176 7.53825 7.22224
#
# Compressibility (1/GPa) = 0.02107817
#
# Stress axis : x y z
#
# Youngs Moduli (GPa) = 56.70539 64.35229 83.33442
#
# Poissons Ratio (x) = -0.05801 0.57343
# Poissons Ratio (y) = -0.05112 0.50571
# Poissons Ratio (z) = 0.39020 0.39052
#
# Static dielectric constant tensor:
#      x y z
#    x 1.554730 0.000000 0.001910 
#    y 0.000000 1.554860 0.000000 
#    z 0.001910 0.000000 1.602820 
# 
# From -- ./inp_files/197221.got.cif
#   From: 2010.05.17/outbox.cif.g08.bks.cpg/sg12_99_cif.got.tgz:197221.got - 2010.06.03 13:09:07.
