data_PCOD9219197
_publ_section_title
;
Structure prediction by ZEFSAII (Michael W. Deem and Ramdas Pophale) SiO2 
 PCOD9219197
Probable space group: C 2/M
;
_chemical_formula_sum "Si O2"
_cell_formula_units_Z 48
_cell_length_a 28.524256
_cell_length_b 18.344997
_cell_length_c 10.037233
_cell_angle_alpha 90.000000
_cell_angle_beta 25.804767
_cell_angle_gamma 90.000000
_cell_volume 2286.339049
_symmetry_space_group_name_H-M "C 2/M"
_symmetry_group_IT_number 12
_symmetry_cell_setting 'monoclinic'
loop_
_space_group_symop_operation_xyz
x,y,z
-x,y,-z
-x,-y,-z
x,-y,z
1/2+x,1/2+y,z
1/2-x,1/2+y,-z
1/2-x,1/2-y,-z
1/2+x,1/2-y,z
loop_
_atom_site_type_symbol
_atom_site_label
_atom_site_fract_x
_atom_site_fract_y
_atom_site_fract_z
Si Si1 0.064097 0.880979 0.968829
Si Si2 0.199809 0.419846 0.729046
Si Si3 0.928750 0.891979 0.561052
Si Si4 0.144371 0.735018 0.859339
Si Si5 0.854155 0.737933 0.824606
Si Si6 0.691781 0.920028 0.066316
O O1 0.813490 0.907638 0.362776
O O2 0.995463 0.914561 0.262119
O O3 0.000000 0.895019 0.000000
O O4 0.065517 0.794678 0.999903
O O5 0.156868 0.500000 0.807310
O O6 0.123402 0.350960 0.896173
O O7 0.222581 0.417307 0.830185
O O8 0.926328 0.803832 0.587283
O O9 0.803623 0.913668 0.863152
O O10 0.000000 0.919890 0.500000
O O11 0.250000 0.750000 0.500000
O O12 0.162715 0.747255 0.972076
O O13 0.750000 0.750000 0.000000
O O14 0.880705 0.652612 0.729747
O O15 0.642722 0.000000 0.217803
#
# Coordination Sequence:
#
# PCOD9219197 Si02
#       6
#     8   8   8   8   8   8
#     4  11  20  32  51  77 102 130 167 205 247 293
#     4   9  18  33  53  74  98 130 168 205 241 293
#     4  11  20  32  50  74 106 132 158 205 255 291
#     4   9  18  32  51  73  95 128 174 203 235 292
#     4   9  18  32  51  71  97 133 167 201 242 291
#     4   9  18  33  52  73  99 133 166 199 245 298
#
# _framework density 20.994261999999999
#
# number of rings (size 3 to 8) (size 9 to 14) (size 15 to 20)
#    0.000    2.333    3.333    0.000    2.333    1.333 
#    0.000    0.000    0.000    2.000    0.000    0.000 
#    0.000    0.000    0.000    0.000    0.000    0.000 
#
# Total GULP energy -133623.254660 kJ/mol
# GULP energy per Si atom -5567.635611 kJ/mol
# Density = 2.094648 g / cm^3
# Si number density = 20.994262 Si / 1000 Ang^3
#
#
#
# Elastic Constant Matrix: (Units=GPa)
#
#
# Indices 1 2 3 4 5 6 
#
# 1 84.6691 4.0510 12.5241 0.0000 17.8717 0.0000
# 2 4.0510 168.1403 5.2028 0.0000 11.7179 0.0000
# 3 12.5241 5.2028 32.3064 0.0000 13.3795 0.0000
# 4 0.0000 0.0000 0.0000 11.7897 0.0000 4.2540
# 5 17.8717 11.7179 13.3795 0.0000 28.4803 0.0000
# 6 0.0000 0.0000 0.0000 4.2540 0.0000 30.4732
#
#
#
# Elastic Compliance Matrix: (Units=1/GPa)
#
#
# Indices 1 2 3 4 5 6 
#
# 1 0.013749 0.000274 -0.002178 0.000000 -0.007717 0.000000
# 2 0.000274 0.006129 0.000028 0.000000 -0.002706 0.000000
# 3 -0.002178 0.000028 0.038776 0.000000 -0.016861 0.000000
# 4 0.000000 0.000000 0.000000 0.089319 0.000000 -0.012469
# 5 -0.007717 -0.002706 -0.016861 0.000000 0.048989 0.000000
# 6 0.000000 0.000000 0.000000 -0.012469 0.000000 0.034556
#
#
# Mechanical properties :
#
#
# Convention : Reuss Voigt Hill
#
# Bulk Modulus (GPa) = 18.21475 36.51908 27.36692
# Shear Modulus (GPa) = 19.71838 31.70451 25.71145
#
# Velocity S-wave (km/s) = 3.06801 3.89028 3.50335
# Velocity P-wave (km/s) = 4.60924 6.13283 5.42479
#
# Compressibility (1/GPa) = 0.05490055
#
# Stress axis : x y z
#
# Youngs Moduli (GPa) = 72.73455 163.17018 25.78895
#
# Poissons Ratio (x) = -0.04470 0.05617
# Poissons Ratio (y) = -0.01993 -0.00071
# Poissons Ratio (z) = 0.15842 -0.00452
#
# Static dielectric constant tensor:
#      x y z
#    x 1.537540 0.000000 -0.054470 
#    y 0.000000 1.865150 0.000000 
#    z -0.054470 0.000000 1.724520 
# 
# From -- ./inp_files/189720.got.cif
#   From: 2010.05.17/outbox.cif.g08.bks.cpg/sg12_95_cif.got.tgz:189720.got - 2010.06.03 13:09:07.
