data_PCOD9219309
_publ_section_title
;
Structure prediction by ZEFSAII (Michael W. Deem and Ramdas Pophale) SiO2 
 PCOD9219309
Probable space group: C 2/M
;
_chemical_formula_sum "Si O2"
_cell_formula_units_Z 56
_cell_length_a 30.447144
_cell_length_b 16.751526
_cell_length_c 5.549478
_cell_angle_alpha 90.000000
_cell_angle_beta 70.877790
_cell_angle_gamma 90.000000
_cell_volume 2674.256548
_symmetry_space_group_name_H-M "C 2/M"
_symmetry_group_IT_number 12
_symmetry_cell_setting 'monoclinic'
loop_
_space_group_symop_operation_xyz
x,y,z
-x,y,-z
-x,-y,-z
x,-y,z
1/2+x,1/2+y,z
1/2-x,1/2+y,-z
1/2-x,1/2-y,-z
1/2+x,1/2-y,z
loop_
_atom_site_type_symbol
_atom_site_label
_atom_site_fract_x
_atom_site_fract_y
_atom_site_fract_z
Si Si1 0.672072 0.826197 0.804564
Si Si2 0.721097 0.323733 0.317133
Si Si3 0.648117 0.822290 0.362966
Si Si4 0.549003 0.253501 0.421748
Si Si5 0.697094 0.406558 0.876915
Si Si6 0.042638 0.087208 0.735696
Si Si7 0.390255 0.669164 0.060377
O O1 0.725644 0.800861 0.723650
O O2 0.660205 0.872298 0.580169
O O3 0.657781 0.861826 0.086905
O O4 0.640883 0.746547 0.828963
O O5 0.685343 0.251782 0.316722
O O6 0.705974 0.371682 0.588823
O O7 0.724426 0.372330 0.058526
O O8 0.594716 0.790562 0.445632
O O9 0.500000 0.207528 0.500000
O O10 0.538496 0.333868 0.587125
O O11 0.565583 0.288501 0.137325
O O12 0.703853 0.500000 0.850692
O O13 0.643927 0.382827 0.042375
O O14 0.044297 0.000000 0.610811
O O15 0.091069 0.106471 0.781561
O O16 0.000000 0.084328 0.000000
#
# Coordination Sequence:
#
# PCOD9219309 Si02
#       7
#     8   8   8   8   8   8   8
#     4  11  21  34  60  80 102 129 174 238 276 316
#     4  12  21  39  57  79 104 135 178 228 268 329
#     4  11  20  35  53  82 101 131 176 228 273 320
#     4  11  21  35  50  67 100 138 179 227 273 314
#     4  12  25  38  54  76 108 142 177 222 272 320
#     4  11  22  34  49  67  96 141 194 237 267 304
#     4  11  22  37  49  74  99 134 184 232 273 310
#
# _framework density 20.9404
#
# number of rings (size 3 to 8) (size 9 to 14) (size 15 to 20)
#    0.000    0.714    7.143    2.571    0.000    1.429 
#    0.000    0.000    0.000    0.000    0.000    0.000 
#    0.000    0.000    0.000    0.000    0.000  328.571 
#
# Total GULP energy -155944.618479 kJ/mol
# GULP energy per Si atom -5569.450660 kJ/mol
# Density = 2.089274 g / cm^3
# Si number density = 20.940400 Si / 1000 Ang^3
#
#
#
# Elastic Constant Matrix: (Units=GPa)
#
#
# Indices 1 2 3 4 5 6 
#
# 1 151.4269 -0.1284 25.4505 0.0000 -2.7349 0.0000
# 2 -0.1284 4.3171 1.7793 0.0000 1.6792 0.0000
# 3 25.4505 1.7793 107.8842 0.0000 14.9206 0.0000
# 4 0.0000 0.0000 0.0000 4.6867 0.0000 -9.1910
# 5 -2.7349 1.6792 14.9206 0.0000 45.7678 0.0000
# 6 0.0000 0.0000 0.0000 -9.1910 0.0000 -2.7591
#
#
#
# Elastic Compliance Matrix: (Units=1/GPa)
#
#
# Indices 1 2 3 4 5 6 
#
# 1 0.006920 0.000560 -0.001776 0.000000 0.000972 0.000000
# 2 0.000560 0.235854 -0.002963 0.000000 -0.007654 0.000000
# 3 -0.001776 -0.002963 0.010196 0.000000 -0.003322 0.000000
# 4 0.000000 0.000000 0.000000 0.028326 0.000000 -0.094358
# 5 0.000972 -0.007654 -0.003322 0.000000 0.023271 0.000000
# 6 0.000000 0.000000 0.000000 -0.094358 0.000000 -0.048115
#
#
# Mechanical properties :
#
#
# Convention : Reuss Voigt Hill
#
# Bulk Modulus (GPa) = 4.08812 35.31455 19.70133
# Shear Modulus (GPa) = 14.43628 25.30752 19.87190
#
# Velocity S-wave (km/s) = 2.62849 3.48019 3.08388
# Velocity P-wave (km/s) = 3.34192 5.74890 4.70204
#
# Compressibility (1/GPa) = 0.24461124
#
# Stress axis : x y z
#
# Youngs Moduli (GPa) = 144.50005 4.23991 98.07314
#
# Poissons Ratio (x) = -0.00237 0.17420
# Poissons Ratio (y) = -0.08088 0.29062
# Poissons Ratio (z) = 0.25667 0.01256
#
# Static dielectric constant tensor:
#      x y z
#    x 1.878720 0.000000 0.041220 
#    y 0.000000 1.709600 0.000000 
#    z 0.041220 0.000000 2.004350 
# 
# From -- ./inp_files/31849.got.cif
#   From: 2010.05.17/outbox.cif.g08.bks.cpg/sg12_16_cif.got.tgz:31849.got - 2010.06.03 13:09:07.
