data_PCOD9219965
_publ_section_title
;
Structure prediction by ZEFSAII (Michael W. Deem and Ramdas Pophale) SiO2 
 PCOD9219965
Probable space group: C 2/M
;
_chemical_formula_sum "Si O2"
_cell_formula_units_Z 48
_cell_length_a 11.497451
_cell_length_b 16.251678
_cell_length_c 19.747099
_cell_angle_alpha 90.000000
_cell_angle_beta 40.777541
_cell_angle_gamma 90.000000
_cell_volume 2409.897692
_symmetry_space_group_name_H-M "C 2/M"
_symmetry_group_IT_number 12
_symmetry_cell_setting 'monoclinic'
loop_
_space_group_symop_operation_xyz
x,y,z
-x,y,-z
-x,-y,-z
x,-y,z
1/2+x,1/2+y,z
1/2-x,1/2+y,-z
1/2-x,1/2-y,-z
1/2+x,1/2-y,z
loop_
_atom_site_type_symbol
_atom_site_label
_atom_site_fract_x
_atom_site_fract_y
_atom_site_fract_z
Si Si1 0.496579 0.182655 0.130374
Si Si2 0.490485 0.500000 0.618063
Si Si3 0.246393 0.089466 0.075771
Si Si4 0.200118 0.500000 0.629567
Si Si5 0.534752 0.364911 0.906878
Si Si6 0.894269 0.166622 0.728725
Si Si7 0.561310 0.844627 0.254844
O O1 0.521118 0.270575 0.084071
O O2 0.286076 0.174012 0.235381
O O3 0.586773 0.172016 0.163275
O O4 0.580214 0.117940 0.041535
O O5 0.310185 0.500000 0.651744
O O6 0.653935 0.500000 0.494021
O O7 0.493514 0.584528 0.660196
O O8 0.183020 0.150382 0.162132
O O9 0.088437 0.086870 0.090505
O O10 0.272257 0.000000 0.095404
O O11 0.078421 0.418470 0.677214
O O12 0.745908 0.370648 0.801380
O O13 0.500000 0.386601 0.000000
O O14 0.988289 0.255838 0.690265
#
# Coordination Sequence:
#
# PCOD9219965 Si02
#       7
#     8   4   8   4   8   8   8
#     4  11  21  37  58  92 128 171 207 250 304 368
#     4  11  24  46  73  94 124 152 220 275 329 377
#     4  12  24  34  56  92 132 170 212 250 302 372
#     4  11  26  46  69  99 118 159 212 285 326 377
#     4  11  22  37  57  85 131 177 208 245 298 375
#     4  11  23  41  65  95 125 172 207 263 316 378
#     4  11  23  40  67  91 133 165 211 258 321 375
#
# _framework density 19.917859
#
# number of rings (size 3 to 8) (size 9 to 14) (size 15 to 20)
#    0.000    0.833    5.833    3.000    3.500    1.667 
#    0.000    0.000    0.000    2.000    0.000    0.000 
#    0.000    0.000    0.000    0.000    0.000    0.000 
#
# Total GULP energy -134052.304268 kJ/mol
# GULP energy per Si atom -5585.512678 kJ/mol
# Density = 1.987253 g / cm^3
# Si number density = 19.917859 Si / 1000 Ang^3
#
#
#
# Elastic Constant Matrix: (Units=GPa)
#
#
# Indices 1 2 3 4 5 6 
#
# 1 73.6973 17.5979 12.0096 0.0000 -10.8007 0.0000
# 2 17.5979 150.7698 43.0553 -0.0003 -14.3657 0.0002
# 3 12.0096 43.0553 52.5174 -0.0009 -4.5456 0.0003
# 4 0.0000 -0.0003 -0.0009 13.6344 0.0004 -3.1164
# 5 -10.8007 -14.3657 -4.5456 0.0004 23.1123 -0.0002
# 6 0.0000 0.0002 0.0003 -3.1164 -0.0002 28.2485
#
#
#
# Elastic Compliance Matrix: (Units=1/GPa)
#
#
# Indices 1 2 3 4 5 6 
#
# 1 0.015000 -0.000432 -0.002536 0.000000 0.006243 0.000000
# 2 -0.000432 0.009063 -0.006980 0.000000 0.004059 0.000000
# 3 -0.002536 -0.006980 0.025296 0.000001 -0.000548 0.000000
# 4 0.000000 0.000000 0.000001 0.075241 -0.000001 0.008301
# 5 0.006243 0.004059 -0.000548 -0.000001 0.048599 0.000000
# 6 0.000000 0.000000 0.000000 0.008301 0.000000 0.036316
#
#
# Mechanical properties :
#
#
# Convention : Reuss Voigt Hill
#
# Bulk Modulus (GPa) = 33.93980 46.92335 40.43158
# Shear Modulus (GPa) = 20.90013 26.62047 23.76030
#
# Velocity S-wave (km/s) = 3.24283 3.65980 3.45761
# Velocity P-wave (km/s) = 5.57657 6.43960 6.02356
#
# Compressibility (1/GPa) = 0.02946393
#
# Stress axis : x y z
#
# Youngs Moduli (GPa) = 66.66545 110.33797 39.53152
#
# Poissons Ratio (x) = 0.04765 0.10025
# Poissons Ratio (y) = 0.02879 0.27594
# Poissons Ratio (z) = 0.16905 0.77017
#
# Static dielectric constant tensor:
#      x y z
#    x 1.729860 0.000000 -0.021700 
#    y 0.000000 1.750960 0.000000 
#    z -0.021700 0.000000 1.660600 
# 
# From -- ./inp_files/205616.got.cif
#   From: 2010.05.17/outbox.cif.g08.bks.cpg/sg12_103_cif.got.tgz:205616.got - 2010.06.03 13:09:07.
