data_PCOD9219621
_publ_section_title
;
Structure prediction by ZEFSAII (Michael W. Deem and Ramdas Pophale) SiO2 
 PCOD9219621
Probable space group: C 2/M
;
_chemical_formula_sum "Si O2"
_cell_formula_units_Z 64
_cell_length_a 32.076015
_cell_length_b 8.602031
_cell_length_c 14.810659
_cell_angle_alpha 90.000000
_cell_angle_beta 89.757752
_cell_angle_gamma 90.000000
_cell_volume 4086.503849
_symmetry_space_group_name_H-M "C 2/M"
_symmetry_group_IT_number 12
_symmetry_cell_setting 'monoclinic'
loop_
_space_group_symop_operation_xyz
x,y,z
-x,y,-z
-x,-y,-z
x,-y,z
1/2+x,1/2+y,z
1/2-x,1/2+y,-z
1/2-x,1/2-y,-z
1/2+x,1/2-y,z
loop_
_atom_site_type_symbol
_atom_site_label
_atom_site_fract_x
_atom_site_fract_y
_atom_site_fract_z
Si Si1 0.796190 0.312251 0.398308
Si Si2 0.297546 0.187798 0.599504
Si Si3 0.831985 0.313414 0.209266
Si Si4 0.910499 0.311205 0.899540
Si Si5 0.910128 0.183621 0.102618
Si Si6 0.747587 0.312966 0.898566
Si Si7 0.330516 0.189297 0.787602
Si Si8 0.002060 0.679254 0.890452
O O1 0.793636 0.500000 0.397643
O O2 0.749635 0.246506 0.386178
O O3 0.810784 0.263507 0.498421
O O4 0.824094 0.264515 0.313131
O O5 0.325010 0.240714 0.684089
O O6 0.296740 0.000000 0.601185
O O7 0.831852 0.500000 0.204897
O O8 0.874713 0.251795 0.167287
O O9 0.793197 0.250879 0.151146
O O10 0.911241 0.500000 0.902436
O O11 0.872307 0.258757 0.837662
O O12 0.956240 0.261628 0.863676
O O13 0.904743 0.253649 0.001985
O O14 0.956687 0.227468 0.134751
O O15 0.905779 0.000000 0.096879
O O16 0.745959 0.500000 0.899837
O O17 0.789185 0.265131 0.843522
O O18 0.750000 0.250000 0.000000
O O19 0.331517 0.000000 0.787900
O O20 0.007106 0.500000 0.861568
O O21 0.000000 0.679539 0.000000
#
# Coordination Sequence:
#
# PCOD9219621 Si02
#       8
#     8   8   8   8   8   8   8   8
#     4   9  18  30  47  68  89 117 152 192 237 273
#     4   9  16  30  49  68  90 116 149 192 235 276
#     4  11  21  33  46  64  92 125 159 194 230 275
#     4   9  17  31  49  69  94 125 155 183 226 280
#     4  11  21  31  46  68  92 121 157 196 234 272
#     4  11  21  32  45  65  93 129 162 189 223 265
#     4   9  17  29  47  68  91 120 152 185 223 270
#     4   8  15  29  48  67  90 120 151 186 230 278
#
# _framework density 15.661308
#
# number of rings (size 3 to 8) (size 9 to 14) (size 15 to 20)
#    0.000    2.375    1.250    3.375    0.000    3.750 
#    0.000    1.250    0.000    0.000    0.000    0.875 
#    0.000    7.000    0.000    0.000    0.000    0.000 
#
# Total GULP energy -178381.022074 kJ/mol
# GULP energy per Si atom -5574.406940 kJ/mol
# Density = 1.562566 g / cm^3
# Si number density = 15.661308 Si / 1000 Ang^3
#
#
#
# Elastic Constant Matrix: (Units=GPa)
#
#
# Indices 1 2 3 4 5 6 
#
# 1 134.5578 30.3104 77.6702 0.0000 -6.8163 0.0000
# 2 30.3104 28.0810 25.9662 0.0000 -2.4531 0.0000
# 3 77.6702 25.9662 125.6163 0.0000 -5.0069 0.0000
# 4 0.0000 0.0000 0.0000 13.1965 0.0000 0.3472
# 5 -6.8163 -2.4531 -5.0069 0.0000 8.8079 0.0000
# 6 0.0000 0.0000 0.0000 0.3472 0.0000 20.7787
#
#
#
# Elastic Compliance Matrix: (Units=1/GPa)
#
#
# Indices 1 2 3 4 5 6 
#
# 1 0.013047 -0.007918 -0.006258 0.000000 0.004334 0.000000
# 2 -0.007918 0.049289 -0.005106 0.000000 0.004698 0.000000
# 3 -0.006258 -0.005106 0.012929 0.000000 0.001085 0.000000
# 4 0.000000 0.000000 0.000000 0.075811 0.000000 -0.001267
# 5 0.004334 0.004698 0.001085 0.000000 0.118813 0.000000
# 6 0.000000 0.000000 0.000000 -0.001267 0.000000 0.048147
#
#
# Mechanical properties :
#
#
# Convention : Reuss Voigt Hill
#
# Bulk Modulus (GPa) = 27.24607 61.79429 44.52018
# Shear Modulus (GPa) = 13.55629 18.84385 16.20007
#
# Velocity S-wave (km/s) = 2.94529 3.47250 3.21970
# Velocity P-wave (km/s) = 5.38527 7.45788 6.50465
#
# Compressibility (1/GPa) = 0.03670254
#
# Stress axis : x y z
#
# Youngs Moduli (GPa) = 76.64631 20.28844 77.34808
#
# Poissons Ratio (x) = 0.16064 0.48402
# Poissons Ratio (y) = 0.60686 0.39491
# Poissons Ratio (z) = 0.47963 0.10359
#
# Static dielectric constant tensor:
#      x y z
#    x 1.519580 0.000000 0.005920 
#    y 0.000000 1.532760 0.000000 
#    z 0.005920 0.000000 1.525450 
# 
# From -- ./inp_files/248336.got.cif
#   From: 2010.05.17/outbox.cif.g08.bks.cpg/sg12_125_cif.got.tgz:248336.got - 2010.06.03 13:09:07.
