data_PCOD9219095
_publ_section_title
;
Structure prediction by ZEFSAII (Michael W. Deem and Ramdas Pophale) SiO2 
 PCOD9219095
Probable space group: C 2/M
;
_chemical_formula_sum "Si O2"
_cell_formula_units_Z 56
_cell_length_a 14.532448
_cell_length_b 28.046735
_cell_length_c 14.176087
_cell_angle_alpha 90.000000
_cell_angle_beta 152.192421
_cell_angle_gamma 90.000000
_cell_volume 2695.457584
_symmetry_space_group_name_H-M "C 2/M"
_symmetry_group_IT_number 12
_symmetry_cell_setting 'monoclinic'
loop_
_space_group_symop_operation_xyz
x,y,z
-x,y,-z
-x,-y,-z
x,-y,z
1/2+x,1/2+y,z
1/2-x,1/2+y,-z
1/2-x,1/2-y,-z
1/2+x,1/2-y,z
loop_
_atom_site_type_symbol
_atom_site_label
_atom_site_fract_x
_atom_site_fract_y
_atom_site_fract_z
Si Si1 0.691487 0.785845 0.860451
Si Si2 0.271773 0.055958 0.688974
Si Si3 0.258902 0.056169 0.894207
Si Si4 0.895456 0.770447 0.815594
Si Si5 0.932778 0.205094 0.540338
Si Si6 0.106834 0.353336 0.506871
Si Si7 0.574666 0.614408 0.342896
O O1 0.588170 0.747209 0.698609
O O2 0.541274 0.830163 0.707118
O O3 0.750000 0.750000 0.000000
O O4 0.913244 0.801626 0.039076
O O5 0.171759 0.085692 0.517199
O O6 0.783199 0.069601 0.253660
O O7 0.224614 0.000000 0.637234
O O8 0.506260 0.061313 0.887256
O O9 0.137407 0.089008 0.855830
O O10 0.212308 0.000000 0.864534
O O11 0.787363 0.728330 0.659782
O O12 0.723829 0.809409 0.663076
O O13 0.000000 0.745713 0.000000
O O14 0.947354 0.167749 0.637119
O O15 0.000000 0.184609 0.500000
O O16 0.272369 0.384174 0.604140
O O17 0.000000 0.376885 0.500000
#
# Coordination Sequence:
#
# PCOD9219095 Si02
#       7
#     8   8   8   8   8   8   8
#     4  11  21  37  58  76 105 152 199 243 288 335
#     4   9  19  38  62  88 119 153 179 210 274 361
#     4   9  19  38  62  87 119 154 180 208 275 364
#     4  11  19  39  60  68 100 163 198 231 289 337
#     4  11  22  35  51  86 116 140 187 237 288 354
#     4  11  24  41  55  80 111 151 210 247 281 343
#     4  12  23  34  55  88 119 141 185 244 287 324
#
# _framework density 20.775694000000001
#
# number of rings (size 3 to 8) (size 9 to 14) (size 15 to 20)
#    0.000    1.429    2.857    5.143    0.000    6.857 
#    2.571    0.000    0.000    1.714    0.000    2.000 
#    0.000    0.000    0.000    0.000    0.000    0.000 
#
# Total GULP energy -155880.493697 kJ/mol
# GULP energy per Si atom -5567.160489 kJ/mol
# Density = 2.072841 g / cm^3
# Si number density = 20.775694 Si / 1000 Ang^3
#
#
#
# Elastic Constant Matrix: (Units=GPa)
#
#
# Indices 1 2 3 4 5 6 
#
# 1 97.8448 25.6626 31.7297 0.0000 26.1283 0.0000
# 2 25.6626 43.7992 23.1801 0.0000 13.1829 0.0000
# 3 31.7297 23.1801 115.7666 -0.0002 15.0434 -0.0002
# 4 0.0000 0.0000 -0.0002 21.5686 0.0000 -1.1059
# 5 26.1283 13.1829 15.0434 0.0000 36.6201 0.0000
# 6 0.0000 0.0000 -0.0002 -1.1059 0.0000 32.7837
#
#
#
# Elastic Compliance Matrix: (Units=1/GPa)
#
#
# Indices 1 2 3 4 5 6 
#
# 1 0.014162 -0.005032 -0.001898 0.000000 -0.007513 0.000000
# 2 -0.005032 0.029432 -0.003807 0.000000 -0.005441 0.000000
# 3 -0.001898 -0.003807 0.010106 0.000000 -0.001427 0.000000
# 4 0.000000 0.000000 0.000000 0.046444 0.000000 0.001567
# 5 -0.007513 -0.005441 -0.001427 0.000000 0.035213 0.000000
# 6 0.000000 0.000000 0.000000 0.001567 0.000000 0.030556
#
#
# Mechanical properties :
#
#
# Convention : Reuss Voigt Hill
#
# Bulk Modulus (GPa) = 31.03004 46.50614 38.76809
# Shear Modulus (GPa) = 25.23617 29.98369 27.60993
#
# Velocity S-wave (km/s) = 3.48903 3.80308 3.64944
# Velocity P-wave (km/s) = 5.58563 6.45895 6.03810
#
# Compressibility (1/GPa) = 0.03222684
#
# Stress axis : x y z
#
# Youngs Moduli (GPa) = 70.61282 33.97632 98.95206
#
# Poissons Ratio (x) = 0.17096 0.18777
# Poissons Ratio (y) = 0.35531 0.37672
# Poissons Ratio (z) = 0.13400 0.12935
#
# Static dielectric constant tensor:
#      x y z
#    x 1.992690 0.000000 0.035150 
#    y 0.000000 1.729490 0.000000 
#    z 0.035150 0.000000 1.783310 
# 
# From -- ./inp_files/279623.got.cif
#   From: 2010.05.17/outbox.cif.g08.bks.cpg/sg12_140_cif.got.tgz:279623.got - 2010.06.03 13:09:07.
