data_PCOD9219973
_publ_section_title
;
Structure prediction by ZEFSAII (Michael W. Deem and Ramdas Pophale) SiO2 
 PCOD9219973
Probable space group: C 2/M
;
_chemical_formula_sum "Si O2"
_cell_formula_units_Z 44
_cell_length_a 9.388567
_cell_length_b 23.659308
_cell_length_c 12.415740
_cell_angle_alpha 90.000000
_cell_angle_beta 125.455179
_cell_angle_gamma 90.000000
_cell_volume 2246.477754
_symmetry_space_group_name_H-M "C 2/M"
_symmetry_group_IT_number 12
_symmetry_cell_setting 'monoclinic'
loop_
_space_group_symop_operation_xyz
x,y,z
-x,y,-z
-x,-y,-z
x,-y,z
1/2+x,1/2+y,z
1/2-x,1/2+y,-z
1/2-x,1/2-y,-z
1/2+x,1/2-y,z
loop_
_atom_site_type_symbol
_atom_site_label
_atom_site_fract_x
_atom_site_fract_y
_atom_site_fract_z
Si Si1 0.880972 0.218563 0.137143
Si Si2 0.329182 0.383207 0.993433
Si Si3 0.384029 0.000000 0.776056
Si Si4 0.735995 0.500000 0.942130
Si Si5 0.952773 0.377622 0.709205
Si Si6 0.500000 0.822758 0.500000
Si Si7 0.244407 0.264578 0.303574
O O1 0.828425 0.154302 0.099811
O O2 0.873030 0.233254 0.258461
O O3 0.072934 0.233859 0.183952
O O4 0.750000 0.250000 0.000000
O O5 0.352795 0.445860 0.046015
O O6 0.500000 0.367034 0.000000
O O7 0.143906 0.374356 0.851595
O O8 0.381242 0.940884 0.706959
O O9 0.249689 0.000000 0.818354
O O10 0.569741 0.000000 0.920345
O O11 0.987848 0.362319 0.599859
O O12 0.822242 0.326896 0.690699
O O13 0.663792 0.779056 0.574950
#
# Coordination Sequence:
#
# PCOD9219973 Si02
#       7
#     8   8   4   4   8   4   8
#     4  12  22  36  61  91 128 153 201 258 325 374
#     4  11  21  37  59  95 126 161 200 259 321 378
#     4   9  20  39  62  94 115 169 205 260 319 368
#     4   9  19  36  62  89 127 157 204 250 322 391
#     4  11  23  40  64  87 128 162 217 257 308 381
#     4  12  24  43  60  91 122 170 222 254 312 368
#     4  12  24  40  60  92 123 170 204 264 311 377
#
# _framework density 19.586217000000001
#
# number of rings (size 3 to 8) (size 9 to 14) (size 15 to 20)
#    0.000    0.909    3.636    4.636    0.000    1.818 
#    0.000    0.000    0.000    1.636    0.000    0.000 
#    0.000    0.000    0.000    0.000    0.000    0.000 
#
# Total GULP energy -122633.639829 kJ/mol
# GULP energy per Si atom -5574.256356 kJ/mol
# Density = 1.954164 g / cm^3
# Si number density = 19.586217 Si / 1000 Ang^3
#
#
#
# Elastic Constant Matrix: (Units=GPa)
#
#
# Indices 1 2 3 4 5 6 
#
# 1 46.1657 14.9823 15.9541 0.0000 -11.0699 0.0000
# 2 14.9823 149.4038 53.0534 0.0000 -13.8616 0.0000
# 3 15.9541 53.0534 69.1079 0.0000 -8.7281 0.0000
# 4 0.0000 0.0000 0.0000 26.2395 0.0000 -5.0679
# 5 -11.0699 -13.8616 -8.7281 0.0000 38.9704 0.0000
# 6 0.0000 0.0000 0.0000 -5.0679 0.0000 28.4663
#
#
#
# Elastic Compliance Matrix: (Units=1/GPa)
#
#
# Indices 1 2 3 4 5 6 
#
# 1 0.024809 -0.000236 -0.004802 0.000000 0.005888 0.000000
# 2 -0.000236 0.009320 -0.006885 0.000000 0.001706 0.000000
# 3 -0.004802 -0.006885 0.020976 0.000000 0.000885 0.000000
# 4 0.000000 0.000000 0.000000 0.039468 0.000000 0.007026
# 5 0.005888 0.001706 0.000885 0.000000 0.028138 0.000000
# 6 0.000000 0.000000 0.000000 0.007026 0.000000 0.036380
#
#
# Mechanical properties :
#
#
# Convention : Reuss Voigt Hill
#
# Bulk Modulus (GPa) = 31.99171 48.07301 40.03236
# Shear Modulus (GPa) = 25.85882 30.78109 28.31995
#
# Velocity S-wave (km/s) = 3.63747 3.96860 3.80664
# Velocity P-wave (km/s) = 5.83188 6.75258 6.30905
#
# Compressibility (1/GPa) = 0.03125810
#
# Stress axis : x y z
#
# Youngs Moduli (GPa) = 40.30758 107.29519 47.67346
#
# Poissons Ratio (x) = 0.02535 0.22895
# Poissons Ratio (y) = 0.00952 0.32823
# Poissons Ratio (z) = 0.19357 0.73872
#
# Static dielectric constant tensor:
#      x y z
#    x 1.685920 0.000000 0.002800 
#    y 0.000000 1.731110 0.000000 
#    z 0.002800 0.000000 1.567380 
# 
# From -- ./inp_files/122691.got.cif
#   From: 2010.05.17/outbox.cif.g08.bks.cpg/sg12_62_cif.got.tgz:122691.got - 2010.06.03 13:09:07.
