data_PCOD9219369
_publ_section_title
;
Structure prediction by ZEFSAII (Michael W. Deem and Ramdas Pophale) SiO2 
 PCOD9219369
Probable space group: C 2/M
;
_chemical_formula_sum "Si O2"
_cell_formula_units_Z 44
_cell_length_a 14.775198
_cell_length_b 7.401484
_cell_length_c 24.173827
_cell_angle_alpha 90.000000
_cell_angle_beta 40.135273
_cell_angle_gamma 90.000000
_cell_volume 1704.056786
_symmetry_space_group_name_H-M "C 2/M"
_symmetry_group_IT_number 12
_symmetry_cell_setting 'monoclinic'
loop_
_space_group_symop_operation_xyz
x,y,z
-x,y,-z
-x,-y,-z
x,-y,z
1/2+x,1/2+y,z
1/2-x,1/2+y,-z
1/2-x,1/2-y,-z
1/2+x,1/2-y,z
loop_
_atom_site_type_symbol
_atom_site_label
_atom_site_fract_x
_atom_site_fract_y
_atom_site_fract_z
Si Si1 0.899446 0.214927 0.899521
Si Si2 0.096700 0.779988 0.903947
Si Si3 0.322337 0.212981 0.525126
Si Si4 0.912067 0.294961 0.767906
Si Si5 0.609466 0.500000 0.297938
Si Si6 0.155012 0.281676 0.364995
O O1 0.931148 0.293490 0.824645
O O2 0.016794 0.277312 0.887101
O O3 0.908965 0.000000 0.888608
O O4 0.750000 0.250000 0.000000
O O5 0.252851 0.713295 0.839274
O O6 0.105653 0.000000 0.900431
O O7 0.000000 0.725829 0.000000
O O8 0.250000 0.250000 0.500000
O O9 0.275673 0.277141 0.608652
O O10 0.487556 0.264052 0.445873
O O11 0.323710 0.000000 0.530465
O O12 0.922781 0.500000 0.742780
O O13 0.982861 0.157090 0.693432
O O14 0.691233 0.659803 0.296008
O O15 0.174218 0.500000 0.347925
#
# Coordination Sequence:
#
# PCOD9219369 Si02
#       6
#     8   8   8   8   4   8
#     4  11  20  36  61  91 116 149 200 265 329 371
#     4   9  18  35  61  85 114 149 193 260 330 365
#     4   9  19  36  67 101 129 156 205 259 304 342
#     4  11  23  42  61  86 120 163 207 259 310 378
#     4  12  24  41  65  84 127 174 216 233 308 376
#     4   9  21  41  63  94 129 167 201 251 303 358
#
# _framework density 25.820734999999999
#
# number of rings (size 3 to 8) (size 9 to 14) (size 15 to 20)
#    0.000    2.000    2.727    2.182    2.545    0.727 
#    3.273    3.182    0.000    0.000    0.000    0.000 
#    0.000    0.000    0.000    0.000    0.000    0.000 
#
# Total GULP energy -122475.538995 kJ/mol
# GULP energy per Si atom -5567.069954 kJ/mol
# Density = 2.576197 g / cm^3
# Si number density = 25.820735 Si / 1000 Ang^3
#
#
#
# Elastic Constant Matrix: (Units=GPa)
#
#
# Indices 1 2 3 4 5 6 
#
# 1 184.3635 18.3788 36.2766 0.0001 55.6947 0.0001
# 2 18.3788 153.5301 16.5191 0.0005 21.8836 0.0003
# 3 36.2766 16.5191 83.0153 0.0000 34.0234 0.0000
# 4 0.0001 0.0005 0.0000 120.8867 0.0000 -87.1534
# 5 55.6947 21.8836 34.0234 0.0000 51.3226 0.0000
# 6 0.0001 0.0003 0.0000 -87.1534 0.0000 102.3792
#
#
#
# Elastic Compliance Matrix: (Units=1/GPa)
#
#
# Indices 1 2 3 4 5 6 
#
# 1 0.008083 0.000300 0.000076 0.000000 -0.008950 0.000000
# 2 0.000300 0.006949 -0.000228 0.000000 -0.003137 0.000000
# 3 0.000076 -0.000228 0.016548 0.000000 -0.010956 0.000000
# 4 0.000000 0.000000 0.000000 0.021416 0.000000 0.018231
# 5 -0.008950 -0.003137 -0.010956 0.000000 0.037798 0.000000
# 6 0.000000 0.000000 0.000000 0.018231 0.000000 0.025287
#
#
# Mechanical properties :
#
#
# Convention : Reuss Voigt Hill
#
# Bulk Modulus (GPa) = 31.37103 62.58421 46.97762
# Shear Modulus (GPa) = 39.55389 78.23333 58.89361
#
# Velocity S-wave (km/s) = 3.91815 5.51039 4.78102
# Velocity P-wave (km/s) = 5.71359 8.04838 6.97931
#
# Compressibility (1/GPa) = 0.03187654
#
# Stress axis : x y z
#
# Youngs Moduli (GPa) = 123.71895 143.90141 60.42944
#
# Poissons Ratio (x) = -0.04315 -0.00461
# Poissons Ratio (y) = -0.03710 0.01378
# Poissons Ratio (z) = -0.00944 0.03281
#
# Static dielectric constant tensor:
#      x y z
#    x 1.980330 0.000000 0.196850 
#    y 0.000000 1.913470 0.000000 
#    z 0.196850 0.000000 2.068980 
# 
# From -- ./inp_files/337733.got.cif
#   From: 2010.05.17/outbox.cif.g08.bks.cpg/sg12_169_cif.got.tgz:337733.got - 2010.06.03 13:09:07.
