data_PCOD9219815
_publ_section_title
;
Structure prediction by ZEFSAII (Michael W. Deem and Ramdas Pophale) SiO2 
 PCOD9219815
Probable space group: C 2/M
;
_chemical_formula_sum "Si O2"
_cell_formula_units_Z 40
_cell_length_a 7.644495
_cell_length_b 29.963237
_cell_length_c 7.849323
_cell_angle_alpha 90.000000
_cell_angle_beta 92.593636
_cell_angle_gamma 90.000000
_cell_volume 1796.075599
_symmetry_space_group_name_H-M "C 2/M"
_symmetry_group_IT_number 12
_symmetry_cell_setting 'monoclinic'
loop_
_space_group_symop_operation_xyz
x,y,z
-x,y,-z
-x,-y,-z
x,-y,z
1/2+x,1/2+y,z
1/2-x,1/2+y,-z
1/2-x,1/2-y,-z
1/2+x,1/2-y,z
loop_
_atom_site_type_symbol
_atom_site_label
_atom_site_fract_x
_atom_site_fract_y
_atom_site_fract_z
Si Si1 0.130552 0.201545 0.162719
Si Si2 0.166617 0.890353 0.276250
Si Si3 0.267514 0.621271 0.315949
Si Si4 0.519817 0.949766 0.708554
Si Si5 0.296746 0.279024 0.335232
O O1 0.230191 0.155072 0.188645
O O2 0.251212 0.244313 0.184236
O O3 0.996970 0.206569 0.316939
O O4 0.000000 0.199042 0.000000
O O5 0.199576 0.885291 0.480278
O O6 0.287191 0.932049 0.233584
O O7 0.956483 0.889998 0.239668
O O8 0.205376 0.673026 0.304959
O O9 0.122696 0.586959 0.244114
O O10 0.500000 0.950875 0.500000
O O11 0.487772 0.000000 0.768085
O O12 0.250000 0.250000 0.500000
#
# Coordination Sequence:
#
# PCOD9219815 Si02
#       5
#     8   8   8   8   8
#     4  11  23  36  52  82 119 152 191 237 289 343
#     4   9  18  33  52  75 110 147 185 231 286 345
#     4   9  18  32  52  81 108 143 192 236 279 341
#     4   9  18  31  52  81 110 140 183 242 299 339
#     4  11  21  35  57  81 110 157 196 233 280 344
#
# _framework density 22.270779999999998
#
# number of rings (size 3 to 8) (size 9 to 14) (size 15 to 20)
#    0.000    2.200    2.000    1.200    2.800    2.400 
#    0.000    4.000    0.000    0.600    0.000    5.600 
#    0.000    0.000    0.000    0.000    0.000    0.000 
#
# Total GULP energy -111503.247933 kJ/mol
# GULP energy per Si atom -5575.162397 kJ/mol
# Density = 2.222009 g / cm^3
# Si number density = 22.270780 Si / 1000 Ang^3
#
#
#
# Elastic Constant Matrix: (Units=GPa)
#
#
# Indices 1 2 3 4 5 6 
#
# 1 60.4938 63.4194 3.4123 0.0000 7.7885 0.0000
# 2 63.4194 200.7205 8.0475 0.0000 11.3909 0.0000
# 3 3.4123 8.0475 47.7999 0.0000 1.9757 0.0000
# 4 0.0000 0.0000 0.0000 -0.0754 0.0000 9.0726
# 5 7.7885 11.3909 1.9757 0.0000 15.6136 0.0000
# 6 0.0000 0.0000 0.0000 9.0726 0.0000 40.2735
#
#
#
# Elastic Compliance Matrix: (Units=1/GPa)
#
#
# Indices 1 2 3 4 5 6 
#
# 1 0.025459 -0.007631 -0.000239 0.000000 -0.007102 0.000000
# 2 -0.007631 0.007510 -0.000654 0.000000 -0.001589 0.000000
# 3 -0.000239 -0.000654 0.021134 0.000000 -0.002078 0.000000
# 4 0.000000 0.000000 0.000000 -0.471867 0.000000 0.106299
# 5 -0.007102 -0.001589 -0.002078 0.000000 0.069011 0.000000
# 6 0.000000 0.000000 0.000000 0.106299 0.000000 0.000884
#
#
# Mechanical properties :
#
#
# Convention : Reuss Voigt Hill
#
# Bulk Modulus (GPa) = 26.98796 50.97472 38.98134
# Shear Modulus (GPa) = -15.70006 26.77134 5.53564
#
# Velocity S-wave (km/s) = -2.65799 3.47087 1.57829
# Velocity P-wave (km/s) = 1.65061 6.24507 4.56757
#
# Compressibility (1/GPa) = 0.03705356
#
# Stress axis : x y z
#
# Youngs Moduli (GPa) = 39.27905 133.16220 47.31805
#
# Poissons Ratio (x) = 1.01620 0.01131
# Poissons Ratio (y) = 0.29975 0.03094
# Poissons Ratio (z) = 0.00939 0.08707
#
# Static dielectric constant tensor:
#      x y z
#    x 1.867530 0.000000 -0.040280 
#    y 0.000000 1.866950 0.000000 
#    z -0.040280 0.000000 1.950190 
# 
# From -- ./inp_files/39420.got.cif
#   From: 2010.05.17/outbox.cif.g08.bks.cpg/sg12_20_cif.got.tgz:39420.got - 2010.06.03 13:09:07.
