data_PCOD9219151
_publ_section_title
;
Structure prediction by ZEFSAII (Michael W. Deem and Ramdas Pophale) SiO2 
 PCOD9219151
Probable space group: C 2/M
;
_chemical_formula_sum "Si O2"
_cell_formula_units_Z 48
_cell_length_a 24.555889
_cell_length_b 8.830407
_cell_length_c 21.382923
_cell_angle_alpha 90.000000
_cell_angle_beta 141.341080
_cell_angle_gamma 90.000000
_cell_volume 2896.430429
_symmetry_space_group_name_H-M "C 2/M"
_symmetry_group_IT_number 12
_symmetry_cell_setting 'monoclinic'
loop_
_space_group_symop_operation_xyz
x,y,z
-x,y,-z
-x,-y,-z
x,-y,z
1/2+x,1/2+y,z
1/2-x,1/2+y,-z
1/2-x,1/2-y,-z
1/2+x,1/2-y,z
loop_
_atom_site_type_symbol
_atom_site_label
_atom_site_fract_x
_atom_site_fract_y
_atom_site_fract_z
Si Si1 0.819984 0.680839 0.109177
Si Si2 0.160163 0.317248 0.730836
Si Si3 0.980329 0.319516 0.711013
Si Si4 0.203860 0.319899 0.637163
Si Si5 0.201454 0.679381 0.395966
Si Si6 0.470662 0.321087 0.568510
O O1 0.811784 0.500000 0.099471
O O2 0.807731 0.727059 0.171054
O O3 0.920478 0.717700 0.181326
O O4 0.750000 0.750000 0.000000
O O5 0.147420 0.500000 0.719855
O O6 0.219646 0.280297 0.724241
O O7 0.066458 0.239107 0.638117
O O8 0.979268 0.500000 0.693185
O O9 0.902202 0.294560 0.689198
O O10 0.959002 0.221584 0.630849
O O11 0.210026 0.500000 0.635751
O O12 0.262497 0.244649 0.636455
O O13 0.105432 0.266729 0.535042
O O14 0.217448 0.500000 0.411809
O O15 0.250000 0.750000 0.500000
O O16 0.463722 0.500000 0.551751
#
# Coordination Sequence:
#
# PCOD9219151 Si02
#       6
#     8   8   8   8   8   8
#     4   9  18  35  57  79  98 124 164 212 264 314
#     4   9  20  36  51  69 100 138 170 203 258 317
#     4   9  19  35  52  71 103 140 171 203 253 310
#     4  11  21  33  49  69 101 143 175 205 248 301
#     4  11  21  33  51  74 103 141 178 212 245 294
#     4  11  20  29  47  74 103 133 171 215 250 293
#
# _framework density 16.572123000000001
#
# number of rings (size 3 to 8) (size 9 to 14) (size 15 to 20)
#    0.000    2.000    1.667    4.000    0.000    6.667 
#    0.000    0.000    0.000    1.000    0.000    7.000 
#    0.000    0.000    0.000    0.000    0.000    0.000 
#
# Total GULP energy -133844.650012 kJ/mol
# GULP energy per Si atom -5576.860417 kJ/mol
# Density = 1.653440 g / cm^3
# Si number density = 16.572123 Si / 1000 Ang^3
#
#
#
# Elastic Constant Matrix: (Units=GPa)
#
#
# Indices 1 2 3 4 5 6 
#
# 1 156.2533 49.2353 66.8352 0.0000 -19.9395 0.0000
# 2 49.2353 41.5473 28.1631 0.0000 -4.1300 0.0000
# 3 66.8352 28.1631 101.6095 0.0000 -5.1221 0.0000
# 4 0.0000 0.0000 0.0000 24.4304 0.0000 1.9716
# 5 -19.9395 -4.1300 -5.1221 0.0000 8.0415 0.0000
# 6 0.0000 0.0000 0.0000 1.9716 0.0000 26.8750
#
#
#
# Elastic Compliance Matrix: (Units=1/GPa)
#
#
# Indices 1 2 3 4 5 6 
#
# 1 0.017227 -0.013100 -0.006082 0.000000 0.032114 0.000000
# 2 -0.013100 0.040452 -0.003291 0.000000 -0.013803 0.000000
# 3 -0.006082 -0.003291 0.014370 0.000000 -0.007617 0.000000
# 4 0.000000 0.000000 0.000000 0.041176 0.000000 -0.003021
# 5 0.032114 -0.013803 -0.007617 0.000000 0.192043 0.000000
# 6 0.000000 0.000000 0.000000 -0.003021 0.000000 0.037431
#
#
# Mechanical properties :
#
#
# Convention : Reuss Voigt Hill
#
# Bulk Modulus (GPa) = 36.89555 65.31967 51.10761
# Shear Modulus (GPa) = 12.60466 22.21450 17.40958
#
# Velocity S-wave (km/s) = 2.76088 3.66522 3.24471
# Velocity P-wave (km/s) = 5.69870 7.57712 6.70403
#
# Compressibility (1/GPa) = 0.02710354
#
# Stress axis : x y z
#
# Youngs Moduli (GPa) = 58.04821 24.72080 69.58911
#
# Poissons Ratio (x) = 0.32384 0.42321
# Poissons Ratio (y) = 0.76043 0.22902
# Poissons Ratio (z) = 0.35302 0.08136
#
# Static dielectric constant tensor:
#      x y z
#    x 1.600690 0.000000 -0.013290 
#    y 0.000000 1.555080 0.000000 
#    z -0.013290 0.000000 1.541060 
# 
# From -- ./inp_files/287263.got.cif
#   From: 2010.05.17/outbox.cif.g08.bks.cpg/sg12_144_cif.got.tgz:287263.got - 2010.06.03 13:09:07.
