data_PCOD9219895
_publ_section_title
;
Structure prediction by ZEFSAII (Michael W. Deem and Ramdas Pophale) SiO2 
 PCOD9219895
Probable space group: C 2/M
;
_chemical_formula_sum "Si O2"
_cell_formula_units_Z 48
_cell_length_a 25.900097
_cell_length_b 8.624923
_cell_length_c 11.951434
_cell_angle_alpha 90.000000
_cell_angle_beta 89.055667
_cell_angle_gamma 90.000000
_cell_volume 2669.424515
_symmetry_space_group_name_H-M "C 2/M"
_symmetry_group_IT_number 12
_symmetry_cell_setting 'monoclinic'
loop_
_space_group_symop_operation_xyz
x,y,z
-x,y,-z
-x,-y,-z
x,-y,z
1/2+x,1/2+y,z
1/2-x,1/2+y,-z
1/2-x,1/2-y,-z
1/2+x,1/2-y,z
loop_
_atom_site_type_symbol
_atom_site_label
_atom_site_fract_x
_atom_site_fract_y
_atom_site_fract_z
Si Si1 0.551137 0.312457 0.643918
Si Si2 0.565491 0.688256 0.387649
Si Si3 0.308347 0.186078 0.997793
Si Si4 0.336861 0.313338 0.761776
Si Si5 0.258842 0.315171 0.375848
Si Si6 0.646270 0.814739 0.762987
O O1 0.553805 0.500000 0.650219
O O2 0.491061 0.265828 0.654887
O O3 0.569112 0.265542 0.517762
O O4 0.589250 0.239767 0.732345
O O5 0.565962 0.500000 0.387824
O O6 0.613247 0.739797 0.310674
O O7 0.336699 0.252776 0.888124
O O8 0.306353 0.000000 0.991110
O O9 0.250000 0.250000 0.000000
O O10 0.336263 0.229919 0.112555
O O11 0.335265 0.500000 0.761760
O O12 0.285624 0.251087 0.703078
O O13 0.256436 0.500000 0.377991
O O14 0.250000 0.250000 0.500000
O O15 0.313599 0.261802 0.324626
O O16 0.650348 0.000000 0.753535
#
# Coordination Sequence:
#
# PCOD9219895 Si02
#       6
#     8   8   8   8   8   8
#     4   9  17  35  61  85 112 149 190 230 282 344
#     4   8  17  34  58  86 114 147 186 231 283 342
#     4  11  23  39  58  79 110 153 197 238 287 343
#     4  11  21  36  58  85 116 148 190 239 287 341
#     4  12  24  37  56  83 116 149 185 230 287 344
#     4  11  23  38  56  82 114 147 190 239 287 338
#
# _framework density 17.981404000000001
#
# number of rings (size 3 to 8) (size 9 to 14) (size 15 to 20)
#    0.000    1.667    1.667    5.000    0.000    3.333 
#    0.000    5.000    0.000    5.000    0.000    0.000 
#    0.000    0.000    0.000    0.000    0.000    0.000 
#
# Total GULP energy -134084.401297 kJ/mol
# GULP energy per Si atom -5586.850054 kJ/mol
# Density = 1.794048 g / cm^3
# Si number density = 17.981404 Si / 1000 Ang^3
#
#
#
# Elastic Constant Matrix: (Units=GPa)
#
#
# Indices 1 2 3 4 5 6 
#
# 1 67.8846 9.5629 11.7096 0.0000 17.4754 0.0000
# 2 9.5629 53.1550 21.8820 0.0000 9.4122 0.0000
# 3 11.7096 21.8820 70.6369 0.0000 24.2472 0.0000
# 4 0.0000 0.0000 0.0000 32.2529 0.0000 2.3598
# 5 17.4754 9.4122 24.2472 0.0000 33.8807 0.0000
# 6 0.0000 0.0000 0.0000 2.3598 0.0000 25.4022
#
#
#
# Elastic Compliance Matrix: (Units=1/GPa)
#
#
# Indices 1 2 3 4 5 6 
#
# 1 0.017143 -0.001830 0.000776 0.000000 -0.008890 0.000000
# 2 -0.001830 0.021824 -0.006231 0.000000 -0.000660 0.000000
# 3 0.000776 -0.006231 0.020550 0.000000 -0.013377 0.000000
# 4 0.000000 0.000000 0.000000 0.031217 0.000000 -0.002900
# 5 -0.008890 -0.000660 -0.013377 0.000000 0.043857 0.000000
# 6 0.000000 0.000000 0.000000 -0.002900 0.000000 0.039636
#
#
# Mechanical properties :
#
#
# Convention : Reuss Voigt Hill
#
# Bulk Modulus (GPa) = 22.24739 30.88727 26.56733
# Shear Modulus (GPa) = 24.53645 28.20862 26.37253
#
# Velocity S-wave (km/s) = 3.69798 3.96506 3.83385
# Velocity P-wave (km/s) = 5.53469 6.17875 5.86556
#
# Compressibility (1/GPa) = 0.04494909
#
# Stress axis : x y z
#
# Youngs Moduli (GPa) = 58.33229 45.82129 48.66159
#
# Poissons Ratio (x) = 0.08384 -0.03778
# Poissons Ratio (y) = 0.10673 0.30320
# Poissons Ratio (z) = -0.04529 0.28550
#
# Static dielectric constant tensor:
#      x y z
#    x 1.598570 0.000000 0.000020 
#    y 0.000000 1.608530 0.000000 
#    z 0.000020 0.000000 1.599140 
# 
# From -- ./inp_files/172314.got.cif
#   From: 2010.05.17/outbox.cif.g08.bks.cpg/sg12_87_cif.got.tgz:172314.got - 2010.06.03 13:09:07.
