data_PCOD9219183
_publ_section_title
;
Structure prediction by ZEFSAII (Michael W. Deem and Ramdas Pophale) SiO2 
 PCOD9219183
Probable space group: C 2/M
;
_chemical_formula_sum "Si O2"
_cell_formula_units_Z 56
_cell_length_a 23.292965
_cell_length_b 16.303150
_cell_length_c 21.200680
_cell_angle_alpha 90.000000
_cell_angle_beta 156.941252
_cell_angle_gamma 90.000000
_cell_volume 3153.346348
_symmetry_space_group_name_H-M "C 2/M"
_symmetry_group_IT_number 12
_symmetry_cell_setting 'monoclinic'
loop_
_space_group_symop_operation_xyz
x,y,z
-x,y,-z
-x,-y,-z
x,-y,z
1/2+x,1/2+y,z
1/2-x,1/2+y,-z
1/2-x,1/2-y,-z
1/2+x,1/2-y,z
loop_
_atom_site_type_symbol
_atom_site_label
_atom_site_fract_x
_atom_site_fract_y
_atom_site_fract_z
Si Si1 0.058044 0.000000 0.658854
Si Si2 0.258395 0.858108 0.898952
Si Si3 0.264445 0.241155 0.385452
Si Si4 0.819926 0.906072 0.608169
Si Si5 0.830686 0.319339 0.830060
Si Si6 0.558472 0.141404 0.255713
Si Si7 0.269188 0.500000 0.299488
Si Si8 0.975196 0.213054 0.263215
O O1 0.125999 0.077437 0.761638
O O2 0.135206 0.000000 0.668113
O O3 0.884840 0.000000 0.473782
O O4 0.278671 0.821512 0.849792
O O5 0.189374 0.796069 0.879002
O O6 0.413683 0.896333 0.077452
O O7 0.224031 0.153848 0.377406
O O8 0.257371 0.256692 0.303697
O O9 0.418217 0.271002 0.569286
O O10 0.144130 0.305254 0.290423
O O11 0.681920 0.906515 0.419765
O O12 0.952582 0.860757 0.705048
O O13 0.853099 0.000000 0.659168
O O14 0.815244 0.413678 0.788705
O O15 0.000000 0.295930 0.000000
O O16 0.497417 0.207301 0.243267
#
# Coordination Sequence:
#
# PCOD9219183 Si02
#       8
#     4   8   8   8   8   8   4   8
#     4   9  20  30  42  70 106 131 166 207 232 310
#     4  11  20  31  49  76 106 136 172 203 264 307
#     4   9  18  36  52  75 103 132 182 213 247 318
#     4   9  19  35  57  77 101 138 172 220 266 297
#     4  11  20  33  51  74 104 144 174 217 254 305
#     4   9  18  34  51  75 104 130 171 219 251 315
#     4   9  19  34  44  64 107 142 167 200 244 295
#     4   9  19  33  52  75 103 133 172 214 257 309
#
# _framework density 17.758911000000001
#
# number of rings (size 3 to 8) (size 9 to 14) (size 15 to 20)
#    0.000    2.429    1.429    3.214    2.000    1.714 
#    5.143    0.000    0.000    0.429    0.000    8.000 
#    0.000    0.000    0.000    0.000    0.000    0.000 
#
# Total GULP energy -155933.943647 kJ/mol
# GULP energy per Si atom -5569.069416 kJ/mol
# Density = 1.771849 g / cm^3
# Si number density = 17.758911 Si / 1000 Ang^3
#
#
#
# Elastic Constant Matrix: (Units=GPa)
#
#
# Indices 1 2 3 4 5 6 
#
# 1 72.8280 22.5011 13.1332 0.0021 -5.8495 0.0013
# 2 22.5011 76.9822 3.8197 0.0068 -8.5669 0.0045
# 3 13.1332 3.8197 74.3131 0.0077 -7.3817 0.0060
# 4 0.0021 0.0068 0.0077 15.2834 0.0035 -0.0905
# 5 -5.8495 -8.5669 -7.3817 0.0035 22.2007 0.0017
# 6 0.0013 0.0045 0.0060 -0.0905 0.0017 13.6672
#
#
#
# Elastic Compliance Matrix: (Units=1/GPa)
#
#
# Indices 1 2 3 4 5 6 
#
# 1 0.015609 -0.004258 -0.002373 0.000001 0.001681 0.000001
# 2 -0.004258 0.014737 0.000464 -0.000007 0.004719 -0.000005
# 3 -0.002373 0.000464 0.014279 -0.000008 0.004302 -0.000007
# 4 0.000001 -0.000007 -0.000008 0.065433 -0.000016 0.000433
# 5 0.001681 0.004719 0.004302 -0.000016 0.048738 -0.000010
# 6 0.000001 -0.000005 -0.000007 0.000433 -0.000010 0.073171
#
#
# Mechanical properties :
#
#
# Convention : Reuss Voigt Hill
#
# Bulk Modulus (GPa) = 30.96754 33.67016 32.31885
# Shear Modulus (GPa) = 19.60290 22.54154 21.07222
#
# Velocity S-wave (km/s) = 3.32600 3.56660 3.44840
# Velocity P-wave (km/s) = 5.67674 5.99680 5.83896
#
# Compressibility (1/GPa) = 0.03229188
#
# Stress axis : x y z
#
# Youngs Moduli (GPa) = 64.06427 67.85820 70.03110
#
# Poissons Ratio (x) = 0.28892 0.16617
# Poissons Ratio (y) = 0.27276 -0.03248
# Poissons Ratio (z) = 0.15201 -0.03147
#
# Static dielectric constant tensor:
#      x y z
#    x 1.633360 0.000000 -0.028750 
#    y 0.000000 1.647260 0.000000 
#    z -0.028750 0.000000 1.642130 
# 
# From -- ./inp_files/326066.got.cif
#   From: 2010.05.17/outbox.cif.g08.bks.cpg/sg12_164_cif.got.tgz:326066.got - 2010.06.03 13:09:07.
