data_PCOD9219556
_publ_section_title
;
Structure prediction by ZEFSAII (Michael W. Deem and Ramdas Pophale) SiO2 
 PCOD9219556
Probable space group: C 2/M
;
_chemical_formula_sum "Si O2"
_cell_formula_units_Z 48
_cell_length_a 16.689161
_cell_length_b 19.516708
_cell_length_c 13.466311
_cell_angle_alpha 90.000000
_cell_angle_beta 143.596139
_cell_angle_gamma 90.000000
_cell_volume 2603.099482
_symmetry_space_group_name_H-M "C 2/M"
_symmetry_group_IT_number 12
_symmetry_cell_setting 'monoclinic'
loop_
_space_group_symop_operation_xyz
x,y,z
-x,y,-z
-x,-y,-z
x,-y,z
1/2+x,1/2+y,z
1/2-x,1/2+y,-z
1/2-x,1/2-y,-z
1/2+x,1/2-y,z
loop_
_atom_site_type_symbol
_atom_site_label
_atom_site_fract_x
_atom_site_fract_y
_atom_site_fract_z
Si Si1 0.952981 0.171821 0.263079
Si Si2 0.814102 0.368008 0.898253
Si Si3 0.584871 0.179077 0.681689
Si Si4 0.105215 0.208831 0.020287
Si Si5 0.707587 0.418692 0.579572
Si Si6 0.515685 0.077807 0.249191
O O1 0.813793 0.135213 0.155430
O O2 0.951935 0.243468 0.321827
O O3 0.078202 0.125259 0.419415
O O4 0.949332 0.189901 0.143142
O O5 0.871815 0.290794 0.949365
O O6 0.761198 0.393997 0.740082
O O7 0.929590 0.413761 0.062463
O O8 0.500000 0.161202 0.500000
O O9 0.744951 0.177340 0.820616
O O10 0.544199 0.129973 0.731119
O O11 0.000000 0.187631 0.000000
O O12 0.678296 0.500000 0.553967
O O13 0.829497 0.407095 0.623831
O O14 0.505228 0.000000 0.274562
#
# Coordination Sequence:
#
# PCOD9219556 Si02
#       6
#     8   8   8   8   8   8
#     4  11  22  41  63  93 129 158 203 259 309 373
#     4  11  20  41  63  92 125 161 205 251 317 373
#     4  11  23  41  63  91 122 162 210 255 308 366
#     4  11  22  39  65  96 121 159 206 258 309 366
#     4  11  25  39  62  97 128 163 206 255 312 375
#     4  11  23  40  61  88 126 167 207 256 308 365
#
# _framework density 18.439557000000001
#
# number of rings (size 3 to 8) (size 9 to 14) (size 15 to 20)
#    0.000    1.000    3.333    5.500    2.333    4.333 
#    0.000    0.000    0.000    1.000    0.000    0.000 
#    0.000    0.000    0.000    0.000    0.000    0.000 
#
# Total GULP energy -134172.854750 kJ/mol
# GULP energy per Si atom -5590.535615 kJ/mol
# Density = 1.839759 g / cm^3
# Si number density = 18.439557 Si / 1000 Ang^3
#
#
#
# Elastic Constant Matrix: (Units=GPa)
#
#
# Indices 1 2 3 4 5 6 
#
# 1 127.4049 50.3132 54.7680 0.0000 9.1826 0.0000
# 2 50.3132 67.3843 37.2868 0.0000 15.3466 0.0000
# 3 54.7680 37.2868 126.1469 0.0000 -1.8880 0.0000
# 4 0.0000 0.0000 0.0000 -18.2356 0.0000 -266.5538
# 5 9.1826 15.3466 -1.8880 0.0000 29.9749 0.0000
# 6 0.0000 0.0000 0.0000 -266.5538 0.0000-1667.6435
#
#
#
# Elastic Compliance Matrix: (Units=1/GPa)
#
#
# Indices 1 2 3 4 5 6 
#
# 1 0.012054 -0.007248 -0.003094 0.000000 -0.000177 0.000000
# 2 -0.007248 0.025228 -0.004474 0.000000 -0.010978 0.000000
# 3 -0.003094 -0.004474 0.010651 0.000000 0.003909 0.000000
# 4 0.000000 0.000000 0.000000 0.041034 0.000000 -0.006559
# 5 -0.000177 -0.010978 0.003909 0.000000 0.039282 0.000000
# 6 0.000000 0.000000 0.000000 -0.006559 0.000000 0.000449
#
#
# Mechanical properties :
#
#
# Convention : Reuss Voigt Hill
#
# Bulk Modulus (GPa) = 54.64104 67.29691 60.96897
# Shear Modulus (GPa) = 30.40788 -319.27630 -144.43421
#
# Velocity S-wave (km/s) = 4.06526 -13.17283 -8.85994
# Velocity P-wave (km/s) = 7.19250 13.95669 8.45746
#
# Compressibility (1/GPa) = 0.01830126
#
# Stress axis : x y z
#
# Youngs Moduli (GPa) = 82.96073 39.63809 93.88404
#
# Poissons Ratio (x) = 0.28730 0.29043
# Poissons Ratio (y) = 0.60131 0.42008
# Poissons Ratio (z) = 0.25664 0.17736
#
# Static dielectric constant tensor:
#      x y z
#    x 1.630890 0.000000 0.003050 
#    y 0.000000 1.620060 0.000000 
#    z 0.003050 0.000000 1.620780 
# 
# From -- ./inp_files/77296.got.cif
#   From: 2010.05.17/outbox.cif.g08.bks.cpg/sg12_39_cif.got.tgz:77296.got - 2010.06.03 13:09:07.
