data_PCOD9219365
_publ_section_title
;
Structure prediction by ZEFSAII (Michael W. Deem and Ramdas Pophale) SiO2 
 PCOD9219365
Probable space group: C 2/M
;
_chemical_formula_sum "Si O2"
_cell_formula_units_Z 48
_cell_length_a 10.717692
_cell_length_b 20.403985
_cell_length_c 23.194337
_cell_angle_alpha 90.000000
_cell_angle_beta 28.782097
_cell_angle_gamma 90.000000
_cell_volume 2442.172481
_symmetry_space_group_name_H-M "C 2/M"
_symmetry_group_IT_number 12
_symmetry_cell_setting 'monoclinic'
loop_
_space_group_symop_operation_xyz
x,y,z
-x,y,-z
-x,-y,-z
x,-y,z
1/2+x,1/2+y,z
1/2-x,1/2+y,-z
1/2-x,1/2-y,-z
1/2+x,1/2-y,z
loop_
_atom_site_type_symbol
_atom_site_label
_atom_site_fract_x
_atom_site_fract_y
_atom_site_fract_z
Si Si1 0.669328 0.796503 0.189729
Si Si2 0.760223 0.319778 0.963072
Si Si3 0.938922 0.689140 0.409200
Si Si4 0.029239 0.840231 0.746589
Si Si5 0.729780 0.073278 0.952848
Si Si6 0.745307 0.425133 0.561874
O O1 0.583934 0.816459 0.159868
O O2 0.513051 0.810085 0.311522
O O3 0.676564 0.717417 0.180260
O O4 0.951051 0.829004 0.080223
O O5 0.750000 0.250000 0.000000
O O6 0.857565 0.380026 0.960698
O O7 0.750000 0.750000 0.500000
O O8 0.812053 0.620342 0.480377
O O9 0.199010 0.693076 0.343774
O O10 0.052859 0.883626 0.679947
O O11 0.956183 0.888327 0.828041
O O12 0.803960 0.000000 0.940448
O O13 0.500000 0.069225 0.000000
O O14 0.667691 0.500000 0.580791
O O15 0.000000 0.428565 0.500000
#
# Coordination Sequence:
#
# PCOD9219365 Si02
#       6
#     8   8   8   8   8   8
#     4  11  21  35  60  88 117 157 201 247 308 358
#     4  11  21  38  59  87 122 157 202 245 306 370
#     4  11  21  36  57  90 122 154 207 253 301 360
#     4  11  20  36  60  86 122 153 200 262 305 351
#     4  11  23  39  62  93 124 159 204 255 308 366
#     4   9  19  34  54  80 113 149 190 241 300 352
#
# _framework density 19.654631999999999
#
# number of rings (size 3 to 8) (size 9 to 14) (size 15 to 20)
#    0.000    1.333    5.000    1.500    0.000    0.667 
#    0.000    2.500    0.000    0.000    0.000    3.500 
#    0.000    0.000    0.000    0.000    0.000    0.000 
#
# Total GULP energy -133835.623059 kJ/mol
# GULP energy per Si atom -5576.484294 kJ/mol
# Density = 1.960990 g / cm^3
# Si number density = 19.654632 Si / 1000 Ang^3
#
#
#
# Elastic Constant Matrix: (Units=GPa)
#
#
# Indices 1 2 3 4 5 6 
#
# 1 59.3778 51.9479 38.4342 -0.0174 30.5063 0.0671
# 2 51.9479 150.4071 44.7958 0.0116 26.6774 0.0179
# 3 38.4342 44.7958 98.4418 0.0456 40.9602 -0.0011
# 4 -0.0174 0.0116 0.0456 13.8139 -0.0020 11.6993
# 5 30.5063 26.6774 40.9602 -0.0020 54.7773 -0.0525
# 6 0.0671 0.0179 -0.0011 11.6993 -0.0525 19.6067
#
#
#
# Elastic Compliance Matrix: (Units=1/GPa)
#
#
# Indices 1 2 3 4 5 6 
#
# 1 0.032133 -0.007855 -0.004525 0.000348 -0.010687 -0.000339
# 2 -0.007855 0.009714 -0.001750 -0.000060 0.000952 0.000056
# 3 -0.004525 -0.001750 0.016430 -0.000111 -0.008914 0.000060
# 4 0.000348 -0.000060 -0.000111 0.146352 -0.000160 -0.087329
# 5 -0.010687 0.000952 -0.008914 -0.000160 0.030409 0.000212
# 6 -0.000339 0.000056 0.000060 -0.087329 0.000212 0.103113
#
#
# Mechanical properties :
#
#
# Convention : Reuss Voigt Hill
#
# Bulk Modulus (GPa) = 33.31321 64.28693 48.80007
# Shear Modulus (GPa) = 13.28317 29.17619 21.22968
#
# Velocity S-wave (km/s) = 2.60249 3.85703 3.29011
# Velocity P-wave (km/s) = 5.10066 7.25361 6.27023
#
# Compressibility (1/GPa) = 0.03001813
#
# Stress axis : x y z
#
# Youngs Moduli (GPa) = 31.12035 102.94592 60.86488
#
# Poissons Ratio (x) = 0.80865 0.27540
# Poissons Ratio (y) = 0.24445 0.10649
# Poissons Ratio (z) = 0.14081 0.18011
#
# Static dielectric constant tensor:
#      x y z
#    x 1.780960 -0.000040 -0.012460 
#    y -0.000040 1.677550 0.000020 
#    z -0.012460 0.000020 1.745010 
# 
# From -- ./inp_files/241900.got.cif
#   From: 2010.05.17/outbox.cif.g08.bks.cpg/sg12_121_cif.got.tgz:241900.got - 2010.06.03 13:09:07.
