data_PCOD9219931
_publ_section_title
;
Structure prediction by ZEFSAII (Michael W. Deem and Ramdas Pophale) SiO2 
 PCOD9219931
Probable space group: C 2/M
;
_chemical_formula_sum "Si O2"
_cell_formula_units_Z 48
_cell_length_a 16.679469
_cell_length_b 18.240211
_cell_length_c 9.248121
_cell_angle_alpha 90.000000
_cell_angle_beta 117.753342
_cell_angle_gamma 90.000000
_cell_volume 2489.943296
_symmetry_space_group_name_H-M "C 2/M"
_symmetry_group_IT_number 12
_symmetry_cell_setting 'monoclinic'
loop_
_space_group_symop_operation_xyz
x,y,z
-x,y,-z
-x,-y,-z
x,-y,z
1/2+x,1/2+y,z
1/2-x,1/2+y,-z
1/2-x,1/2-y,-z
1/2+x,1/2-y,z
loop_
_atom_site_type_symbol
_atom_site_label
_atom_site_fract_x
_atom_site_fract_y
_atom_site_fract_z
Si Si1 0.898421 0.868403 0.951501
Si Si2 0.313194 0.915733 0.713111
Si Si3 0.318781 0.348888 0.187919
Si Si4 0.083226 0.301611 0.677739
Si Si5 0.381391 0.196799 0.979349
Si Si6 0.219315 0.414902 0.650655
O O1 0.868820 0.883803 0.092696
O O2 0.893803 0.779453 0.935783
O O3 0.823097 0.901803 0.783242
O O4 0.000000 0.892053 0.000000
O O5 0.217764 0.901946 0.717260
O O6 0.383790 0.862091 0.853045
O O7 0.298624 0.898831 0.533034
O O8 0.340143 0.000000 0.751652
O O9 0.377157 0.280982 0.295464
O O10 0.222595 0.314883 0.055371
O O11 0.158120 0.360090 0.691741
O O12 0.000000 0.308954 0.500000
O O13 0.060516 0.314410 0.827611
O O14 0.195979 0.500000 0.658132
#
# Coordination Sequence:
#
# PCOD9219931 Si02
#       6
#     8   8   8   8   8   8
#     4  11  21  36  62  88 113 147 193 240 284 341
#     4   9  20  35  60  82 110 159 194 227 288 340
#     4   9  19  39  59  80 118 150 189 229 287 338
#     4  11  21  36  62  88 113 147 193 240 284 341
#     4   9  19  39  59  80 118 150 189 229 287 338
#     4  11  22  39  56  84 120 151 194 241 280 336
#
# _framework density 19.277546000000001
#
# number of rings (size 3 to 8) (size 9 to 14) (size 15 to 20)
#    1.000    1.000    3.333    1.000    0.000   11.333 
#    0.000    0.000    0.000    5.000    0.000    0.000 
#    0.000    0.000    0.000    0.000    0.000    0.000 
#
# Total GULP energy -133743.191561 kJ/mol
# GULP energy per Si atom -5572.632982 kJ/mol
# Density = 1.923367 g / cm^3
# Si number density = 19.277546 Si / 1000 Ang^3
#
#
#
# Elastic Constant Matrix: (Units=GPa)
#
#
# Indices 1 2 3 4 5 6 
#
# 1 53.1572 -12.8774 0.7369 0.0000 9.0604 0.0000
# 2 -12.8774 38.4960 39.8724 0.0000 -14.7024 0.0000
# 3 0.7369 39.8724 92.3816 0.0000 11.6147 0.0000
# 4 0.0000 0.0000 0.0000 47.3770 0.0000 -15.2505
# 5 9.0604 -14.7024 11.6147 0.0000 32.4226 0.0000
# 6 0.0000 0.0000 0.0000 -15.2505 0.0000 -2.8614
#
#
#
# Elastic Compliance Matrix: (Units=1/GPa)
#
#
# Indices 1 2 3 4 5 6 
#
# 1 0.022656 0.019419 -0.009292 0.000000 0.005803 0.000000
# 2 0.019419 0.131153 -0.066554 0.000000 0.077888 0.000000
# 3 -0.009292 -0.066554 0.045124 0.000000 -0.043748 0.000000
# 4 0.000000 0.000000 0.000000 0.007773 0.000000 -0.041426
# 5 0.005803 0.077888 -0.043748 0.000000 0.080212 0.000000
# 6 0.000000 0.000000 0.000000 -0.041426 0.000000 -0.128692
#
#
# Mechanical properties :
#
#
# Convention : Reuss Voigt Hill
#
# Bulk Modulus (GPa) = 11.61705 26.61094 19.11400
# Shear Modulus (GPa) = 16.67943 25.80784 21.24363
#
# Velocity S-wave (km/s) = 2.94466 3.66286 3.32322
# Velocity P-wave (km/s) = 4.19532 5.63230 4.96606
#
# Compressibility (1/GPa) = 0.08608036
#
# Stress axis : x y z
#
# Youngs Moduli (GPa) = 44.13815 7.62470 22.16125
#
# Poissons Ratio (x) = -0.14806 0.20592
# Poissons Ratio (y) = -0.85712 1.47491
# Poissons Ratio (z) = 0.41012 0.50745
#
# Static dielectric constant tensor:
#      x y z
#    x 1.696520 0.000000 -0.007770 
#    y 0.000000 1.660570 0.000000 
#    z -0.007770 0.000000 1.667360 
# 
# From -- ./inp_files/63577.got.cif
#   From: 2010.05.17/outbox.cif.g08.bks.cpg/sg12_32_cif.got.tgz:63577.got - 2010.06.03 13:09:07.
