data_PCOD9219201
_publ_section_title
;
Structure prediction by ZEFSAII (Michael W. Deem and Ramdas Pophale) SiO2 
 PCOD9219201
Probable space group: C 2/M
;
_chemical_formula_sum "Si O2"
_cell_formula_units_Z 64
_cell_length_a 19.864365
_cell_length_b 23.207690
_cell_length_c 7.455279
_cell_angle_alpha 90.000000
_cell_angle_beta 82.949791
_cell_angle_gamma 90.000000
_cell_volume 3410.941834
_symmetry_space_group_name_H-M "C 2/M"
_symmetry_group_IT_number 12
_symmetry_cell_setting 'monoclinic'
loop_
_space_group_symop_operation_xyz
x,y,z
-x,y,-z
-x,-y,-z
x,-y,z
1/2+x,1/2+y,z
1/2-x,1/2+y,-z
1/2-x,1/2-y,-z
1/2+x,1/2-y,z
loop_
_atom_site_type_symbol
_atom_site_label
_atom_site_fract_x
_atom_site_fract_y
_atom_site_fract_z
Si Si1 0.707203 0.845694 0.656178
Si Si2 0.368296 0.269967 0.277107
Si Si3 0.527197 0.867215 0.293286
Si Si4 0.655919 0.934839 0.168364
Si Si5 0.737874 0.826992 0.226456
Si Si6 0.338297 0.710509 0.715101
Si Si7 0.018812 0.237138 0.279475
Si Si8 0.898458 0.564049 0.216062
O O1 0.655790 0.795982 0.741475
O O2 0.724150 0.834425 0.443583
O O3 0.777799 0.836234 0.739383
O O4 0.666011 0.904381 0.677268
O O5 0.316473 0.309881 0.184649
O O6 0.353502 0.280021 0.495756
O O7 0.447339 0.278325 0.212746
O O8 0.500000 0.857724 0.500000
O O9 0.594636 0.904698 0.294646
O O10 0.538164 0.802729 0.218474
O O11 0.467599 0.900496 0.211674
O O12 0.714587 0.886663 0.146861
O O13 0.673900 0.000000 0.220501
O O14 0.622925 0.938994 0.983313
O O15 0.693679 0.769969 0.196704
O O16 0.412876 0.700548 0.770571
O O17 0.000000 0.235546 0.500000
O O18 0.909467 0.500000 0.285112
#
# Coordination Sequence:
#
# PCOD9219201 Si02
#       8
#     8   8   8   8   8   8   8   8
#     4   9  16  29  48  69  90 118 156 194 226 270
#     4   8  14  25  45  71  96 116 146 192 235 271
#     4  11  20  32  51  70  90 123 163 193 219 267
#     4  11  23  35  45  62  94 130 159 193 234 269
#     4   9  16  29  48  69  90 118 156 194 226 270
#     4   8  14  25  45  71  96 116 146 192 235 271
#     4   9  14  24  46  73  95 119 146 180 231 279
#     4  11  23  35  45  62  94 130 159 193 234 269
#
# _framework density 18.763145000000002
#
# number of rings (size 3 to 8) (size 9 to 14) (size 15 to 20)
#    0.000    2.500    2.500    3.000    0.000    3.500 
#    0.000    2.500    0.000    0.000    0.000    0.875 
#    0.000    7.000    0.000    0.000    0.000    0.000 
#
# Total GULP energy -178459.992133 kJ/mol
# GULP energy per Si atom -5576.874754 kJ/mol
# Density = 1.872044 g / cm^3
# Si number density = 18.763145 Si / 1000 Ang^3
#
#
#
# Elastic Constant Matrix: (Units=GPa)
#
#
# Indices 1 2 3 4 5 6 
#
# 1 149.8577 33.0007 10.9791 0.0000 13.5132 0.0000
# 2 33.0007 50.5641 3.2116 0.0000 8.6548 0.0000
# 3 10.9791 3.2116 20.6906 0.0000 2.1724 0.0000
# 4 0.0000 0.0000 0.0000 20.1674 0.0000 -0.3836
# 5 13.5132 8.6548 2.1724 0.0000 21.7691 0.0000
# 6 0.0000 0.0000 0.0000 -0.3836 0.0000 33.6942
#
#
#
# Elastic Compliance Matrix: (Units=1/GPa)
#
#
# Indices 1 2 3 4 5 6 
#
# 1 0.008202 -0.004643 -0.003326 0.000000 -0.002913 0.000000
# 2 -0.004643 0.023971 -0.000565 0.000000 -0.006592 0.000000
# 3 -0.003326 -0.000565 0.050472 0.000000 -0.002748 0.000000
# 4 0.000000 0.000000 0.000000 0.049596 0.000000 0.000565
# 5 -0.002913 -0.006592 -0.002748 0.000000 0.050640 0.000000
# 6 0.000000 0.000000 0.000000 0.000565 0.000000 0.029685
#
#
# Mechanical properties :
#
#
# Convention : Reuss Voigt Hill
#
# Bulk Modulus (GPa) = 15.24901 35.05500 25.15200
# Shear Modulus (GPa) = 19.88130 26.72088 23.30109
#
# Velocity S-wave (km/s) = 3.25867 3.77784 3.52782
# Velocity P-wave (km/s) = 4.72264 6.14434 5.47979
#
# Compressibility (1/GPa) = 0.06557802
#
# Stress axis : x y z
#
# Youngs Moduli (GPa) = 121.92429 41.71654 19.81293
#
# Poissons Ratio (x) = 0.19369 0.06589
# Poissons Ratio (y) = 0.56609 0.01120
# Poissons Ratio (z) = 0.40547 0.02357
#
# Static dielectric constant tensor:
#      x y z
#    x 1.656770 0.000000 0.012830 
#    y 0.000000 1.659950 0.000000 
#    z 0.012830 0.000000 1.754470 
# 
# From -- ./inp_files/89180.got.cif
#   From: 2010.05.17/outbox.cif.g08.bks.cpg/sg12_45_cif.got.tgz:89180.got - 2010.06.03 13:09:07.
