data_PCOD9219526
_publ_section_title
;
Structure prediction by ZEFSAII (Michael W. Deem and Ramdas Pophale) SiO2 
 PCOD9219526
Probable space group: C 2/M
;
_chemical_formula_sum "Si O2"
_cell_formula_units_Z 44
_cell_length_a 15.859837
_cell_length_b 23.136939
_cell_length_c 18.163441
_cell_angle_alpha 90.000000
_cell_angle_beta 160.637837
_cell_angle_gamma 90.000000
_cell_volume 2209.715132
_symmetry_space_group_name_H-M "C 2/M"
_symmetry_group_IT_number 12
_symmetry_cell_setting 'monoclinic'
loop_
_space_group_symop_operation_xyz
x,y,z
-x,y,-z
-x,-y,-z
x,-y,z
1/2+x,1/2+y,z
1/2-x,1/2+y,-z
1/2-x,1/2-y,-z
1/2+x,1/2-y,z
loop_
_atom_site_type_symbol
_atom_site_label
_atom_site_fract_x
_atom_site_fract_y
_atom_site_fract_z
Si Si1 0.425663 0.306304 0.018105
Si Si2 0.138685 0.000000 0.500882
Si Si3 0.000000 0.901033 0.500000
Si Si4 0.859030 0.313876 0.599865
Si Si5 0.229767 0.000000 0.953535
Si Si6 0.041564 0.877124 0.807367
Si Si7 0.534652 0.174932 0.142140
O O1 0.507576 0.338114 0.160802
O O2 0.512049 0.239566 0.093323
O O3 0.500000 0.330832 0.000000
O O4 0.125641 0.310023 0.779349
O O5 0.057991 0.056923 0.479657
O O6 0.944868 0.000000 0.268555
O O7 0.457121 0.000000 0.774472
O O8 0.748307 0.862609 0.277337
O O9 0.750000 0.250000 0.500000
O O10 0.713063 0.369009 0.448077
O O11 0.872384 0.321251 0.697543
O O12 0.132408 0.060130 0.906462
O O13 0.257801 0.852830 0.929145
#
# Coordination Sequence:
#
# PCOD9219526 Si02
#       7
#     8   4   4   8   4   8   8
#     4  11  25  39  63 100 134 169 224 290 353 410
#     4  11  26  48  66 104 147 187 239 281 334 424
#     4  11  24  40  66 102 150 183 224 280 344 425
#     4  11  20  40  65  89 131 176 223 277 344 415
#     4  12  26  47  75  99 136 196 242 287 345 409
#     4  11  23  44  66  93 133 177 233 281 343 414
#     4  11  22  39  61 100 133 182 218 272 349 417
#
# _framework density 19.912068000000001
#
# number of rings (size 3 to 8) (size 9 to 14) (size 15 to 20)
#    0.000    0.909    5.455    2.182    5.091    3.636 
#    3.273    0.455    0.000    1.091    0.000    0.000 
#    0.000    0.000    0.000    0.000    0.000    0.000 
#
# Total GULP energy -122532.711510 kJ/mol
# GULP energy per Si atom -5569.668705 kJ/mol
# Density = 1.986675 g / cm^3
# Si number density = 19.912068 Si / 1000 Ang^3
#
#
#
# Elastic Constant Matrix: (Units=GPa)
#
#
# Indices 1 2 3 4 5 6 
#
# 1 78.7189 26.1550 22.3166 -0.0834 -12.4172 0.0161
# 2 26.1550 99.1680 21.8222 0.0468 13.1800 -0.0093
# 3 22.3166 21.8222 46.1304 0.1412 -58.1411 -0.0256
# 4 -0.0834 0.0468 0.1412 43.3541 -0.0751 15.0368
# 5 -12.4172 13.1800 -58.1411 -0.0751 -55.8525 0.0043
# 6 0.0161 -0.0093 -0.0256 15.0368 0.0043 13.0100
#
#
#
# Elastic Compliance Matrix: (Units=1/GPa)
#
#
# Indices 1 2 3 4 5 6 
#
# 1 0.015225 -0.003077 -0.004798 0.000101 0.000883 -0.000147
# 2 -0.003077 0.010458 0.000222 -0.000028 0.002921 0.000043
# 3 -0.004798 0.000222 0.010945 -0.000123 -0.010274 0.000173
# 4 0.000101 -0.000028 -0.000123 0.038501 0.000044 -0.044499
# 5 0.000883 0.002921 -0.010274 0.000044 -0.006716 -0.000068
# 6 -0.000147 0.000043 0.000173 -0.044499 -0.000068 0.128297
#
#
# Mechanical properties :
#
#
# Convention : Reuss Voigt Hill
#
# Bulk Modulus (GPa) = 46.89591 40.51167 43.70379
# Shear Modulus (GPa) = 22.81829 10.35052 16.58441
#
# Velocity S-wave (km/s) = 3.38886 2.28241 2.88910
# Velocity P-wave (km/s) = 6.23820 5.22832 5.75545
#
# Compressibility (1/GPa) = 0.02132382
#
# Stress axis : x y z
#
# Youngs Moduli (GPa) = 65.67982 95.61668 91.36725
#
# Poissons Ratio (x) = 0.29424 0.43834
# Poissons Ratio (y) = 0.20212 -0.02032
# Poissons Ratio (z) = 0.31510 -0.02127
#
# Static dielectric constant tensor:
#      x y z
#    x 1.622610 -0.000010 -0.055380 
#    y -0.000010 1.754080 -0.000010 
#    z -0.055380 -0.000010 1.764270 
# 
# From -- ./inp_files/16846.got.cif
#   From: 2010.05.17/outbox.cif.g08.bks.cpg/sg12_9_cif.got.tgz:16846.got - 2010.06.03 13:09:07.
