data_PCOD9219024
_publ_section_title
;
Structure prediction by ZEFSAII (Michael W. Deem and Ramdas Pophale) SiO2 
 PCOD9219024
Probable space group: C 2/M
;
_chemical_formula_sum "Si O2"
_cell_formula_units_Z 40
_cell_length_a 17.101394
_cell_length_b 13.910505
_cell_length_c 7.528199
_cell_angle_alpha 90.000000
_cell_angle_beta 98.831707
_cell_angle_gamma 90.000000
_cell_volume 1769.642536
_symmetry_space_group_name_H-M "C 2/M"
_symmetry_group_IT_number 12
_symmetry_cell_setting 'monoclinic'
loop_
_space_group_symop_operation_xyz
x,y,z
-x,y,-z
-x,-y,-z
x,-y,z
1/2+x,1/2+y,z
1/2-x,1/2+y,-z
1/2-x,1/2-y,-z
1/2+x,1/2-y,z
loop_
_atom_site_type_symbol
_atom_site_label
_atom_site_fract_x
_atom_site_fract_y
_atom_site_fract_z
Si Si1 0.140560 0.720929 0.086255
Si Si2 0.576709 0.268260 0.678928
Si Si3 0.772118 0.888761 0.298121
Si Si4 0.388688 0.889568 0.591779
Si Si5 0.944419 0.890970 0.803725
O O1 0.227040 0.673626 0.131522
O O2 0.091146 0.652404 0.205477
O O3 0.131067 0.826889 0.168954
O O4 0.104437 0.728098 0.880292
O O5 0.644224 0.342127 0.637077
O O6 0.579892 0.178331 0.549477
O O7 0.497596 0.329590 0.686721
O O8 0.707918 0.883344 0.434612
O O9 0.779853 0.000000 0.248796
O O10 0.411510 0.000000 0.582357
O O11 0.927136 0.000000 0.741606
O O12 0.000000 0.896038 0.000000
#
# Coordination Sequence:
#
# PCOD9219024 Si02
#       5
#     8   8   8   8   8
#     4   9  20  37  54  80 115 144 177 225 272 328
#     4  11  19  35  62  82 108 147 184 224 277 327
#     4   9  19  37  57  81 113 144 181 230 272 319
#     4   9  21  37  55  81 113 144 184 230 269 321
#     4   9  19  36  58  85 113 143 181 227 277 326
#
# _framework density 22.603435999999999
#
# number of rings (size 3 to 8) (size 9 to 14) (size 15 to 20)
#    1.200    1.400    0.000    1.800    0.000    3.200 
#    0.000    7.000    0.000    9.000    0.000    0.000 
#    0.000    0.000    0.000    0.000    0.000    0.000 
#
# Total GULP energy -111643.122031 kJ/mol
# GULP energy per Si atom -5582.156102 kJ/mol
# Density = 2.255199 g / cm^3
# Si number density = 22.603436 Si / 1000 Ang^3
#
#
#
# Elastic Constant Matrix: (Units=GPa)
#
#
# Indices 1 2 3 4 5 6 
#
# 1 93.4249 65.4898 27.0860 0.0000 4.4719 0.0000
# 2 65.4898 214.7939 53.7222 0.0000 -11.4238 0.0000
# 3 27.0860 53.7222 96.9019 0.0000 -21.7510 0.0000
# 4 0.0000 0.0000 0.0000 25.7965 0.0000 -0.2821
# 5 4.4719 -11.4238 -21.7510 0.0000 25.9727 0.0000
# 6 0.0000 0.0000 0.0000 -0.2821 0.0000 20.0455
#
#
#
# Elastic Compliance Matrix: (Units=1/GPa)
#
#
# Indices 1 2 3 4 5 6 
#
# 1 0.014931 -0.004048 -0.003579 0.000000 -0.007348 0.000000
# 2 -0.004048 0.006503 -0.002063 0.000000 0.001830 0.000000
# 3 -0.003579 -0.002063 0.015269 0.000000 0.012495 0.000000
# 4 0.000000 0.000000 0.000000 0.038771 0.000000 0.000546
# 5 -0.007348 0.001830 0.012495 0.000000 0.051036 0.000000
# 6 0.000000 0.000000 0.000000 0.000546 0.000000 0.049894
#
#
# Mechanical properties :
#
#
# Convention : Reuss Voigt Hill
#
# Bulk Modulus (GPa) = 57.72725 77.52409 67.62567
# Shear Modulus (GPa) = 24.80680 31.61779 28.21230
#
# Velocity S-wave (km/s) = 3.31642 3.74412 3.53674
# Velocity P-wave (km/s) = 6.34503 7.28445 6.83091
#
# Compressibility (1/GPa) = 0.01732284
#
# Stress axis : x y z
#
# Youngs Moduli (GPa) = 66.97625 153.77060 65.49396
#
# Poissons Ratio (x) = 0.62248 0.23437
# Poissons Ratio (y) = 0.27113 0.13513
# Poissons Ratio (z) = 0.23968 0.31726
#
# Static dielectric constant tensor:
#      x y z
#    x 1.890250 0.000000 0.015510 
#    y 0.000000 1.793890 0.000000 
#    z 0.015510 0.000000 1.893770 
# 
# From -- ./inp_files/83647.got.cif
#   From: 2010.05.17/outbox.cif.g08.bks.cpg/sg12_42_cif.got.tgz:83647.got - 2010.06.03 13:09:07.
