data_PCOD9219934
_publ_section_title
;
Structure prediction by ZEFSAII (Michael W. Deem and Ramdas Pophale) SiO2 
 PCOD9219934
Probable space group: C 2/M
;
_chemical_formula_sum "Si O2"
_cell_formula_units_Z 56
_cell_length_a 12.974715
_cell_length_b 19.558539
_cell_length_c 12.496096
_cell_angle_alpha 90.000000
_cell_angle_beta 64.414485
_cell_angle_gamma 90.000000
_cell_volume 2860.138559
_symmetry_space_group_name_H-M "C 2/M"
_symmetry_group_IT_number 12
_symmetry_cell_setting 'monoclinic'
loop_
_space_group_symop_operation_xyz
x,y,z
-x,y,-z
-x,-y,-z
x,-y,z
1/2+x,1/2+y,z
1/2-x,1/2+y,-z
1/2-x,1/2-y,-z
1/2+x,1/2-y,z
loop_
_atom_site_type_symbol
_atom_site_label
_atom_site_fract_x
_atom_site_fract_y
_atom_site_fract_z
Si Si1 0.253995 0.858973 0.756369
Si Si2 0.340204 0.838435 0.325885
Si Si3 0.629259 0.073895 0.480668
Si Si4 0.369974 0.080959 0.099145
Si Si5 0.978889 0.200621 0.223307
Si Si6 0.398346 0.728676 0.626542
Si Si7 0.789012 0.170747 0.984828
O O1 0.300623 0.917983 0.660140
O O2 0.134547 0.838684 0.756678
O O3 0.343957 0.796918 0.700784
O O4 0.236970 0.864935 0.890296
O O5 0.351960 0.867759 0.439760
O O6 0.359590 0.895846 0.227053
O O7 0.432015 0.778672 0.256738
O O8 0.211637 0.808927 0.373335
O O9 0.500000 0.076397 0.500000
O O10 0.653813 0.000000 0.519734
O O11 0.281071 0.128196 0.072702
O O12 0.346646 0.000000 0.096562
O O13 0.500000 0.093784 0.000000
O O14 0.041109 0.185419 0.307444
O O15 0.076175 0.180368 0.095357
O O16 0.500000 0.744851 0.500000
O O17 0.750000 0.250000 0.000000
#
# Coordination Sequence:
#
# PCOD9219934 Si02
#       7
#     8   8   8   8   8   8   8
#     4  11  23  38  61  91 131 163 206 267 317 384
#     4  11  22  42  67  92 132 164 215 273 320 389
#     4  11  25  42  64  91 123 171 220 264 321 389
#     4  11  25  42  66  97 130 171 217 271 331 388
#     4  11  21  38  63  98 127 163 208 266 332 386
#     4  11  21  36  62  95 127 163 205 263 328 373
#     4  12  22  41  64  97 131 170 217 267 327 395
#
# _framework density 19.579471000000002
#
# number of rings (size 3 to 8) (size 9 to 14) (size 15 to 20)
#    0.000    0.857    2.857    5.571    2.000    2.857 
#    0.000    0.714    0.000    3.429    0.000    0.000 
#    0.000    0.000    0.000    0.000    0.000    0.000 
#
# Total GULP energy -156334.748092 kJ/mol
# GULP energy per Si atom -5583.383860 kJ/mol
# Density = 1.953491 g / cm^3
# Si number density = 19.579471 Si / 1000 Ang^3
#
#
#
# Elastic Constant Matrix: (Units=GPa)
#
#
# Indices 1 2 3 4 5 6 
#
# 1 117.8058 30.8068 42.8905 0.0000 -12.3088 0.0000
# 2 30.8068 64.8877 18.9168 0.0000 -0.5107 0.0000
# 3 42.8905 18.9168 124.5951 0.0000 -10.2111 0.0000
# 4 0.0000 0.0000 0.0000 -247.8894 0.0000 124.5676
# 5 -12.3088 -0.5107 -10.2111 0.0000 43.4223 0.0000
# 6 0.0000 0.0000 0.0000 124.5676 0.0000 -36.9844
#
#
#
# Elastic Compliance Matrix: (Units=1/GPa)
#
#
# Indices 1 2 3 4 5 6 
#
# 1 0.010925 -0.004319 -0.002911 0.000000 0.002361 0.000000
# 2 -0.004319 0.017839 -0.001330 0.000000 -0.001327 0.000000
# 3 -0.002911 -0.001330 0.009341 0.000000 0.001356 0.000000
# 4 0.000000 0.000000 0.000000 0.005825 0.000000 0.019620
# 5 0.002361 -0.001327 0.001356 0.000000 0.024002 0.000000
# 6 0.000000 0.000000 0.000000 0.019620 0.000000 0.039044
#
#
# Mechanical properties :
#
#
# Convention : Reuss Voigt Hill
#
# Bulk Modulus (GPa) = 47.65742 54.72408 51.19075
# Shear Modulus (GPa) = 38.14080 -33.97867 2.08106
#
# Velocity S-wave (km/s) = 4.41840 -4.17036 1.03208
# Velocity P-wave (km/s) = 7.10092 2.19572 5.25568
#
# Compressibility (1/GPa) = 0.02098309
#
# Stress axis : x y z
#
# Youngs Moduli (GPa) = 91.53486 56.05580 107.05137
#
# Poissons Ratio (x) = 0.24213 0.31167
# Poissons Ratio (y) = 0.39538 0.14242
# Poissons Ratio (z) = 0.26650 0.07457
#
# Static dielectric constant tensor:
#      x y z
#    x 1.615950 0.000000 0.069800 
#    y 0.000000 1.695690 0.000000 
#    z 0.069800 0.000000 1.637720 
# 
# From -- ./inp_files/133878.got.cif
#   From: 2010.05.17/outbox.cif.g08.bks.cpg/sg12_67_cif.got.tgz:133878.got - 2010.06.03 13:09:07.
