data_PCOD9219751
_publ_section_title
;
Structure prediction by ZEFSAII (Michael W. Deem and Ramdas Pophale) SiO2 
 PCOD9219751
Probable space group: C 2/M
;
_chemical_formula_sum "Si O2"
_cell_formula_units_Z 52
_cell_length_a 13.637164
_cell_length_b 26.105211
_cell_length_c 8.826530
_cell_angle_alpha 90.000000
_cell_angle_beta 68.314789
_cell_angle_gamma 90.000000
_cell_volume 2919.870232
_symmetry_space_group_name_H-M "C 2/M"
_symmetry_group_IT_number 12
_symmetry_cell_setting 'monoclinic'
loop_
_space_group_symop_operation_xyz
x,y,z
-x,y,-z
-x,-y,-z
x,-y,z
1/2+x,1/2+y,z
1/2-x,1/2+y,-z
1/2-x,1/2-y,-z
1/2+x,1/2-y,z
loop_
_atom_site_type_symbol
_atom_site_label
_atom_site_fract_x
_atom_site_fract_y
_atom_site_fract_z
Si Si1 0.617946 0.056319 0.992960
Si Si2 0.343302 0.734177 0.666847
Si Si3 0.500000 0.210395 0.000000
Si Si4 0.565291 0.713347 0.704783
Si Si5 0.884666 0.440411 0.640120
Si Si6 0.791130 0.343286 0.066151
Si Si7 0.762277 0.845381 0.242595
O O1 0.609684 0.061134 0.179759
O O2 0.657868 0.000000 0.932919
O O3 0.500000 0.061432 0.000000
O O4 0.691586 0.099882 0.882704
O O5 0.449386 0.717302 0.696254
O O6 0.361298 0.726190 0.479461
O O7 0.259771 0.696129 0.789790
O O8 0.306912 0.793064 0.702802
O O9 0.556855 0.245889 0.844609
O O10 0.589538 0.176907 0.030596
O O11 0.623779 0.664510 0.746116
O O12 0.856334 0.500000 0.615385
O O13 0.801070 0.394576 0.655812
O O14 0.000000 0.430272 0.500000
O O15 0.728075 0.348558 0.945375
#
# Coordination Sequence:
#
# PCOD9219751 Si02
#       7
#     8   8   4   8   8   8   8
#     4   9  18  32  51  78 108 142 179 223 274 322
#     4  11  23  37  52  82 111 146 185 224 273 331
#     4  12  20  34  53  78 113 144 184 218 272 324
#     4  11  24  36  53  78 114 143 184 226 266 330
#     4   9  20  35  54  80 110 143 186 228 269 322
#     4  11  21  34  55  79 112 149 184 221 272 330
#     4  11  21  35  55  78 109 149 178 223 276 321
#
# _framework density 17.809011000000002
#
# number of rings (size 3 to 8) (size 9 to 14) (size 15 to 20)
#    0.000    1.538    3.846    1.846    2.154    1.231 
#    0.000    0.000    0.000    0.923    0.000    7.000 
#    0.000    0.000    0.000    0.000    0.000    0.000 
#
# Total GULP energy -144777.583469 kJ/mol
# GULP energy per Si atom -5568.368595 kJ/mol
# Density = 1.776848 g / cm^3
# Si number density = 17.809011 Si / 1000 Ang^3
#
#
#
# Elastic Constant Matrix: (Units=GPa)
#
#
# Indices 1 2 3 4 5 6 
#
# 1 83.1583 38.4928 11.4775 0.0000 0.2063 0.0000
# 2 38.4928 137.3815 35.8987 0.0000 -12.2892 0.0000
# 3 11.4775 35.8987 52.9838 0.0000 -4.6132 0.0000
# 4 0.0000 0.0000 0.0000 14.5782 0.0000 -4.3518
# 5 0.2063 -12.2892 -4.6132 0.0000 22.3403 0.0000
# 6 0.0000 0.0000 0.0000 -4.3518 0.0000 28.0354
#
#
#
# Elastic Compliance Matrix: (Units=1/GPa)
#
#
# Indices 1 2 3 4 5 6 
#
# 1 0.013950 -0.003987 -0.000532 0.000000 -0.002432 0.000000
# 2 -0.003987 0.010295 -0.005718 0.000000 0.004519 0.000000
# 3 -0.000532 -0.005718 0.023003 0.000000 0.001610 0.000000
# 4 0.000000 0.000000 0.000000 0.071928 0.000000 0.011165
# 5 -0.002432 0.004519 0.001610 0.000000 0.047603 0.000000
# 6 0.000000 0.000000 0.000000 0.011165 0.000000 0.037402
#
#
# Mechanical properties :
#
#
# Convention : Reuss Voigt Hill
#
# Bulk Modulus (GPa) = 37.35018 49.47351 43.41185
# Shear Modulus (GPa) = 21.40589 25.50109 23.45349
#
# Velocity S-wave (km/s) = 3.47070 3.78818 3.63291
# Velocity P-wave (km/s) = 6.08927 6.85376 6.48280
#
# Compressibility (1/GPa) = 0.02677363
#
# Stress axis : x y z
#
# Youngs Moduli (GPa) = 71.68270 97.13922 43.47226
#
# Poissons Ratio (x) = 0.38732 0.02314
# Poissons Ratio (y) = 0.28581 0.24856
# Poissons Ratio (z) = 0.03815 0.55542
#
# Static dielectric constant tensor:
#      x y z
#    x 1.694280 0.000000 0.011430 
#    y 0.000000 1.642800 0.000000 
#    z 0.011430 0.000000 1.606560 
# 
# From -- ./inp_files/66473.got.cif
#   From: 2010.05.17/outbox.cif.g08.bks.cpg/sg12_34_cif.got.tgz:66473.got - 2010.06.03 13:09:07.
