data_PCOD9219661
_publ_section_title
;
Structure prediction by ZEFSAII (Michael W. Deem and Ramdas Pophale) SiO2 
 PCOD9219661
Probable space group: C 2/M
;
_chemical_formula_sum "Si O2"
_cell_formula_units_Z 56
_cell_length_a 11.001381
_cell_length_b 21.597922
_cell_length_c 12.465184
_cell_angle_alpha 90.000000
_cell_angle_beta 85.965121
_cell_angle_gamma 90.000000
_cell_volume 2954.473434
_symmetry_space_group_name_H-M "C 2/M"
_symmetry_group_IT_number 12
_symmetry_cell_setting 'monoclinic'
loop_
_space_group_symop_operation_xyz
x,y,z
-x,y,-z
-x,-y,-z
x,-y,z
1/2+x,1/2+y,z
1/2-x,1/2+y,-z
1/2-x,1/2-y,-z
1/2+x,1/2-y,z
loop_
_atom_site_type_symbol
_atom_site_label
_atom_site_fract_x
_atom_site_fract_y
_atom_site_fract_z
Si Si1 0.368146 0.753845 0.571279
Si Si2 0.209111 0.126677 0.331319
Si Si3 0.971036 0.071130 0.376056
Si Si4 0.339176 0.071838 0.900062
Si Si5 0.870608 0.572265 0.146075
Si Si6 0.739984 0.870670 0.300296
Si Si7 0.634539 0.930063 0.491930
O O1 0.500000 0.756561 0.500000
O O2 0.250000 0.750000 0.500000
O O3 0.355515 0.692018 0.643661
O O4 0.334304 0.812017 0.649807
O O5 0.309251 0.118817 0.233291
O O6 0.275654 0.107454 0.437807
O O7 0.101225 0.078865 0.312603
O O8 0.877141 0.121103 0.335245
O O9 0.000000 0.082491 0.500000
O O10 0.927035 0.000000 0.369757
O O11 0.483139 0.078141 0.865225
O O12 0.269113 0.117298 0.824677
O O13 0.304654 0.000000 0.883076
O O14 0.325275 0.083525 0.027553
O O15 0.844774 0.500000 0.175821
O O16 0.676179 0.927374 0.367204
O O17 0.500000 0.903343 0.500000
O O18 0.630540 0.000000 0.533259
#
# Coordination Sequence:
#
# PCOD9219661 Si02
#       7
#     8   8   8   8   8   8   8
#     4  12  26  42  58  85 127 167 210 252 299 367
#     4  12  22  37  57  84 117 165 203 243 303 374
#     4  11  21  36  56  84 121 158 197 247 308 371
#     4   9  19  37  61  91 120 148 193 252 315 360
#     4   9  19  37  62  90 119 151 192 250 310 368
#     4  12  22  37  58  84 116 159 202 246 301 356
#     4  11  21  32  53  87 116 143 191 254 311 363
#
# _framework density 18.954308000000001
#
# number of rings (size 3 to 8) (size 9 to 14) (size 15 to 20)
#    0.000    1.143    2.857    6.000    2.000    2.286 
#    0.000    1.429    0.000    2.571    0.000    0.000 
#    0.000    0.000    0.000    0.000    0.000    0.000 
#
# Total GULP energy -156167.548201 kJ/mol
# GULP energy per Si atom -5577.412436 kJ/mol
# Density = 1.891117 g / cm^3
# Si number density = 18.954308 Si / 1000 Ang^3
#
#
#
# Elastic Constant Matrix: (Units=GPa)
#
#
# Indices 1 2 3 4 5 6 
#
# 1 68.4493 18.6170 -2.5533 0.0000 5.6091 0.0000
# 2 18.6170 99.7793 25.7633 0.0000 5.3559 0.0000
# 3 -2.5533 25.7633 56.8450 0.0000 8.9593 0.0000
# 4 0.0000 0.0000 0.0000 23.6284 0.0000 -4.6429
# 5 5.6091 5.3559 8.9593 0.0000 25.0551 0.0000
# 6 0.0000 0.0000 0.0000 -4.6429 0.0000 23.5563
#
#
#
# Elastic Compliance Matrix: (Units=1/GPa)
#
#
# Indices 1 2 3 4 5 6 
#
# 1 0.015997 -0.003534 0.002931 0.000000 -0.003874 0.000000
# 2 -0.003534 0.012140 -0.005698 0.000000 0.000233 0.000000
# 3 0.002931 -0.005698 0.021424 0.000000 -0.007099 0.000000
# 4 0.000000 0.000000 0.000000 0.044027 0.000000 0.008678
# 5 -0.003874 0.000233 -0.007099 0.000000 0.043268 0.000000
# 6 0.000000 0.000000 0.000000 0.008678 0.000000 0.044162
#
#
# Mechanical properties :
#
#
# Convention : Reuss Voigt Hill
#
# Bulk Modulus (GPa) = 27.05586 34.30307 30.67947
# Shear Modulus (GPa) = 24.27891 26.66438 25.47165
#
# Velocity S-wave (km/s) = 3.58287 3.75476 3.66983
# Velocity P-wave (km/s) = 5.60546 6.07740 5.84619
#
# Compressibility (1/GPa) = 0.03696057
#
# Stress axis : x y z
#
# Youngs Moduli (GPa) = 62.51104 82.37222 46.67560
#
# Poissons Ratio (x) = 0.29106 -0.13679
# Poissons Ratio (y) = 0.22088 0.26594
# Poissons Ratio (z) = -0.18319 0.46932
#
# Static dielectric constant tensor:
#      x y z
#    x 1.724650 0.000000 -0.005730 
#    y 0.000000 1.696870 0.000000 
#    z -0.005730 0.000000 1.654190 
# 
# From -- ./inp_files/133226.got.cif
#   From: 2010.05.17/outbox.cif.g08.bks.cpg/sg12_67_cif.got.tgz:133226.got - 2010.06.03 13:09:07.
