data_PCOD9219613
_publ_section_title
;
Structure prediction by ZEFSAII (Michael W. Deem and Ramdas Pophale) SiO2 
 PCOD9219613
Probable space group: C 2/M
;
_chemical_formula_sum "Si O2"
_cell_formula_units_Z 64
_cell_length_a 14.340223
_cell_length_b 26.376892
_cell_length_c 8.411128
_cell_angle_alpha 90.000000
_cell_angle_beta 75.010413
_cell_angle_gamma 90.000000
_cell_volume 3073.255642
_symmetry_space_group_name_H-M "C 2/M"
_symmetry_group_IT_number 12
_symmetry_cell_setting 'monoclinic'
loop_
_space_group_symop_operation_xyz
x,y,z
-x,y,-z
-x,-y,-z
x,-y,z
1/2+x,1/2+y,z
1/2-x,1/2+y,-z
1/2-x,1/2-y,-z
1/2+x,1/2-y,z
loop_
_atom_site_type_symbol
_atom_site_label
_atom_site_fract_x
_atom_site_fract_y
_atom_site_fract_z
Si Si1 0.050012 0.294669 0.814319
Si Si2 0.563502 0.941959 0.716960
Si Si3 0.229153 0.349331 0.161903
Si Si4 0.857397 0.557374 0.678114
Si Si5 0.207548 0.362611 0.810764
Si Si6 0.130494 0.708599 0.445232
Si Si7 0.162682 0.176783 0.487983
Si Si8 0.933984 0.178314 0.162760
O O1 0.161398 0.306661 0.809672
O O2 0.057634 0.309032 0.619500
O O3 0.028091 0.235144 0.823704
O O4 0.000000 0.315934 0.000000
O O5 0.603596 0.941500 0.519001
O O6 0.449836 0.929736 0.749349
O O7 0.627145 0.901897 0.783868
O O8 0.572174 0.000000 0.772873
O O9 0.223317 0.400428 0.268565
O O10 0.139333 0.315836 0.265658
O O11 0.328085 0.319131 0.131859
O O12 0.222475 0.369158 0.987737
O O13 0.827376 0.500000 0.727464
O O14 0.303592 0.361603 0.662543
O O15 0.125228 0.769215 0.439423
O O16 0.237027 0.691657 0.464144
O O17 0.087508 0.156674 0.652455
O O18 0.000000 0.152808 0.000000
#
# Coordination Sequence:
#
# PCOD9219613 Si02
#       8
#     8   8   8   8   8   8   8   8
#     4   9  18  31  50  73 102 138 178 224 260 305
#     4   9  19  36  56  76 105 140 176 216 260 308
#     4  11  21  31  50  78 104 139 177 216 265 321
#     4   9  19  36  56  78 102 136 179 220 257 309
#     4  11  21  30  49  77 110 141 174 212 259 320
#     4   8  15  30  48  69  96 136 176 212 260 301
#     4   8  15  30  51  70  96 136 170 218 260 303
#     4   9  18  35  55  74  98 136 180 226 270 310
#
# _framework density 20.824822000000001
#
# number of rings (size 3 to 8) (size 9 to 14) (size 15 to 20)
#    0.000    2.750    0.000    5.250    1.750    2.500 
#    0.000    1.875    0.000    4.875    0.000    0.000 
#    0.000    4.000    0.000    0.000    0.000    0.000 
#
# Total GULP energy -178171.935719 kJ/mol
# GULP energy per Si atom -5567.872991 kJ/mol
# Density = 2.077742 g / cm^3
# Si number density = 20.824822 Si / 1000 Ang^3
#
#
#
# Elastic Constant Matrix: (Units=GPa)
#
#
# Indices 1 2 3 4 5 6 
#
# 1 29.5043 13.5164 36.1123 0.0000 -15.6434 0.0000
# 2 13.5164 61.1851 30.9462 0.0000 3.8757 0.0000
# 3 36.1123 30.9462 148.9782 0.0000 -22.0162 0.0000
# 4 0.0000 0.0000 0.0000 7.2704 0.0000 -3.9395
# 5 -15.6434 3.8757 -22.0162 0.0000 33.0985 0.0000
# 6 0.0000 0.0000 0.0000 -3.9395 0.0000 17.3317
#
#
#
# Elastic Compliance Matrix: (Units=1/GPa)
#
#
# Indices 1 2 3 4 5 6 
#
# 1 0.063826 -0.010888 -0.009497 0.000000 0.025124 0.000000
# 2 -0.010888 0.020954 -0.003146 0.000000 -0.009692 0.000000
# 3 -0.009497 -0.003146 0.010047 0.000000 0.002562 0.000000
# 4 0.000000 0.000000 0.000000 0.156865 0.000000 0.035656
# 5 0.025124 -0.009692 0.002562 0.000000 0.044927 0.000000
# 6 0.000000 0.000000 0.000000 0.035656 0.000000 0.065802
#
#
# Mechanical properties :
#
#
# Convention : Reuss Voigt Hill
#
# Bulk Modulus (GPa) = 20.93552 44.53527 32.73540
# Shear Modulus (GPa) = 11.75353 22.14628 16.94991
#
# Velocity S-wave (km/s) = 2.37829 3.26461 2.85604
# Velocity P-wave (km/s) = 4.19722 5.97012 5.16038
#
# Compressibility (1/GPa) = 0.04776570
#
# Stress axis : x y z
#
# Youngs Moduli (GPa) = 15.66753 47.72344 99.53638
#
# Poissons Ratio (x) = 0.51961 0.94529
# Poissons Ratio (y) = 0.17059 0.31311
# Poissons Ratio (z) = 0.14879 0.15012
#
# Static dielectric constant tensor:
#      x y z
#    x 1.827930 0.000000 0.042970 
#    y 0.000000 1.742380 0.000000 
#    z 0.042970 0.000000 1.893280 
# 
# From -- ./inp_files/66896.got.cif
#   From: 2010.05.17/outbox.cif.g08.bks.cpg/sg12_34_cif.got.tgz:66896.got - 2010.06.03 13:09:07.
