data_PCOD9219371
_publ_section_title
;
Structure prediction by ZEFSAII (Michael W. Deem and Ramdas Pophale) SiO2 
 PCOD9219371
Probable space group: C 2/M
;
_chemical_formula_sum "Si O2"
_cell_formula_units_Z 40
_cell_length_a 17.608341
_cell_length_b 17.974415
_cell_length_c 11.356215
_cell_angle_alpha 90.000000
_cell_angle_beta 143.367481
_cell_angle_gamma 90.000000
_cell_volume 2144.611370
_symmetry_space_group_name_H-M "C 2/M"
_symmetry_group_IT_number 12
_symmetry_cell_setting 'monoclinic'
loop_
_space_group_symop_operation_xyz
x,y,z
-x,y,-z
-x,-y,-z
x,-y,z
1/2+x,1/2+y,z
1/2-x,1/2+y,-z
1/2-x,1/2-y,-z
1/2+x,1/2-y,z
loop_
_atom_site_type_symbol
_atom_site_label
_atom_site_fract_x
_atom_site_fract_y
_atom_site_fract_z
Si Si1 0.848532 0.261659 0.806380
Si Si2 0.312328 0.000000 0.877257
Si Si3 0.115433 0.500000 0.306006
Si Si4 0.449529 0.221888 0.307349
Si Si5 0.762287 0.843425 0.107303
Si Si6 0.187990 0.658381 0.474313
O O1 0.790380 0.287906 0.856599
O O2 0.792656 0.315805 0.635903
O O3 0.801291 0.181801 0.701889
O O4 0.000000 0.268795 0.000000
O O5 0.319087 0.000000 0.742741
O O6 0.248233 0.074172 0.852174
O O7 0.462606 0.000000 0.098271
O O8 0.154846 0.572681 0.426312
O O9 0.500000 0.205027 0.500000
O O10 0.397037 0.306665 0.240649
O O11 0.565689 0.205064 0.365563
O O12 0.334121 0.169299 0.121031
#
# Coordination Sequence:
#
# PCOD9219371 Si02
#       6
#     8   4   4   8   8   8
#     4  11  20  37  62  91 115 156 205 254 293 351
#     4  11  20  36  61  92 122 150 199 263 305 340
#     4  11  20  36  61  94 122 147 202 263 302 344
#     4  11  22  38  58  84 124 164 195 241 289 373
#     4  11  22  37  62  88 121 156 202 247 301 354
#     4  11  22  36  63  92 119 154 203 251 300 353
#
# _framework density 18.651396999999999
#
# number of rings (size 3 to 8) (size 9 to 14) (size 15 to 20)
#    0.000    1.000    8.000    0.000    0.000    0.000 
#    0.000    3.000    0.000    1.200    0.000    0.000 
#    0.000    0.000    0.000    0.000    0.000    0.000 
#
# Total GULP energy -111591.604647 kJ/mol
# GULP energy per Si atom -5579.580232 kJ/mol
# Density = 1.860895 g / cm^3
# Si number density = 18.651397 Si / 1000 Ang^3
#
#
#
# Elastic Constant Matrix: (Units=GPa)
#
#
# Indices 1 2 3 4 5 6 
#
# 1 48.6094 42.9964 10.9773 0.0000 -7.9605 0.0000
# 2 42.9964 133.2779 34.6961 0.0000 1.6520 0.0000
# 3 10.9773 34.6961 79.1888 0.0000 -21.6882 0.0000
# 4 0.0000 0.0000 0.0000 17.5738 0.0000 2.0379
# 5 -7.9605 1.6520 -21.6882 0.0000 21.5668 0.0000
# 6 0.0000 0.0000 0.0000 2.0379 0.0000 26.3813
#
#
#
# Elastic Compliance Matrix: (Units=1/GPa)
#
#
# Indices 1 2 3 4 5 6 
#
# 1 0.033661 -0.012754 0.006338 0.000000 0.019775 0.000000
# 2 -0.012754 0.013914 -0.008156 0.000000 -0.013975 0.000000
# 3 0.006338 -0.008156 0.022268 0.000000 0.025357 0.000000
# 4 0.000000 0.000000 0.000000 0.057417 0.000000 -0.004435
# 5 0.019775 -0.013975 0.025357 0.000000 0.080237 0.000000
# 6 0.000000 0.000000 0.000000 -0.004435 0.000000 0.038248
#
#
# Mechanical properties :
#
#
# Convention : Reuss Voigt Hill
#
# Bulk Modulus (GPa) = 24.57088 48.71285 36.64187
# Shear Modulus (GPa) = 17.33363 24.59812 20.96588
#
# Velocity S-wave (km/s) = 3.05183 3.63552 3.35638
# Velocity P-wave (km/s) = 5.06167 6.61792 5.89141
#
# Compressibility (1/GPa) = 0.04069858
#
# Stress axis : x y z
#
# Youngs Moduli (GPa) = 29.70800 71.86882 44.90793
#
# Poissons Ratio (x) = 0.91664 -0.28463
# Poissons Ratio (y) = 0.37891 0.36627
# Poissons Ratio (z) = -0.18829 0.58616
#
# Static dielectric constant tensor:
#      x y z
#    x 1.674450 0.000000 -0.000280 
#    y 0.000000 1.656340 0.000000 
#    z -0.000280 0.000000 1.672010 
# 
# From -- ./inp_files/131403.got.cif
#   From: 2010.05.17/outbox.cif.g08.bks.cpg/sg12_66_cif.got.tgz:131403.got - 2010.06.03 13:09:07.
