data_PCOD9219944
_publ_section_title
;
Structure prediction by ZEFSAII (Michael W. Deem and Ramdas Pophale) SiO2 
 PCOD9219944
Probable space group: C 2/M
;
_chemical_formula_sum "Si O2"
_cell_formula_units_Z 56
_cell_length_a 16.236996
_cell_length_b 19.044444
_cell_length_c 20.629305
_cell_angle_alpha 90.000000
_cell_angle_beta 28.561185
_cell_angle_gamma 90.000000
_cell_volume 3049.822470
_symmetry_space_group_name_H-M "C 2/M"
_symmetry_group_IT_number 12
_symmetry_cell_setting 'monoclinic'
loop_
_space_group_symop_operation_xyz
x,y,z
-x,y,-z
-x,-y,-z
x,-y,z
1/2+x,1/2+y,z
1/2-x,1/2+y,-z
1/2-x,1/2-y,-z
1/2+x,1/2-y,z
loop_
_atom_site_type_symbol
_atom_site_label
_atom_site_fract_x
_atom_site_fract_y
_atom_site_fract_z
Si Si1 0.027256 0.583660 0.810847
Si Si2 0.681756 0.329654 0.057474
Si Si3 0.621437 0.853375 0.605747
Si Si4 0.349184 0.832182 0.157724
Si Si5 0.576216 0.672428 0.875875
Si Si6 0.579653 0.917676 0.374006
Si Si7 0.006433 0.194026 0.313194
O O1 0.020195 0.500000 0.815816
O O2 0.082589 0.611526 0.701788
O O3 0.145550 0.612674 0.787516
O O4 0.842470 0.618859 0.953036
O O5 0.566600 0.351041 0.076268
O O6 0.564247 0.329749 0.202138
O O7 0.750000 0.250000 0.000000
O O8 0.549870 0.897571 0.594556
O O9 0.825094 0.839588 0.458511
O O10 0.525250 0.777923 0.667751
O O11 0.389492 0.755120 0.158934
O O12 0.164968 0.825459 0.250263
O O13 0.500000 0.846600 0.000000
O O14 0.750038 0.628885 0.750292
O O15 0.500000 0.665905 0.000000
O O16 0.500000 0.904046 0.500000
O O17 0.621562 0.000000 0.340665
#
# Coordination Sequence:
#
# PCOD9219944 Si02
#       7
#     8   8   8   8   8   8   8
#     4  12  26  42  65  96 137 176 206 268 338 387
#     4  12  20  40  66  95 127 165 220 270 311 383
#     4  11  23  42  64  97 132 164 217 268 324 389
#     4  11  21  42  67  97 126 161 219 272 318 378
#     4  11  21  36  65  93 120 159 211 267 318 371
#     4  11  24  41  59  87 129 167 203 261 329 384
#     4  11  22  40  68  98 121 169 222 271 313 372
#
# _framework density 18.361725
#
# number of rings (size 3 to 8) (size 9 to 14) (size 15 to 20)
#    0.000    0.714    5.714    3.000    0.000    2.857 
#    0.000    3.571    0.000    0.000    0.000    0.000 
#    0.000    0.000    0.000    0.000    0.000    0.000 
#
# Total GULP energy -156539.410983 kJ/mol
# GULP energy per Si atom -5590.693249 kJ/mol
# Density = 1.831993 g / cm^3
# Si number density = 18.361725 Si / 1000 Ang^3
#
#
#
# Elastic Constant Matrix: (Units=GPa)
#
#
# Indices 1 2 3 4 5 6 
#
# 1 134.5065 46.2250 43.2417 -0.0028 -8.4852 0.0035
# 2 46.2250 113.3223 65.1286 -0.0084 9.0673 0.0028
# 3 43.2417 65.1286 105.7074 -0.0113 3.4473 0.0081
# 4 -0.0028 -0.0084 -0.0113 5.9011 0.0066 -5.9084
# 5 -8.4852 9.0673 3.4473 0.0066 33.6321 -0.0039
# 6 0.0035 0.0028 0.0081 -5.9084 -0.0039 19.2848
#
#
#
# Elastic Compliance Matrix: (Units=1/GPa)
#
#
# Indices 1 2 3 4 5 6 
#
# 1 0.009313 -0.002808 -0.002189 -0.000011 0.003331 -0.000003
# 2 -0.002808 0.014782 -0.007832 0.000014 -0.003891 0.000005
# 3 -0.002189 -0.007832 0.015181 0.000017 0.000003 0.000000
# 4 -0.000011 0.000014 0.000017 0.244446 -0.000048 0.074892
# 5 0.003331 -0.003891 0.000003 -0.000048 0.031623 -0.000008
# 6 -0.000003 0.000005 0.000000 0.074892 -0.000008 0.074799
#
#
# Mechanical properties :
#
#
# Convention : Reuss Voigt Hill
#
# Bulk Modulus (GPa) = 73.42434 73.63628 73.53031
# Shear Modulus (GPa) = 11.89510 25.02633 18.46071
#
# Velocity S-wave (km/s) = 2.54799 3.69584 3.17423
# Velocity P-wave (km/s) = 6.98075 7.64215 7.31893
#
# Compressibility (1/GPa) = 0.01361946
#
# Stress axis : x y z
#
# Youngs Moduli (GPa) = 107.37485 67.64819 65.87234
#
# Poissons Ratio (x) = 0.18993 0.14416
# Poissons Ratio (y) = 0.30147 0.51593
# Poissons Ratio (z) = 0.23499 0.52984
#
# Static dielectric constant tensor:
#      x y z
#    x 1.628840 0.000000 0.002150 
#    y 0.000000 1.611360 0.000000 
#    z 0.002150 0.000000 1.601780 
# 
# From -- ./inp_files/272361.got.cif
#   From: 2010.05.17/outbox.cif.g08.bks.cpg/sg12_137_cif.got.tgz:272361.got - 2010.06.03 13:09:07.
