data_PCOD9219756
_publ_section_title
;
Structure prediction by ZEFSAII (Michael W. Deem and Ramdas Pophale) SiO2 
 PCOD9219756
Probable space group: C 2/M
;
_chemical_formula_sum "Si O2"
_cell_formula_units_Z 48
_cell_length_a 19.556271
_cell_length_b 8.886808
_cell_length_c 15.904560
_cell_angle_alpha 90.000000
_cell_angle_beta 78.244666
_cell_angle_gamma 90.000000
_cell_volume 2706.125631
_symmetry_space_group_name_H-M "C 2/M"
_symmetry_group_IT_number 12
_symmetry_cell_setting 'monoclinic'
loop_
_space_group_symop_operation_xyz
x,y,z
-x,y,-z
-x,-y,-z
x,-y,z
1/2+x,1/2+y,z
1/2-x,1/2+y,-z
1/2-x,1/2-y,-z
1/2+x,1/2-y,z
loop_
_atom_site_type_symbol
_atom_site_label
_atom_site_fract_x
_atom_site_fract_y
_atom_site_fract_z
Si Si1 0.685312 0.320111 0.465061
Si Si2 0.308011 0.821369 0.720942
Si Si3 0.913811 0.820646 0.361155
Si Si4 0.032739 0.179753 0.902692
Si Si5 0.339002 0.178807 0.219900
Si Si6 0.943741 0.821453 0.758016
O O1 0.694550 0.500000 0.454909
O O2 0.750000 0.250000 0.500000
O O3 0.681752 0.246843 0.374800
O O4 0.616776 0.291947 0.539192
O O5 0.236244 0.752860 0.774175
O O6 0.374576 0.771285 0.758217
O O7 0.302124 0.000000 0.717261
O O8 0.868026 0.734247 0.303285
O O9 0.994703 0.784401 0.324185
O O10 0.905882 0.000000 0.345901
O O11 0.103674 0.264418 0.861014
O O12 0.978423 0.206685 0.840196
O O13 0.046645 0.000000 0.900259
O O14 0.000000 0.223170 0.000000
O O15 0.333422 0.000000 0.220764
O O16 0.928561 0.000000 0.754742
#
# Coordination Sequence:
#
# PCOD9219756 Si02
#       6
#     8   8   8   8   8   8
#     4  11  21  34  55  82 111 148 193 238 279 326
#     4  12  24  37  53  78 115 154 191 234 281 326
#     4   9  19  36  57  79 109 148 189 232 280 334
#     4   9  19  39  66  90 113 143 178 221 278 344
#     4  11  21  34  57  84 112 146 187 232 276 330
#     4   9  19  37  58  82 112 145 183 227 279 335
#
# _framework density 17.737537
#
# number of rings (size 3 to 8) (size 9 to 14) (size 15 to 20)
#    0.000    1.833    1.667    4.500    0.000    4.333 
#    0.000    4.167    0.000    0.000    0.000    0.000 
#    0.000    0.000    0.000    0.000    0.000    0.000 
#
# Total GULP energy -134047.216746 kJ/mol
# GULP energy per Si atom -5585.300698 kJ/mol
# Density = 1.769717 g / cm^3
# Si number density = 17.737537 Si / 1000 Ang^3
#
#
#
# Elastic Constant Matrix: (Units=GPa)
#
#
# Indices 1 2 3 4 5 6 
#
# 1 134.9761 78.3083 54.8062 0.0000 -18.0397 0.0000
# 2 78.3083 101.6750 50.7239 0.0000 -14.2874 0.0000
# 3 54.8062 50.7239 93.8976 0.0000 -27.9975 0.0000
# 4 0.0000 0.0000 0.0000 24.9387 0.0000 0.3891
# 5 -18.0397 -14.2874 -27.9975 0.0000 19.8976 0.0000
# 6 0.0000 0.0000 0.0000 0.3891 0.0000 32.1423
#
#
#
# Elastic Compliance Matrix: (Units=1/GPa)
#
#
# Indices 1 2 3 4 5 6 
#
# 1 0.014161 -0.009317 -0.002411 0.000000 0.002757 0.000000
# 2 -0.009317 0.019604 -0.005984 0.000000 -0.002790 0.000000
# 3 -0.002411 -0.005984 0.023011 0.000000 0.025896 0.000000
# 4 0.000000 0.000000 0.000000 0.040106 0.000000 -0.000485
# 5 0.002757 -0.002790 0.025896 0.000000 0.087191 0.000000
# 6 0.000000 0.000000 0.000000 -0.000485 0.000000 0.031118
#
#
# Mechanical properties :
#
#
# Convention : Reuss Voigt Hill
#
# Bulk Modulus (GPa) = 46.83130 77.58061 62.20596
# Shear Modulus (GPa) = 19.40003 25.17642 22.28823
#
# Velocity S-wave (km/s) = 3.31074 3.77156 3.54864
# Velocity P-wave (km/s) = 6.40893 7.92460 7.20672
#
# Compressibility (1/GPa) = 0.02135324
#
# Stress axis : x y z
#
# Youngs Moduli (GPa) = 70.61531 51.00954 43.45743
#
# Poissons Ratio (x) = 0.47524 0.10476
# Poissons Ratio (y) = 0.65790 0.26006
# Poissons Ratio (z) = 0.17022 0.30526
#
# Static dielectric constant tensor:
#      x y z
#    x 1.597250 0.000000 -0.018740 
#    y 0.000000 1.591250 0.000000 
#    z -0.018740 0.000000 1.594540 
# 
# From -- ./inp_files/221597.got.cif
#   From: 2010.05.17/outbox.cif.g08.bks.cpg/sg12_111_cif.got.tgz:221597.got - 2010.06.03 13:09:07.
