data_PCOD9219368
_publ_section_title
;
Structure prediction by ZEFSAII (Michael W. Deem and Ramdas Pophale) SiO2 
 PCOD9219368
Probable space group: C 2/M
;
_chemical_formula_sum "Si O2"
_cell_formula_units_Z 64
_cell_length_a 18.635477
_cell_length_b 22.058450
_cell_length_c 24.762973
_cell_angle_alpha 90.000000
_cell_angle_beta 19.569895
_cell_angle_gamma 90.000000
_cell_volume 3409.626029
_symmetry_space_group_name_H-M "C 2/M"
_symmetry_group_IT_number 12
_symmetry_cell_setting 'monoclinic'
loop_
_space_group_symop_operation_xyz
x,y,z
-x,y,-z
-x,-y,-z
x,-y,z
1/2+x,1/2+y,z
1/2-x,1/2+y,-z
1/2-x,1/2-y,-z
1/2+x,1/2-y,z
loop_
_atom_site_type_symbol
_atom_site_label
_atom_site_fract_x
_atom_site_fract_y
_atom_site_fract_z
Si Si1 0.558343 0.743614 0.376338
Si Si2 0.508625 0.757289 0.114082
Si Si3 0.215626 0.636923 0.455038
Si Si4 0.594410 0.715482 0.231222
Si Si5 0.010108 0.428760 0.286422
Si Si6 0.256283 0.568545 0.318344
Si Si7 0.613791 0.184091 0.689819
Si Si8 0.962807 0.867337 0.964515
O O1 0.758651 0.741584 0.274065
O O2 0.445075 0.809458 0.450883
O O3 0.649559 0.724437 0.253944
O O4 0.361666 0.698181 0.525609
O O5 0.511217 0.782898 0.172667
O O6 0.575646 0.689236 0.048518
O O7 0.686066 0.795473 0.956137
O O8 0.415271 0.665846 0.345413
O O9 0.308350 0.605911 0.335384
O O10 0.095211 0.592685 0.582125
O O11 0.470914 0.777415 0.301334
O O12 0.977257 0.500000 0.301504
O O13 0.921399 0.385370 0.301318
O O14 0.260543 0.411603 0.110562
O O15 0.338098 0.500000 0.264317
O O16 0.342784 0.597934 0.202047
O O17 0.000000 0.567349 0.500000
O O18 0.000000 0.846323 0.000000
#
# Coordination Sequence:
#
# PCOD9219368 Si02
#       8
#     8   8   8   8   8   8   8   8
#     4  11  20  38  61  90 121 157 197 252 325 377
#     4  12  23  35  62  93 125 154 193 255 325 375
#     4  11  21  39  62  88 121 161 205 257 302 366
#     4  11  20  36  60  88 121 153 190 258 326 364
#     4  12  24  40  62  86 123 174 215 247 293 360
#     4  11  24  39  56  83 123 170 212 244 283 352
#     4  11  22  39  58  92 126 160 205 253 305 370
#     4  12  24  40  61  92 131 161 199 248 311 380
#
# _framework density 18.770388000000001
#
# number of rings (size 3 to 8) (size 9 to 14) (size 15 to 20)
#    0.000    0.625    3.750    7.125    1.750    2.000 
#    0.000    0.000    0.000    1.500    0.000    0.875 
#    0.000    0.000    0.000    0.000    0.000    0.000 
#
# Total GULP energy -178709.355708 kJ/mol
# GULP energy per Si atom -5584.667366 kJ/mol
# Density = 1.872767 g / cm^3
# Si number density = 18.770388 Si / 1000 Ang^3
#
#
#
# Elastic Constant Matrix: (Units=GPa)
#
#
# Indices 1 2 3 4 5 6 
#
# 1 81.7117 44.9143 11.8330 -0.0155 17.0721 0.0399
# 2 44.9143 114.3300 30.3597 -0.1215 6.1631 0.0721
# 3 11.8330 30.3597 96.0760 -0.1948 12.3420 0.1362
# 4 -0.0155 -0.1215 -0.1948 19.1811 0.0297 0.1948
# 5 17.0721 6.1631 12.3420 0.0297 39.3486 0.0007
# 6 0.0399 0.0721 0.1362 0.1948 0.0007 17.3021
#
#
#
# Elastic Compliance Matrix: (Units=1/GPa)
#
#
# Indices 1 2 3 4 5 6 
#
# 1 0.017133 -0.006592 0.000828 -0.000009 -0.006661 -0.000018
# 2 -0.006592 0.012096 -0.003266 0.000035 0.001990 -0.000010
# 3 0.000828 -0.003266 0.011794 0.000106 -0.003547 -0.000082
# 4 -0.000009 0.000035 0.000106 0.052142 -0.000074 -0.000588
# 5 -0.006661 0.001990 -0.003547 -0.000074 0.029105 0.000035
# 6 -0.000018 -0.000010 -0.000082 -0.000588 0.000035 0.057804
#
#
# Mechanical properties :
#
#
# Convention : Reuss Voigt Hill
#
# Bulk Modulus (GPa) = 43.54389 51.81461 47.67925
# Shear Modulus (GPa) = 24.29688 28.83375 26.56532
#
# Velocity S-wave (km/s) = 3.60172 3.92360 3.76610
# Velocity P-wave (km/s) = 6.36750 6.94194 6.66092
#
# Compressibility (1/GPa) = 0.02296533
#
# Stress axis : x y z
#
# Youngs Moduli (GPa) = 58.36678 82.67090 84.78551
#
# Poissons Ratio (x) = 0.54493 -0.07024
# Poissons Ratio (y) = 0.38473 0.27691
# Poissons Ratio (z) = -0.04835 0.27000
#
# Static dielectric constant tensor:
#      x y z
#    x 1.689790 -0.000070 0.018050 
#    y -0.000070 1.666140 0.000130 
#    z 0.018050 0.000130 1.699970 
# 
# From -- ./inp_files/344854.got.cif
#   From: 2010.05.17/outbox.cif.g08.bks.cpg/sg12_173_cif.got.tgz:344854.got - 2010.06.03 13:09:07.
