data_PCOD9219868
_publ_section_title
;
Structure prediction by ZEFSAII (Michael W. Deem and Ramdas Pophale) SiO2 
 PCOD9219868
Probable space group: C 2/M
;
_chemical_formula_sum "Si O2"
_cell_formula_units_Z 24
_cell_length_a 10.183235
_cell_length_b 16.506690
_cell_length_c 9.540804
_cell_angle_alpha 90.000000
_cell_angle_beta 43.527788
_cell_angle_gamma 90.000000
_cell_volume 1104.497630
_symmetry_space_group_name_H-M "C 2/M"
_symmetry_group_IT_number 12
_symmetry_cell_setting 'monoclinic'
loop_
_space_group_symop_operation_xyz
x,y,z
-x,y,-z
-x,-y,-z
x,-y,z
1/2+x,1/2+y,z
1/2-x,1/2+y,-z
1/2-x,1/2-y,-z
1/2+x,1/2-y,z
loop_
_atom_site_type_symbol
_atom_site_label
_atom_site_fract_x
_atom_site_fract_y
_atom_site_fract_z
Si Si1 0.726461 0.588091 0.300355
Si Si2 0.785390 0.764582 0.182044
Si Si3 0.571560 0.146378 0.583061
O O1 0.500000 0.591245 0.500000
O O2 0.773174 0.500000 0.202344
O O3 0.779127 0.668057 0.174302
O O4 0.829709 0.598856 0.370257
O O5 0.618421 0.805885 0.219950
O O6 0.711123 0.789681 0.395705
O O7 0.000000 0.794674 0.000000
O O8 0.500000 0.097479 0.500000
#
# Coordination Sequence:
#
# PCOD9219868 Si02
#       3
#     8   8   8
#     4  11  21  36  56  81 115 144 172 223 279 318
#     4   9  19  35  61  80 105 139 189 222 261 314
#     4   8  20  37  58  80 104 143 189 215 264 317
#
# _framework density 21.729337000000001
#
# number of rings (size 3 to 8) (size 9 to 14) (size 15 to 20)
#    2.000    0.333    3.333    1.000    0.000    2.667 
#    0.000    0.000    0.000    2.000    0.000    0.000 
#    0.000    0.000    0.000    0.000    0.000    0.000 
#
# Total GULP energy -66828.018651 kJ/mol
# GULP energy per Si atom -5569.001554 kJ/mol
# Density = 2.167988 g / cm^3
# Si number density = 21.729337 Si / 1000 Ang^3
#
#
#
# Elastic Constant Matrix: (Units=GPa)
#
#
# Indices 1 2 3 4 5 6 
#
# 1 114.2421 15.2280 26.2486 0.0000 -21.0336 0.0000
# 2 15.2280 88.0017 27.8624 0.0000 -10.3344 0.0000
# 3 26.2486 27.8624 156.8997 0.0001 -38.2886 0.0000
# 4 0.0000 0.0000 0.0001 11.9699 -0.0001 -16.9999
# 5 -21.0336 -10.3344 -38.2886 -0.0001 38.5240 0.0000
# 6 0.0000 0.0000 0.0000 -16.9999 0.0000 19.9417
#
#
#
# Elastic Compliance Matrix: (Units=1/GPa)
#
#
# Indices 1 2 3 4 5 6 
#
# 1 0.009844 -0.001048 -0.000288 0.000000 0.004808 0.000000
# 2 -0.001048 0.012214 -0.001761 0.000000 0.000954 0.000000
# 3 -0.000288 -0.001761 0.008688 0.000000 0.008005 0.000000
# 4 0.000000 0.000000 0.000000 -0.396487 -0.000001 -0.337997
# 5 0.004808 0.000954 0.008005 -0.000001 0.036795 0.000000
# 6 0.000000 0.000000 0.000000 -0.337997 0.000000 -0.237989
#
#
# Mechanical properties :
#
#
# Convention : Reuss Voigt Hill
#
# Bulk Modulus (GPa) = 40.72632 55.31351 48.01991
# Shear Modulus (GPa) = -9.04884 33.40741 12.17929
#
# Velocity S-wave (km/s) = -2.04289 3.92527 2.37006
# Velocity P-wave (km/s) = 3.63576 6.78635 5.44395
#
# Compressibility (1/GPa) = 0.02455414
#
# Stress axis : x y z
#
# Youngs Moduli (GPa) = 101.58173 81.87110 115.10289
#
# Poissons Ratio (x) = 0.08579 0.03310
# Poissons Ratio (y) = 0.10644 0.20268
# Poissons Ratio (z) = 0.02921 0.14416
#
# Static dielectric constant tensor:
#      x y z
#    x 1.858790 0.000000 0.010350 
#    y 0.000000 1.794160 0.000000 
#    z 0.010350 0.000000 1.828480 
# 
# From -- ./inp_files/35751.got.cif
#   From: 2010.05.17/outbox.cif.g08.bks.cpg/sg12_18_cif.got.tgz:35751.got - 2010.06.03 13:09:07.
