data_PCOD9219501
_publ_section_title
;
Structure prediction by ZEFSAII (Michael W. Deem and Ramdas Pophale) SiO2 
 PCOD9219501
Probable space group: C 2/M
;
_chemical_formula_sum "Si O2"
_cell_formula_units_Z 50
_cell_length_a 14.834372
_cell_length_b 20.144225
_cell_length_c 11.822307
_cell_angle_alpha 90.000000
_cell_angle_beta 137.993521
_cell_angle_gamma 90.000000
_cell_volume 2364.217312
_symmetry_space_group_name_H-M "C 2/M"
_symmetry_group_IT_number 12
_symmetry_cell_setting 'monoclinic'
loop_
_space_group_symop_operation_xyz
x,y,z
-x,y,-z
-x,-y,-z
x,-y,z
1/2+x,1/2+y,z
1/2-x,1/2+y,-z
1/2-x,1/2-y,-z
1/2+x,1/2-y,z
loop_
_atom_site_type_symbol
_atom_site_label
_atom_site_fract_x
_atom_site_fract_y
_atom_site_fract_z
Si Si1 0.244308 0.168988 0.500176
Si Si2 0.980101 0.883603 0.167513
Si Si3 0.500000 0.500000 0.000000
Si Si4 0.155489 0.249409 0.023917
Si Si5 0.804957 0.427207 0.117531
Si Si6 0.653730 0.819263 0.648146
Si Si7 0.512516 0.115700 0.135927
O O1 0.250000 0.250000 0.500000
O O2 0.303327 0.151524 0.431282
O O3 0.340706 0.136311 0.682978
O O4 0.095604 0.137377 0.362713
O O5 0.943272 0.813635 0.073687
O O6 0.833385 0.907503 0.075054
O O7 0.021620 0.940577 0.117551
O O8 0.250102 0.239612 0.220560
O O9 0.250000 0.250000 0.000000
O O10 0.070573 0.315503 0.946874
O O11 0.781219 0.500000 0.146549
O O12 0.829658 0.374817 0.239776
O O13 0.931753 0.425737 0.153927
O O14 0.500000 0.797025 0.500000
O O15 0.500000 0.085469 0.000000
#
# Coordination Sequence:
#
# PCOD9219501 Si02
#       7
#     8   8   2   8   8   8   8
#     4  12  24  42  66 106 142 175 232 295 357 425
#     4  11  23  39  68 100 144 180 226 285 362 437
#     4  12  24  44  68 114 150 184 230 290 392 422
#     4  11  20  39  65  97 138 184 226 286 363 427
#     4  11  24  46  69  96 141 189 232 291 365 435
#     4  11  22  39  65 102 139 176 227 289 356 425
#     4  12  25  45  66  96 136 188 240 296 361 427
#
# _framework density 21.148648000000001
#
# number of rings (size 3 to 8) (size 9 to 14) (size 15 to 20)
#    0.000    0.640    7.200    2.880    1.120    0.640 
#    1.440    0.800    0.000    0.960    0.000    0.000 
#    0.000    0.000    0.000    0.000    0.000    0.000 
#
# Total GULP energy -139439.415998 kJ/mol
# GULP energy per Si atom -5577.576640 kJ/mol
# Density = 2.110051 g / cm^3
# Si number density = 21.148648 Si / 1000 Ang^3
#
#
#
# Elastic Constant Matrix: (Units=GPa)
#
#
# Indices 1 2 3 4 5 6 
#
# 1 57.3170 -1.8913 24.0736 0.0000 -11.0772 0.0000
# 2 -1.8913 107.2426 26.5136 0.0000 8.2792 0.0000
# 3 24.0736 26.5136 168.8252 0.0000 21.3909 0.0000
# 4 0.0000 0.0000 0.0000 4.1416 0.0000 7.0672
# 5 -11.0772 8.2792 21.3909 0.0000 37.9080 0.0000
# 6 0.0000 0.0000 0.0000 7.0672 0.0000 20.6568
#
#
#
# Elastic Compliance Matrix: (Units=1/GPa)
#
#
# Indices 1 2 3 4 5 6 
#
# 1 0.020799 0.000751 -0.004128 0.000000 0.008243 0.000000
# 2 0.000751 0.009794 -0.001510 0.000000 -0.001067 0.000000
# 3 -0.004128 -0.001510 0.007388 0.000000 -0.005046 0.000000
# 4 0.000000 0.000000 0.000000 0.580145 0.000000 -0.198481
# 5 0.008243 -0.001067 -0.005046 0.000000 0.031869 0.000000
# 6 0.000000 0.000000 0.000000 -0.198481 0.000000 0.116315
#
#
# Mechanical properties :
#
#
# Convention : Reuss Voigt Hill
#
# Bulk Modulus (GPa) = 35.45285 47.86406 41.65845
# Shear Modulus (GPa) = 6.36549 31.52053 18.94301
#
# Velocity S-wave (km/s) = 1.73678 3.86479 2.99608
# Velocity P-wave (km/s) = 4.56310 6.52663 5.63111
#
# Compressibility (1/GPa) = 0.02820648
#
# Stress axis : x y z
#
# Youngs Moduli (GPa) = 48.08037 102.10753 135.34786
#
# Poissons Ratio (x) = -0.07669 0.55873
# Poissons Ratio (y) = -0.03611 0.20436
# Poissons Ratio (z) = 0.19848 0.15417
#
# Static dielectric constant tensor:
#      x y z
#    x 1.862340 0.000000 0.017340 
#    y 0.000000 1.768170 0.000000 
#    z 0.017340 0.000000 1.792670 
# 
# From -- ./inp_files/148951.got.cif
#   From: 2010.05.17/outbox.cif.g08.bks.cpg/sg12_75_cif.got.tgz:148951.got - 2010.06.03 13:09:07.
