data_PCOD9219073
_publ_section_title
;
Structure prediction by ZEFSAII (Michael W. Deem and Ramdas Pophale) SiO2 
 PCOD9219073
Probable space group: C 2/M
;
_chemical_formula_sum "Si O2"
_cell_formula_units_Z 48
_cell_length_a 11.298554
_cell_length_b 30.546551
_cell_length_c 13.235783
_cell_angle_alpha 90.000000
_cell_angle_beta 33.447163
_cell_angle_gamma 90.000000
_cell_volume 2517.784119
_symmetry_space_group_name_H-M "C 2/M"
_symmetry_group_IT_number 12
_symmetry_cell_setting 'monoclinic'
loop_
_space_group_symop_operation_xyz
x,y,z
-x,y,-z
-x,-y,-z
x,-y,z
1/2+x,1/2+y,z
1/2-x,1/2+y,-z
1/2-x,1/2-y,-z
1/2+x,1/2-y,z
loop_
_atom_site_type_symbol
_atom_site_label
_atom_site_fract_x
_atom_site_fract_y
_atom_site_fract_z
Si Si1 0.519785 0.705811 0.229718
Si Si2 0.657348 0.636109 0.481762
Si Si3 0.804195 0.935972 0.208774
Si Si4 0.773441 0.336477 0.720263
Si Si5 0.440317 0.195494 0.812119
Si Si6 0.179219 0.548349 0.522978
O O1 0.450427 0.669530 0.360509
O O2 0.378663 0.696308 0.230798
O O3 0.481969 0.756722 0.280335
O O4 0.769973 0.701118 0.023075
O O5 0.500000 0.628564 0.500000
O O6 0.728623 0.590286 0.482819
O O7 0.867975 0.662969 0.297298
O O8 0.827908 0.884201 0.208615
O O9 0.575036 0.944370 0.317882
O O10 0.786362 0.953242 0.335406
O O11 0.000000 0.951298 0.000000
O O12 0.819575 0.324155 0.801639
O O13 0.000000 0.338832 0.500000
O O14 0.208429 0.500000 0.549671
#
# Coordination Sequence:
#
# PCOD9219073 Si02
#       6
#     8   8   8   8   8   8
#     4  11  24  40  62  92 125 163 204 247 297 357
#     4  12  26  43  62  85 121 167 208 254 301 353
#     4  11  19  37  67  96 125 153 188 249 318 365
#     4  12  20  37  66  93 128 162 195 250 307 359
#     4  11  24  40  62  92 125 163 204 247 297 357
#     4  11  24  42  61  92 123 151 203 253 305 373
#
# _framework density 19.064381999999998
#
# number of rings (size 3 to 8) (size 9 to 14) (size 15 to 20)
#    0.000    0.667    6.667    3.000    2.333    2.333 
#    0.000    0.000    0.000    0.000    0.000    4.667 
#    0.000    0.000    0.000    0.000    0.000    0.000 
#
# Total GULP energy -134079.885129 kJ/mol
# GULP energy per Si atom -5586.661880 kJ/mol
# Density = 1.902099 g / cm^3
# Si number density = 19.064382 Si / 1000 Ang^3
#
#
#
# Elastic Constant Matrix: (Units=GPa)
#
#
# Indices 1 2 3 4 5 6 
#
# 1 92.1533 30.6386 16.1698 0.0000 -19.0764 0.0000
# 2 30.6386 129.5158 10.8699 0.0000 -10.7768 0.0000
# 3 16.1698 10.8699 118.2534 0.0000 -5.4911 0.0000
# 4 0.0000 0.0000 0.0000 -31.8674 0.0000 12.0208
# 5 -19.0764 -10.7768 -5.4911 0.0000 10.2899 0.0000
# 6 0.0000 0.0000 0.0000 12.0208 0.0000 14.7819
#
#
#
# Elastic Compliance Matrix: (Units=1/GPa)
#
#
# Indices 1 2 3 4 5 6 
#
# 1 0.017998 -0.001585 -0.000864 0.000000 0.031245 0.000000
# 2 -0.001585 0.008614 -0.000300 0.000000 0.005923 0.000000
# 3 -0.000864 -0.000300 0.008729 0.000000 0.002741 0.000000
# 4 0.000000 0.000000 0.000000 -0.024014 0.000000 0.019528
# 5 0.031245 0.005923 0.002741 0.000000 0.162774 0.000000
# 6 0.000000 0.000000 0.000000 0.019528 0.000000 0.051770
#
#
# Mechanical properties :
#
#
# Convention : Reuss Voigt Hill
#
# Bulk Modulus (GPa) = 33.50962 50.58659 42.04811
# Shear Modulus (GPa) = 20.71952 17.45717 19.08834
#
# Velocity S-wave (km/s) = 3.30027 3.02933 3.16770
# Velocity P-wave (km/s) = 5.66900 6.23121 5.95674
#
# Compressibility (1/GPa) = 0.02984217
#
# Stress axis : x y z
#
# Youngs Moduli (GPa) = 55.56108 116.08905 114.55410
#
# Poissons Ratio (x) = 0.18404 0.09903
# Poissons Ratio (y) = 0.08808 0.03437
# Poissons Ratio (z) = 0.04803 0.03483
#
# Static dielectric constant tensor:
#      x y z
#    x 1.622830 0.000000 0.007090 
#    y 0.000000 1.664120 0.000000 
#    z 0.007090 0.000000 1.706770 
# 
# From -- ./inp_files/209271.got.cif
#   From: 2010.05.17/outbox.cif.g08.bks.cpg/sg12_105_cif.got.tgz:209271.got - 2010.06.03 13:09:07.
