data_PCOD9219363
_publ_section_title
;
Structure prediction by ZEFSAII (Michael W. Deem and Ramdas Pophale) SiO2 
 PCOD9219363
Probable space group: C 2/M
;
_chemical_formula_sum "Si O2"
_cell_formula_units_Z 40
_cell_length_a 7.473971
_cell_length_b 20.835164
_cell_length_c 16.314350
_cell_angle_alpha 90.000000
_cell_angle_beta 130.028797
_cell_angle_gamma 90.000000
_cell_volume 1945.310018
_symmetry_space_group_name_H-M "C 2/M"
_symmetry_group_IT_number 12
_symmetry_cell_setting 'monoclinic'
loop_
_space_group_symop_operation_xyz
x,y,z
-x,y,-z
-x,-y,-z
x,-y,z
1/2+x,1/2+y,z
1/2-x,1/2+y,-z
1/2-x,1/2-y,-z
1/2+x,1/2-y,z
loop_
_atom_site_type_symbol
_atom_site_label
_atom_site_fract_x
_atom_site_fract_y
_atom_site_fract_z
Si Si1 0.530334 0.924795 0.813963
Si Si2 0.159683 0.822026 0.467517
Si Si3 0.031926 0.887396 0.738403
Si Si4 0.737748 0.425600 0.959415
Si Si5 0.970603 0.573378 0.373695
O O1 0.264858 0.917456 0.767444
O O2 0.546154 0.903076 0.725593
O O3 0.582598 0.000000 0.827989
O O4 0.714555 0.899180 0.935339
O O5 0.250000 0.750000 0.500000
O O6 0.362527 0.875255 0.534372
O O7 0.000000 0.834611 0.500000
O O8 0.029153 0.829981 0.341789
O O9 0.096735 0.882131 0.853768
O O10 0.792061 0.927165 0.669284
O O11 0.645435 0.500000 0.932383
O O12 0.000000 0.430396 0.000000
O O13 0.063209 0.500000 0.403689
#
# Coordination Sequence:
#
# PCOD9219363 Si02
#       5
#     8   8   8   8   8
#     4   9  18  34  56  91 129 160 197 241 297 356
#     4  12  26  46  64  86 117 161 208 256 310 366
#     4  11  20  36  59  87 122 161 199 244 295 354
#     4   8  15  29  54  87 125 163 194 234 295 356
#     4  11  23  37  61  95 125 159 203 250 298 358
#
# _framework density 20.562273999999999
#
# number of rings (size 3 to 8) (size 9 to 14) (size 15 to 20)
#    0.000    1.800    2.000    4.800    0.000    4.400 
#    0.000    3.000    0.000    1.200    5.200    0.000 
#    0.000    0.000    0.000    0.000    0.000    0.000 
#
# Total GULP energy -111445.086700 kJ/mol
# GULP energy per Si atom -5572.254335 kJ/mol
# Density = 2.051547 g / cm^3
# Si number density = 20.562274 Si / 1000 Ang^3
#
#
#
# Elastic Constant Matrix: (Units=GPa)
#
#
# Indices 1 2 3 4 5 6 
#
# 1 102.2850 13.5279 43.4054 0.0000 2.5480 0.0000
# 2 13.5279 66.8850 63.5117 0.0000 -1.3854 0.0000
# 3 43.4054 63.5117 185.1593 0.0000 -29.4930 0.0000
# 4 0.0000 0.0000 0.0000 17.3944 0.0000 2.5689
# 5 2.5480 -1.3854 -29.4930 0.0000 42.5082 0.0000
# 6 0.0000 0.0000 0.0000 2.5689 0.0000 13.5877
#
#
#
# Elastic Compliance Matrix: (Units=1/GPa)
#
#
# Indices 1 2 3 4 5 6 
#
# 1 0.011179 0.000920 -0.003416 0.000000 -0.003010 0.000000
# 2 0.000920 0.023286 -0.009096 0.000000 -0.005607 0.000000
# 3 -0.003416 -0.009096 0.010463 0.000000 0.007168 0.000000
# 4 0.000000 0.000000 0.000000 0.059141 0.000000 -0.011181
# 5 -0.003010 -0.005607 0.007168 0.000000 0.028496 0.000000
# 6 0.000000 0.000000 0.000000 -0.011181 0.000000 0.075710
#
#
# Mechanical properties :
#
#
# Convention : Reuss Voigt Hill
#
# Bulk Modulus (GPa) = 45.98750 66.13547 56.06149
# Shear Modulus (GPa) = 20.94607 30.29035 25.61821
#
# Velocity S-wave (km/s) = 3.19512 3.84227 3.53354
# Velocity P-wave (km/s) = 6.00210 7.20537 6.63108
#
# Compressibility (1/GPa) = 0.02174504
#
# Stress axis : x y z
#
# Youngs Moduli (GPa) = 89.45026 42.94357 95.57148
#
# Poissons Ratio (x) = -0.03951 0.32645
# Poissons Ratio (y) = -0.08230 0.86935
# Poissons Ratio (z) = 0.30554 0.39063
#
# Static dielectric constant tensor:
#      x y z
#    x 1.804840 0.000000 -0.047570 
#    y 0.000000 1.666560 0.000000 
#    z -0.047570 0.000000 1.835060 
# 
# From -- ./inp_files/258331.got.cif
#   From: 2010.05.17/outbox.cif.g08.bks.cpg/sg12_130_cif.got.tgz:258331.got - 2010.06.03 13:09:07.
