data_PCOD9219912
_publ_section_title
;
Structure prediction by ZEFSAII (Michael W. Deem and Ramdas Pophale) SiO2 
 PCOD9219912
Probable space group: C 2/M
;
_chemical_formula_sum "Si O2"
_cell_formula_units_Z 40
_cell_length_a 13.590225
_cell_length_b 11.966333
_cell_length_c 12.704122
_cell_angle_alpha 90.000000
_cell_angle_beta 137.685982
_cell_angle_gamma 90.000000
_cell_volume 1390.824300
_symmetry_space_group_name_H-M "C 2/M"
_symmetry_group_IT_number 12
_symmetry_cell_setting 'monoclinic'
loop_
_space_group_symop_operation_xyz
x,y,z
-x,y,-z
-x,-y,-z
x,-y,z
1/2+x,1/2+y,z
1/2-x,1/2+y,-z
1/2-x,1/2-y,-z
1/2+x,1/2-y,z
loop_
_atom_site_type_symbol
_atom_site_label
_atom_site_fract_x
_atom_site_fract_y
_atom_site_fract_z
Si Si1 0.604047 0.374798 0.979938
Si Si2 0.575263 0.123936 0.943612
Si Si3 0.193784 0.877140 0.437230
Si Si4 0.164639 0.651367 0.665200
Si Si5 0.875788 0.882639 0.285315
O O1 0.583704 0.500000 0.917713
O O2 0.560970 0.253147 0.893686
O O3 0.767635 0.373752 0.165363
O O4 0.500000 0.373449 0.000000
O O5 0.749107 0.120642 0.098432
O O6 0.536248 0.000000 0.866781
O O7 0.500000 0.123795 0.000000
O O8 0.250000 0.750000 0.500000
O O9 0.224454 0.885093 0.336710
O O10 0.031981 0.875144 0.356032
O O11 0.255040 0.000000 0.523283
O O12 0.157194 0.784693 0.661521
O O13 0.000000 0.616348 0.500000
O O14 0.859285 0.000000 0.328700
#
# Coordination Sequence:
#
# PCOD9219912 Si02
#       5
#     8   8   8   8   8
#     4   9  18  32  51  78 112 148 185 232 292 350
#     4   8  14  28  52  77 100 139 191 232 272 335
#     4  11  23  39  56  85 121 158 197 245 300 358
#     4  11  21  36  60  89 116 152 205 247 295 349
#     4   9  19  36  57  83 121 159 193 240 304 361
#
# _framework density 28.759924000000002
#
# number of rings (size 3 to 8) (size 9 to 14) (size 15 to 20)
#    0.000    2.400    2.000    0.600    0.000    2.800 
#    0.000    0.000    0.000   19.200    0.000   19.600 
#    0.000    0.000    0.000    0.000    0.000    0.000 
#
# Total GULP energy -111607.652799 kJ/mol
# GULP energy per Si atom -5580.382640 kJ/mol
# Density = 2.869447 g / cm^3
# Si number density = 28.759924 Si / 1000 Ang^3
#
#
#
# Elastic Constant Matrix: (Units=GPa)
#
#
# Indices 1 2 3 4 5 6 
#
# 1 110.8666 60.5520 10.5348 0.0000 18.9050 0.0000
# 2 60.5520 407.0299 41.5287 0.0000 -3.6574 0.0000
# 3 10.5348 41.5287 133.9323 0.0000 1.9049 0.0000
# 4 0.0000 0.0000 0.0000 23.9473 0.0000 2.5161
# 5 18.9050 -3.6574 1.9049 0.0000 46.2380 0.0000
# 6 0.0000 0.0000 0.0000 2.5161 0.0000 40.9191
#
#
#
# Elastic Compliance Matrix: (Units=1/GPa)
#
#
# Indices 1 2 3 4 5 6 
#
# 1 0.010686 -0.001601 -0.000280 0.000000 -0.004484 0.000000
# 2 -0.001601 0.002780 -0.000749 0.000000 0.000905 0.000000
# 3 -0.000280 -0.000749 0.007724 0.000000 -0.000263 0.000000
# 4 0.000000 0.000000 0.000000 0.042030 0.000000 -0.002584
# 5 -0.004484 0.000905 -0.000263 0.000000 0.023543 0.000000
# 6 0.000000 0.000000 0.000000 -0.002584 0.000000 0.024597
#
#
# Mechanical properties :
#
#
# Convention : Reuss Voigt Hill
#
# Bulk Modulus (GPa) = 62.77852 97.45108 80.11480
# Shear Modulus (GPa) = 41.00698 58.16843 49.58771
#
# Velocity S-wave (km/s) = 3.78012 4.50216 4.15685
# Velocity P-wave (km/s) = 6.39752 7.80921 7.13835
#
# Compressibility (1/GPa) = 0.01592902
#
# Stress axis : x y z
#
# Youngs Moduli (GPa) = 93.58273 359.76603 129.45964
#
# Poissons Ratio (x) = 0.57612 0.03627
# Poissons Ratio (y) = 0.14986 0.09694
# Poissons Ratio (z) = 0.02622 0.26939
#
# Static dielectric constant tensor:
#      x y z
#    x 2.463430 0.000000 -0.090890 
#    y 0.000000 2.176850 0.000000 
#    z -0.090890 0.000000 2.369980 
# 
# From -- ./inp_files/140293.got.cif
#   From: 2010.05.17/outbox.cif.g08.bks.cpg/sg12_71_cif.got.tgz:140293.got - 2010.06.03 13:09:07.
