data_PCOD9219849
_publ_section_title
;
Structure prediction by ZEFSAII (Michael W. Deem and Ramdas Pophale) SiO2 
 PCOD9219849
Probable space group: C 2/M
;
_chemical_formula_sum "Si O2"
_cell_formula_units_Z 40
_cell_length_a 14.558358
_cell_length_b 10.150362
_cell_length_c 12.746791
_cell_angle_alpha 90.000000
_cell_angle_beta 72.430982
_cell_angle_gamma 90.000000
_cell_volume 1795.762914
_symmetry_space_group_name_H-M "C 2/M"
_symmetry_group_IT_number 12
_symmetry_cell_setting 'monoclinic'
loop_
_space_group_symop_operation_xyz
x,y,z
-x,y,-z
-x,-y,-z
x,-y,z
1/2+x,1/2+y,z
1/2-x,1/2+y,-z
1/2-x,1/2-y,-z
1/2+x,1/2-y,z
loop_
_atom_site_type_symbol
_atom_site_label
_atom_site_fract_x
_atom_site_fract_y
_atom_site_fract_z
Si Si1 0.160924 0.348712 0.515478
Si Si2 0.912168 0.347618 0.906009
Si Si3 0.327057 0.770742 0.722354
Si Si4 0.628106 0.159387 0.848120
Si Si5 0.513737 0.360372 0.620119
O O1 0.174368 0.500000 0.544880
O O2 0.250000 0.250000 0.500000
O O3 0.217613 0.277265 0.757232
O O4 0.146405 0.346962 0.393858
O O5 0.930831 0.500000 0.922055
O O6 0.847873 0.340363 0.825203
O O7 0.020747 0.293111 0.853130
O O8 0.865308 0.300033 0.030712
O O9 0.406278 0.654613 0.700301
O O10 0.575059 0.226099 0.606040
O O11 0.636455 0.000000 0.834197
O O12 0.500000 0.370646 0.500000
O O13 0.559026 0.500000 0.640734
#
# Coordination Sequence:
#
# PCOD9219849 Si02
#       5
#     8   8   8   8   8
#     4  11  25  42  61  88 123 163 211 263 316 371
#     4   9  19  36  58  88 125 161 206 253 299 365
#     4  11  21  35  63  92 120 165 208 256 309 368
#     4   9  19  36  59  89 124 163 203 248 303 370
#     4   9  20  38  58  85 122 159 202 253 306 368
#
# _framework density 22.274654999999999
#
# number of rings (size 3 to 8) (size 9 to 14) (size 15 to 20)
#    0.000    2.200    0.000    3.600    2.800    6.800 
#    0.000    0.000    0.000    0.000    0.000    8.400 
#    0.000    0.000    0.000    0.000    0.000    0.000 
#
# Total GULP energy -111481.022944 kJ/mol
# GULP energy per Si atom -5574.051147 kJ/mol
# Density = 2.222396 g / cm^3
# Si number density = 22.274655 Si / 1000 Ang^3
#
#
#
# Elastic Constant Matrix: (Units=GPa)
#
#
# Indices 1 2 3 4 5 6 
#
# 1 111.3554 39.3537 7.1570 0.0000 -17.5409 0.0000
# 2 39.3537 124.2152 1.9935 0.0000 -4.0982 0.0000
# 3 7.1570 1.9935 93.9455 0.0000 -4.2674 0.0000
# 4 0.0000 0.0000 0.0000 57.1969 0.0000 10.6110
# 5 -17.5409 -4.0982 -4.2674 0.0000 42.0810 0.0000
# 6 0.0000 0.0000 0.0000 10.6110 0.0000 23.3694
#
#
#
# Elastic Compliance Matrix: (Units=1/GPa)
#
#
# Indices 1 2 3 4 5 6 
#
# 1 0.010829 -0.003285 -0.000567 0.000000 0.004137 0.000000
# 2 -0.003285 0.009075 0.000036 0.000000 -0.000482 0.000000
# 3 -0.000567 0.000036 0.010726 0.000000 0.000855 0.000000
# 4 0.000000 0.000000 0.000000 0.019092 0.000000 -0.008669
# 5 0.004137 -0.000482 0.000855 0.000000 0.025528 0.000000
# 6 0.000000 0.000000 0.000000 -0.008669 0.000000 0.046727
#
#
# Mechanical properties :
#
#
# Convention : Reuss Voigt Hill
#
# Bulk Modulus (GPa) = 43.48545 47.39161 45.43853
# Shear Modulus (GPa) = 36.42305 43.26360 39.84332
#
# Velocity S-wave (km/s) = 4.04812 4.41191 4.23393
# Velocity P-wave (km/s) = 6.43541 6.87572 6.65920
#
# Compressibility (1/GPa) = 0.02299620
#
# Stress axis : x y z
#
# Youngs Moduli (GPa) = 92.34132 110.19368 93.23356
#
# Poissons Ratio (x) = 0.36203 0.05290
# Poissons Ratio (y) = 0.30337 -0.00334
# Poissons Ratio (z) = 0.05239 -0.00395
#
# Static dielectric constant tensor:
#      x y z
#    x 1.843710 0.000000 0.014020 
#    y 0.000000 1.842620 0.000000 
#    z 0.014020 0.000000 1.886240 
# 
# From -- ./inp_files/185559.got.cif
#   From: 2010.05.17/outbox.cif.g08.bks.cpg/sg12_93_cif.got.tgz:185559.got - 2010.06.03 13:09:07.
