data_PCOD9219260
_publ_section_title
;
Structure prediction by ZEFSAII (Michael W. Deem and Ramdas Pophale) SiO2 
 PCOD9219260
Probable space group: C 2/M
;
_chemical_formula_sum "Si O2"
_cell_formula_units_Z 64
_cell_length_a 10.051857
_cell_length_b 28.483730
_cell_length_c 17.244543
_cell_angle_alpha 90.000000
_cell_angle_beta 53.535758
_cell_angle_gamma 90.000000
_cell_volume 3970.763335
_symmetry_space_group_name_H-M "C 2/M"
_symmetry_group_IT_number 12
_symmetry_cell_setting 'monoclinic'
loop_
_space_group_symop_operation_xyz
x,y,z
-x,y,-z
-x,-y,-z
x,-y,z
1/2+x,1/2+y,z
1/2-x,1/2+y,-z
1/2-x,1/2-y,-z
1/2+x,1/2-y,z
loop_
_atom_site_type_symbol
_atom_site_label
_atom_site_fract_x
_atom_site_fract_y
_atom_site_fract_z
Si Si1 0.816041 0.057018 0.586061
Si Si2 0.446944 0.698110 0.930065
Si Si3 0.410730 0.398730 0.876297
Si Si4 0.406105 0.901402 0.900863
Si Si5 0.745740 0.444500 0.804355
Si Si6 0.748912 0.944789 0.788302
Si Si7 0.947996 0.698621 0.929317
Si Si8 0.011534 0.556956 0.584414
O O1 0.775937 0.068537 0.689056
O O2 0.672931 0.073184 0.576574
O O3 0.000000 0.072968 0.500000
O O4 0.815390 0.000000 0.582381
O O5 0.479437 0.654269 0.863037
O O6 0.514285 0.749699 0.883693
O O7 0.500000 0.687164 0.000000
O O8 0.249562 0.702005 0.002795
O O9 0.554428 0.431815 0.859775
O O10 0.360222 0.414635 0.808107
O O11 0.243199 0.401874 0.985465
O O12 0.326828 0.916917 0.847478
O O13 0.555852 0.935340 0.871940
O O14 0.483851 0.848893 0.870602
O O15 0.766067 0.500000 0.811644
O O16 0.848897 0.432271 0.691204
O O17 0.787537 0.000000 0.784537
O O18 0.000000 0.690432 0.000000
O O19 0.022013 0.500000 0.577533
O O20 0.000000 0.573982 0.500000
#
# Coordination Sequence:
#
# PCOD9219260 Si02
#       8
#     8   8   8   8   8   8   8   8
#     4   9  18  33  52  70  90 120 160 211 260 286
#     4   9  17  32  49  68  92 121 164 215 253 278
#     4  11  22  32  47  70 100 139 173 197 231 286
#     4  11  20  34  49  68 100 137 171 201 237 284
#     4  11  22  34  47  69 102 137 171 202 234 283
#     4  11  22  34  47  69 102 135 169 204 234 281
#     4   9  17  30  51  70  88 121 164 211 257 284
#     4   9  18  33  52  70  90 120 161 211 257 287
#
# _framework density 16.117806999999999
#
# number of rings (size 3 to 8) (size 9 to 14) (size 15 to 20)
#    0.000    2.000    1.250    4.500    1.750    3.000 
#    0.000    0.000    0.000    0.000    0.000    0.000 
#    0.000    6.000    0.000    0.000    0.000    0.000 
#
# Total GULP energy -178305.715192 kJ/mol
# GULP energy per Si atom -5572.053600 kJ/mol
# Density = 1.608112 g / cm^3
# Si number density = 16.117807 Si / 1000 Ang^3
#
#
#
# Elastic Constant Matrix: (Units=GPa)
#
#
# Indices 1 2 3 4 5 6 
#
# 1 115.6698 33.6755 32.3723 0.0000 23.3811 0.0000
# 2 33.6755 71.0384 40.0435 0.0000 17.3793 0.0000
# 3 32.3723 40.0435 60.8312 0.0000 13.7185 0.0000
# 4 0.0000 0.0000 0.0000 -2.1245 0.0000 4.9478
# 5 23.3811 17.3793 13.7185 0.0000 30.2719 0.0000
# 6 0.0000 0.0000 0.0000 4.9478 0.0000 22.8163
#
#
#
# Elastic Compliance Matrix: (Units=1/GPa)
#
#
# Indices 1 2 3 4 5 6 
#
# 1 0.011413 -0.002012 -0.003365 0.000000 -0.006135 0.000000
# 2 -0.002012 0.024100 -0.013392 0.000000 -0.006212 0.000000
# 3 -0.003365 -0.013392 0.027540 0.000000 -0.002193 0.000000
# 4 0.000000 0.000000 0.000000 -0.312745 0.000000 0.067820
# 5 -0.006135 -0.006212 -0.002193 0.000000 0.042332 0.000000
# 6 0.000000 0.000000 0.000000 0.067820 0.000000 0.029121
#
#
# Mechanical properties :
#
#
# Convention : Reuss Voigt Hill
#
# Bulk Modulus (GPa) = 39.19610 51.08020 45.13815
# Shear Modulus (GPa) = -37.82341 19.62261 -9.10040
#
# Velocity S-wave (km/s) = -4.84951 3.49298 -2.37875
# Velocity P-wave (km/s) = 2.64306 6.93026 4.53005
#
# Compressibility (1/GPa) = 0.02551274
#
# Stress axis : x y z
#
# Youngs Moduli (GPa) = 87.61849 41.49416 36.31071
#
# Poissons Ratio (x) = 0.08351 0.12220
# Poissons Ratio (y) = 0.17633 0.48628
# Poissons Ratio (z) = 0.29487 0.55570
#
# Static dielectric constant tensor:
#      x y z
#    x 1.543540 0.000000 -0.003730 
#    y 0.000000 1.593460 0.000000 
#    z -0.003730 0.000000 1.529600 
# 
# From -- ./inp_files/200926.got.cif
#   From: 2010.05.17/outbox.cif.g08.bks.cpg/sg12_101_cif.got.tgz:200926.got - 2010.06.03 13:09:07.
