data_PCOD9219811
_publ_section_title
;
Structure prediction by ZEFSAII (Michael W. Deem and Ramdas Pophale) SiO2 
 PCOD9219811
Probable space group: C 2/M
;
_chemical_formula_sum "Si O2"
_cell_formula_units_Z 50
_cell_length_a 25.004263
_cell_length_b 7.460682
_cell_length_c 12.654523
_cell_angle_alpha 90.000000
_cell_angle_beta 119.800753
_cell_angle_gamma 90.000000
_cell_volume 2048.507011
_symmetry_space_group_name_H-M "C 2/M"
_symmetry_group_IT_number 12
_symmetry_cell_setting 'monoclinic'
loop_
_space_group_symop_operation_xyz
x,y,z
-x,y,-z
-x,-y,-z
x,-y,z
1/2+x,1/2+y,z
1/2-x,1/2+y,-z
1/2-x,1/2-y,-z
1/2+x,1/2-y,z
loop_
_atom_site_type_symbol
_atom_site_label
_atom_site_fract_x
_atom_site_fract_y
_atom_site_fract_z
Si Si1 0.288353 0.297322 0.362688
Si Si2 0.602545 0.781378 0.942229
Si Si3 0.845076 0.719534 0.784881
Si Si4 0.424166 0.796934 0.508464
Si Si5 0.000000 0.000000 0.500000
Si Si6 0.465631 0.781950 0.777257
Si Si7 0.804274 0.286604 0.136871
O O1 0.290812 0.500000 0.405015
O O2 0.221164 0.218910 0.322426
O O3 0.351258 0.206140 0.459747
O O4 0.291628 0.297813 0.237741
O O5 0.531896 0.722769 0.884340
O O6 0.634315 0.726115 0.864408
O O7 0.602346 0.000000 0.942473
O O8 0.643080 0.725575 0.082378
O O9 0.843074 0.500000 0.780945
O O10 0.905196 0.778114 0.779983
O O11 0.446274 0.657426 0.444203
O O12 0.458387 0.732124 0.648120
O O13 0.440331 0.000000 0.499029
O O14 0.465044 0.000000 0.781208
O O15 0.808883 0.500000 0.159862
O O16 0.750000 0.250000 0.000000
#
# Coordination Sequence:
#
# PCOD9219811 Si02
#       7
#     8   8   8   8   2   8   8
#     4  11  22  39  61  93 131 171 215 266 325 386
#     4   9  17  31  55  88 121 159 209 267 325 387
#     4   9  17  33  59  90 127 167 213 266 320 386
#     4  11  25  44  67  98 131 171 217 263 323 389
#     4  12  26  48  68  94 134 168 208 272 326 388
#     4   9  19  35  60  92 125 166 217 267 322 385
#     4  11  21  35  56  87 124 165 213 268 329 393
#
# _framework density 24.40802
#
# number of rings (size 3 to 8) (size 9 to 14) (size 15 to 20)
#    0.000    1.920    2.400    1.680    2.240    2.560 
#    0.000    0.000    3.520    0.000    0.000    2.240 
#    0.000    0.000    0.000    0.000    0.000    0.000 
#
# Total GULP energy -139600.185636 kJ/mol
# GULP energy per Si atom -5584.007425 kJ/mol
# Density = 2.435247 g / cm^3
# Si number density = 24.408020 Si / 1000 Ang^3
#
#
#
# Elastic Constant Matrix: (Units=GPa)
#
#
# Indices 1 2 3 4 5 6 
#
# 1 137.3971 12.1723 0.4803 0.0000 33.6545 0.0000
# 2 12.1723 96.7514 7.4475 0.0000 1.8313 0.0000
# 3 0.4803 7.4475 42.9514 0.0000 26.2246 0.0000
# 4 0.0000 0.0000 0.0000 35.8572 0.0000 16.2655
# 5 33.6545 1.8313 26.2246 0.0000 43.7040 0.0000
# 6 0.0000 0.0000 0.0000 16.2655 0.0000 8.9424
#
#
#
# Elastic Compliance Matrix: (Units=1/GPa)
#
#
# Indices 1 2 3 4 5 6 
#
# 1 0.010557 -0.001704 0.008045 0.000000 -0.012885 0.000000
# 2 -0.001704 0.010780 -0.003749 0.000000 0.003110 0.000000
# 3 0.008045 -0.003749 0.043446 0.000000 -0.032108 0.000000
# 4 0.000000 0.000000 0.000000 0.159443 0.000000 -0.290013
# 5 -0.012885 0.003110 -0.032108 0.000000 0.051940 0.000000
# 6 0.000000 0.000000 0.000000 -0.290013 0.000000 0.639332
#
#
# Mechanical properties :
#
#
# Convention : Reuss Voigt Hill
#
# Bulk Modulus (GPa) = 14.29225 35.25557 24.77391
# Shear Modulus (GPa) = 5.35541 34.83405 20.09473
#
# Velocity S-wave (km/s) = 1.48286 3.78187 2.87240
# Velocity P-wave (km/s) = 2.96650 5.79186 4.60140
#
# Compressibility (1/GPa) = 0.06996798
#
# Stress axis : x y z
#
# Youngs Moduli (GPa) = 94.72230 92.76614 23.01709
#
# Poissons Ratio (x) = 0.15803 -0.18517
# Poissons Ratio (y) = 0.16136 0.08628
# Poissons Ratio (z) = -0.76202 0.34775
#
# Static dielectric constant tensor:
#      x y z
#    x 1.974760 0.000000 -0.012240 
#    y 0.000000 1.926920 0.000000 
#    z -0.012240 0.000000 1.922180 
# 
# From -- ./inp_files/238002.got.cif
#   From: 2010.05.17/outbox.cif.g08.bks.cpg/sg12_120_cif.got.tgz:238002.got - 2010.06.03 13:09:07.
