data_PCOD9219411
_publ_section_title
;
Structure prediction by ZEFSAII (Michael W. Deem and Ramdas Pophale) SiO2 
 PCOD9219411
Probable space group: C 2/M
;
_chemical_formula_sum "Si O2"
_cell_formula_units_Z 40
_cell_length_a 13.233649
_cell_length_b 18.581381
_cell_length_c 10.424022
_cell_angle_alpha 90.000000
_cell_angle_beta 50.159632
_cell_angle_gamma 90.000000
_cell_volume 1968.155099
_symmetry_space_group_name_H-M "C 2/M"
_symmetry_group_IT_number 12
_symmetry_cell_setting 'monoclinic'
loop_
_space_group_symop_operation_xyz
x,y,z
-x,y,-z
-x,-y,-z
x,-y,z
1/2+x,1/2+y,z
1/2-x,1/2+y,-z
1/2-x,1/2-y,-z
1/2+x,1/2-y,z
loop_
_atom_site_type_symbol
_atom_site_label
_atom_site_fract_x
_atom_site_fract_y
_atom_site_fract_z
Si Si1 0.120075 0.000000 0.232743
Si Si2 0.186509 0.841102 0.094548
Si Si3 0.032546 0.711363 0.122983
Si Si4 0.224588 0.347195 0.518313
Si Si5 0.306784 0.500000 0.533249
Si Si6 0.148124 0.754566 0.387885
O O1 0.154347 0.075346 0.136704
O O2 0.195515 0.000000 0.309299
O O3 0.962755 0.000000 0.379111
O O4 0.081263 0.794242 0.099699
O O5 0.185939 0.798717 0.231866
O O6 0.338430 0.831176 0.930392
O O7 0.907065 0.684291 0.306076
O O8 0.000000 0.697427 0.000000
O O9 0.238284 0.430869 0.527283
O O10 0.230631 0.313442 0.371379
O O11 0.341492 0.312765 0.506763
O O12 0.000000 0.729041 0.500000
#
# Coordination Sequence:
#
# PCOD9219411 Si02
#       6
#     4   8   8   8   4   8
#     4  11  22  37  58  87 121 149 191 251 294 345
#     4  11  23  38  62  88 117 157 195 238 297 346
#     4  11  22  39  60  87 117 157 199 235 287 356
#     4  11  23  35  62  89 119 152 198 247 287 348
#     4  11  22  35  56  93 117 152 193 246 303 339
#     4  11  20  37  61  86 117 156 193 244 285 346
#
# _framework density 20.323602999999999
#
# number of rings (size 3 to 8) (size 9 to 14) (size 15 to 20)
#    0.000    1.000    6.000    1.200    2.800    0.800 
#    0.000    3.000    0.000    1.200    0.000    0.000 
#    0.000    0.000    0.000    0.000    0.000    0.000 
#
# Total GULP energy -111597.357891 kJ/mol
# GULP energy per Si atom -5579.867895 kJ/mol
# Density = 2.027735 g / cm^3
# Si number density = 20.323603 Si / 1000 Ang^3
#
#
#
# Elastic Constant Matrix: (Units=GPa)
#
#
# Indices 1 2 3 4 5 6 
#
# 1 71.8058 28.2473 6.3482 0.0000 -1.7804 0.0000
# 2 28.2473 183.4323 21.5836 0.0000 -4.7745 0.0000
# 3 6.3482 21.5836 43.0345 0.0000 -8.1568 0.0000
# 4 0.0000 0.0000 0.0000 23.8006 0.0000 -0.2303
# 5 -1.7804 -4.7745 -8.1568 0.0000 18.4001 0.0000
# 6 0.0000 0.0000 0.0000 -0.2303 0.0000 23.5554
#
#
#
# Elastic Compliance Matrix: (Units=1/GPa)
#
#
# Indices 1 2 3 4 5 6 
#
# 1 0.014877 -0.002159 -0.001032 0.000000 0.000422 0.000000
# 2 -0.002159 0.006108 -0.002712 0.000000 0.000174 0.000000
# 3 -0.001032 -0.002712 0.026854 0.000000 0.011101 0.000000
# 4 0.000000 0.000000 0.000000 0.042020 0.000000 0.000411
# 5 0.000422 0.000174 0.011101 0.000000 0.059354 0.000000
# 6 0.000000 0.000000 0.000000 0.000411 0.000000 0.042457
#
#
# Mechanical properties :
#
#
# Convention : Reuss Voigt Hill
#
# Bulk Modulus (GPa) = 27.75195 45.62564 36.68879
# Shear Modulus (GPa) = 23.20336 29.29077 26.24707
#
# Velocity S-wave (km/s) = 3.38256 3.80046 3.59758
# Velocity P-wave (km/s) = 5.37962 6.46191 5.94544
#
# Compressibility (1/GPa) = 0.03603350
#
# Stress axis : x y z
#
# Youngs Moduli (GPa) = 67.21648 163.72977 37.23902
#
# Poissons Ratio (x) = 0.35342 0.03843
# Poissons Ratio (y) = 0.14509 0.10099
# Poissons Ratio (z) = 0.06937 0.44401
#
# Static dielectric constant tensor:
#      x y z
#    x 1.749960 0.000000 0.006790 
#    y 0.000000 1.703770 0.000000 
#    z 0.006790 0.000000 1.807040 
# 
# From -- ./inp_files/144674.got.cif
#   From: 2010.05.17/outbox.cif.g08.bks.cpg/sg12_73_cif.got.tgz:144674.got - 2010.06.03 13:09:07.
