data_PCOD9219256
_publ_section_title
;
Structure prediction by ZEFSAII (Michael W. Deem and Ramdas Pophale) SiO2 
 PCOD9219256
Probable space group: C 2/M
;
_chemical_formula_sum "Si O2"
_cell_formula_units_Z 56
_cell_length_a 24.493487
_cell_length_b 7.891921
_cell_length_c 19.918582
_cell_angle_alpha 90.000000
_cell_angle_beta 46.755522
_cell_angle_gamma 90.000000
_cell_volume 2804.682878
_symmetry_space_group_name_H-M "C 2/M"
_symmetry_group_IT_number 12
_symmetry_cell_setting 'monoclinic'
loop_
_space_group_symop_operation_xyz
x,y,z
-x,y,-z
-x,-y,-z
x,-y,z
1/2+x,1/2+y,z
1/2-x,1/2+y,-z
1/2-x,1/2-y,-z
1/2+x,1/2-y,z
loop_
_atom_site_type_symbol
_atom_site_label
_atom_site_fract_x
_atom_site_fract_y
_atom_site_fract_z
Si Si1 0.434076 0.793198 0.185702
Si Si2 0.548057 0.794044 0.673266
Si Si3 0.273464 0.199575 0.278168
Si Si4 0.598649 0.798523 0.037367
Si Si5 0.880925 0.292218 0.827527
Si Si6 0.248187 0.197119 0.845910
Si Si7 0.197984 0.296886 0.480572
O O1 0.432981 0.747527 0.265648
O O2 0.358344 0.731175 0.215001
O O3 0.515080 0.735165 0.090280
O O4 0.431364 0.000000 0.184601
O O5 0.462840 0.740242 0.731372
O O6 0.614071 0.735471 0.569000
O O7 0.548559 0.000000 0.671342
O O8 0.233930 0.279680 0.247217
O O9 0.231491 0.226235 0.383690
O O10 0.278090 0.000000 0.260855
O O11 0.622169 0.736615 0.092034
O O12 0.589998 0.000000 0.051282
O O13 0.665804 0.767859 0.930185
O O14 0.879709 0.500000 0.827932
O O15 0.811973 0.229313 0.841044
O O16 0.243607 0.000000 0.865478
O O17 0.196830 0.500000 0.476023
O O18 0.250000 0.250000 0.500000
#
# Coordination Sequence:
#
# PCOD9219256 Si02
#       7
#     8   8   8   8   8   8   8
#     4   8  15  30  53  78 100 130 177 218 251 304
#     4   8  14  29  54  81 102 129 173 219 252 299
#     4  11  22  37  54  75 106 144 181 216 257 313
#     4   9  17  33  58  80  98 132 180 223 259 307
#     4   8  16  32  56  79 102 135 180 220 251 303
#     4  11  22  35  50  76 110 141 173 218 269 312
#     4  11  20  33  57  85 110 135 170 215 264 314
#
# _framework density 19.966605999999999
#
# number of rings (size 3 to 8) (size 9 to 14) (size 15 to 20)
#    0.000    2.571    1.429    3.429    0.000    0.571 
#    0.000    5.714    0.000    7.714    0.000    0.000 
#    0.000    0.000    0.000    0.000    0.000    0.000 
#
# Total GULP energy -156185.830622 kJ/mol
# GULP energy per Si atom -5578.065379 kJ/mol
# Density = 1.992116 g / cm^3
# Si number density = 19.966606 Si / 1000 Ang^3
#
#
#
# Elastic Constant Matrix: (Units=GPa)
#
#
# Indices 1 2 3 4 5 6 
#
# 1 28.2208 0.9685 25.2376 -0.0052 -2.4688 -0.0002
# 2 0.9685 17.8682 -11.2075 0.0045 -3.7676 -0.0159
# 3 25.2376 -11.2075 87.7268 -0.0031 -9.3138 -0.0033
# 4 -0.0052 0.0045 -0.0031 23.6254 -0.0028 2.3011
# 5 -2.4688 -3.7676 -9.3138 -0.0028 21.8154 0.0059
# 6 -0.0002 -0.0159 -0.0033 2.3011 0.0059 14.6132
#
#
#
# Elastic Compliance Matrix: (Units=1/GPa)
#
#
# Indices 1 2 3 4 5 6 
#
# 1 0.050561 -0.014061 -0.016751 0.000013 -0.003858 -0.000019
# 2 -0.014061 0.069457 0.014689 -0.000020 0.016675 0.000075
# 3 -0.016751 0.014689 0.019025 -0.000005 0.008764 0.000017
# 4 0.000013 -0.000020 -0.000005 0.042987 0.000003 -0.006769
# 5 -0.003858 0.016675 0.008764 0.000003 0.052024 -0.000002
# 6 -0.000019 0.000075 0.000017 -0.006769 -0.000002 0.069497
#
#
# Mechanical properties :
#
#
# Convention : Reuss Voigt Hill
#
# Bulk Modulus (GPa) = 9.36368 18.20143 13.78256
# Shear Modulus (GPa) = 13.46270 19.93193 16.69732
#
# Velocity S-wave (km/s) = 2.59947 3.16296 2.89496
# Velocity P-wave (km/s) = 3.70264 4.74076 4.25349
#
# Compressibility (1/GPa) = 0.10679564
#
# Stress axis : x y z
#
# Youngs Moduli (GPa) = 19.77824 14.39740 52.56199
#
# Poissons Ratio (x) = 0.20244 0.88049
# Poissons Ratio (y) = 0.27810 -0.77208
# Poissons Ratio (z) = 0.33131 -0.21148
#
# Static dielectric constant tensor:
#      x y z
#    x 1.726540 0.000000 -0.014400 
#    y 0.000000 1.749680 0.000000 
#    z -0.014400 0.000000 1.715210 
# 
# From -- ./inp_files/288155.got.cif
#   From: 2010.05.17/outbox.cif.g08.bks.cpg/sg12_145_cif.got.tgz:288155.got - 2010.06.03 13:09:07.
