data_PCOD9219082
_publ_section_title
;
Structure prediction by ZEFSAII (Michael W. Deem and Ramdas Pophale) SiO2 
 PCOD9219082
Probable space group: C 2/M
;
_chemical_formula_sum "Si O2"
_cell_formula_units_Z 56
_cell_length_a 9.977209
_cell_length_b 18.150781
_cell_length_c 21.283267
_cell_angle_alpha 90.000000
_cell_angle_beta 129.319674
_cell_angle_gamma 90.000000
_cell_volume 2981.754416
_symmetry_space_group_name_H-M "C 2/M"
_symmetry_group_IT_number 12
_symmetry_cell_setting 'monoclinic'
loop_
_space_group_symop_operation_xyz
x,y,z
-x,y,-z
-x,-y,-z
x,-y,z
1/2+x,1/2+y,z
1/2-x,1/2+y,-z
1/2-x,1/2-y,-z
1/2+x,1/2-y,z
loop_
_atom_site_type_symbol
_atom_site_label
_atom_site_fract_x
_atom_site_fract_y
_atom_site_fract_z
Si Si1 0.102458 0.322896 0.752801
Si Si2 0.253722 0.191415 0.588495
Si Si3 0.652881 0.352361 0.761268
Si Si4 0.415208 0.337484 0.043318
Si Si5 0.549398 0.177448 0.883978
Si Si6 0.583780 0.415621 0.198992
Si Si7 0.054229 0.829340 0.414498
O O1 0.131415 0.236046 0.751411
O O2 0.109856 0.332118 0.829993
O O3 0.243259 0.367496 0.755505
O O4 0.912561 0.344393 0.672371
O O5 0.177855 0.143444 0.508089
O O6 0.328134 0.268452 0.584738
O O7 0.101527 0.207711 0.592365
O O8 0.548929 0.384045 0.789159
O O9 0.548385 0.378016 0.667376
O O10 0.860447 0.360677 0.831168
O O11 0.459215 0.263912 0.097567
O O12 0.496143 0.404738 0.104964
O O13 0.500000 0.327156 0.000000
O O14 0.209351 0.348664 0.974459
O O15 0.622428 0.500000 0.223850
#
# Coordination Sequence:
#
# PCOD9219082 Si02
#       7
#     8   8   8   8   8   8   8
#     4  11  19  38  62  88 116 163 208 241 292 365
#     4   9  18  30  52  91 125 155 194 252 302 348
#     4  11  20  37  62  89 120 161 204 246 299 360
#     4  11  22  37  60  89 123 154 204 254 305 353
#     4  11  20  35  62  94 111 152 210 257 283 355
#     4  12  27  43  59  89 130 161 195 254 320 363
#     4   9  18  30  52  89 129 153 191 254 307 342
#
# _framework density 18.780888999999998
#
# number of rings (size 3 to 8) (size 9 to 14) (size 15 to 20)
#    0.000    1.429    5.714    0.000    8.000    0.286 
#    0.000    2.143    0.000    1.714    0.000    2.000 
#    0.000    0.000    0.000    0.000    0.000    0.000 
#
# Total GULP energy -155922.265865 kJ/mol
# GULP energy per Si atom -5568.652352 kJ/mol
# Density = 1.873814 g / cm^3
# Si number density = 18.780889 Si / 1000 Ang^3
#
#
#
# Elastic Constant Matrix: (Units=GPa)
#
#
# Indices 1 2 3 4 5 6 
#
# 1 86.3105 6.9449 8.4268 0.0000 -0.0309 0.0000
# 2 6.9449 39.9433 -9.9358 0.0000 -1.0515 0.0000
# 3 8.4268 -9.9358 91.7177 0.0000 11.7956 0.0000
# 4 0.0000 0.0000 0.0000 -0.3890 0.0000 2.2942
# 5 -0.0309 -1.0515 11.7956 0.0000 36.8976 0.0000
# 6 0.0000 0.0000 0.0000 2.2942 0.0000 8.8719
#
#
#
# Elastic Compliance Matrix: (Units=1/GPa)
#
#
# Indices 1 2 3 4 5 6 
#
# 1 0.011918 -0.002412 -0.001406 0.000000 0.000391 0.000000
# 2 -0.002412 0.026218 0.003093 0.000000 -0.000244 0.000000
# 3 -0.001406 0.003093 0.011843 0.000000 -0.003699 0.000000
# 4 0.000000 0.000000 0.000000 -1.018046 0.000000 0.263257
# 5 0.000391 -0.000244 -0.003699 0.000000 0.028278 0.000000
# 6 0.000000 0.000000 0.000000 0.263257 0.000000 0.044639
#
#
# Mechanical properties :
#
#
# Convention : Reuss Voigt Hill
#
# Bulk Modulus (GPa) = 20.60652 25.42702 23.01677
# Shear Modulus (GPa) = -5.69785 23.24515 8.77365
#
# Velocity S-wave (km/s) = -1.74369 3.52192 2.16373
# Velocity P-wave (km/s) = 2.63476 5.48696 4.30399
#
# Compressibility (1/GPa) = 0.04852832
#
# Stress axis : x y z
#
# Youngs Moduli (GPa) = 83.90963 38.14204 84.43770
#
# Poissons Ratio (x) = 0.09199 0.11876
# Poissons Ratio (y) = 0.20236 -0.26117
# Poissons Ratio (z) = 0.11802 -0.11798
#
# Static dielectric constant tensor:
#      x y z
#    x 1.655420 0.000000 0.010840 
#    y 0.000000 1.630720 0.000000 
#    z 0.010840 0.000000 1.754180 
# 
# From -- ./inp_files/301460.got.cif
#   From: 2010.05.17/outbox.cif.g08.bks.cpg/sg12_151_cif.got.tgz:301460.got - 2010.06.03 13:09:07.
