data_PCOD9219533
_publ_section_title
;
Structure prediction by ZEFSAII (Michael W. Deem and Ramdas Pophale) SiO2 
 PCOD9219533
Probable space group: C 2/M
;
_chemical_formula_sum "Si O2"
_cell_formula_units_Z 40
_cell_length_a 22.170349
_cell_length_b 18.876353
_cell_length_c 15.898392
_cell_angle_alpha 90.000000
_cell_angle_beta 17.923805
_cell_angle_gamma 90.000000
_cell_volume 2047.597744
_symmetry_space_group_name_H-M "C 2/M"
_symmetry_group_IT_number 12
_symmetry_cell_setting 'monoclinic'
loop_
_space_group_symop_operation_xyz
x,y,z
-x,y,-z
-x,-y,-z
x,-y,z
1/2+x,1/2+y,z
1/2-x,1/2+y,-z
1/2-x,1/2-y,-z
1/2+x,1/2-y,z
loop_
_atom_site_type_symbol
_atom_site_label
_atom_site_fract_x
_atom_site_fract_y
_atom_site_fract_z
Si Si1 0.977798 0.227200 0.705414
Si Si2 0.943654 0.500000 0.726724
Si Si3 0.048296 0.368568 0.705005
Si Si4 0.512651 0.641690 0.823449
Si Si5 0.862592 0.710019 0.101532
Si Si6 0.716755 0.500000 0.863706
O O1 0.073155 0.297659 0.617578
O O2 0.988315 0.163983 0.758580
O O3 0.130043 0.210153 0.429120
O O4 0.750000 0.250000 0.000000
O O5 0.968140 0.431605 0.753693
O O6 0.109721 0.500000 0.434341
O O7 0.760219 0.500000 0.906727
O O8 0.264098 0.379652 0.455254
O O9 0.908470 0.345595 0.966901
O O10 0.437213 0.712275 0.971744
O O11 0.390902 0.573482 0.010027
O O12 0.000000 0.693090 0.000000
#
# Coordination Sequence:
#
# PCOD9219533 Si02
#       6
#     8   4   8   8   8   4
#     4  11  22  38  63  95 131 164 211 264 311 368
#     4  11  25  43  59  92 128 168 211 268 323 384
#     4  11  22  39  65  93 126 165 217 259 309 382
#     4  11  22  37  63  95 122 167 213 261 310 382
#     4  11  20  40  66  93 128 166 209 257 314 373
#     4  11  25  41  62  87 130 165 207 268 339 371
#
# _framework density 19.535087999999998
#
# number of rings (size 3 to 8) (size 9 to 14) (size 15 to 20)
#    0.000    1.000    4.000    4.200    0.000    5.600 
#    0.000    1.500    0.000    2.400    0.000    0.000 
#    0.000    0.000    0.000    0.000    0.000    0.000 
#
# Total GULP energy -111562.470307 kJ/mol
# GULP energy per Si atom -5578.123515 kJ/mol
# Density = 1.949062 g / cm^3
# Si number density = 19.535088 Si / 1000 Ang^3
#
#
#
# Elastic Constant Matrix: (Units=GPa)
#
#
# Indices 1 2 3 4 5 6 
#
# 1 85.2631 23.6444 42.2719 0.0073 11.4857 -0.0057
# 2 23.6444 73.1244 1.6626 0.0027 17.5208 -0.0097
# 3 42.2719 1.6626 108.3795 -0.0032 10.6853 0.0043
# 4 0.0073 0.0027 -0.0032 21.5591 -0.0077 -7.2181
# 5 11.4857 17.5208 10.6853 -0.0077 35.5409 0.0014
# 6 -0.0057 -0.0097 0.0043 -7.2181 0.0014 33.2932
#
#
#
# Elastic Compliance Matrix: (Units=1/GPa)
#
#
# Indices 1 2 3 4 5 6 
#
# 1 0.016279 -0.004885 -0.006176 -0.000006 -0.000996 0.000001
# 2 -0.004885 0.017002 0.002386 -0.000002 -0.007521 0.000004
# 3 -0.006176 0.002386 0.011870 0.000002 -0.002749 -0.000001
# 4 -0.000006 -0.000002 0.000002 0.050015 0.000012 0.010843
# 5 -0.000996 -0.007521 -0.002749 0.000012 0.032992 -0.000001
# 6 0.000001 0.000004 -0.000001 0.010843 -0.000001 0.032387
#
#
# Mechanical properties :
#
#
# Convention : Reuss Voigt Hill
#
# Bulk Modulus (GPa) = 35.96925 44.65829 40.31377
# Shear Modulus (GPa) = 26.71458 31.35785 29.03621
#
# Velocity S-wave (km/s) = 3.70201 4.01085 3.85952
# Velocity P-wave (km/s) = 6.06018 6.66028 6.36731
#
# Compressibility (1/GPa) = 0.02780153
#
# Stress axis : x y z
#
# Youngs Moduli (GPa) = 61.42765 58.81491 84.24404
#
# Poissons Ratio (x) = 0.28730 0.52032
# Poissons Ratio (y) = 0.30006 -0.20100
# Poissons Ratio (z) = 0.37940 -0.14032
#
# Static dielectric constant tensor:
#      x y z
#    x 1.748030 0.000000 -0.035440 
#    y 0.000000 1.636000 0.000000 
#    z -0.035440 0.000000 1.756280 
# 
# From -- ./inp_files/47196.got.cif
#   From: 2010.05.17/outbox.cif.g08.bks.cpg/sg12_24_cif.got.tgz:47196.got - 2010.06.03 13:09:07.
