data_PCOD9219195
_publ_section_title
;
Structure prediction by ZEFSAII (Michael W. Deem and Ramdas Pophale) SiO2 
 PCOD9219195
Probable space group: C 2/M
;
_chemical_formula_sum "Si O2"
_cell_formula_units_Z 48
_cell_length_a 24.281027
_cell_length_b 8.645988
_cell_length_c 31.369120
_cell_angle_alpha 90.000000
_cell_angle_beta 25.535435
_cell_angle_gamma 90.000000
_cell_volume 2838.775410
_symmetry_space_group_name_H-M "C 2/M"
_symmetry_group_IT_number 12
_symmetry_cell_setting 'monoclinic'
loop_
_space_group_symop_operation_xyz
x,y,z
-x,y,-z
-x,-y,-z
x,-y,z
1/2+x,1/2+y,z
1/2-x,1/2+y,-z
1/2-x,1/2-y,-z
1/2+x,1/2-y,z
loop_
_atom_site_type_symbol
_atom_site_label
_atom_site_fract_x
_atom_site_fract_y
_atom_site_fract_z
Si Si1 0.290942 0.318375 0.759064
Si Si2 0.144655 0.186557 0.106771
Si Si3 0.473300 0.679524 0.081817
Si Si4 0.733329 0.184734 0.134873
Si Si5 0.369004 0.187582 0.614581
Si Si6 0.601259 0.680521 0.768129
O O1 0.312492 0.500000 0.745977
O O2 0.140751 0.281668 0.856475
O O3 0.327021 0.241162 0.778743
O O4 0.358675 0.248144 0.670018
O O5 0.176718 0.238975 0.132056
O O6 0.004066 0.245187 0.190495
O O7 0.146248 0.000000 0.102768
O O8 0.250000 0.250000 0.000000
O O9 0.449082 0.500000 0.086173
O O10 0.463249 0.685844 0.140050
O O11 0.615332 0.723959 0.969533
O O12 0.724530 0.000000 0.137270
O O13 0.500000 0.230884 0.500000
O O14 0.243543 0.245101 0.676231
O O15 0.361238 0.000000 0.621873
O O16 0.618674 0.500000 0.744448
#
# Coordination Sequence:
#
# PCOD9219195 Si02
#       6
#     8   8   8   8   8   8
#     4  11  22  33  48  76 107 133 166 213 265 313
#     4  11  20  32  49  73 107 144 179 210 247 300
#     4   9  17  32  50  69  99 140 176 209 251 301
#     4  11  21  34  50  70 101 143 181 214 251 298
#     4   9  18  36  61  81  98 129 171 212 260 317
#     4   8  15  30  50  75 103 132 168 210 254 296
#
# _framework density 16.908698999999999
#
# number of rings (size 3 to 8) (size 9 to 14) (size 15 to 20)
#    0.000    2.167    1.667    4.000    0.000    3.667 
#    0.000    0.833    0.000    1.000    0.000    0.000 
#    0.000    0.000    0.000    0.000    0.000    0.000 
#
# Total GULP energy -133838.779052 kJ/mol
# GULP energy per Si atom -5576.615794 kJ/mol
# Density = 1.687021 g / cm^3
# Si number density = 16.908699 Si / 1000 Ang^3
#
#
#
# Elastic Constant Matrix: (Units=GPa)
#
#
# Indices 1 2 3 4 5 6 
#
# 1 113.7642 35.1133 65.1234 -0.0005 14.1336 0.0012
# 2 35.1133 36.5070 28.7795 -0.0023 3.6147 0.0036
# 3 65.1234 28.7795 118.2208 -0.0008 2.0872 0.0010
# 4 -0.0005 -0.0023 -0.0008 13.3874 -0.0015 0.0916
# 5 14.1336 3.6147 2.0872 -0.0015 10.9025 0.0009
# 6 0.0012 0.0036 0.0010 0.0916 0.0009 24.3549
#
#
#
# Elastic Compliance Matrix: (Units=1/GPa)
#
#
# Indices 1 2 3 4 5 6 
#
# 1 0.018544 -0.010076 -0.007422 -0.000004 -0.019278 0.000002
# 2 -0.010076 0.040425 -0.004299 0.000006 0.000483 -0.000005
# 3 -0.007422 -0.004299 0.013444 0.000001 0.008473 0.000000
# 4 -0.000004 0.000006 0.000001 0.074699 0.000012 -0.000281
# 5 -0.019278 0.000483 0.008473 0.000012 0.114931 -0.000004
# 6 0.000002 -0.000005 0.000000 -0.000281 -0.000004 0.041061
#
#
# Mechanical properties :
#
#
# Convention : Reuss Voigt Hill
#
# Bulk Modulus (GPa) = 34.69962 58.50273 46.60118
# Shear Modulus (GPa) = 14.03304 19.02734 16.53019
#
# Velocity S-wave (km/s) = 2.88398 3.35819 3.13007
# Velocity P-wave (km/s) = 5.62637 7.05059 6.37836
#
# Compressibility (1/GPa) = 0.02881876
#
# Stress axis : x y z
#
# Youngs Moduli (GPa) = 53.92705 24.73743 74.38259
#
# Poissons Ratio (x) = 0.24926 0.55205
# Poissons Ratio (y) = 0.54338 0.31976
# Poissons Ratio (z) = 0.40023 0.10634
#
# Static dielectric constant tensor:
#      x y z
#    x 1.585930 0.000000 -0.013420 
#    y 0.000000 1.574070 0.000000 
#    z -0.013420 0.000000 1.560880 
# 
# From -- ./inp_files/236867.got.cif
#   From: 2010.05.17/outbox.cif.g08.bks.cpg/sg12_119_cif.got.tgz:236867.got - 2010.06.03 13:09:07.
