data_PCOD9219716
_publ_section_title
;
Structure prediction by ZEFSAII (Michael W. Deem and Ramdas Pophale) SiO2 
 PCOD9219716
Probable space group: C 2/M
;
_chemical_formula_sum "Si O2"
_cell_formula_units_Z 40
_cell_length_a 31.712511
_cell_length_b 8.689097
_cell_length_c 25.452583
_cell_angle_alpha 90.000000
_cell_angle_beta 162.946164
_cell_angle_gamma 90.000000
_cell_volume 2056.861156
_symmetry_space_group_name_H-M "C 2/M"
_symmetry_group_IT_number 12
_symmetry_cell_setting 'monoclinic'
loop_
_space_group_symop_operation_xyz
x,y,z
-x,y,-z
-x,-y,-z
x,-y,z
1/2+x,1/2+y,z
1/2-x,1/2+y,-z
1/2-x,1/2-y,-z
1/2+x,1/2-y,z
loop_
_atom_site_type_symbol
_atom_site_label
_atom_site_fract_x
_atom_site_fract_y
_atom_site_fract_z
Si Si1 0.323018 0.182603 0.641874
Si Si2 0.120125 0.672833 0.874860
Si Si3 0.553308 0.682208 0.622843
Si Si4 0.124297 0.178537 0.984996
Si Si5 0.137338 0.672787 0.512686
O O1 0.250000 0.250000 0.500000
O O2 0.488782 0.234697 0.848764
O O3 0.244541 0.233968 0.602390
O O4 0.317430 0.000000 0.628507
O O5 0.150440 0.500000 0.932159
O O6 0.082483 0.793271 0.874699
O O7 0.996469 0.657058 0.685748
O O8 0.250000 0.750000 0.000000
O O9 0.500000 0.706051 0.500000
O O10 0.564144 0.500000 0.646147
O O11 0.434521 0.751698 0.521326
O O12 0.713590 0.754890 0.817915
O O13 0.125400 0.000000 0.000720
O O14 0.192954 0.500000 0.590836
#
# Coordination Sequence:
#
# PCOD9219716 Si02
#       5
#     8   8   8   8   8
#     4  12  24  39  61  93 133 170 204 250 310 379
#     4  11  21  33  56  90 126 161 201 252 310 372
#     4  11  25  45  68  92 121 163 214 265 313 364
#     4  12  24  39  62  92 127 166 206 255 310 370
#     4  11  23  39  62  93 128 166 206 254 311 371
#
# _framework density 19.447106999999999
#
# number of rings (size 3 to 8) (size 9 to 14) (size 15 to 20)
#    0.000    0.600    4.000    5.400    0.000    3.200 
#    0.000    1.000    0.000    6.000    0.000    0.000 
#    0.000    0.000    0.000    0.000    0.000    0.000 
#
# Total GULP energy -111473.926585 kJ/mol
# GULP energy per Si atom -5573.696329 kJ/mol
# Density = 1.940284 g / cm^3
# Si number density = 19.447107 Si / 1000 Ang^3
#
#
#
# Elastic Constant Matrix: (Units=GPa)
#
#
# Indices 1 2 3 4 5 6 
#
# 1 133.2164 66.4137 52.2723 0.0000 27.4870 0.0000
# 2 66.4137 164.5278 40.4303 0.0000 19.2201 0.0000
# 3 52.2723 40.4303 32.0713 0.0000 24.1623 0.0000
# 4 0.0000 0.0000 0.0000 18.6106 0.0000 4.0239
# 5 27.4870 19.2201 24.1623 0.0000 41.9982 0.0000
# 6 0.0000 0.0000 0.0000 4.0239 0.0000 29.2081
#
#
#
# Elastic Compliance Matrix: (Units=1/GPa)
#
#
# Indices 1 2 3 4 5 6 
#
# 1 0.023905 0.001127 -0.049786 0.000000 0.012482 0.000000
# 2 0.001127 0.009291 -0.017279 0.000000 0.004952 0.000000
# 3 -0.049786 -0.017279 0.182862 0.000000 -0.064712 0.000000
# 4 0.000000 0.000000 0.000000 0.055383 0.000000 -0.007630
# 5 0.012482 0.004952 -0.064712 0.000000 0.050605 0.000000
# 6 0.000000 0.000000 0.000000 -0.007630 0.000000 0.035288
#
#
# Mechanical properties :
#
#
# Convention : Reuss Voigt Hill
#
# Bulk Modulus (GPa) = 11.87923 72.00536 41.94229
# Shear Modulus (GPa) = 9.66610 29.34331 19.50470
#
# Velocity S-wave (km/s) = 2.23187 3.88864 3.17039
# Velocity P-wave (km/s) = 3.57259 7.56761 5.91744
#
# Compressibility (1/GPa) = 0.08418057
#
# Stress axis : x y z
#
# Youngs Moduli (GPa) = 41.83249 107.63192 5.46860
#
# Poissons Ratio (x) = -0.12125 0.27226
# Poissons Ratio (y) = -0.04713 0.09449
# Poissons Ratio (z) = 2.08267 1.85981
#
# Static dielectric constant tensor:
#      x y z
#    x 1.689250 0.000000 0.028720 
#    y 0.000000 1.774900 0.000000 
#    z 0.028720 0.000000 1.705700 
# 
# From -- ./inp_files/353118.got.cif
#   From: 2010.05.17/outbox.cif.g08.bks.cpg/sg12_177_cif.got.tgz:353118.got - 2010.06.03 13:09:07.
