data_PCOD9219258
_publ_section_title
;
Structure prediction by ZEFSAII (Michael W. Deem and Ramdas Pophale) SiO2 
 PCOD9219258
Probable space group: C 2/M
;
_chemical_formula_sum "Si O2"
_cell_formula_units_Z 48
_cell_length_a 9.588584
_cell_length_b 22.842206
_cell_length_c 10.701353
_cell_angle_alpha 90.000000
_cell_angle_beta 73.486356
_cell_angle_gamma 90.000000
_cell_volume 2247.178276
_symmetry_space_group_name_H-M "C 2/M"
_symmetry_group_IT_number 12
_symmetry_cell_setting 'monoclinic'
loop_
_space_group_symop_operation_xyz
x,y,z
-x,y,-z
-x,-y,-z
x,-y,z
1/2+x,1/2+y,z
1/2-x,1/2+y,-z
1/2-x,1/2-y,-z
1/2+x,1/2-y,z
loop_
_atom_site_type_symbol
_atom_site_label
_atom_site_fract_x
_atom_site_fract_y
_atom_site_fract_z
Si Si1 0.092533 0.196093 0.208923
Si Si2 0.808521 0.190007 0.430397
Si Si3 0.816062 0.626723 0.307839
Si Si4 0.892109 0.000000 0.335115
Si Si5 0.140987 0.672421 0.211792
Si Si6 0.780569 0.000000 0.639982
Si Si7 0.598905 0.400606 0.873240
O O1 0.235973 0.164494 0.222019
O O2 0.124974 0.262354 0.159261
O O3 0.977285 0.198109 0.353633
O O4 0.004830 0.153998 0.138813
O O5 0.750000 0.250000 0.500000
O O6 0.769278 0.141297 0.541650
O O7 0.720130 0.179911 0.325389
O O8 0.798305 0.558139 0.293351
O O9 0.981839 0.646596 0.272082
O O10 0.872505 0.057155 0.252359
O O11 0.793866 0.000000 0.484921
O O12 0.056895 0.000000 0.344876
O O13 0.249896 0.627099 0.116954
O O14 0.500000 0.432895 0.000000
#
# Coordination Sequence:
#
# PCOD9219258 Si02
#       7
#     8   8   8   4   8   4   8
#     4  11  21  38  61  94 128 165 213 251 312 381
#     4  11  20  33  58  93 131 172 197 243 311 385
#     4  12  22  36  59  95 137 164 201 252 318 388
#     4  11  23  45  66  94 120 167 218 255 310 387
#     4  11  23  38  60  98 130 159 214 258 316 373
#     4  11  24  39  66  96 137 160 193 261 326 391
#     4  11  25  46  68  86 119 173 225 266 306 364
#
# _framework density 21.360120999999999
#
# number of rings (size 3 to 8) (size 9 to 14) (size 15 to 20)
#    0.000    0.833    5.000    4.250    2.333    1.333 
#    0.000    3.333    0.000    1.000    0.000    0.000 
#    0.000    0.000    0.000    0.000    0.000    0.000 
#
# Total GULP energy -134181.407841 kJ/mol
# GULP energy per Si atom -5590.891993 kJ/mol
# Density = 2.131150 g / cm^3
# Si number density = 21.360121 Si / 1000 Ang^3
#
#
#
# Elastic Constant Matrix: (Units=GPa)
#
#
# Indices 1 2 3 4 5 6 
#
# 1 116.1335 33.3365 14.0390 0.0000 -19.9403 0.0000
# 2 33.3365 145.4838 9.1766 0.0000 -10.6364 0.0000
# 3 14.0390 9.1766 47.3526 0.0000 -18.7216 0.0000
# 4 0.0000 0.0000 0.0000 1.2729 0.0000 -7.0395
# 5 -19.9403 -10.6364 -18.7216 0.0000 21.2723 0.0000
# 6 0.0000 0.0000 0.0000 -7.0395 0.0000 23.0962
#
#
#
# Elastic Compliance Matrix: (Units=1/GPa)
#
#
# Indices 1 2 3 4 5 6 
#
# 1 0.010735 -0.001788 0.001210 0.000000 0.010233 0.000000
# 2 -0.001788 0.007432 -0.000159 0.000000 0.001900 0.000000
# 3 0.001210 -0.000159 0.032524 0.000000 0.029679 0.000000
# 4 0.000000 0.000000 0.000000 -1.145891 0.000000 -0.349256
# 5 0.010233 0.001900 0.029679 0.000000 0.083673 0.000000
# 6 0.000000 0.000000 0.000000 -0.349256 0.000000 -0.063153
#
#
# Mechanical properties :
#
#
# Convention : Reuss Voigt Hill
#
# Bulk Modulus (GPa) = 20.31801 46.89710 33.60755
# Shear Modulus (GPa) = -4.73126 25.95612 10.61243
#
# Velocity S-wave (km/s) = -1.48990 3.48971 2.23139
# Velocity P-wave (km/s) = 2.56379 6.18389 4.73358
#
# Compressibility (1/GPa) = 0.04921742
#
# Stress axis : x y z
#
# Youngs Moduli (GPa) = 93.15439 134.54836 30.74617
#
# Poissons Ratio (x) = 0.24057 -0.03720
# Poissons Ratio (y) = 0.16656 0.00489
# Poissons Ratio (z) = -0.11270 0.02138
#
# Static dielectric constant tensor:
#      x y z
#    x 1.734870 0.000000 -0.011290 
#    y 0.000000 1.794760 0.000000 
#    z -0.011290 0.000000 1.856630 
# 
# From -- ./inp_files/122491.got.cif
#   From: 2010.05.17/outbox.cif.g08.bks.cpg/sg12_62_cif.got.tgz:122491.got - 2010.06.03 13:09:07.
