data_PCOD9219910
_publ_section_title
;
Structure prediction by ZEFSAII (Michael W. Deem and Ramdas Pophale) SiO2 
 PCOD9219910
Probable space group: C 2/M
;
_chemical_formula_sum "Si O2"
_cell_formula_units_Z 48
_cell_length_a 10.126168
_cell_length_b 29.353071
_cell_length_c 17.164300
_cell_angle_alpha 90.000000
_cell_angle_beta 152.443113
_cell_angle_gamma 90.000000
_cell_volume 2360.248264
_symmetry_space_group_name_H-M "C 2/M"
_symmetry_group_IT_number 12
_symmetry_cell_setting 'monoclinic'
loop_
_space_group_symop_operation_xyz
x,y,z
-x,y,-z
-x,-y,-z
x,-y,z
1/2+x,1/2+y,z
1/2-x,1/2+y,-z
1/2-x,1/2-y,-z
1/2+x,1/2-y,z
loop_
_atom_site_type_symbol
_atom_site_label
_atom_site_fract_x
_atom_site_fract_y
_atom_site_fract_z
Si Si1 0.421930 0.644982 0.140990
Si Si2 0.478592 0.050582 0.236352
Si Si3 0.461942 0.304014 0.319373
Si Si4 0.396694 0.146828 0.747503
Si Si5 0.400845 0.200569 0.298822
Si Si6 0.428760 0.550308 0.832832
O O1 0.373089 0.666369 0.199287
O O2 0.654644 0.674875 0.216356
O O3 0.537587 0.593235 0.205349
O O4 0.138202 0.645183 0.940815
O O5 0.656456 0.095080 0.307715
O O6 0.338780 0.056281 0.248775
O O7 0.609831 0.000000 0.299891
O O8 0.206715 0.050578 0.034979
O O9 0.331640 0.253462 0.248056
O O10 0.804588 0.299777 0.498450
O O11 0.365812 0.328211 0.348670
O O12 0.530140 0.174905 0.745646
O O13 0.412326 0.500000 0.787863
#
# Coordination Sequence:
#
# PCOD9219910 Si02
#       6
#     8   8   8   8   8   8
#     4  11  21  36  60  88 110 139 189 240 276 315
#     4   8  14  28  53  83 111 141 181 225 270 329
#     4  11  25  39  54  79 118 152 179 227 290 339
#     4  11  21  36  60  88 110 139 189 240 276 315
#     4  11  23  41  58  75 108 160 195 213 270 353
#     4   8  14  28  53  83 111 141 181 225 270 329
#
# _framework density 20.336842999999998
#
# number of rings (size 3 to 8) (size 9 to 14) (size 15 to 20)
#    0.000    2.000    1.667    4.000    0.000    6.667 
#    0.000    0.833    0.000   10.000    0.000    0.000 
#    0.000    0.000    0.000    0.000    0.000    0.000 
#
# Total GULP energy -134071.361045 kJ/mol
# GULP energy per Si atom -5586.306710 kJ/mol
# Density = 2.029056 g / cm^3
# Si number density = 20.336843 Si / 1000 Ang^3
#
#
#
# Elastic Constant Matrix: (Units=GPa)
#
#
# Indices 1 2 3 4 5 6 
#
# 1 84.7637 58.4552 7.5455 0.0000 2.4663 0.0000
# 2 58.4552 198.5315 13.7348 0.0000 2.6781 0.0000
# 3 7.5455 13.7348 34.1432 0.0000 6.2926 -0.0001
# 4 0.0000 0.0000 0.0000 -9.4118 0.0000 -3.3635
# 5 2.4663 2.6781 6.2926 0.0000 29.2388 0.0000
# 6 0.0000 0.0000 -0.0001 -3.3635 0.0000 5.5607
#
#
#
# Elastic Compliance Matrix: (Units=1/GPa)
#
#
# Indices 1 2 3 4 5 6 
#
# 1 0.014893 -0.004276 -0.001470 0.000000 -0.000548 0.000000
# 2 -0.004276 0.006409 -0.001657 0.000000 0.000130 0.000000
# 3 -0.001470 -0.001657 0.031478 0.000000 -0.006499 0.000000
# 4 0.000000 0.000000 0.000000 -0.087365 0.000000 -0.052844
# 5 -0.000548 0.000130 -0.006499 0.000000 0.035634 0.000000
# 6 0.000000 0.000000 0.000000 -0.052844 0.000000 0.147870
#
#
# Mechanical properties :
#
#
# Convention : Reuss Voigt Hill
#
# Bulk Modulus (GPa) = 26.33446 52.98992 39.66219
# Shear Modulus (GPa) = 28.34743 20.92441 24.63592
#
# Velocity S-wave (km/s) = 3.73754 3.21111 3.48428
# Velocity P-wave (km/s) = 5.62164 6.31356 5.97762
#
# Compressibility (1/GPa) = 0.03797306
#
# Stress axis : x y z
#
# Youngs Moduli (GPa) = 67.14485 156.03333 31.76857
#
# Poissons Ratio (x) = 0.66720 0.04671
# Poissons Ratio (y) = 0.28711 0.05265
# Poissons Ratio (z) = 0.09871 0.25857
#
# Static dielectric constant tensor:
#      x y z
#    x 1.665620 0.000000 0.001120 
#    y 0.000000 1.741210 0.000000 
#    z 0.001120 0.000000 1.747220 
# 
# From -- ./inp_files/80836.got.cif
#   From: 2010.05.17/outbox.cif.g08.bks.cpg/sg12_41_cif.got.tgz:80836.got - 2010.06.03 13:09:07.
