data_PCOD9219088
_publ_section_title
;
Structure prediction by ZEFSAII (Michael W. Deem and Ramdas Pophale) SiO2 
 PCOD9219088
Probable space group: C 2/M
;
_chemical_formula_sum "Si O2"
_cell_formula_units_Z 44
_cell_length_a 16.364483
_cell_length_b 17.578931
_cell_length_c 26.024787
_cell_angle_alpha 90.000000
_cell_angle_beta 19.703118
_cell_angle_gamma 90.000000
_cell_volume 2524.065262
_symmetry_space_group_name_H-M "C 2/M"
_symmetry_group_IT_number 12
_symmetry_cell_setting 'monoclinic'
loop_
_space_group_symop_operation_xyz
x,y,z
-x,y,-z
-x,-y,-z
x,-y,z
1/2+x,1/2+y,z
1/2-x,1/2+y,-z
1/2-x,1/2-y,-z
1/2+x,1/2-y,z
loop_
_atom_site_type_symbol
_atom_site_label
_atom_site_fract_x
_atom_site_fract_y
_atom_site_fract_z
Si Si1 0.485152 0.150414 0.285747
Si Si2 0.381532 0.210543 0.513744
Si Si3 0.327685 0.590181 0.433823
Si Si4 0.246829 0.189244 0.234045
Si Si5 0.000000 0.778634 0.000000
Si Si6 0.266873 0.912909 0.318708
O O1 0.336250 0.227896 0.360697
O O2 0.350140 0.110177 0.413158
O O3 0.451984 0.098398 0.255434
O O4 0.759203 0.171877 0.135388
O O5 0.500000 0.207064 0.500000
O O6 0.283873 0.130788 0.550170
O O7 0.577777 0.243820 0.357211
O O8 0.358371 0.500000 0.411071
O O9 0.575768 0.633970 0.301530
O O10 0.452926 0.225545 0.077249
O O11 0.326904 0.141100 0.235918
O O12 0.000000 0.892961 0.500000
O O13 0.252015 0.000000 0.310397
#
# Coordination Sequence:
#
# PCOD9219088 Si02
#       6
#     8   8   8   8   4   8
#     4  11  20  38  60  89 114 154 201 239 286 344
#     4  11  19  38  64  86 112 150 207 250 280 334
#     4  11  21  37  61  87 119 154 197 248 289 340
#     4  11  20  38  60  89 114 154 201 239 286 344
#     4  12  24  36  62  84 120 168 190 232 290 358
#     4  11  20  35  64  94 114 144 196 257 295 323
#
# _framework density 17.432196000000001
#
# number of rings (size 3 to 8) (size 9 to 14) (size 15 to 20)
#    0.000    0.909    9.091    2.182    0.000    1.091 
#    0.000    3.636    0.000    0.000    0.000    0.000 
#    0.000    0.000    0.000    0.000    0.000    0.000 
#
# Total GULP energy -122850.720102 kJ/mol
# GULP energy per Si atom -5584.123641 kJ/mol
# Density = 1.739252 g / cm^3
# Si number density = 17.432196 Si / 1000 Ang^3
#
#
#
# Elastic Constant Matrix: (Units=GPa)
#
#
# Indices 1 2 3 4 5 6 
#
# 1 57.1920 8.5899 -13.5128 -0.3117 -7.6766 0.2330
# 2 8.5899 65.7807 -15.9774 -0.3270 -0.8498 0.2165
# 3 -13.5128 -15.9774 27.9634 -0.5003 -0.8082 0.3619
# 4 -0.3117 -0.3270 -0.5003 9.3656 0.0335 4.6567
# 5 -7.6766 -0.8498 -0.8082 0.0335 19.7587 0.0251
# 6 0.2330 0.2165 0.3619 4.6567 0.0251 14.0719
#
#
#
# Elastic Compliance Matrix: (Units=1/GPa)
#
#
# Indices 1 2 3 4 5 6 
#
# 1 0.021146 -0.000095 0.010463 0.001847 0.008638 -0.001244
# 2 -0.000095 0.017706 0.010148 0.001698 0.001138 -0.001096
# 3 0.010463 0.010148 0.046926 0.004735 0.006417 -0.003115
# 4 0.001847 0.001698 0.004735 0.128353 0.000821 -0.042655
# 5 0.008638 0.001138 0.006417 0.000821 0.054277 -0.000694
# 6 -0.001244 -0.001096 -0.003115 -0.042655 -0.000694 0.085298
#
#
# Mechanical properties :
#
#
# Convention : Reuss Voigt Hill
#
# Bulk Modulus (GPa) = 7.88584 12.12616 10.00600
# Shear Modulus (GPa) = 14.08672 20.09501 17.09086
#
# Velocity S-wave (km/s) = 2.84577 3.39890 3.13456
# Velocity P-wave (km/s) = 3.91554 4.73019 4.34201
#
# Compressibility (1/GPa) = 0.12680952
#
# Stress axis : x y z
#
# Youngs Moduli (GPa) = 47.29055 56.47785 21.31022
#
# Poissons Ratio (x) = 0.00537 -0.22297
# Poissons Ratio (y) = 0.00450 -0.21626
# Poissons Ratio (z) = -0.49479 -0.57315
#
# Static dielectric constant tensor:
#      x y z
#    x 1.609980 0.000000 -0.005060 
#    y 0.000000 1.595490 0.000040 
#    z -0.005060 0.000040 1.570750 
# 
# From -- ./inp_files/145782.got.cif
#   From: 2010.05.17/outbox.cif.g08.bks.cpg/sg12_73_cif.got.tgz:145782.got - 2010.06.03 13:09:07.
