data_PCOD9219584
_publ_section_title
;
Structure prediction by ZEFSAII (Michael W. Deem and Ramdas Pophale) SiO2 
 PCOD9219584
Probable space group: C 2/M
;
_chemical_formula_sum "Si O2"
_cell_formula_units_Z 64
_cell_length_a 26.797485
_cell_length_b 15.828052
_cell_length_c 11.627176
_cell_angle_alpha 90.000000
_cell_angle_beta 38.831960
_cell_angle_gamma 90.000000
_cell_volume 3092.359046
_symmetry_space_group_name_H-M "C 2/M"
_symmetry_group_IT_number 12
_symmetry_cell_setting 'monoclinic'
loop_
_space_group_symop_operation_xyz
x,y,z
-x,y,-z
-x,-y,-z
x,-y,z
1/2+x,1/2+y,z
1/2-x,1/2+y,-z
1/2-x,1/2-y,-z
1/2+x,1/2-y,z
loop_
_atom_site_type_symbol
_atom_site_label
_atom_site_fract_x
_atom_site_fract_y
_atom_site_fract_z
Si Si1 0.576403 0.862241 0.302897
Si Si2 0.238344 0.092390 0.059386
Si Si3 0.353404 0.260429 0.643684
Si Si4 0.087559 0.695919 0.037979
Si Si5 0.077086 0.757602 0.725986
Si Si6 0.165302 0.093091 0.692557
Si Si7 0.153887 0.402535 0.708232
Si Si8 0.795782 0.151126 0.126497
O O1 0.500000 0.904911 0.500000
O O2 0.593076 0.778816 0.350840
O O3 0.552279 0.845788 0.215202
O O4 0.665867 0.900247 0.130587
O O5 0.201338 0.165598 0.204871
O O6 0.220805 0.000000 0.138869
O O7 0.199227 0.103429 0.003415
O O8 0.401220 0.283776 0.443794
O O9 0.293856 0.186287 0.709760
O O10 0.016474 0.742330 0.100458
O O11 0.128358 0.628710 0.880566
O O12 0.149463 0.765872 0.969271
O O13 0.111976 0.830625 0.743685
O O14 0.116343 0.667859 0.691517
O O15 0.251197 0.101637 0.477141
O O16 0.182617 0.101209 0.797468
O O17 0.132266 0.000000 0.726700
O O18 0.129123 0.500000 0.731506
#
# Coordination Sequence:
#
# PCOD9219584 Si02
#       8
#     8   8   8   8   8   8   8   8
#     4  11  22  42  65  94 127 168 213 262 329 396
#     4  11  24  40  65 101 131 165 221 276 324 389
#     4  11  21  40  70  90 125 171 225 265 315 397
#     4  12  23  40  68  93 131 175 219 267 334 392
#     4  12  24  40  66  98 133 177 216 275 335 386
#     4  11  24  42  67  97 131 173 226 275 323 390
#     4  11  25  44  68  98 131 172 222 274 333 398
#     4  11  20  42  66  91 124 179 220 267 326 386
#
# _framework density 20.696173999999999
#
# number of rings (size 3 to 8) (size 9 to 14) (size 15 to 20)
#    0.000    0.750    6.250    2.625    0.000    2.250 
#    0.000    1.875    0.000    1.125    0.000    0.000 
#    0.000    0.000    0.000    0.000    0.000    0.000 
#
# Total GULP energy -178731.931933 kJ/mol
# GULP energy per Si atom -5585.372873 kJ/mol
# Density = 2.064907 g / cm^3
# Si number density = 20.696174 Si / 1000 Ang^3
#
#
#
# Elastic Constant Matrix: (Units=GPa)
#
#
# Indices 1 2 3 4 5 6 
#
# 1 95.7915 41.9678 26.1470 0.0000 9.1745 0.0000
# 2 41.9678 123.9076 50.1343 0.0000 -0.7456 0.0000
# 3 26.1470 50.1343 65.8836 0.0000 27.2574 0.0000
# 4 0.0000 0.0000 0.0000 13.4113 0.0000 1.6762
# 5 9.1745 -0.7456 27.2574 0.0000 36.2014 0.0000
# 6 0.0000 0.0000 0.0000 1.6762 0.0000 -7.2164
#
#
#
# Elastic Compliance Matrix: (Units=1/GPa)
#
#
# Indices 1 2 3 4 5 6 
#
# 1 0.012664 -0.003891 -0.001023 0.000000 -0.002519 0.000000
# 2 -0.003891 0.016069 -0.016308 0.000000 0.013596 0.000000
# 3 -0.001023 -0.016308 0.040706 0.000000 -0.030726 0.000000
# 4 0.000000 0.000000 0.000000 0.072460 0.000000 0.016831
# 5 -0.002519 0.013596 -0.030726 0.000000 0.051676 0.000000
# 6 0.000000 0.000000 0.000000 0.016831 0.000000 -0.134664
#
#
# Mechanical properties :
#
#
# Convention : Reuss Voigt Hill
#
# Bulk Modulus (GPa) = 37.04438 58.00897 47.52668
# Shear Modulus (GPa) = 45.30828 19.63484 32.47156
#
# Velocity S-wave (km/s) = 4.68398 3.08347 3.96531
# Velocity P-wave (km/s) = 6.86956 6.38488 6.63165
#
# Compressibility (1/GPa) = 0.02699465
#
# Stress axis : x y z
#
# Youngs Moduli (GPa) = 78.96101 62.23290 24.56630
#
# Poissons Ratio (x) = 0.24212 0.02514
# Poissons Ratio (y) = 0.30721 0.40064
# Poissons Ratio (z) = 0.08080 1.01492
#
# Static dielectric constant tensor:
#      x y z
#    x 1.745380 0.000000 0.013520 
#    y 0.000000 1.725890 0.000000 
#    z 0.013520 0.000000 1.743830 
# 
# From -- ./inp_files/183783.got.cif
#   From: 2010.05.17/outbox.cif.g08.bks.cpg/sg12_92_cif.got.tgz:183783.got - 2010.06.03 13:09:07.
