data_PCOD9219166
_publ_section_title
;
Structure prediction by ZEFSAII (Michael W. Deem and Ramdas Pophale) SiO2 
 PCOD9219166
Probable space group: C 2/M
;
_chemical_formula_sum "Si O2"
_cell_formula_units_Z 48
_cell_length_a 20.539028
_cell_length_b 9.043733
_cell_length_c 22.899798
_cell_angle_alpha 90.000000
_cell_angle_beta 41.818685
_cell_angle_gamma 90.000000
_cell_volume 2836.213591
_symmetry_space_group_name_H-M "C 2/M"
_symmetry_group_IT_number 12
_symmetry_cell_setting 'monoclinic'
loop_
_space_group_symop_operation_xyz
x,y,z
-x,y,-z
-x,-y,-z
x,-y,z
1/2+x,1/2+y,z
1/2-x,1/2+y,-z
1/2-x,1/2-y,-z
1/2+x,1/2-y,z
loop_
_atom_site_type_symbol
_atom_site_label
_atom_site_fract_x
_atom_site_fract_y
_atom_site_fract_z
Si Si1 0.769080 0.676375 0.050051
Si Si2 0.424370 0.823699 0.221773
Si Si3 0.031155 0.173583 0.046222
Si Si4 0.261016 0.330602 0.400306
Si Si5 0.102765 0.169913 0.574110
Si Si6 0.943969 0.823022 0.766377
O O1 0.782593 0.500000 0.034357
O O2 0.671232 0.701747 0.153294
O O3 0.750000 0.750000 0.000000
O O4 0.864745 0.749602 0.013026
O O5 0.454680 0.752510 0.140270
O O6 0.319654 0.767466 0.314796
O O7 0.503206 0.762991 0.216302
O O8 0.427927 0.000000 0.217320
O O9 0.037719 0.000000 0.057454
O O10 0.000000 0.186480 0.000000
O O11 0.255231 0.500000 0.384813
O O12 0.156771 0.267813 0.490031
O O13 0.328144 0.327444 0.414181
O O14 0.998354 0.218102 0.669798
O O15 0.097517 0.000000 0.557730
O O16 0.961482 0.000000 0.763189
#
# Coordination Sequence:
#
# PCOD9219166 Si02
#       6
#     8   8   8   8   8   8
#     4  11  21  34  55  80 106 138 175 216 260 311
#     4  11  20  30  49  73  98 132 172 214 256 309
#     4  11  24  40  55  73 103 140 177 220 266 311
#     4   9  16  26  41  63  96 132 164 204 252 304
#     4   8  14  25  40  63  95 130 165 202 245 298
#     4   9  18  31  48  71 103 136 167 207 256 306
#
# _framework density 16.923973
#
# number of rings (size 3 to 8) (size 9 to 14) (size 15 to 20)
#    0.000    2.167    1.667    4.000    0.000    6.000 
#    0.000    0.000    0.000    0.000    0.000    1.167 
#    0.000    9.333    0.000    0.000    0.000    0.000 
#
# Total GULP energy -133846.690468 kJ/mol
# GULP energy per Si atom -5576.945436 kJ/mol
# Density = 1.688545 g / cm^3
# Si number density = 16.923973 Si / 1000 Ang^3
#
#
#
# Elastic Constant Matrix: (Units=GPa)
#
#
# Indices 1 2 3 4 5 6 
#
# 1 36.6805 33.3957 32.4972 0.0000 -3.6423 0.0000
# 2 33.3957 117.8245 81.2134 -0.0001 1.5867 0.0000
# 3 32.4972 81.2134 160.8951 0.0000 -6.7735 0.0000
# 4 0.0000 -0.0001 0.0000 32.2295 0.0000 -1.0269
# 5 -3.6423 1.5867 -6.7735 0.0000 12.6575 0.0000
# 6 0.0000 0.0000 0.0000 -1.0269 0.0000 15.9896
#
#
#
# Elastic Compliance Matrix: (Units=1/GPa)
#
#
# Indices 1 2 3 4 5 6 
#
# 1 0.039355 -0.009424 -0.002727 0.000000 0.011047 0.000000
# 2 -0.009424 0.015624 -0.006322 0.000000 -0.008054 0.000000
# 3 -0.002727 -0.006322 0.010187 0.000000 0.005459 0.000000
# 4 0.000000 0.000000 0.000000 0.031091 0.000000 0.001997
# 5 0.011047 -0.008054 0.005459 0.000000 0.086114 0.000000
# 6 0.000000 0.000000 0.000000 0.001997 0.000000 0.062669
#
#
# Mechanical properties :
#
#
# Convention : Reuss Voigt Hill
#
# Bulk Modulus (GPa) = 35.43508 67.73472 51.58490
# Shear Modulus (GPa) = 17.15891 23.39493 20.27692
#
# Velocity S-wave (km/s) = 3.18761 3.72204 3.46514
# Velocity P-wave (km/s) = 5.87631 7.65384 6.82321
#
# Compressibility (1/GPa) = 0.02822062
#
# Stress axis : x y z
#
# Youngs Moduli (GPa) = 25.40957 64.00230 98.16343
#
# Poissons Ratio (x) = 0.60314 0.26770
# Poissons Ratio (y) = 0.23945 0.62061
# Poissons Ratio (z) = 0.06929 0.40464
#
# Static dielectric constant tensor:
#      x y z
#    x 1.532580 0.000000 -0.010220 
#    y 0.000000 1.568960 0.000000 
#    z -0.010220 0.000000 1.605840 
# 
# From -- ./inp_files/329018.got.cif
#   From: 2010.05.17/outbox.cif.g08.bks.cpg/sg12_165_cif.got.tgz:329018.got - 2010.06.03 13:09:07.
