data_PCOD9219230
_publ_section_title
;
Structure prediction by ZEFSAII (Michael W. Deem and Ramdas Pophale) SiO2 
 PCOD9219230
Probable space group: C 2/M
;
_chemical_formula_sum "Si O2"
_cell_formula_units_Z 56
_cell_length_a 9.525693
_cell_length_b 20.504814
_cell_length_c 11.042027
_cell_angle_alpha 90.000000
_cell_angle_beta 92.494273
_cell_angle_gamma 90.000000
_cell_volume 2154.713654
_symmetry_space_group_name_H-M "C 2/M"
_symmetry_group_IT_number 12
_symmetry_cell_setting 'monoclinic'
loop_
_space_group_symop_operation_xyz
x,y,z
-x,y,-z
-x,-y,-z
x,-y,z
1/2+x,1/2+y,z
1/2-x,1/2+y,-z
1/2-x,1/2-y,-z
1/2+x,1/2-y,z
loop_
_atom_site_type_symbol
_atom_site_label
_atom_site_fract_x
_atom_site_fract_y
_atom_site_fract_z
Si Si1 0.145685 0.319733 0.602107
Si Si2 0.593052 0.929369 0.803590
Si Si3 0.709530 0.069764 0.077360
Si Si4 0.562105 0.716351 0.300748
Si Si5 0.849664 0.296069 0.927519
Si Si6 0.753566 0.928740 0.466881
Si Si7 0.485428 0.571712 0.693103
O O1 0.121408 0.370461 0.713828
O O2 0.302677 0.292624 0.611206
O O3 0.051644 0.256998 0.628174
O O4 0.149451 0.368077 0.484804
O O5 0.435170 0.931478 0.850209
O O6 0.620707 0.000000 0.745459
O O7 0.682081 0.926844 0.931121
O O8 0.751582 0.142807 0.105676
O O9 0.779961 0.000000 0.101665
O O10 0.604354 0.760597 0.190914
O O11 0.533204 0.642949 0.250982
O O12 0.750000 0.250000 0.000000
O O13 0.000000 0.312280 0.000000
O O14 0.857291 0.925201 0.356332
O O15 0.868456 0.928593 0.580799
O O16 0.683164 0.000000 0.459694
O O17 0.465528 0.500000 0.751276
#
# Coordination Sequence:
#
# PCOD9219230 Si02
#       7
#     8   8   8   8   8   8   8
#     4  11  20  33  50  81 111 137 174 211 265 321
#     4   9  15  27  48  74  98 123 168 222 258 292
#     4   9  16  29  49  72  97 128 170 219 262 295
#     4  11  22  34  53  77 107 142 174 216 263 317
#     4  12  22  36  54  76 107 142 179 221 267 315
#     4   8  15  30  55  83 106 130 171 228 267 297
#     4   8  16  33  55  79 105 136 176 220 266 308
#
# _framework density 25.989530999999999
#
# number of rings (size 3 to 8) (size 9 to 14) (size 15 to 20)
#    0.000    2.286    2.857    3.857    0.000    1.143 
#    0.000    0.714    0.000    6.000    0.000    2.000 
#    0.000    0.000    0.000    0.000    0.000    0.000 
#
# Total GULP energy -156385.664666 kJ/mol
# GULP energy per Si atom -5585.202310 kJ/mol
# Density = 2.593038 g / cm^3
# Si number density = 25.989531 Si / 1000 Ang^3
#
#
#
# Elastic Constant Matrix: (Units=GPa)
#
#
# Indices 1 2 3 4 5 6 
#
# 1 94.8016 37.3226 11.9747 0.0000 -4.5391 0.0000
# 2 37.3226 244.6863 31.8984 0.0000 -12.9313 0.0000
# 3 11.9747 31.8984 59.8375 0.0000 -9.9226 0.0000
# 4 0.0000 0.0000 0.0000 33.6945 0.0000 -17.9899
# 5 -4.5391 -12.9313 -9.9226 0.0000 35.2331 0.0000
# 6 0.0000 0.0000 0.0000 -17.9899 0.0000 20.0443
#
#
#
# Elastic Compliance Matrix: (Units=1/GPa)
#
#
# Indices 1 2 3 4 5 6 
#
# 1 0.011347 -0.001525 -0.001372 0.000000 0.000516 0.000000
# 2 -0.001525 0.004631 -0.002008 0.000000 0.000938 0.000000
# 3 -0.001372 -0.002008 0.018783 0.000000 0.004376 0.000000
# 4 0.000000 0.000000 0.000000 0.056985 0.000000 0.051145
# 5 0.000516 0.000938 0.004376 0.000000 0.030025 0.000000
# 6 0.000000 0.000000 0.000000 0.051145 0.000000 0.095793
#
#
# Mechanical properties :
#
#
# Convention : Reuss Voigt Hill
#
# Bulk Modulus (GPa) = 40.08014 62.41299 51.24656
# Shear Modulus (GPa) = 21.21429 39.00301 30.10865
#
# Velocity S-wave (km/s) = 2.86013 3.87812 3.40735
# Velocity P-wave (km/s) = 5.13442 6.64228 5.93642
#
# Compressibility (1/GPa) = 0.02495001
#
# Stress axis : x y z
#
# Youngs Moduli (GPa) = 88.13208 215.94845 53.24057
#
# Poissons Ratio (x) = 0.32922 0.07307
# Poissons Ratio (y) = 0.13436 0.10691
# Poissons Ratio (z) = 0.12096 0.43362
#
# Static dielectric constant tensor:
#      x y z
#    x 2.156920 0.000000 0.141050 
#    y 0.000000 2.096730 0.000000 
#    z 0.141050 0.000000 2.090450 
# 
# From -- ./inp_files/207236.got.cif
#   From: 2010.05.17/outbox.cif.g08.bks.cpg/sg12_104_cif.got.tgz:207236.got - 2010.06.03 13:09:07.
