data_PCOD9219620
_publ_section_title
;
Structure prediction by ZEFSAII (Michael W. Deem and Ramdas Pophale) SiO2 
 PCOD9219620
Probable space group: C 2/M
;
_chemical_formula_sum "Si O2"
_cell_formula_units_Z 48
_cell_length_a 29.210564
_cell_length_b 9.050889
_cell_length_c 7.962173
_cell_angle_alpha 90.000000
_cell_angle_beta 100.274507
_cell_angle_gamma 90.000000
_cell_volume 2071.296251
_symmetry_space_group_name_H-M "C 2/M"
_symmetry_group_IT_number 12
_symmetry_cell_setting 'monoclinic'
loop_
_space_group_symop_operation_xyz
x,y,z
-x,y,-z
-x,-y,-z
x,-y,z
1/2+x,1/2+y,z
1/2-x,1/2+y,-z
1/2-x,1/2-y,-z
1/2+x,1/2-y,z
loop_
_atom_site_type_symbol
_atom_site_label
_atom_site_fract_x
_atom_site_fract_y
_atom_site_fract_z
Si Si1 0.816147 0.333079 0.638738
Si Si2 0.845673 0.174915 0.132292
Si Si3 0.237338 0.668096 0.758794
Si Si4 0.401275 0.822268 0.472513
Si Si5 0.925795 0.677030 0.016188
Si Si6 0.486960 0.822231 0.725573
O O1 0.812682 0.500000 0.702619
O O2 0.789428 0.329929 0.439991
O O3 0.788128 0.227206 0.743905
O O4 0.868897 0.304773 0.616989
O O5 0.794247 0.236414 0.136651
O O6 0.875462 0.230220 0.313524
O O7 0.876292 0.246269 0.004389
O O8 0.844728 0.000000 0.118870
O O9 0.238721 0.500000 0.818523
O O10 0.453784 0.775191 0.551108
O O11 0.400360 0.000000 0.431988
O O12 0.919404 0.500000 0.023063
O O13 0.961520 0.726283 0.188236
O O14 0.954987 0.707180 0.868070
O O15 0.490343 0.000000 0.710796
#
# Coordination Sequence:
#
# PCOD9219620 Si02
#       6
#     8   8   8   8   8   8
#     4   8  14  24  41  66  95 122 149 187 235 282
#     4  11  21  31  45  70 101 129 158 195 238 279
#     4   9  16  27  44  65  91 124 159 193 231 277
#     4   9  17  31  50  73  98 125 158 195 236 280
#     4   9  17  33  54  73  93 122 161 199 236 281
#     4   8  16  32  55  75  91 120 162 200 234 281
#
# _framework density 23.173893
#
# number of rings (size 3 to 8) (size 9 to 14) (size 15 to 20)
#    0.000    3.000    0.000    4.000    0.000    4.667 
#    0.000    6.667    0.000    1.000    0.000    0.000 
#    0.000    0.000    0.000    0.000    0.000    0.000 
#
# Total GULP energy -134093.568926 kJ/mol
# GULP energy per Si atom -5587.232039 kJ/mol
# Density = 2.312115 g / cm^3
# Si number density = 23.173893 Si / 1000 Ang^3
#
#
#
# Elastic Constant Matrix: (Units=GPa)
#
#
# Indices 1 2 3 4 5 6 
#
# 1 140.9121 48.1951 12.9890 0.0000 -1.4044 0.0000
# 2 48.1951 88.6901 10.4575 0.0000 -23.3212 0.0000
# 3 12.9890 10.4575 68.0595 0.0000 -0.4717 0.0000
# 4 0.0000 0.0000 0.0000 15.3925 0.0000 -1.2259
# 5 -1.4044 -23.3212 -0.4717 0.0000 51.3970 0.0000
# 6 0.0000 0.0000 0.0000 -1.2259 0.0000 55.7272
#
#
#
# Elastic Compliance Matrix: (Units=1/GPa)
#
#
# Indices 1 2 3 4 5 6 
#
# 1 0.008990 -0.005355 -0.000908 0.000000 -0.002192 0.000000
# 2 -0.005355 0.016250 -0.001425 0.000000 0.007214 0.000000
# 3 -0.000908 -0.001425 0.015082 0.000000 -0.000533 0.000000
# 4 0.000000 0.000000 0.000000 0.065081 0.000000 0.001432
# 5 -0.002192 0.007214 -0.000533 0.000000 0.022665 0.000000
# 6 0.000000 0.000000 0.000000 0.001432 0.000000 0.017976
#
#
# Mechanical properties :
#
#
# Convention : Reuss Voigt Hill
#
# Bulk Modulus (GPa) = 40.08650 48.99386 44.54018
# Shear Modulus (GPa) = 29.45791 39.57134 34.51462
#
# Velocity S-wave (km/s) = 3.56921 4.13677 3.86343
# Velocity P-wave (km/s) = 5.85845 6.63362 6.25805
#
# Compressibility (1/GPa) = 0.02494605
#
# Stress axis : x y z
#
# Youngs Moduli (GPa) = 111.23637 61.53895 66.30597
#
# Poissons Ratio (x) = 0.32951 0.06022
# Poissons Ratio (y) = 0.59562 0.09448
# Poissons Ratio (z) = 0.10102 0.08769
#
# Static dielectric constant tensor:
#      x y z
#    x 1.893060 0.000000 0.006170 
#    y 0.000000 1.765740 0.000000 
#    z 0.006170 0.000000 2.053830 
# 
# From -- ./inp_files/185503.got.cif
#   From: 2010.05.17/outbox.cif.g08.bks.cpg/sg12_93_cif.got.tgz:185503.got - 2010.06.03 13:09:07.
