data_PCOD9219594
_publ_section_title
;
Structure prediction by ZEFSAII (Michael W. Deem and Ramdas Pophale) SiO2 
 PCOD9219594
Probable space group: C 2/M
;
_chemical_formula_sum "Si O2"
_cell_formula_units_Z 48
_cell_length_a 22.233926
_cell_length_b 10.887206
_cell_length_c 14.899539
_cell_angle_alpha 90.000000
_cell_angle_beta 40.731117
_cell_angle_gamma 90.000000
_cell_volume 2353.383098
_symmetry_space_group_name_H-M "C 2/M"
_symmetry_group_IT_number 12
_symmetry_cell_setting 'monoclinic'
loop_
_space_group_symop_operation_xyz
x,y,z
-x,y,-z
-x,-y,-z
x,-y,z
1/2+x,1/2+y,z
1/2-x,1/2+y,-z
1/2-x,1/2-y,-z
1/2+x,1/2-y,z
loop_
_atom_site_type_symbol
_atom_site_label
_atom_site_fract_x
_atom_site_fract_y
_atom_site_fract_z
Si Si1 0.486789 0.224802 0.776650
Si Si2 0.664154 0.000000 0.305244
Si Si3 0.218443 0.643367 0.967478
Si Si4 0.502835 0.000000 0.632625
Si Si5 0.585033 0.145539 0.834491
Si Si6 0.957567 0.855341 0.453379
Si Si7 0.268323 0.736221 0.724790
O O1 0.556420 0.226527 0.780690
O O2 0.486362 0.332248 0.702535
O O3 0.516773 0.116087 0.677863
O O4 0.388412 0.180992 0.926438
O O5 0.580743 0.000000 0.470296
O O6 0.602202 0.000000 0.285314
O O7 0.723139 0.877613 0.253540
O O8 0.226701 0.500000 0.985967
O O9 0.271468 0.659116 0.813675
O O10 0.250000 0.750000 0.000000
O O11 0.675806 0.199292 0.778283
O O12 0.597717 0.000000 0.796893
O O13 0.500000 0.150304 0.000000
O O14 0.856137 0.796982 0.564951
O O15 0.000000 0.804677 0.500000
O O16 0.947689 0.000000 0.475693
#
# Coordination Sequence:
#
# PCOD9219594 Si02
#       7
#     8   4   8   4   8   8   8
#     4  12  23  42  70 100 128 181 232 283 337 411
#     4  11  24  42  69 104 142 177 218 293 356 410
#     4  12  25  41  68 101 136 177 234 292 350 414
#     4  11  20  42  71  98 132 171 228 281 342 408
#     4  11  23  45  68  93 133 182 239 284 331 411
#     4  11  24  44  68 102 141 175 217 283 357 420
#     4  12  25  43  69  99 136 182 231 277 348 412
#
# _framework density 20.396170000000001
#
# number of rings (size 3 to 8) (size 9 to 14) (size 15 to 20)
#    0.000    0.500    5.000    4.500    1.167    2.667 
#    1.500    0.417    0.000    0.000    0.000    0.000 
#    0.000    0.000    0.000    0.000    0.000    0.000 
#
# Total GULP energy -134004.018928 kJ/mol
# GULP energy per Si atom -5583.500789 kJ/mol
# Density = 2.034975 g / cm^3
# Si number density = 20.396170 Si / 1000 Ang^3
#
#
#
# Elastic Constant Matrix: (Units=GPa)
#
#
# Indices 1 2 3 4 5 6 
#
# 1 124.1616 33.4403 3.0809 0.0000 -4.7247 0.0000
# 2 33.4403 100.9272 11.8921 0.0000 -7.3104 0.0000
# 3 3.0809 11.8921 57.1387 0.0000 -2.8253 0.0000
# 4 0.0000 0.0000 0.0000 20.3005 0.0000 -11.3874
# 5 -4.7247 -7.3104 -2.8253 0.0000 32.8545 0.0000
# 6 0.0000 0.0000 0.0000 -11.3874 0.0000 16.5181
#
#
#
# Elastic Compliance Matrix: (Units=1/GPa)
#
#
# Indices 1 2 3 4 5 6 
#
# 1 0.008857 -0.002907 0.000159 0.000000 0.000641 0.000000
# 2 -0.002907 0.011256 -0.002092 0.000000 0.001907 0.000000
# 3 0.000159 -0.002092 0.017983 0.000000 0.001104 0.000000
# 4 0.000000 0.000000 0.000000 0.080320 0.000000 0.055371
# 5 0.000641 0.001907 0.001104 0.000000 0.031049 0.000000
# 6 0.000000 0.000000 0.000000 0.055371 0.000000 0.098712
#
#
# Mechanical properties :
#
#
# Convention : Reuss Voigt Hill
#
# Bulk Modulus (GPa) = 35.19056 42.11714 38.65385
# Shear Modulus (GPa) = 18.70364 29.52223 24.11293
#
# Velocity S-wave (km/s) = 3.03151 3.80865 3.44208
# Velocity P-wave (km/s) = 5.43548 6.32736 5.89830
#
# Compressibility (1/GPa) = 0.02841671
#
# Stress axis : x y z
#
# Youngs Moduli (GPa) = 112.89980 88.84231 55.60933
#
# Poissons Ratio (x) = 0.25827 -0.00885
# Poissons Ratio (y) = 0.32821 0.11631
# Poissons Ratio (z) = -0.01797 0.18583
#
# Static dielectric constant tensor:
#      x y z
#    x 1.732890 0.000000 0.006250 
#    y 0.000000 1.536230 0.000000 
#    z 0.006250 0.000000 1.750630 
# 
# From -- ./inp_files/232835.got.cif
#   From: 2010.05.17/outbox.cif.g08.bks.cpg/sg12_117_cif.got.tgz:232835.got - 2010.06.03 13:09:07.
