data_PCOD9219106
_publ_section_title
;
Structure prediction by ZEFSAII (Michael W. Deem and Ramdas Pophale) SiO2 
 PCOD9219106
Probable space group: C 2/M
;
_chemical_formula_sum "Si O2"
_cell_formula_units_Z 56
_cell_length_a 14.879502
_cell_length_b 17.861124
_cell_length_c 11.385006
_cell_angle_alpha 90.000000
_cell_angle_beta 57.642284
_cell_angle_gamma 90.000000
_cell_volume 2555.905739
_symmetry_space_group_name_H-M "C 2/M"
_symmetry_group_IT_number 12
_symmetry_cell_setting 'monoclinic'
loop_
_space_group_symop_operation_xyz
x,y,z
-x,y,-z
-x,-y,-z
x,-y,z
1/2+x,1/2+y,z
1/2-x,1/2+y,-z
1/2-x,1/2-y,-z
1/2+x,1/2-y,z
loop_
_atom_site_type_symbol
_atom_site_label
_atom_site_fract_x
_atom_site_fract_y
_atom_site_fract_z
Si Si1 0.698665 0.798864 0.340425
Si Si2 0.758125 0.663526 0.950494
Si Si3 0.465633 0.415639 0.887792
Si Si4 0.483269 0.135330 0.875197
Si Si5 0.888791 0.158940 0.545615
Si Si6 0.680344 0.912344 0.572374
Si Si7 0.922021 0.779872 0.281607
O O1 0.723641 0.840139 0.202164
O O2 0.638171 0.722599 0.339687
O O3 0.669838 0.860156 0.462300
O O4 0.806839 0.762164 0.313103
O O5 0.860388 0.621657 0.932566
O O6 0.750000 0.750000 0.000000
O O7 0.648277 0.621657 0.052611
O O8 0.465931 0.500000 0.845173
O O9 0.551359 0.365129 0.763695
O O10 0.500000 0.414022 0.000000
O O11 0.575092 0.100108 0.727689
O O12 0.498508 0.223989 0.836927
O O13 0.500000 0.119036 0.000000
O O14 0.787968 0.111598 0.570013
O O15 0.913513 0.220017 0.426076
O O16 0.000000 0.119283 0.500000
O O17 0.688104 0.000000 0.536520
#
# Coordination Sequence:
#
# PCOD9219106 Si02
#       7
#     8   8   8   8   8   8   8
#     4  11  22  42  70  99 130 172 231 283 332 398
#     4  12  25  39  72 105 130 179 235 277 336 409
#     4  11  24  42  64  99 139 168 211 282 342 392
#     4  12  24  42  68  96 135 183 235 279 333 410
#     4  11  23  39  70 101 129 169 227 280 334 399
#     4  11  26  46  67  97 137 182 222 279 345 402
#     4  11  19  40  66  97 128 176 223 274 339 399
#
# _framework density 21.910042000000001
#
# number of rings (size 3 to 8) (size 9 to 14) (size 15 to 20)
#    0.000    0.714    5.714    3.000    0.000    4.000 
#    0.000    2.143    0.000    0.000    0.000    0.000 
#    0.000    0.000    0.000    0.000    0.000    0.000 
#
# Total GULP energy -156170.313825 kJ/mol
# GULP energy per Si atom -5577.511208 kJ/mol
# Density = 2.186017 g / cm^3
# Si number density = 21.910042 Si / 1000 Ang^3
#
#
#
# Elastic Constant Matrix: (Units=GPa)
#
#
# Indices 1 2 3 4 5 6 
#
# 1 103.9279 4.3067 -1.8253 0.0000 -20.7812 0.0000
# 2 4.3067 130.0968 10.6934 0.0000 -14.9987 0.0000
# 3 -1.8253 10.6934 57.6123 0.0000 -0.5436 0.0000
# 4 0.0000 0.0000 0.0000 23.8292 0.0000 -23.9792
# 5 -20.7812 -14.9987 -0.5436 0.0000 36.3534 0.0000
# 6 0.0000 0.0000 0.0000 -23.9792 0.0000 73.5228
#
#
#
# Elastic Compliance Matrix: (Units=1/GPa)
#
#
# Indices 1 2 3 4 5 6 
#
# 1 0.010888 0.000346 0.000341 0.000000 0.006372 0.000000
# 2 0.000346 0.008207 -0.001479 0.000000 0.003562 0.000000
# 3 0.000341 -0.001479 0.017641 0.000000 -0.000152 0.000000
# 4 0.000000 0.000000 0.000000 0.062467 0.000000 0.020373
# 5 0.006372 0.003562 -0.000152 0.000000 0.032618 0.000000
# 6 0.000000 0.000000 0.000000 0.020373 0.000000 0.020246
#
#
# Mechanical properties :
#
#
# Convention : Reuss Voigt Hill
#
# Bulk Modulus (GPa) = 28.44725 35.33183 31.88954
# Shear Modulus (GPa) = 30.23560 45.30521 37.77041
#
# Velocity S-wave (km/s) = 3.71885 4.55222 4.15647
# Velocity P-wave (km/s) = 5.60818 6.61749 6.13363
#
# Compressibility (1/GPa) = 0.03515279
#
# Stress axis : x y z
#
# Youngs Moduli (GPa) = 91.84594 121.84237 56.68531
#
# Poissons Ratio (x) = -0.04218 -0.01932
# Poissons Ratio (y) = -0.03179 0.08383
# Poissons Ratio (z) = -0.03130 0.18018
#
# Static dielectric constant tensor:
#      x y z
#    x 1.750340 0.000000 1.120690 
#    y 0.000000 1.887140 0.000000 
#    z 1.120690 0.000000 -12.418800 
# 
# From -- ./inp_files/146025.got.cif
#   From: 2010.05.17/outbox.cif.g08.bks.cpg/sg12_74_cif.got.tgz:146025.got - 2010.06.03 13:09:07.
