data_PCOD9219035
_publ_section_title
;
Structure prediction by ZEFSAII (Michael W. Deem and Ramdas Pophale) SiO2 
 PCOD9219035
Probable space group: C 2/M
;
_chemical_formula_sum "Si O2"
_cell_formula_units_Z 64
_cell_length_a 25.230712
_cell_length_b 18.669477
_cell_length_c 15.646305
_cell_angle_alpha 90.000000
_cell_angle_beta 150.484086
_cell_angle_gamma 90.000000
_cell_volume 3630.992990
_symmetry_space_group_name_H-M "C 2/M"
_symmetry_group_IT_number 12
_symmetry_cell_setting 'monoclinic'
loop_
_space_group_symop_operation_xyz
x,y,z
-x,y,-z
-x,-y,-z
x,-y,z
1/2+x,1/2+y,z
1/2-x,1/2+y,-z
1/2-x,1/2-y,-z
1/2+x,1/2-y,z
loop_
_atom_site_type_symbol
_atom_site_label
_atom_site_fract_x
_atom_site_fract_y
_atom_site_fract_z
Si Si1 0.564681 0.084609 0.223868
Si Si2 0.463324 0.163483 0.644986
Si Si3 0.136172 0.867035 0.640678
Si Si4 0.321788 0.208738 0.288849
Si Si5 0.089787 0.919064 0.750783
Si Si6 0.667743 0.915607 0.189255
Si Si7 0.154279 0.776939 0.930499
Si Si8 0.405301 0.922518 0.298349
O O1 0.580471 0.135237 0.326922
O O2 0.640477 0.101618 0.249291
O O3 0.579081 0.000000 0.264789
O O4 0.442450 0.093436 0.018362
O O5 0.367727 0.181609 0.443775
O O6 0.547074 0.229326 0.769827
O O7 0.537465 0.100567 0.708579
O O8 0.118036 0.784235 0.640418
O O9 0.158217 0.909032 0.759533
O O10 0.235601 0.872097 0.716358
O O11 0.031331 0.900552 0.449761
O O12 0.345419 0.145980 0.253492
O O13 0.199828 0.227556 0.091137
O O14 0.126047 0.857986 0.866038
O O15 0.095713 0.000000 0.790075
O O16 0.696040 0.000000 0.224816
O O17 0.250000 0.750000 0.000000
O O18 0.500000 0.930256 0.500000
O O19 0.349454 0.000000 0.212855
#
# Coordination Sequence:
#
# PCOD9219035 Si02
#       8
#     8   8   8   8   8   8   8   8
#     4   9  19  34  55  85 113 140 183 232 284 341
#     4  11  20  36  54  75 108 147 184 225 277 335
#     4  11  19  36  57  81 111 148 187 231 288 336
#     4  11  22  34  54  76 108 151 185 226 277 338
#     4  11  23  35  54  85 114 146 193 234 272 340
#     4   9  18  34  56  84 114 140 176 235 292 335
#     4  12  22  36  53  79 111 153 188 228 285 331
#     4   9  18  30  47  74 107 142 180 218 263 326
#
# _framework density 17.626031999999999
#
# number of rings (size 3 to 8) (size 9 to 14) (size 15 to 20)
#    0.000    1.625    3.750    3.375    3.500    1.000 
#    0.000    0.625    0.000    0.000    0.000    0.000 
#    0.000    3.000    0.000    0.125    0.000    0.000 
#
# Total GULP energy -178366.366815 kJ/mol
# GULP energy per Si atom -5573.948963 kJ/mol
# Density = 1.758591 g / cm^3
# Si number density = 17.626032 Si / 1000 Ang^3
#
#
#
# Elastic Constant Matrix: (Units=GPa)
#
#
# Indices 1 2 3 4 5 6 
#
# 1 78.3005 33.7684 38.1105 0.0000 -3.6966 0.0000
# 2 33.7684 122.7480 31.4558 0.0000 -5.9231 0.0000
# 3 38.1105 31.4558 88.0031 0.0000 -17.0098 0.0000
# 4 0.0000 0.0000 0.0000 18.9538 0.0000 -5.9378
# 5 -3.6966 -5.9231 -17.0098 0.0000 24.4406 0.0000
# 6 0.0000 0.0000 0.0000 -5.9378 0.0000 21.4443
#
#
#
# Elastic Compliance Matrix: (Units=1/GPa)
#
#
# Indices 1 2 3 4 5 6 
#
# 1 0.017382 -0.003136 -0.006985 0.000000 -0.002992 0.000000
# 2 -0.003136 0.009534 -0.001958 0.000000 0.000473 0.000000
# 3 -0.006985 -0.001958 0.017091 0.000000 0.010364 0.000000
# 4 0.000000 0.000000 0.000000 0.057771 0.000000 0.015997
# 5 -0.002992 0.000473 0.010364 0.000000 0.047791 0.000000
# 6 0.000000 0.000000 0.000000 0.015997 0.000000 0.051062
#
#
# Mechanical properties :
#
#
# Convention : Reuss Voigt Hill
#
# Bulk Modulus (GPa) = 50.38048 55.08011 52.73029
# Shear Modulus (GPa) = 21.60699 25.34888 23.47794
#
# Velocity S-wave (km/s) = 3.50502 3.79641 3.65362
# Velocity P-wave (km/s) = 6.71009 7.10873 6.91229
#
# Compressibility (1/GPa) = 0.01984896
#
# Stress axis : x y z
#
# Youngs Moduli (GPa) = 57.52968 104.88504 58.50953
#
# Poissons Ratio (x) = 0.32896 0.40868
# Poissons Ratio (y) = 0.18043 0.11457
# Poissons Ratio (z) = 0.40184 0.20538
#
# Static dielectric constant tensor:
#      x y z
#    x 1.586040 0.000000 0.001610 
#    y 0.000000 1.663370 0.000000 
#    z 0.001610 0.000000 1.643220 
# 
# From -- ./inp_files/241517.got.cif
#   From: 2010.05.17/outbox.cif.g08.bks.cpg/sg12_121_cif.got.tgz:241517.got - 2010.06.03 13:09:07.
