data_PCOD9219588
_publ_section_title
;
Structure prediction by ZEFSAII (Michael W. Deem and Ramdas Pophale) SiO2 
 PCOD9219588
Probable space group: C 2/M
;
_chemical_formula_sum "Si O2"
_cell_formula_units_Z 48
_cell_length_a 12.981734
_cell_length_b 16.233433
_cell_length_c 12.709168
_cell_angle_alpha 90.000000
_cell_angle_beta 101.648128
_cell_angle_gamma 90.000000
_cell_volume 2623.148999
_symmetry_space_group_name_H-M "C 2/M"
_symmetry_group_IT_number 12
_symmetry_cell_setting 'monoclinic'
loop_
_space_group_symop_operation_xyz
x,y,z
-x,y,-z
-x,-y,-z
x,-y,z
1/2+x,1/2+y,z
1/2-x,1/2+y,-z
1/2-x,1/2-y,-z
1/2+x,1/2-y,z
loop_
_atom_site_type_symbol
_atom_site_label
_atom_site_fract_x
_atom_site_fract_y
_atom_site_fract_z
Si Si1 0.917753 0.000000 0.814761
Si Si2 0.161346 0.592292 0.070118
Si Si3 0.388261 0.898717 0.172866
Si Si4 0.621643 0.901514 0.500845
Si Si5 0.209973 0.150342 0.290544
Si Si6 0.644294 0.500000 0.952373
Si Si7 0.389757 0.171879 0.723016
O O1 0.874116 0.078008 0.743358
O O2 0.041421 0.000000 0.860957
O O3 0.875469 0.000000 0.927091
O O4 0.120348 0.500000 0.088451
O O5 0.282061 0.577093 0.061384
O O6 0.153252 0.644109 0.172543
O O7 0.106410 0.618489 0.950799
O O8 0.284632 0.859239 0.202914
O O9 0.488056 0.855150 0.245918
O O10 0.386931 0.000000 0.187487
O O11 0.500000 0.875651 0.500000
O O12 0.707087 0.864530 0.598272
O O13 0.650395 0.875952 0.388146
O O14 0.624518 0.000000 0.513739
O O15 0.145648 0.233913 0.293295
#
# Coordination Sequence:
#
# PCOD9219588 Si02
#       7
#     4   8   8   8   8   4   8
#     4  11  20  44  63  87 124 185 216 239 310 394
#     4   9  19  40  61  94 129 167 205 259 312 376
#     4  11  20  42  68  93 127 175 214 248 310 383
#     4  11  22  42  70  90 117 170 219 256 312 385
#     4  12  23  41  64  93 127 162 216 264 309 370
#     4   9  20  38  67  86 124 176 216 243 298 397
#     4  12  25  35  64 102 129 156 205 281 320 357
#
# _framework density 18.298615999999999
#
# number of rings (size 3 to 8) (size 9 to 14) (size 15 to 20)
#    0.500    0.667    5.000    2.500    0.000    3.333 
#    6.000    0.000    0.000    1.000    0.000    0.000 
#    0.000    0.000    0.000    0.000    0.000    0.000 
#
# Total GULP energy -133787.036268 kJ/mol
# GULP energy per Si atom -5574.459844 kJ/mol
# Density = 1.825697 g / cm^3
# Si number density = 18.298616 Si / 1000 Ang^3
#
#
#
# Elastic Constant Matrix: (Units=GPa)
#
#
# Indices 1 2 3 4 5 6 
#
# 1 64.5479 18.0204 19.3961 0.0000 21.3802 0.0000
# 2 18.0204 54.9813 29.1753 0.0000 14.8519 0.0000
# 3 19.3961 29.1753 115.2240 0.0000 25.1283 0.0000
# 4 0.0000 0.0000 0.0000 -6.1261 0.0000 -45.9448
# 5 21.3802 14.8519 25.1283 0.0000 33.1916 0.0000
# 6 0.0000 0.0000 0.0000 -45.9448 0.0000 19.3536
#
#
#
# Elastic Compliance Matrix: (Units=1/GPa)
#
#
# Indices 1 2 3 4 5 6 
#
# 1 0.020285 -0.003542 -0.000017 0.000000 -0.011469 0.000000
# 2 -0.003542 0.022844 -0.004140 0.000000 -0.004806 0.000000
# 3 -0.000017 -0.004140 0.011167 0.000000 -0.006591 0.000000
# 4 0.000000 0.000000 0.000000 -0.008681 0.000000 -0.020608
# 5 -0.011469 -0.004806 -0.006591 0.000000 0.044657 0.000000
# 6 0.000000 0.000000 0.000000 -0.020608 0.000000 0.002748
#
#
# Mechanical properties :
#
#
# Convention : Reuss Voigt Hill
#
# Bulk Modulus (GPa) = 25.70696 40.88185 33.29440
# Shear Modulus (GPa) = 41.19209 20.49457 30.84333
#
# Velocity S-wave (km/s) = 4.74973 3.35028 4.11001
# Velocity P-wave (km/s) = 6.64522 6.11194 6.38415
#
# Compressibility (1/GPa) = 0.03889998
#
# Stress axis : x y z
#
# Youngs Moduli (GPa) = 49.29735 43.77548 89.54785
#
# Poissons Ratio (x) = 0.15503 0.00149
# Poissons Ratio (y) = 0.17459 0.37072
# Poissons Ratio (z) = 0.00082 0.18122
#
# Static dielectric constant tensor:
#      x y z
#    x 1.666960 0.000000 -0.007940 
#    y 0.000000 1.617030 0.000000 
#    z -0.007940 0.000000 1.641600 
# 
# From -- ./inp_files/143129.got.cif
#   From: 2010.05.17/outbox.cif.g08.bks.cpg/sg12_72_cif.got.tgz:143129.got - 2010.06.03 13:09:07.
