data_PCOD9219433
_publ_section_title
;
Structure prediction by ZEFSAII (Michael W. Deem and Ramdas Pophale) SiO2 
 PCOD9219433
Probable space group: C 2/M
;
_chemical_formula_sum "Si O2"
_cell_formula_units_Z 48
_cell_length_a 19.010576
_cell_length_b 14.775572
_cell_length_c 8.274145
_cell_angle_alpha 90.000000
_cell_angle_beta 98.621961
_cell_angle_gamma 90.000000
_cell_volume 2297.877101
_symmetry_space_group_name_H-M "C 2/M"
_symmetry_group_IT_number 12
_symmetry_cell_setting 'monoclinic'
loop_
_space_group_symop_operation_xyz
x,y,z
-x,y,-z
-x,-y,-z
x,-y,z
1/2+x,1/2+y,z
1/2-x,1/2+y,-z
1/2-x,1/2-y,-z
1/2+x,1/2-y,z
loop_
_atom_site_type_symbol
_atom_site_label
_atom_site_fract_x
_atom_site_fract_y
_atom_site_fract_z
Si Si1 0.959064 0.823249 0.725666
Si Si2 0.577680 0.500000 0.106713
Si Si3 0.888711 0.638599 0.790270
Si Si4 0.272834 0.500000 0.753631
Si Si5 0.595653 0.389521 0.634004
Si Si6 0.502637 0.000000 0.311424
Si Si7 0.361530 0.000000 0.061844
Si Si8 0.244694 0.855665 0.542209
O O1 0.921605 0.739164 0.800166
O O2 0.931626 0.834652 0.532925
O O3 0.045088 0.842514 0.752830
O O4 0.926122 0.910729 0.792036
O O5 0.661337 0.500000 0.094063
O O6 0.500000 0.500000 0.000000
O O7 0.820224 0.625029 0.652235
O O8 0.953669 0.584684 0.735765
O O9 0.868813 0.588733 0.950297
O O10 0.206178 0.500000 0.848067
O O11 0.269426 0.415739 0.624008
O O12 0.581163 0.500000 0.626318
O O13 0.680434 0.376166 0.647226
O O14 0.500000 0.000000 0.500000
O O15 0.427044 0.000000 0.204905
O O16 0.250000 0.750000 0.500000
#
# Coordination Sequence:
#
# PCOD9219433 Si02
#       8
#     8   4   8   4   8   4   4   8
#     4  11  21  41  63 100 133 173 225 289 344 415
#     4  12  24  40  62  94 134 182 231 276 351 418
#     4  11  24  42  70 100 141 182 226 289 353 413
#     4  12  24  46  68  93 147 185 227 301 335 421
#     4  11  20  37  72  95 139 176 229 292 350 401
#     4  11  25  45  70 100 126 175 243 291 348 411
#     4  11  27  48  68  98 141 187 237 281 361 409
#     4  12  22  41  70 109 139 180 235 289 350 420
#
# _framework density 20.888845
#
# number of rings (size 3 to 8) (size 9 to 14) (size 15 to 20)
#    0.000    0.667    5.833    3.500    2.333    4.000 
#    0.000    3.333    0.000    0.000    0.000    0.000 
#    0.000    0.000    0.000    0.000    0.000    0.000 
#
# Total GULP energy -133684.136183 kJ/mol
# GULP energy per Si atom -5570.172341 kJ/mol
# Density = 2.084130 g / cm^3
# Si number density = 20.888845 Si / 1000 Ang^3
#
#
#
# Elastic Constant Matrix: (Units=GPa)
#
#
# Indices 1 2 3 4 5 6 
#
# 1 213.1640 34.7360 49.4547 0.0000 -4.6387 0.0000
# 2 34.7360 141.7899 26.2671 0.0000 -15.2279 0.0000
# 3 49.4547 26.2671 67.2626 0.0000 2.2771 0.0000
# 4 0.0000 0.0000 0.0000 -32.6617 0.0000 22.9534
# 5 -4.6387 -15.2279 2.2771 0.0000 32.9833 0.0000
# 6 0.0000 0.0000 0.0000 22.9534 0.0000 9.4021
#
#
#
# Elastic Compliance Matrix: (Units=1/GPa)
#
#
# Indices 1 2 3 4 5 6 
#
# 1 0.005735 -0.000572 -0.004021 0.000000 0.000820 0.000000
# 2 -0.000572 0.008145 -0.002892 0.000000 0.003880 0.000000
# 3 -0.004021 -0.002892 0.019062 0.000000 -0.003217 0.000000
# 4 0.000000 0.000000 0.000000 -0.011274 0.000000 0.027524
# 5 0.000820 0.003880 -0.003217 0.000000 0.032447 0.000000
# 6 0.000000 0.000000 0.000000 0.027524 0.000000 0.039165
#
#
# Mechanical properties :
#
#
# Convention : Reuss Voigt Hill
#
# Bulk Modulus (GPa) = 55.64031 71.45912 63.54972
# Shear Modulus (GPa) = 43.76729 22.72864 33.24797
#
# Velocity S-wave (km/s) = 4.58235 3.30218 3.99389
# Velocity P-wave (km/s) = 7.39537 6.98732 7.19424
#
# Compressibility (1/GPa) = 0.01797258
#
# Stress axis : x y z
#
# Youngs Moduli (GPa) = 174.36150 122.77215 52.46097
#
# Poissons Ratio (x) = 0.07023 0.21096
# Poissons Ratio (y) = 0.09974 0.15170
# Poissons Ratio (z) = 0.70114 0.35501
#
# Static dielectric constant tensor:
#      x y z
#    x 1.767560 0.000000 -0.094060 
#    y 0.000000 1.698630 0.000000 
#    z -0.094060 0.000000 1.410050 
# 
# From -- ./inp_files/73717.got.cif
#   From: 2010.05.17/outbox.cif.g08.bks.cpg/sg12_37_cif.got.tgz:73717.got - 2010.06.03 13:09:07.
