data_PCOD9219607
_publ_section_title
;
Structure prediction by ZEFSAII (Michael W. Deem and Ramdas Pophale) SiO2 
 PCOD9219607
Probable space group: C 2/M
;
_chemical_formula_sum "Si O2"
_cell_formula_units_Z 56
_cell_length_a 24.259840
_cell_length_b 7.466593
_cell_length_c 19.509318
_cell_angle_alpha 90.000000
_cell_angle_beta 52.262294
_cell_angle_gamma 90.000000
_cell_volume 2794.670740
_symmetry_space_group_name_H-M "C 2/M"
_symmetry_group_IT_number 12
_symmetry_cell_setting 'monoclinic'
loop_
_space_group_symop_operation_xyz
x,y,z
-x,y,-z
-x,-y,-z
x,-y,z
1/2+x,1/2+y,z
1/2-x,1/2+y,-z
1/2-x,1/2-y,-z
1/2+x,1/2-y,z
loop_
_atom_site_type_symbol
_atom_site_label
_atom_site_fract_x
_atom_site_fract_y
_atom_site_fract_z
Si Si1 0.628280 0.218399 0.489096
Si Si2 0.566292 0.720275 0.743290
Si Si3 0.284816 0.291838 0.208224
Si Si4 0.562982 0.719422 0.903914
Si Si5 0.488502 0.704895 0.676108
Si Si6 0.218957 0.208274 0.621912
Si Si7 0.863423 0.709502 0.673125
O O1 0.562093 0.285323 0.580657
O O2 0.704991 0.280441 0.456230
O O3 0.620327 0.278092 0.415657
O O4 0.627236 0.000000 0.492498
O O5 0.568613 0.500000 0.739583
O O6 0.554080 0.771410 0.831163
O O7 0.507100 0.782855 0.736216
O O8 0.643352 0.784144 0.660472
O O9 0.287255 0.500000 0.184609
O O10 0.360214 0.216421 0.131449
O O11 0.282039 0.286791 0.293771
O O12 0.210086 0.213819 0.243619
O O13 0.564253 0.500000 0.903490
O O14 0.500000 0.777218 0.000000
O O15 0.468339 0.500000 0.701782
O O16 0.427744 0.780928 0.675311
O O17 0.219142 0.000000 0.601610
O O18 0.848859 0.500000 0.672712
#
# Coordination Sequence:
#
# PCOD9219607 Si02
#       7
#     8   8   8   8   8   8   8
#     4   9  17  29  45  61  75 102 148 188 209 230
#     4   8  15  26  37  56  87 113 131 159 208 259
#     4   7  11  21  39  62  81  99 130 171 209 238
#     4   8  12  21  42  68  87 102 126 166 211 250
#     4  11  21  28  37  57  87 118 140 166 207 248
#     4   7  11  23  41  56  74 102 134 170 209 245
#     4   9  17  30  45  58  78 111 148 179 201 229
#
# _framework density 20.038138
#
# number of rings (size 3 to 8) (size 9 to 14) (size 15 to 20)
#    0.000    3.571    0.000    4.286    0.000    2.857 
#    0.000    0.000    0.000    1.714    0.000    6.000 
#    0.000    4.000    0.000    0.000    0.000    0.143 
#
# Total GULP energy -155966.783464 kJ/mol
# GULP energy per Si atom -5570.242267 kJ/mol
# Density = 1.999253 g / cm^3
# Si number density = 20.038138 Si / 1000 Ang^3
#
#
#
# Elastic Constant Matrix: (Units=GPa)
#
#
# Indices 1 2 3 4 5 6 
#
# 1 103.6929 -3.2791 46.0789 0.0011 -4.2573 0.0014
# 2 -3.2791 54.2483 -5.7531 -0.0081 0.9222 0.0061
# 3 46.0789 -5.7531 107.4022 0.0028 -18.8335 -0.0015
# 4 0.0011 -0.0081 0.0028 -0.7766 -0.0052 7.4375
# 5 -4.2573 0.9222 -18.8335 -0.0052 19.6947 0.0033
# 6 0.0014 0.0061 -0.0015 7.4375 0.0033 -4.0074
#
#
#
# Elastic Compliance Matrix: (Units=1/GPa)
#
#
# Indices 1 2 3 4 5 6 
#
# 1 0.012045 0.000177 -0.005651 -0.000003 -0.002808 -0.000002
# 2 0.000177 0.018542 0.000927 -0.000005 0.000057 0.000019
# 3 -0.005651 0.000927 0.013893 0.000000 0.012020 0.000005
# 4 -0.000003 -0.000005 0.000000 0.076763 -0.000004 0.142468
# 5 -0.002808 0.000057 0.012020 -0.000004 0.061660 0.000039
# 6 -0.000002 0.000019 0.000005 0.142468 0.000039 0.014876
#
#
# Mechanical properties :
#
#
# Convention : Reuss Voigt Hill
#
# Bulk Modulus (GPa) = 28.25962 37.71518 32.98740
# Shear Modulus (GPa) = 22.86571 18.20192 20.53381
#
# Velocity S-wave (km/s) = 3.38170 3.01718 3.20462
# Velocity P-wave (km/s) = 5.42046 5.56780 5.49462
#
# Compressibility (1/GPa) = 0.03538618
#
# Stress axis : x y z
#
# Youngs Moduli (GPa) = 83.02046 53.93213 71.98059
#
# Poissons Ratio (x) = -0.00952 0.40674
# Poissons Ratio (y) = -0.01466 -0.06676
# Poissons Ratio (z) = 0.46913 -0.05002
#
# Static dielectric constant tensor:
#      x y z
#    x 1.738520 0.000000 -0.020500 
#    y 0.000000 1.780150 0.000000 
#    z -0.020500 0.000000 1.697670 
# 
# From -- ./inp_files/295165.got.cif
#   From: 2010.05.17/outbox.cif.g08.bks.cpg/sg12_148_cif.got.tgz:295165.got - 2010.06.03 13:09:07.
