data_PCOD9219857
_publ_section_title
;
Structure prediction by ZEFSAII (Michael W. Deem and Ramdas Pophale) SiO2 
 PCOD9219857
Probable space group: C 2/M
;
_chemical_formula_sum "Si O2"
_cell_formula_units_Z 44
_cell_length_a 14.994843
_cell_length_b 19.065210
_cell_length_c 9.029129
_cell_angle_alpha 90.000000
_cell_angle_beta 132.742363
_cell_angle_gamma 90.000000
_cell_volume 1895.700474
_symmetry_space_group_name_H-M "C 2/M"
_symmetry_group_IT_number 12
_symmetry_cell_setting 'monoclinic'
loop_
_space_group_symop_operation_xyz
x,y,z
-x,y,-z
-x,-y,-z
x,-y,z
1/2+x,1/2+y,z
1/2-x,1/2+y,-z
1/2-x,1/2-y,-z
1/2+x,1/2-y,z
loop_
_atom_site_type_symbol
_atom_site_label
_atom_site_fract_x
_atom_site_fract_y
_atom_site_fract_z
Si Si1 0.000000 0.166576 0.000000
Si Si2 0.223579 0.680005 0.382970
Si Si3 0.357413 0.575655 0.352170
Si Si4 0.870250 0.725218 0.040109
Si Si5 0.652103 0.079235 0.873337
Si Si6 0.746068 0.580764 0.339245
O O1 0.961613 0.211379 0.104594
O O2 0.882054 0.120408 0.828736
O O3 0.250000 0.750000 0.500000
O O4 0.335292 0.639839 0.434757
O O5 0.153359 0.701659 0.156517
O O6 0.180739 0.622186 0.452121
O O7 0.500000 0.571430 0.500000
O O8 0.314487 0.500000 0.363872
O O9 0.277276 0.584218 0.112548
O O10 0.913844 0.652500 0.162716
O O11 0.750000 0.750000 0.000000
O O12 0.601248 0.000000 0.846657
O O13 0.684314 0.082692 0.737715
O O14 0.724975 0.500000 0.351714
#
# Coordination Sequence:
#
# PCOD9219857 Si02
#       6
#     4   8   8   8   8   8
#     4  12  23  38  65  94 128 162 206 262 315 376
#     4  11  21  36  54  83 125 159 200 240 303 376
#     4   9  19  32  51  80 114 152 197 250 307 363
#     4  11  22  41  62  88 127 168 211 256 312 377
#     4   9  19  37  58  81 119 167 209 254 311 374
#     4  11  23  38  62  95 129 162 203 261 324 380
#
# _framework density 23.210418000000001
#
# number of rings (size 3 to 8) (size 9 to 14) (size 15 to 20)
#    0.000    1.636    3.636    0.818    2.545    0.727 
#    0.000    0.455    0.000    0.000    0.000    2.545 
#    0.000    0.000    0.000    0.000    0.000    0.000 
#
# Total GULP energy -122675.171371 kJ/mol
# GULP energy per Si atom -5576.144153 kJ/mol
# Density = 2.315759 g / cm^3
# Si number density = 23.210418 Si / 1000 Ang^3
#
#
#
# Elastic Constant Matrix: (Units=GPa)
#
#
# Indices 1 2 3 4 5 6 
#
# 1 75.9477 52.1554 31.3639 0.0000 -7.0061 0.0000
# 2 52.1554 196.3122 33.6059 0.0000 -16.3985 0.0000
# 3 31.3639 33.6059 83.5275 0.0000 -32.2073 0.0000
# 4 0.0000 0.0000 0.0000 27.0566 0.0000 -12.1991
# 5 -7.0061 -16.3985 -32.2073 0.0000 34.3883 0.0000
# 6 0.0000 0.0000 0.0000 -12.1991 0.0000 41.2602
#
#
#
# Elastic Compliance Matrix: (Units=1/GPa)
#
#
# Indices 1 2 3 4 5 6 
#
# 1 0.018496 -0.004093 -0.007197 0.000000 -0.004924 0.000000
# 2 -0.004093 0.006393 -0.000284 0.000000 0.001949 0.000000
# 3 -0.007197 -0.000284 0.022182 0.000000 0.019173 0.000000
# 4 0.000000 0.000000 0.000000 0.042644 0.000000 0.012608
# 5 -0.004924 0.001949 0.019173 0.000000 0.046963 0.000000
# 6 0.000000 0.000000 0.000000 0.012608 0.000000 0.027964
#
#
# Mechanical properties :
#
#
# Convention : Reuss Voigt Hill
#
# Bulk Modulus (GPa) = 41.80104 65.55972 53.68038
# Shear Modulus (GPa) = 25.54112 36.45183 30.99648
#
# Velocity S-wave (km/s) = 3.32085 3.96725 3.65835
# Velocity P-wave (km/s) = 5.72300 7.02086 6.40489
#
# Compressibility (1/GPa) = 0.02392285
#
# Stress axis : x y z
#
# Youngs Moduli (GPa) = 54.06672 156.42779 45.08259
#
# Poissons Ratio (x) = 0.64029 0.32445
# Poissons Ratio (y) = 0.22130 0.01278
# Poissons Ratio (z) = 0.38911 0.04436
#
# Static dielectric constant tensor:
#      x y z
#    x 1.952820 0.000000 0.019970 
#    y 0.000000 1.961490 0.000000 
#    z 0.019970 0.000000 1.938940 
# 
# From -- ./inp_files/74652.got.cif
#   From: 2010.05.17/outbox.cif.g08.bks.cpg/sg12_38_cif.got.tgz:74652.got - 2010.06.03 13:09:07.
