data_PCOD9219431
_publ_section_title
;
Structure prediction by ZEFSAII (Michael W. Deem and Ramdas Pophale) SiO2 
 PCOD9219431
Probable space group: C 2/M
;
_chemical_formula_sum "Si O2"
_cell_formula_units_Z 44
_cell_length_a 16.164192
_cell_length_b 22.323991
_cell_length_c 5.943790
_cell_angle_alpha 90.000000
_cell_angle_beta 96.995123
_cell_angle_gamma 90.000000
_cell_volume 2128.847458
_symmetry_space_group_name_H-M "C 2/M"
_symmetry_group_IT_number 12
_symmetry_cell_setting 'monoclinic'
loop_
_space_group_symop_operation_xyz
x,y,z
-x,y,-z
-x,-y,-z
x,-y,z
1/2+x,1/2+y,z
1/2-x,1/2+y,-z
1/2-x,1/2-y,-z
1/2+x,1/2-y,z
loop_
_atom_site_type_symbol
_atom_site_label
_atom_site_fract_x
_atom_site_fract_y
_atom_site_fract_z
Si Si1 0.769782 0.500000 0.516781
Si Si2 0.399544 0.818280 0.620892
Si Si3 0.365616 0.000000 0.048705
Si Si4 0.774274 0.128551 0.547380
Si Si5 0.500000 0.897741 0.000000
Si Si6 0.583695 0.705844 0.639669
Si Si7 0.327418 0.284784 0.915032
O O1 0.820669 0.500000 0.285943
O O2 0.713554 0.559181 0.487020
O O3 0.816720 0.500000 0.783309
O O4 0.321729 0.860362 0.543435
O O5 0.465427 0.857000 0.783614
O O6 0.417012 0.777679 0.406159
O O7 0.365236 0.763791 0.759842
O O8 0.425201 0.058724 0.057388
O O9 0.835081 0.171421 0.425233
O O10 0.790591 0.154774 0.799046
O O11 0.500000 0.682036 0.500000
O O12 0.595059 0.698551 0.905036
O O13 0.250000 0.250000 0.000000
#
# Coordination Sequence:
#
# PCOD9219431 Si02
#       7
#     4   8   4   8   4   8   8
#     4  12  28  49  73  99 138 196 248 283 345 409
#     4  11  21  39  61 101 134 180 219 275 353 420
#     4  11  28  48  68 102 145 193 237 285 330 426
#     4  11  24  41  65  95 132 178 238 282 344 418
#     4  11  24  42  66 102 152 183 228 278 348 421
#     4  11  23  40  65  99 135 172 222 297 360 414
#     4  11  20  37  67  95 130 173 221 284 350 413
#
# _framework density 20.66846
#
# number of rings (size 3 to 8) (size 9 to 14) (size 15 to 20)
#    0.000    0.909    5.455    2.182    5.091    5.091 
#    3.273    0.455    0.000    1.091    0.000    0.000 
#    0.000    0.000    0.000    0.000    0.000    0.000 
#
# Total GULP energy -122568.750086 kJ/mol
# GULP energy per Si atom -5571.306822 kJ/mol
# Density = 2.062142 g / cm^3
# Si number density = 20.668460 Si / 1000 Ang^3
#
#
#
# Elastic Constant Matrix: (Units=GPa)
#
#
# Indices 1 2 3 4 5 6 
#
# 1 56.0521 24.9284 30.4698 0.0000 18.3469 0.0000
# 2 24.9284 143.8021 31.9993 0.0000 25.3387 0.0000
# 3 30.4698 31.9993 100.9971 0.0000 35.6012 0.0000
# 4 0.0000 0.0000 0.0000 30.0763 0.0000 15.8560
# 5 18.3469 25.3387 35.6012 0.0000 38.5358 0.0000
# 6 0.0000 0.0000 0.0000 15.8560 0.0000 30.3220
#
#
#
# Elastic Compliance Matrix: (Units=1/GPa)
#
#
# Indices 1 2 3 4 5 6 
#
# 1 0.022912 -0.002028 -0.004292 0.000000 -0.005609 0.000000
# 2 -0.002028 0.008112 -0.000621 0.000000 -0.003795 0.000000
# 3 -0.004292 -0.000621 0.015613 0.000000 -0.011972 0.000000
# 4 0.000000 0.000000 0.000000 0.045903 0.000000 -0.024004
# 5 -0.005609 -0.003795 -0.011972 0.000000 0.042177 0.000000
# 6 0.000000 0.000000 0.000000 -0.024004 0.000000 0.045531
#
#
# Mechanical properties :
#
#
# Convention : Reuss Voigt Hill
#
# Bulk Modulus (GPa) = 30.52982 52.84959 41.68971
# Shear Modulus (GPa) = 24.38429 34.01706 29.20068
#
# Velocity S-wave (km/s) = 3.43852 4.06130 3.76282
# Velocity P-wave (km/s) = 5.52882 6.90057 6.25243
#
# Compressibility (1/GPa) = 0.03275486
#
# Stress axis : x y z
#
# Youngs Moduli (GPa) = 43.64533 123.26738 64.04853
#
# Poissons Ratio (x) = 0.25002 0.27493
# Poissons Ratio (y) = 0.08853 0.03975
# Poissons Ratio (z) = 0.18735 0.07650
#
# Static dielectric constant tensor:
#      x y z
#    x 1.791110 0.000000 -0.059190 
#    y 0.000000 0.230690 0.000000 
#    z -0.059190 0.000000 1.902750 
# 
# From -- ./inp_files/16113.got.cif
#   From: 2010.05.17/outbox.cif.g08.bks.cpg/sg12_9_cif.got.tgz:16113.got - 2010.06.03 13:09:07.
