data_PCOD9219116
_publ_section_title
;
Structure prediction by ZEFSAII (Michael W. Deem and Ramdas Pophale) SiO2 
 PCOD9219116
Probable space group: C 2/M
;
_chemical_formula_sum "Si O2"
_cell_formula_units_Z 48
_cell_length_a 10.551154
_cell_length_b 29.010598
_cell_length_c 8.641877
_cell_angle_alpha 90.000000
_cell_angle_beta 63.299885
_cell_angle_gamma 90.000000
_cell_volume 2363.177400
_symmetry_space_group_name_H-M "C 2/M"
_symmetry_group_IT_number 12
_symmetry_cell_setting 'monoclinic'
loop_
_space_group_symop_operation_xyz
x,y,z
-x,y,-z
-x,-y,-z
x,-y,z
1/2+x,1/2+y,z
1/2-x,1/2+y,-z
1/2-x,1/2-y,-z
1/2+x,1/2-y,z
loop_
_atom_site_type_symbol
_atom_site_label
_atom_site_fract_x
_atom_site_fract_y
_atom_site_fract_z
Si Si1 0.067419 0.552515 0.633718
Si Si2 0.887972 0.622094 0.926999
Si Si3 0.567453 0.366284 0.134498
Si Si4 0.639609 0.294695 0.317940
Si Si5 0.353477 0.192250 0.676173
Si Si6 0.804080 0.871721 0.476202
O O1 0.093632 0.500000 0.667776
O O2 0.207999 0.583830 0.553602
O O3 0.000000 0.552387 0.500000
O O4 0.954198 0.579000 0.800501
O O5 0.882812 0.667176 0.820986
O O6 0.723745 0.611575 0.054876
O O7 0.000000 0.631531 0.000000
O O8 0.596375 0.313474 0.173631
O O9 0.462089 0.383834 0.328884
O O10 0.500000 0.370320 0.000000
O O11 0.500000 0.289305 0.500000
O O12 0.706115 0.244109 0.278187
O O13 0.713675 0.336811 0.368711
O O14 0.500000 0.192989 0.500000
O O15 0.251975 0.158793 0.636317
#
# Coordination Sequence:
#
# PCOD9219116 Si02
#       6
#     8   8   8   8   8   8
#     4  11  22  42  71  96 121 169 226 269 319 391
#     4  12  24  41  63  94 133 175 209 270 324 386
#     4  11  22  39  60  90 133 171 202 264 332 376
#     4   9  22  35  59  92 124 172 218 261 309 378
#     4  11  20  38  62  90 123 176 223 258 307 384
#     4  11  19  42  64  90 125 167 216 272 315 373
#
# _framework density 20.311637000000001
#
# number of rings (size 3 to 8) (size 9 to 14) (size 15 to 20)
#    0.000    1.167    5.000    1.500    0.000    1.667 
#    0.000    0.833    0.000   12.500    0.000    0.000 
#    0.000    0.000    0.000    0.000    0.000    0.000 
#
# Total GULP energy -133925.958366 kJ/mol
# GULP energy per Si atom -5580.248265 kJ/mol
# Density = 2.026541 g / cm^3
# Si number density = 20.311637 Si / 1000 Ang^3
#
#
#
# Elastic Constant Matrix: (Units=GPa)
#
#
# Indices 1 2 3 4 5 6 
#
# 1 114.2369 48.5252 61.4599 0.0000 -4.0183 0.0000
# 2 48.5252 156.8473 60.7731 0.0000 -13.6366 0.0000
# 3 61.4599 60.7731 78.2677 0.0000 -12.3802 0.0000
# 4 0.0000 0.0000 0.0000 -44.3439 0.0000 42.8425
# 5 -4.0183 -13.6366 -12.3802 0.0000 54.8462 0.0000
# 6 0.0000 0.0000 0.0000 42.8425 0.0000 24.7355
#
#
#
# Elastic Compliance Matrix: (Units=1/GPa)
#
#
# Indices 1 2 3 4 5 6 
#
# 1 0.015303 -0.000173 -0.012145 0.000000 -0.001663 0.000000
# 2 -0.000173 0.009147 -0.006853 0.000000 0.000715 0.000000
# 3 -0.012145 -0.006853 0.028233 0.000000 0.003779 0.000000
# 4 0.000000 0.000000 0.000000 -0.008435 0.000000 0.014610
# 5 -0.001663 0.000715 0.003779 0.000000 0.019142 0.000000
# 6 0.000000 0.000000 0.000000 0.014610 0.000000 0.015122
#
#
# Mechanical properties :
#
#
# Convention : Reuss Voigt Hill
#
# Bulk Modulus (GPa) = 69.73883 76.76313 73.25098
# Shear Modulus (GPa) = 41.10659 18.95381 30.03020
#
# Velocity S-wave (km/s) = 4.50354 3.05807 3.84926
# Velocity P-wave (km/s) = 7.83910 7.09533 7.47647
#
# Compressibility (1/GPa) = 0.01433921
#
# Stress axis : x y z
#
# Youngs Moduli (GPa) = 65.34635 109.32880 35.41934
#
# Poissons Ratio (x) = 0.01892 0.43019
# Poissons Ratio (y) = 0.01131 0.24274
# Poissons Ratio (z) = 0.79366 0.74926
#
# Static dielectric constant tensor:
#      x y z
#    x 1.817490 0.000000 -0.033310 
#    y 0.000000 1.709410 0.000000 
#    z -0.033310 0.000000 1.794420 
# 
# From -- ./inp_files/52457.got.cif
#   From: 2010.05.17/outbox.cif.g08.bks.cpg/sg12_27_cif.got.tgz:52457.got - 2010.06.03 13:09:07.
