data_PCOD9219864
_publ_section_title
;
Structure prediction by ZEFSAII (Michael W. Deem and Ramdas Pophale) SiO2 
 PCOD9219864
Probable space group: C 2/M
;
_chemical_formula_sum "Si O2"
_cell_formula_units_Z 56
_cell_length_a 9.263024
_cell_length_b 26.204509
_cell_length_c 18.262332
_cell_angle_alpha 90.000000
_cell_angle_beta 143.024482
_cell_angle_gamma 90.000000
_cell_volume 2666.255135
_symmetry_space_group_name_H-M "C 2/M"
_symmetry_group_IT_number 12
_symmetry_cell_setting 'monoclinic'
loop_
_space_group_symop_operation_xyz
x,y,z
-x,y,-z
-x,-y,-z
x,-y,z
1/2+x,1/2+y,z
1/2-x,1/2+y,-z
1/2-x,1/2-y,-z
1/2+x,1/2-y,z
loop_
_atom_site_type_symbol
_atom_site_label
_atom_site_fract_x
_atom_site_fract_y
_atom_site_fract_z
Si Si1 0.768378 0.273989 0.585579
Si Si2 0.335966 0.672119 0.996312
Si Si3 0.167418 0.361695 0.173794
Si Si4 0.393428 0.723979 0.164987
Si Si5 0.408366 0.438178 0.676730
Si Si6 0.021095 0.560552 0.395301
Si Si7 0.771573 0.376671 0.631726
O O1 0.500000 0.285293 0.500000
O O2 0.750000 0.250000 0.500000
O O3 0.883737 0.329646 0.631459
O O4 0.889893 0.238747 0.694690
O O5 0.224990 0.723079 0.911475
O O6 0.121436 0.636582 0.939736
O O7 0.500000 0.647975 0.000000
O O8 0.465219 0.693625 0.120988
O O9 0.227608 0.311887 0.149225
O O10 0.341406 0.407550 0.218731
O O11 0.227338 0.358443 0.284439
O O12 0.443994 0.500000 0.690580
O O13 0.230398 0.422741 0.670893
O O14 0.246759 0.423866 0.539315
O O15 0.017812 0.500000 0.399763
O O16 0.068409 0.576919 0.331410
O O17 0.500000 0.389739 0.500000
#
# Coordination Sequence:
#
# PCOD9219864 Si02
#       7
#     8   8   8   8   8   8   8
#     4  11  25  38  56  89 136 173 204 252 322 396
#     4  11  25  42  68  88 119 174 232 281 319 366
#     4  12  23  40  63  93 128 165 228 270 328 383
#     4  11  23  44  65  90 128 176 221 269 316 390
#     4   9  20  39  64  92 129 173 221 274 329 398
#     4   9  19  37  60  93 132 177 220 260 329 406
#     4  11  21  36  55  92 134 174 211 264 321 391
#
# _framework density 21.003240999999999
#
# number of rings (size 3 to 8) (size 9 to 14) (size 15 to 20)
#    0.000    1.429    2.857    4.714    2.000    3.143 
#    0.000    0.000    0.000    2.143    0.000    0.000 
#    0.000    0.000    0.000    0.000    0.000    0.000 
#
# Total GULP energy -156181.391914 kJ/mol
# GULP energy per Si atom -5577.906854 kJ/mol
# Density = 2.095544 g / cm^3
# Si number density = 21.003241 Si / 1000 Ang^3
#
#
#
# Elastic Constant Matrix: (Units=GPa)
#
#
# Indices 1 2 3 4 5 6 
#
# 1 116.2986 40.0908 26.2399 0.0004 5.7349 0.0002
# 2 40.0908 48.6583 19.2408 0.0004 13.9290 0.0003
# 3 26.2399 19.2408 79.4676 -0.0070 -5.6113 0.0004
# 4 0.0004 0.0004 -0.0070 11.9814 0.0003 3.1140
# 5 5.7349 13.9290 -5.6113 0.0003 39.8605 -0.0001
# 6 0.0002 0.0003 0.0004 3.1140 -0.0001 25.9732
#
#
#
# Elastic Compliance Matrix: (Units=1/GPa)
#
#
# Indices 1 2 3 4 5 6 
#
# 1 0.012305 -0.009953 -0.001548 -0.000001 0.001490 0.000000
# 2 -0.009953 0.034312 -0.005825 -0.000004 -0.011378 0.000000
# 3 -0.001548 -0.005825 0.014812 0.000009 0.004343 -0.000001
# 4 -0.000001 -0.000004 0.000009 0.086147 0.000002 -0.010328
# 5 0.001490 -0.011378 0.004343 0.000002 0.029461 0.000000
# 6 0.000000 0.000000 -0.000001 -0.010328 0.000000 0.039740
#
#
# Mechanical properties :
#
#
# Convention : Reuss Voigt Hill
#
# Bulk Modulus (GPa) = 37.34421 46.17416 41.75918
# Shear Modulus (GPa) = 19.20457 26.15322 22.67890
#
# Velocity S-wave (km/s) = 3.02712 3.53257 3.28957
# Velocity P-wave (km/s) = 5.48058 6.21858 5.86121
#
# Compressibility (1/GPa) = 0.02677791
#
# Stress axis : x y z
#
# Youngs Moduli (GPa) = 81.26493 29.14395 67.51309
#
# Poissons Ratio (x) = 0.29007 0.10452
# Poissons Ratio (y) = 0.80883 0.39325
# Poissons Ratio (z) = 0.12581 0.16976
#
# Static dielectric constant tensor:
#      x y z
#    x 1.764770 0.000000 0.008310 
#    y 0.000000 1.831270 0.000000 
#    z 0.008310 0.000000 1.798960 
# 
# From -- ./inp_files/260169.got.cif
#   From: 2010.05.17/outbox.cif.g08.bks.cpg/sg12_131_cif.got.tgz:260169.got - 2010.06.03 13:09:07.
