data_PCOD9219499
_publ_section_title
;
Structure prediction by ZEFSAII (Michael W. Deem and Ramdas Pophale) SiO2 
 PCOD9219499
Probable space group: C 2/M
;
_chemical_formula_sum "Si O2"
_cell_formula_units_Z 42
_cell_length_a 28.444495
_cell_length_b 14.886199
_cell_length_c 9.541294
_cell_angle_alpha 90.000000
_cell_angle_beta 144.666556
_cell_angle_gamma 90.000000
_cell_volume 2336.511835
_symmetry_space_group_name_H-M "C 2/M"
_symmetry_group_IT_number 12
_symmetry_cell_setting 'monoclinic'
loop_
_space_group_symop_operation_xyz
x,y,z
-x,y,-z
-x,-y,-z
x,-y,z
1/2+x,1/2+y,z
1/2-x,1/2+y,-z
1/2-x,1/2-y,-z
1/2+x,1/2-y,z
loop_
_atom_site_type_symbol
_atom_site_label
_atom_site_fract_x
_atom_site_fract_y
_atom_site_fract_z
Si Si1 0.964834 0.894067 0.569167
Si Si2 0.627811 0.836774 0.326146
Si Si3 0.572796 0.645010 0.085343
Si Si4 0.000000 0.500000 0.000000
Si Si5 0.305139 0.278351 0.265978
Si Si6 0.251223 0.398967 0.387270
O O1 0.885263 0.834575 0.412247
O O2 0.000000 0.881441 0.500000
O O3 0.945466 0.000000 0.542589
O O4 0.039743 0.866145 0.850236
O O5 0.584301 0.748297 0.158320
O O6 0.664788 0.805407 0.565295
O O7 0.695806 0.859269 0.375379
O O8 0.568645 0.920747 0.194636
O O9 0.657751 0.600781 0.329552
O O10 0.500000 0.605624 0.000000
O O11 0.255520 0.339471 0.257202
O O12 0.250000 0.250000 0.000000
O O13 0.224374 0.500000 0.289422
#
# Coordination Sequence:
#
# PCOD9219499 Si02
#       6
#     8   8   8   2   8   8
#     4  11  24  39  60  92 123 165 203 258 313 368
#     4  11  23  42  67  94 121 171 212 264 311 368
#     4  11  20  39  65  88 125 158 209 256 315 372
#     4  12  20  44  68  94 128 154 230 268 300 372
#     4  11  24  43  62  89 134 170 205 255 321 384
#     4  11  23  40  66  97 121 162 211 266 311 365
#
# _framework density 17.975514
#
# number of rings (size 3 to 8) (size 9 to 14) (size 15 to 20)
#    0.000    0.952    5.714    3.429    5.333    0.762 
#    3.429    0.000    0.000    1.143    0.000    0.000 
#    0.000    0.000    0.000    0.000    0.000    0.000 
#
# Total GULP energy -116934.361905 kJ/mol
# GULP energy per Si atom -5568.302948 kJ/mol
# Density = 1.793460 g / cm^3
# Si number density = 17.975514 Si / 1000 Ang^3
#
#
#
# Elastic Constant Matrix: (Units=GPa)
#
#
# Indices 1 2 3 4 5 6 
#
# 1 100.2302 53.5346 81.7496 0.0000 -5.6314 0.0000
# 2 53.5346 131.7253 56.2387 0.0000 -6.6143 0.0000
# 3 81.7496 56.2387 138.4124 0.0000 -29.4368 0.0000
# 4 0.0000 0.0000 0.0000 173.3398 0.0000 6.4259
# 5 -5.6314 -6.6143 -29.4368 0.0000 37.3455 0.0000
# 6 0.0000 0.0000 0.0000 6.4259 0.0000 24.6460
#
#
#
# Elastic Compliance Matrix: (Units=1/GPa)
#
#
# Indices 1 2 3 4 5 6 
#
# 1 0.022522 -0.003817 -0.013423 0.000000 -0.007860 0.000000
# 2 -0.003817 0.009910 -0.001828 0.000000 -0.000261 0.000000
# 3 -0.013423 -0.001828 0.018497 0.000000 0.012232 0.000000
# 4 0.000000 0.000000 0.000000 0.005825 0.000000 -0.001519
# 5 -0.007860 -0.000261 0.012232 0.000000 0.035187 0.000000
# 6 0.000000 0.000000 0.000000 -0.001519 0.000000 0.040971
#
#
# Mechanical properties :
#
#
# Convention : Reuss Voigt Hill
#
# Bulk Modulus (GPa) = 78.16366 83.71264 80.93815
# Shear Modulus (GPa) = 28.52074 58.98926 43.75500
#
# Velocity S-wave (km/s) = 3.98759 5.73478 4.93906
# Velocity P-wave (km/s) = 8.04854 9.51429 8.81194
#
# Compressibility (1/GPa) = 0.01279367
#
# Stress axis : x y z
#
# Youngs Moduli (GPa) = 44.40080 100.90754 54.06426
#
# Poissons Ratio (x) = 0.38519 0.72569
# Poissons Ratio (y) = 0.16949 0.09880
# Poissons Ratio (z) = 0.59598 0.18441
#
# Static dielectric constant tensor:
#      x y z
#    x 1.652450 0.000000 -0.007730 
#    y 0.000000 1.594440 0.000000 
#    z -0.007730 0.000000 1.579230 
# 
# From -- ./inp_files/72938.got.cif
#   From: 2010.05.17/outbox.cif.g08.bks.cpg/sg12_37_cif.got.tgz:72938.got - 2010.06.03 13:09:07.
