data_PCOD9219579
_publ_section_title
;
Structure prediction by ZEFSAII (Michael W. Deem and Ramdas Pophale) SiO2 
 PCOD9219579
Probable space group: C 2/M
;
_chemical_formula_sum "Si O2"
_cell_formula_units_Z 56
_cell_length_a 9.712431
_cell_length_b 24.952772
_cell_length_c 16.081199
_cell_angle_alpha 90.000000
_cell_angle_beta 127.707175
_cell_angle_gamma 90.000000
_cell_volume 3083.346464
_symmetry_space_group_name_H-M "C 2/M"
_symmetry_group_IT_number 12
_symmetry_cell_setting 'monoclinic'
loop_
_space_group_symop_operation_xyz
x,y,z
-x,y,-z
-x,-y,-z
x,-y,z
1/2+x,1/2+y,z
1/2-x,1/2+y,-z
1/2-x,1/2-y,-z
1/2+x,1/2-y,z
loop_
_atom_site_type_symbol
_atom_site_label
_atom_site_fract_x
_atom_site_fract_y
_atom_site_fract_z
Si Si1 0.018396 0.304188 0.101799
Si Si2 0.599297 0.564535 0.337341
Si Si3 0.787897 0.564287 0.581789
Si Si4 0.804042 0.000000 0.898785
Si Si5 0.490754 0.000000 0.898228
Si Si6 0.813332 0.193796 0.897701
Si Si7 0.736749 0.900487 0.248303
Si Si8 0.815286 0.597942 0.260318
O O1 0.121904 0.248656 0.122913
O O2 0.137240 0.345356 0.196586
O O3 0.833477 0.298093 0.083312
O O4 0.000000 0.326235 0.000000
O O5 0.582450 0.500000 0.320258
O O6 0.683702 0.573751 0.458916
O O7 0.411848 0.591869 0.261272
O O8 0.721107 0.589129 0.312524
O O9 0.798512 0.500000 0.597083
O O10 0.710245 0.589282 0.636678
O O11 0.981420 0.587935 0.650038
O O12 0.754904 0.051653 0.826602
O O13 0.683768 0.000000 0.934732
O O14 0.000000 0.000000 0.000000
O O15 0.392755 0.948090 0.826334
O O16 0.500000 0.000000 0.000000
O O17 0.728792 0.153592 0.800455
O O18 0.000000 0.171237 0.000000
#
# Coordination Sequence:
#
# PCOD9219579 Si02
#       8
#     8   8   8   4   4   8   8   8
#     4  11  24  42  66  92 122 162 207 253 303 369
#     4  11  24  36  65  96 123 165 210 254 298 372
#     4  11  20  42  63  90 127 163 208 252 308 362
#     4  12  24  38  57  87 126 160 193 245 307 374
#     4  12  24  38  57  87 126 160 193 245 307 374
#     4  11  24  42  66  92 122 162 207 253 303 369
#     4  12  22  40  61  91 127 159 202 253 310 362
#     4  12  22  40  61  91 127 159 202 253 310 362
#
# _framework density 18.162085000000001
#
# number of rings (size 3 to 8) (size 9 to 14) (size 15 to 20)
#    0.000    0.571    5.714    3.429    6.000    2.286 
#    0.000    0.000    0.000    5.143    0.000    0.000 
#    0.000    0.000    0.000    0.000    0.000    0.000 
#
# Total GULP energy -156401.007486 kJ/mol
# GULP energy per Si atom -5585.750267 kJ/mol
# Density = 1.812075 g / cm^3
# Si number density = 18.162085 Si / 1000 Ang^3
#
#
#
# Elastic Constant Matrix: (Units=GPa)
#
#
# Indices 1 2 3 4 5 6 
#
# 1 112.4016 26.3848 47.1196 0.0000 -5.7422 0.0000
# 2 26.3848 61.2282 34.6299 0.0000 0.2164 0.0000
# 3 47.1196 34.6299 77.3063 0.0000 -5.2685 0.0000
# 4 0.0000 0.0000 0.0000 17.7301 0.0000 0.1150
# 5 -5.7422 0.2164 -5.2685 0.0000 41.8555 0.0000
# 6 0.0000 0.0000 0.0000 0.1150 0.0000 21.3706
#
#
#
# Elastic Compliance Matrix: (Units=1/GPa)
#
#
# Indices 1 2 3 4 5 6 
#
# 1 0.012066 -0.001439 -0.006653 0.000000 0.000825 0.000000
# 2 -0.001439 0.022123 -0.009132 0.000000 -0.001461 0.000000
# 3 -0.006653 -0.009132 0.021205 0.000000 0.001804 0.000000
# 4 0.000000 0.000000 0.000000 0.056403 0.000000 -0.000303
# 5 0.000825 -0.001461 0.001804 0.000000 0.024240 0.000000
# 6 0.000000 0.000000 0.000000 -0.000303 0.000000 0.046795
#
#
# Mechanical properties :
#
#
# Convention : Reuss Voigt Hill
#
# Bulk Modulus (GPa) = 47.74793 51.91162 49.82978
# Shear Modulus (GPa) = 22.29533 25.71138 24.00336
#
# Velocity S-wave (km/s) = 3.50748 3.76661 3.63935
# Velocity P-wave (km/s) = 6.53836 6.89644 6.71979
#
# Compressibility (1/GPa) = 0.02094331
#
# Stress axis : x y z
#
# Youngs Moduli (GPa) = 82.87877 45.20194 47.15934
#
# Poissons Ratio (x) = 0.06506 0.31377
# Poissons Ratio (y) = 0.11929 0.43068
# Poissons Ratio (z) = 0.55142 0.41280
#
# Static dielectric constant tensor:
#      x y z
#    x 1.609740 0.000000 -0.006530 
#    y 0.000000 1.610740 0.000000 
#    z -0.006530 0.000000 1.597730 
# 
# From -- ./inp_files/199001.got.cif
#   From: 2010.05.17/outbox.cif.g08.bks.cpg/sg12_100_cif.got.tgz:199001.got - 2010.06.03 13:09:07.
