data_PCOD9219489
_publ_section_title
;
Structure prediction by ZEFSAII (Michael W. Deem and Ramdas Pophale) SiO2 
 PCOD9219489
Probable space group: C 2/M
;
_chemical_formula_sum "Si O2"
_cell_formula_units_Z 52
_cell_length_a 16.598446
_cell_length_b 14.843217
_cell_length_c 18.909475
_cell_angle_alpha 90.000000
_cell_angle_beta 31.755140
_cell_angle_gamma 90.000000
_cell_volume 2451.885732
_symmetry_space_group_name_H-M "C 2/M"
_symmetry_group_IT_number 12
_symmetry_cell_setting 'monoclinic'
loop_
_space_group_symop_operation_xyz
x,y,z
-x,y,-z
-x,-y,-z
x,-y,z
1/2+x,1/2+y,z
1/2-x,1/2+y,-z
1/2-x,1/2-y,-z
1/2+x,1/2-y,z
loop_
_atom_site_type_symbol
_atom_site_label
_atom_site_fract_x
_atom_site_fract_y
_atom_site_fract_z
Si Si1 0.139849 0.222396 0.350060
Si Si2 0.919605 0.844819 0.127734
Si Si3 0.867501 0.694536 0.961920
Si Si4 0.668376 0.892104 0.679842
Si Si5 0.330644 0.403267 0.345518
Si Si6 0.250000 0.250000 0.500000
Si Si7 0.884794 0.100659 0.760445
O O1 0.257875 0.296452 0.233445
O O2 0.232844 0.150382 0.329105
O O3 0.074636 0.170115 0.330997
O O4 0.000000 0.259511 0.500000
O O5 0.036299 0.766200 0.064704
O O6 0.885617 0.900211 0.223598
O O7 0.000000 0.888803 0.000000
O O8 0.991978 0.636705 0.826026
O O9 0.750000 0.750000 0.000000
O O10 0.770282 0.631557 0.086246
O O11 0.715682 0.841578 0.572732
O O12 0.687380 0.000000 0.662175
O O13 0.254344 0.500000 0.415969
O O14 0.245737 0.312004 0.429975
O O15 0.483345 0.397048 0.279404
O O16 0.872450 0.000000 0.740976
#
# Coordination Sequence:
#
# PCOD9219489 Si02
#       7
#     8   8   8   8   8   4   8
#     4  11  23  39  61  96 134 176 216 271 338 407
#     4  11  22  42  66  92 127 179 227 271 331 388
#     4  11  20  39  61  91 128 170 217 269 327 397
#     4  11  24  39  62  96 134 175 220 270 340 412
#     4  11  24  41  65  97 128 167 225 275 328 399
#     4  12  20  40  62  88 128 172 210 274 334 390
#     4  11  22  36  61  95 128 163 210 271 331 394
#
# _framework density 21.208165999999999
#
# number of rings (size 3 to 8) (size 9 to 14) (size 15 to 20)
#    0.000    0.923    6.154    2.308    0.000    2.769 
#    0.000    2.308    0.000    0.462    0.000    0.000 
#    0.000    0.000    0.000    0.000    0.000    0.000 
#
# Total GULP energy -144817.958284 kJ/mol
# GULP energy per Si atom -5569.921472 kJ/mol
# Density = 2.115989 g / cm^3
# Si number density = 21.208166 Si / 1000 Ang^3
#
#
#
# Elastic Constant Matrix: (Units=GPa)
#
#
# Indices 1 2 3 4 5 6 
#
# 1 55.6254 18.7633 23.1367 -0.0002 20.9462 0.0000
# 2 18.7633 107.9548 27.8782 -0.0001 10.6615 0.0001
# 3 23.1367 27.8782 108.3827 -0.0002 15.6100 0.0002
# 4 -0.0002 -0.0001 -0.0002 21.8976 0.0003 1.8415
# 5 20.9462 10.6615 15.6100 0.0003 38.7685 -0.0001
# 6 0.0000 0.0001 0.0002 1.8415 -0.0001 15.2804
#
#
#
# Elastic Compliance Matrix: (Units=1/GPa)
#
#
# Indices 1 2 3 4 5 6 
#
# 1 0.024234 -0.002338 -0.002950 0.000000 -0.011263 0.000000
# 2 -0.002338 0.010268 -0.002035 0.000000 -0.000741 0.000000
# 3 -0.002950 -0.002035 0.010690 0.000000 -0.002151 0.000000
# 4 0.000000 0.000000 0.000000 0.046135 -0.000001 -0.005560
# 5 -0.011263 -0.000741 -0.002151 -0.000001 0.032949 0.000000
# 6 0.000000 0.000000 0.000000 -0.005560 0.000000 0.066113
#
#
# Mechanical properties :
#
#
# Convention : Reuss Voigt Hill
#
# Bulk Modulus (GPa) = 32.73798 45.72437 39.23117
# Shear Modulus (GPa) = 23.23236 28.66829 25.95033
#
# Velocity S-wave (km/s) = 3.31334 3.68061 3.50180
# Velocity P-wave (km/s) = 5.48704 6.29835 5.90664
#
# Compressibility (1/GPa) = 0.03054556
#
# Stress axis : x y z
#
# Youngs Moduli (GPa) = 41.26428 97.38713 93.54931
#
# Poissons Ratio (x) = 0.22769 0.27595
# Poissons Ratio (y) = 0.09648 0.19041
# Poissons Ratio (z) = 0.12172 0.19822
#
# Static dielectric constant tensor:
#      x y z
#    x 1.787340 0.000000 0.000780 
#    y 0.000000 1.756510 0.000000 
#    z 0.000780 0.000000 1.792550 
# 
# From -- ./inp_files/316495.got.cif
#   From: 2010.05.17/outbox.cif.g08.bks.cpg/sg12_159_cif.got.tgz:316495.got - 2010.06.03 13:09:07.
