data_PCOD9219894
_publ_section_title
;
Structure prediction by ZEFSAII (Michael W. Deem and Ramdas Pophale) SiO2 
 PCOD9219894
Probable space group: C 2/M
;
_chemical_formula_sum "Si O2"
_cell_formula_units_Z 36
_cell_length_a 4.982598
_cell_length_b 22.880049
_cell_length_c 15.050321
_cell_angle_alpha 90.000000
_cell_angle_beta 77.414583
_cell_angle_gamma 90.000000
_cell_volume 1674.541955
_symmetry_space_group_name_H-M "C 2/M"
_symmetry_group_IT_number 12
_symmetry_cell_setting 'monoclinic'
loop_
_space_group_symop_operation_xyz
x,y,z
-x,y,-z
-x,-y,-z
x,-y,z
1/2+x,1/2+y,z
1/2-x,1/2+y,-z
1/2-x,1/2-y,-z
1/2+x,1/2-y,z
loop_
_atom_site_type_symbol
_atom_site_label
_atom_site_fract_x
_atom_site_fract_y
_atom_site_fract_z
Si Si1 0.251377 0.933153 0.759762
Si Si2 0.900854 0.213828 0.642149
Si Si3 0.773096 0.358945 0.185190
Si Si4 0.805331 0.096397 0.440021
Si Si5 0.500000 0.793449 0.000000
O O1 0.515692 0.895226 0.768468
O O2 0.214224 0.932196 0.655682
O O3 0.982845 0.900964 0.818135
O O4 0.278668 0.000000 0.787683
O O5 0.610511 0.232210 0.622435
O O6 0.845337 0.194616 0.747693
O O7 0.047982 0.158414 0.589190
O O8 0.926250 0.333778 0.089087
O O9 0.500000 0.101991 0.500000
O O10 0.000000 0.067036 0.500000
O O11 0.750000 0.750000 0.000000
#
# Coordination Sequence:
#
# PCOD9219894 Si02
#       5
#     8   8   8   8   4
#     4  11  24  44  66  87 123 168 208 260 319 362
#     4  11  21  36  58  83 121 164 196 241 309 371
#     4  11  23  42  64  95 126 159 210 255 302 374
#     4  11  23  38  58  89 123 159 214 266 304 367
#     4  12  24  42  71 102 133 164 200 248 304 368
#
# _framework density 21.498415999999999
#
# number of rings (size 3 to 8) (size 9 to 14) (size 15 to 20)
#    0.000    0.889    0.000   10.000    0.000    3.556 
#    0.000    3.333    0.000    0.000    0.000    0.000 
#    0.000    0.000    0.000    0.000    0.000    0.000 
#
# Total GULP energy -100762.881605 kJ/mol
# GULP energy per Si atom -5597.937867 kJ/mol
# Density = 2.144948 g / cm^3
# Si number density = 21.498416 Si / 1000 Ang^3
#
#
#
# Elastic Constant Matrix: (Units=GPa)
#
#
# Indices 1 2 3 4 5 6 
#
# 1 143.7816 35.9550 21.3691 0.0000 -10.3331 0.0000
# 2 35.9550 94.5495 24.1936 0.0000 -7.6124 0.0000
# 3 21.3691 24.1936 99.1888 0.0000 -23.1862 0.0000
# 4 0.0000 0.0000 0.0000 -17.7866 0.0000 2.2492
# 5 -10.3331 -7.6124 -23.1862 0.0000 35.1114 0.0000
# 6 0.0000 0.0000 0.0000 2.2492 0.0000 -6.6073
#
#
#
# Elastic Compliance Matrix: (Units=1/GPa)
#
#
# Indices 1 2 3 4 5 6 
#
# 1 0.007826 -0.002687 -0.000743 0.000000 0.001230 0.000000
# 2 -0.002687 0.012219 -0.002326 0.000000 0.000322 0.000000
# 3 -0.000743 -0.002326 0.012583 0.000000 0.007586 0.000000
# 4 0.000000 0.000000 0.000000 -0.058751 0.000000 -0.020000
# 5 0.001230 0.000322 0.007586 0.000000 0.033922 0.000000
# 6 0.000000 0.000000 0.000000 -0.020000 0.000000 -0.158156
#
#
# Mechanical properties :
#
#
# Convention : Reuss Voigt Hill
#
# Bulk Modulus (GPa) = 47.35908 55.61726 51.48817
# Shear Modulus (GPa) = -37.93440 19.21032 -9.36204
#
# Velocity S-wave (km/s) = -4.20518 2.99251 -2.08907
# Velocity P-wave (km/s) = 1.22519 6.15359 4.26413
#
# Compressibility (1/GPa) = 0.02111528
#
# Stress axis : x y z
#
# Youngs Moduli (GPa) = 127.78424 81.83711 79.47489
#
# Poissons Ratio (x) = 0.21988 0.05906
# Poissons Ratio (y) = 0.34333 0.18488
# Poissons Ratio (z) = 0.09496 0.19038
#
# Static dielectric constant tensor:
#      x y z
#    x 1.747320 0.000000 0.021590 
#    y 0.000000 1.777110 0.000000 
#    z 0.021590 0.000000 1.782740 
# 
# From -- ./inp_files/191201.got.cif
#   From: 2010.05.17/outbox.cif.g08.bks.cpg/sg12_96_cif.got.tgz:191201.got - 2010.06.03 13:09:07.
