data_PCOD9219302
_publ_section_title
;
Structure prediction by ZEFSAII (Michael W. Deem and Ramdas Pophale) SiO2 
 PCOD9219302
Probable space group: C 2/M
;
_chemical_formula_sum "Si O2"
_cell_formula_units_Z 56
_cell_length_a 15.087636
_cell_length_b 17.380431
_cell_length_c 18.354778
_cell_angle_alpha 90.000000
_cell_angle_beta 35.623278
_cell_angle_gamma 90.000000
_cell_volume 2803.444491
_symmetry_space_group_name_H-M "C 2/M"
_symmetry_group_IT_number 12
_symmetry_cell_setting 'monoclinic'
loop_
_space_group_symop_operation_xyz
x,y,z
-x,y,-z
-x,-y,-z
x,-y,z
1/2+x,1/2+y,z
1/2-x,1/2+y,-z
1/2-x,1/2-y,-z
1/2+x,1/2-y,z
loop_
_atom_site_type_symbol
_atom_site_label
_atom_site_fract_x
_atom_site_fract_y
_atom_site_fract_z
Si Si1 0.342289 0.810036 0.139736
Si Si2 0.459793 0.086395 0.610810
Si Si3 0.736990 0.089556 0.044125
Si Si4 0.662448 0.366326 0.869387
Si Si5 0.358558 0.294627 0.868077
Si Si6 0.621191 0.090232 0.747817
Si Si7 0.380755 0.196794 0.379296
O O1 0.363873 0.719530 0.143695
O O2 0.222537 0.810271 0.154617
O O3 0.311624 0.861704 0.229933
O O4 0.500000 0.838222 0.000000
O O5 0.500000 0.097912 0.500000
O O6 0.277318 0.090468 0.740738
O O7 0.530841 0.152676 0.614428
O O8 0.508474 0.000000 0.601683
O O9 0.750218 0.134399 0.111459
O O10 0.564980 0.097746 0.128230
O O11 0.759614 0.000000 0.044293
O O12 0.863992 0.123599 0.905522
O O13 0.500000 0.400224 0.000000
O O14 0.510395 0.249549 0.745076
O O15 0.250000 0.250000 0.000000
O O16 0.675771 0.129563 0.636800
O O17 0.655557 0.000000 0.729035
O O18 0.250000 0.250000 0.500000
#
# Coordination Sequence:
#
# PCOD9219302 Si02
#       7
#     8   8   8   8   8   8   8
#     4  11  20  34  63 100 131 161 212 266 317 386
#     4  11  24  44  66  92 129 169 216 272 328 388
#     4  11  22  39  65  94 132 171 212 264 330 388
#     4  11  23  38  66  99 131 168 214 270 322 389
#     4  12  20  41  65  95 130 164 216 268 322 379
#     4  11  23  40  65  95 130 172 215 266 331 395
#     4  12  26  42  67  95 125 174 224 267 325 395
#
# _framework density 19.975428000000001
#
# number of rings (size 3 to 8) (size 9 to 14) (size 15 to 20)
#    0.000    0.714    7.143    0.857    4.000    2.000 
#    0.000    2.857    0.000    0.857    0.000    0.000 
#    0.000    0.000    0.000    0.000    0.000    0.000 
#
# Total GULP energy -156261.504238 kJ/mol
# GULP energy per Si atom -5580.768008 kJ/mol
# Density = 1.992996 g / cm^3
# Si number density = 19.975428 Si / 1000 Ang^3
#
#
#
# Elastic Constant Matrix: (Units=GPa)
#
#
# Indices 1 2 3 4 5 6 
#
# 1 67.4512 38.3357 36.0063 0.0004 13.7418 0.0003
# 2 38.3357 127.8008 63.4451 0.0009 13.1359 -0.0004
# 3 36.0063 63.4451 134.4358 0.0050 14.3027 -0.0026
# 4 0.0004 0.0009 0.0050 15.1874 -0.0018 -1.3206
# 5 13.7418 13.1359 14.3027 -0.0018 22.0318 0.0004
# 6 0.0003 -0.0004 -0.0026 -1.3206 0.0004 30.4486
#
#
#
# Elastic Compliance Matrix: (Units=1/GPa)
#
#
# Indices 1 2 3 4 5 6 
#
# 1 0.020185 -0.003844 -0.002682 -0.000001 -0.008557 0.000000
# 2 -0.003844 0.011163 -0.004066 0.000001 -0.001618 0.000000
# 3 -0.002682 -0.004066 0.010355 -0.000003 -0.002625 0.000001
# 4 -0.000001 0.000001 -0.000003 0.066093 0.000008 0.002867
# 5 -0.008557 -0.001618 -0.002625 0.000008 0.053395 -0.000001
# 6 0.000000 0.000000 0.000001 0.002867 -0.000001 0.032967
#
#
# Mechanical properties :
#
#
# Convention : Reuss Voigt Hill
#
# Bulk Modulus (GPa) = 48.73580 67.25131 57.99356
# Shear Modulus (GPa) = 22.50407 26.32694 24.41550
#
# Velocity S-wave (km/s) = 3.36011 3.63432 3.49990
# Velocity P-wave (km/s) = 6.28527 7.16597 6.74002
#
# Compressibility (1/GPa) = 0.02051880
#
# Stress axis : x y z
#
# Youngs Moduli (GPa) = 49.54146 89.58358 96.57045
#
# Poissons Ratio (x) = 0.34436 0.25898
# Poissons Ratio (y) = 0.19044 0.39270
# Poissons Ratio (z) = 0.13286 0.36428
#
# Static dielectric constant tensor:
#      x y z
#    x 1.752110 0.000000 -0.025310 
#    y 0.000000 1.753230 0.000000 
#    z -0.025310 0.000000 1.704230 
# 
# From -- ./inp_files/271406.got.cif
#   From: 2010.05.17/outbox.cif.g08.bks.cpg/sg12_136_cif.got.tgz:271406.got - 2010.06.03 13:09:07.
