data_PCOD9219114
_publ_section_title
;
Structure prediction by ZEFSAII (Michael W. Deem and Ramdas Pophale) SiO2 
 PCOD9219114
Probable space group: C 2/M
;
_chemical_formula_sum "Si O2"
_cell_formula_units_Z 56
_cell_length_a 15.055754
_cell_length_b 26.246064
_cell_length_c 10.962518
_cell_angle_alpha 90.000000
_cell_angle_beta 43.272373
_cell_angle_gamma 90.000000
_cell_volume 2969.366395
_symmetry_space_group_name_H-M "C 2/M"
_symmetry_group_IT_number 12
_symmetry_cell_setting 'monoclinic'
loop_
_space_group_symop_operation_xyz
x,y,z
-x,y,-z
-x,-y,-z
x,-y,z
1/2+x,1/2+y,z
1/2-x,1/2+y,-z
1/2-x,1/2-y,-z
1/2+x,1/2-y,z
loop_
_atom_site_type_symbol
_atom_site_label
_atom_site_fract_x
_atom_site_fract_y
_atom_site_fract_z
Si Si1 0.851389 0.338262 0.139337
Si Si2 0.000148 0.860258 0.143953
Si Si3 0.330953 0.000000 0.304622
Si Si4 0.513194 0.163545 0.347465
Si Si5 0.111317 0.747664 0.070734
Si Si6 0.757968 0.604718 0.994140
Si Si7 0.228179 0.388241 0.535164
Si Si8 0.642089 0.000000 0.007822
O O1 0.778628 0.364859 0.100023
O O2 0.784540 0.353322 0.330985
O O3 0.863307 0.279686 0.084937
O O4 0.000000 0.358442 0.000000
O O5 0.860969 0.874282 0.336451
O O6 0.044723 0.802032 0.124723
O O7 0.112077 0.893386 0.095253
O O8 0.000000 0.868291 0.000000
O O9 0.280436 0.947444 0.415128
O O10 0.306535 0.000000 0.183172
O O11 0.486717 0.000000 0.160245
O O12 0.500000 0.180668 0.500000
O O13 0.523770 0.209823 0.240335
O O14 0.394695 0.127565 0.425113
O O15 0.647203 0.132794 0.196031
O O16 0.250000 0.750000 0.000000
O O17 0.808796 0.549134 0.971169
#
# Coordination Sequence:
#
# PCOD9219114 Si02
#       8
#     8   8   4   8   8   8   8   4
#     4  11  19  41  68  99 133 163 222 293 336 397
#     4  12  28  48  65  94 146 191 223 276 342 414
#     4  11  22  41  72 111 133 171 227 290 343 402
#     4  11  23  42  64  96 136 173 226 279 326 414
#     4  11  23  42  69  93 132 180 229 277 342 404
#     4  11  22  43  68  98 134 177 218 279 342 400
#     4  12  25  42  71 104 136 175 229 286 342 405
#     4  11  20  39  76 101 133 171 223 288 355 384
#
# _framework density 18.859242999999999
#
# number of rings (size 3 to 8) (size 9 to 14) (size 15 to 20)
#    0.000    0.714    8.571    1.286    0.000    2.857 
#    0.000    5.000    0.000    0.000    0.000    0.000 
#    0.000    0.000    0.000    0.000    0.000    0.000 
#
# Total GULP energy -156459.905490 kJ/mol
# GULP energy per Si atom -5587.853767 kJ/mol
# Density = 1.881632 g / cm^3
# Si number density = 18.859243 Si / 1000 Ang^3
#
#
#
# Elastic Constant Matrix: (Units=GPa)
#
#
# Indices 1 2 3 4 5 6 
#
# 1 76.6665 6.3962 44.6456 0.0000 1.6646 0.0000
# 2 6.3962 95.9071 31.5952 0.0000 8.2922 0.0000
# 3 44.6456 31.5952 147.5218 0.0000 2.7212 0.0000
# 4 0.0000 0.0000 0.0000 19.5352 0.0000 -11.9049
# 5 1.6646 8.2922 2.7212 0.0000 33.0424 0.0000
# 6 0.0000 0.0000 0.0000 -11.9049 0.0000 15.2681
#
#
#
# Elastic Compliance Matrix: (Units=1/GPa)
#
#
# Indices 1 2 3 4 5 6 
#
# 1 0.015872 0.000611 -0.004924 0.000000 -0.000547 0.000000
# 2 0.000611 0.011473 -0.002592 0.000000 -0.002697 0.000000
# 3 -0.004924 -0.002592 0.008821 0.000000 0.000172 0.000000
# 4 0.000000 0.000000 0.000000 0.097535 0.000000 0.076051
# 5 -0.000547 -0.002697 0.000172 0.000000 0.030954 0.000000
# 6 0.000000 0.000000 0.000000 0.076051 0.000000 0.124795
#
#
# Mechanical properties :
#
#
# Convention : Reuss Voigt Hill
#
# Bulk Modulus (GPa) = 44.73301 53.92994 49.33148
# Shear Modulus (GPa) = 16.09202 29.39971 22.74586
#
# Velocity S-wave (km/s) = 2.92425 3.95258 3.47664
# Velocity P-wave (km/s) = 5.93064 7.03481 6.50619
#
# Compressibility (1/GPa) = 0.02235486
#
# Stress axis : x y z
#
# Youngs Moduli (GPa) = 63.00425 87.15973 113.36639
#
# Poissons Ratio (x) = -0.05326 0.55824
# Poissons Ratio (y) = -0.03850 0.29389
# Poissons Ratio (z) = 0.31025 0.22596
#
# Static dielectric constant tensor:
#      x y z
#    x 1.653990 0.000000 0.001840 
#    y 0.000000 1.677360 0.000000 
#    z 0.001840 0.000000 1.630500 
# 
# From -- ./inp_files/149461.got.cif
#   From: 2010.05.17/outbox.cif.g08.bks.cpg/sg12_75_cif.got.tgz:149461.got - 2010.06.03 13:09:07.
