data_PCOD9219765
_publ_section_title
;
Structure prediction by ZEFSAII (Michael W. Deem and Ramdas Pophale) SiO2 
 PCOD9219765
Probable space group: C 2/M
;
_chemical_formula_sum "Si O2"
_cell_formula_units_Z 56
_cell_length_a 9.387917
_cell_length_b 17.650989
_cell_length_c 30.947078
_cell_angle_alpha 90.000000
_cell_angle_beta 144.487674
_cell_angle_gamma 90.000000
_cell_volume 2978.810837
_symmetry_space_group_name_H-M "C 2/M"
_symmetry_group_IT_number 12
_symmetry_cell_setting 'monoclinic'
loop_
_space_group_symop_operation_xyz
x,y,z
-x,y,-z
-x,-y,-z
x,-y,z
1/2+x,1/2+y,z
1/2-x,1/2+y,-z
1/2-x,1/2-y,-z
1/2+x,1/2-y,z
loop_
_atom_site_type_symbol
_atom_site_label
_atom_site_fract_x
_atom_site_fract_y
_atom_site_fract_z
Si Si1 0.200694 0.909032 0.144796
Si Si2 0.363752 0.913196 0.685012
Si Si3 0.053181 0.585026 0.443318
Si Si4 0.315576 0.830261 0.995046
Si Si5 0.278947 0.199582 0.585749
Si Si6 0.114924 0.874657 0.391569
Si Si7 0.701202 0.912732 0.923356
O O1 0.374659 0.897568 0.228652
O O2 0.337890 0.881377 0.134658
O O3 0.937288 0.869667 0.082725
O O4 0.163166 0.000000 0.130495
O O5 0.294453 0.849732 0.632983
O O6 0.155204 0.906868 0.670112
O O7 0.360158 0.000000 0.667111
O O8 0.109156 0.500000 0.441636
O O9 0.080745 0.649239 0.414667
O O10 0.240748 0.605342 0.528340
O O11 0.782246 0.588851 0.396140
O O12 0.500000 0.825332 0.000000
O O13 0.250000 0.750000 0.000000
O O14 0.406367 0.875783 0.060048
O O15 0.381973 0.284213 0.614262
O O16 0.000000 0.206700 0.500000
O O17 0.627360 0.000000 0.905534
O O18 0.000000 0.908519 0.000000
#
# Coordination Sequence:
#
# PCOD9219765 Si02
#       7
#     8   8   8   8   8   8   8
#     4   9  20  40  61  86 121 157 191 238 297 360
#     4  11  23  40  61  85 118 160 201 242 302 367
#     4  11  21  34  56  83 111 144 202 262 297 350
#     4  11  21  36  61  91 121 153 192 241 281 343
#     4  12  22  37  57  84 117 155 202 259 309 353
#     4  11  21  37  56  80 111 153 194 246 310 361
#     4   8  15  32  58  83 110 147 186 225 274 338
#
# _framework density 18.799448999999999
#
# number of rings (size 3 to 8) (size 9 to 14) (size 15 to 20)
#    0.000    1.571    2.857    6.000    0.000    1.714 
#    5.143    1.429    0.000    3.429    0.000    0.000 
#    0.000    0.000    0.000    0.000    0.000    0.000 
#
# Total GULP energy -156204.228874 kJ/mol
# GULP energy per Si atom -5578.722460 kJ/mol
# Density = 1.875666 g / cm^3
# Si number density = 18.799449 Si / 1000 Ang^3
#
#
#
# Elastic Constant Matrix: (Units=GPa)
#
#
# Indices 1 2 3 4 5 6 
#
# 1 107.9000 21.9191 14.4130 0.0000 1.9666 -0.0001
# 2 21.9191 104.0305 21.7848 0.0000 -2.0121 0.0000
# 3 14.4130 21.7848 55.2081 -0.0001 6.0777 0.0001
# 4 0.0000 0.0000 -0.0001 17.9726 0.0000 0.7252
# 5 1.9666 -2.0121 6.0777 0.0000 17.7858 -0.0001
# 6 -0.0001 0.0000 0.0001 0.7252 -0.0001 29.4259
#
#
#
# Elastic Compliance Matrix: (Units=1/GPa)
#
#
# Indices 1 2 3 4 5 6 
#
# 1 0.009872 -0.001709 -0.001830 0.000000 -0.000660 0.000000
# 2 -0.001709 0.010901 -0.004168 0.000000 0.002847 0.000000
# 3 -0.001830 -0.004168 0.021058 0.000000 -0.007465 0.000000
# 4 0.000000 0.000000 0.000000 0.055696 0.000000 -0.001373
# 5 -0.000660 0.002847 -0.007465 0.000000 0.059171 0.000000
# 6 0.000000 0.000000 0.000000 -0.001373 0.000000 0.034017
#
#
# Mechanical properties :
#
#
# Convention : Reuss Voigt Hill
#
# Bulk Modulus (GPa) = 37.85850 42.59695 40.22773
# Shear Modulus (GPa) = 23.26292 26.97163 25.11728
#
# Velocity S-wave (km/s) = 3.52152 3.79186 3.65919
# Velocity P-wave (km/s) = 6.05943 6.47138 6.26879
#
# Compressibility (1/GPa) = 0.02641415
#
# Stress axis : x y z
#
# Youngs Moduli (GPa) = 101.30102 91.73712 47.48861
#
# Poissons Ratio (x) = 0.15682 0.08690
# Poissons Ratio (y) = 0.17317 0.19795
# Poissons Ratio (z) = 0.18538 0.38240
#
# Static dielectric constant tensor:
#      x y z
#    x 1.685080 0.000000 -0.027530 
#    y 0.000000 1.662710 0.000000 
#    z -0.027530 0.000000 1.665670 
# 
# From -- ./inp_files/372801.got.cif
#   From: 2010.05.17/outbox.cif.g08.bks.cpg/sg12_187_cif.got.tgz:372801.got - 2010.06.03 13:09:07.
