data_PCOD9219445
_publ_section_title
;
Structure prediction by ZEFSAII (Michael W. Deem and Ramdas Pophale) SiO2 
 PCOD9219445
Probable space group: C 2/M
;
_chemical_formula_sum "Si O2"
_cell_formula_units_Z 48
_cell_length_a 11.032684
_cell_length_b 15.338072
_cell_length_c 21.769336
_cell_angle_alpha 90.000000
_cell_angle_beta 143.461392
_cell_angle_gamma 90.000000
_cell_volume 2193.208588
_symmetry_space_group_name_H-M "C 2/M"
_symmetry_group_IT_number 12
_symmetry_cell_setting 'monoclinic'
loop_
_space_group_symop_operation_xyz
x,y,z
-x,y,-z
-x,-y,-z
x,-y,z
1/2+x,1/2+y,z
1/2-x,1/2+y,-z
1/2-x,1/2-y,-z
1/2+x,1/2-y,z
loop_
_atom_site_type_symbol
_atom_site_label
_atom_site_fract_x
_atom_site_fract_y
_atom_site_fract_z
Si Si1 0.191447 0.353629 0.119543
Si Si2 0.482978 0.500000 0.750542
Si Si3 0.373530 0.000000 0.294739
Si Si4 0.000000 0.349858 0.500000
Si Si5 0.204837 0.600206 0.266910
Si Si6 0.745521 0.000000 0.536026
Si Si7 0.486644 0.731060 0.599159
Si Si8 0.124525 0.678270 0.778021
O O1 0.386836 0.413144 0.180803
O O2 0.155816 0.380185 0.176053
O O3 0.225188 0.248836 0.129635
O O4 0.000000 0.378078 0.000000
O O5 0.271549 0.500000 0.703286
O O6 0.452068 0.500000 0.663389
O O7 0.613875 0.000000 0.416660
O O8 0.322173 0.914079 0.233318
O O9 0.846897 0.412195 0.472413
O O10 0.092701 0.288126 0.589486
O O11 0.178900 0.500000 0.271348
O O12 0.433022 0.633563 0.376093
O O13 0.049850 0.654848 0.244955
O O14 0.250000 0.750000 0.500000
O O15 0.548628 0.763982 0.690441
#
# Coordination Sequence:
#
# PCOD9219445 Si02
#       8
#     8   4   4   4   8   4   8   8
#     4  11  28  49  74 101 133 183 244 301 360 421
#     4  12  24  43  76 104 141 184 241 295 344 418
#     4  12  23  44  68 112 144 184 231 288 348 430
#     4  11  20  38  59  92 136 178 235 266 318 391
#     4  11  25  46  71  98 143 185 230 294 366 422
#     4  11  22  35  67  96 139 173 229 269 327 397
#     4  11  24  38  62  96 139 187 236 272 338 418
#     4  11  25  45  69  97 146 182 230 292 360 421
#
# _framework density 21.885743999999999
#
# number of rings (size 3 to 8) (size 9 to 14) (size 15 to 20)
#    0.000    0.833    5.000    1.250   11.667    0.667 
#    3.000    1.667    0.000    0.000    0.000    0.000 
#    0.000    0.000    0.000    0.000    0.000    0.000 
#
# Total GULP energy -133860.311835 kJ/mol
# GULP energy per Si atom -5577.512993 kJ/mol
# Density = 2.183593 g / cm^3
# Si number density = 21.885744 Si / 1000 Ang^3
#
#
#
# Elastic Constant Matrix: (Units=GPa)
#
#
# Indices 1 2 3 4 5 6 
#
# 1 66.4245 10.5648 11.4068 0.0000 -10.2495 0.0000
# 2 10.5648 128.8271 37.6446 0.0000 6.1799 -0.0001
# 3 11.4068 37.6446 99.0620 -0.0001 9.1863 0.0000
# 4 0.0000 0.0000 -0.0001 33.3780 0.0000 26.7839
# 5 -10.2495 6.1799 9.1863 0.0000 18.6078 0.0000
# 6 0.0000 -0.0001 0.0000 26.7839 0.0000 183.3852
#
#
#
# Elastic Compliance Matrix: (Units=1/GPa)
#
#
# Indices 1 2 3 4 5 6 
#
# 1 0.017434 -0.001213 -0.002593 0.000000 0.011286 0.000000
# 2 -0.001213 0.008848 -0.003027 0.000000 -0.002113 0.000000
# 3 -0.002593 -0.003027 0.012138 0.000000 -0.006416 0.000000
# 4 0.000000 0.000000 0.000000 0.033937 0.000000 -0.004957
# 5 0.011286 -0.002113 -0.006416 0.000000 0.063826 0.000000
# 6 0.000000 0.000000 0.000000 -0.004957 0.000000 0.006177
#
#
# Mechanical properties :
#
#
# Convention : Reuss Voigt Hill
#
# Bulk Modulus (GPa) = 40.39695 45.94954 43.17325
# Shear Modulus (GPa) = 30.43616 62.72072 46.57844
#
# Velocity S-wave (km/s) = 3.73323 5.35915 4.61831
# Velocity P-wave (km/s) = 6.08941 7.70290 6.94318
#
# Compressibility (1/GPa) = 0.02475435
#
# Stress axis : x y z
#
# Youngs Moduli (GPa) = 57.35758 113.02523 82.38380
#
# Poissons Ratio (x) = 0.13715 0.21362
# Poissons Ratio (y) = 0.06960 0.24934
# Poissons Ratio (z) = 0.14873 0.34207
#
# Static dielectric constant tensor:
#      x y z
#    x 1.841190 0.000000 0.030790 
#    y 0.000000 1.878990 0.000000 
#    z 0.030790 0.000000 1.824320 
# 
# From -- ./inp_files/305732.got.cif
#   From: 2010.05.17/outbox.cif.g08.bks.cpg/sg12_153_cif.got.tgz:305732.got - 2010.06.03 13:09:07.
