data_PCOD9219357
_publ_section_title
;
Structure prediction by ZEFSAII (Michael W. Deem and Ramdas Pophale) SiO2 
 PCOD9219357
Probable space group: C 2/M
;
_chemical_formula_sum "Si O2"
_cell_formula_units_Z 48
_cell_length_a 14.740889
_cell_length_b 25.183406
_cell_length_c 13.671160
_cell_angle_alpha 90.000000
_cell_angle_beta 149.734775
_cell_angle_gamma 90.000000
_cell_volume 2557.861730
_symmetry_space_group_name_H-M "C 2/M"
_symmetry_group_IT_number 12
_symmetry_cell_setting 'monoclinic'
loop_
_space_group_symop_operation_xyz
x,y,z
-x,y,-z
-x,-y,-z
x,-y,z
1/2+x,1/2+y,z
1/2-x,1/2+y,-z
1/2-x,1/2-y,-z
1/2+x,1/2-y,z
loop_
_atom_site_type_symbol
_atom_site_label
_atom_site_fract_x
_atom_site_fract_y
_atom_site_fract_z
Si Si1 0.088282 0.355802 0.979843
Si Si2 0.186307 0.582277 0.883488
Si Si3 0.853850 0.767723 0.281198
Si Si4 0.446563 0.755907 0.728134
Si Si5 0.994532 0.000000 0.113964
Si Si6 0.575198 0.000000 0.458992
Si Si7 0.123620 0.824585 0.038259
O O1 0.136400 0.401477 0.947615
O O2 0.971827 0.309225 0.816449
O O3 0.266928 0.323754 0.175973
O O4 0.000000 0.372956 0.000000
O O5 0.227015 0.636648 0.864657
O O6 0.020248 0.550173 0.682294
O O7 0.371373 0.548807 0.039850
O O8 0.706857 0.724615 0.176353
O O9 0.000000 0.772329 0.500000
O O10 0.924530 0.743521 0.245780
O O11 0.250000 0.750000 0.500000
O O12 0.510853 0.704113 0.848061
O O13 0.206588 0.000000 0.341542
O O14 0.000000 0.000000 0.000000
O O15 0.500000 0.000000 0.500000
O O16 0.000000 0.855487 0.000000
#
# Coordination Sequence:
#
# PCOD9219357 Si02
#       7
#     8   8   8   8   4   4   8
#     4  11  22  42  61  88 130 172 213 259 311 361
#     4  11  23  43  69  95 125 164 211 267 319 394
#     4  11  20  37  55  87 135 171 211 254 301 356
#     4  11  20  36  56  88 132 176 215 255 300 359
#     4  11  23  48  69  94 131 158 190 275 346 389
#     4  11  25  46  71  98 124 157 199 263 354 391
#     4  11  21  36  57  90 126 168 211 253 304 367
#
# _framework density 18.765674000000001
#
# number of rings (size 3 to 8) (size 9 to 14) (size 15 to 20)
#    0.000    1.000    5.000    5.500    0.000    2.000 
#    3.000    1.667    0.000    1.000    0.000    0.000 
#    0.000    0.000    0.000    0.000    0.000    0.000 
#
# Total GULP energy -133899.252105 kJ/mol
# GULP energy per Si atom -5579.135504 kJ/mol
# Density = 1.872296 g / cm^3
# Si number density = 18.765674 Si / 1000 Ang^3
#
#
#
# Elastic Constant Matrix: (Units=GPa)
#
#
# Indices 1 2 3 4 5 6 
#
# 1 161.6864 53.8596 40.0587 0.0000 -1.3732 0.0000
# 2 53.8596 93.2526 50.5755 0.0000 -5.7373 0.0000
# 3 40.0587 50.5755 161.8925 0.0000 -6.5037 0.0000
# 4 0.0000 0.0000 0.0000 8.2090 0.0000 1.6338
# 5 -1.3732 -5.7373 -6.5037 0.0000 31.4385 0.0000
# 6 0.0000 0.0000 0.0000 1.6338 0.0000 31.8762
#
#
#
# Elastic Compliance Matrix: (Units=1/GPa)
#
#
# Indices 1 2 3 4 5 6 
#
# 1 0.007719 -0.004147 -0.000637 0.000000 -0.000551 0.000000
# 2 -0.004147 0.015213 -0.003652 0.000000 0.001839 0.000000
# 3 -0.000637 -0.003652 0.007510 0.000000 0.000859 0.000000
# 4 0.000000 0.000000 0.000000 0.123073 0.000000 -0.006308
# 5 -0.000551 0.001839 0.000859 0.000000 0.032298 0.000000
# 6 0.000000 0.000000 0.000000 -0.006308 0.000000 0.031695
#
#
# Mechanical properties :
#
#
# Convention : Reuss Voigt Hill
#
# Bulk Modulus (GPa) = 73.69302 78.42435 76.05868
# Shear Modulus (GPa) = 20.92900 32.46059 26.69480
#
# Velocity S-wave (km/s) = 3.34321 4.16358 3.77574
# Velocity P-wave (km/s) = 7.36601 8.06201 7.72185
#
# Compressibility (1/GPa) = 0.01356981
#
# Stress axis : x y z
#
# Youngs Moduli (GPa) = 129.54559 65.73396 133.15514
#
# Poissons Ratio (x) = 0.27260 0.08478
# Poissons Ratio (y) = 0.53723 0.48635
# Poissons Ratio (z) = 0.08248 0.24009
#
# Static dielectric constant tensor:
#      x y z
#    x 2.012580 0.000000 0.187100 
#    y 0.000000 1.662090 0.000000 
#    z 0.187100 0.000000 1.727320 
# 
# From -- ./inp_files/218567.got.cif
#   From: 2010.05.17/outbox.cif.g08.bks.cpg/sg12_110_cif.got.tgz:218567.got - 2010.06.03 13:09:07.
