data_PCOD9219122
_publ_section_title
;
Structure prediction by ZEFSAII (Michael W. Deem and Ramdas Pophale) SiO2 
 PCOD9219122
Probable space group: C 2/M
;
_chemical_formula_sum "Si O2"
_cell_formula_units_Z 56
_cell_length_a 28.580703
_cell_length_b 8.797180
_cell_length_c 18.950361
_cell_angle_alpha 90.000000
_cell_angle_beta 131.112421
_cell_angle_gamma 90.000000
_cell_volume 3589.810433
_symmetry_space_group_name_H-M "C 2/M"
_symmetry_group_IT_number 12
_symmetry_cell_setting 'monoclinic'
loop_
_space_group_symop_operation_xyz
x,y,z
-x,y,-z
-x,-y,-z
x,-y,z
1/2+x,1/2+y,z
1/2-x,1/2+y,-z
1/2-x,1/2-y,-z
1/2+x,1/2-y,z
loop_
_atom_site_type_symbol
_atom_site_label
_atom_site_fract_x
_atom_site_fract_y
_atom_site_fract_z
Si Si1 0.127147 0.184525 0.725690
Si Si2 0.933016 0.823560 0.472870
Si Si3 0.064729 0.174947 0.108192
Si Si4 0.377935 0.316183 0.975684
Si Si5 0.748007 0.817591 0.919673
Si Si6 0.000463 0.319831 0.829674
Si Si7 0.002639 0.184234 0.327080
O O1 0.113625 0.240234 0.632124
O O2 0.188462 0.253348 0.819959
O O3 0.066371 0.222759 0.712383
O O4 0.130992 0.000000 0.728450
O O5 0.000000 0.824120 0.500000
O O6 0.947934 0.759469 0.564931
O O7 0.915358 0.000000 0.465636
O O8 0.113743 0.229559 0.098152
O O9 0.051303 0.270596 0.164440
O O10 0.077880 0.000000 0.140736
O O11 0.000000 0.175392 0.000000
O O12 0.385304 0.500000 0.985061
O O13 0.311686 0.276474 0.942499
O O14 0.434040 0.245808 0.076441
O O15 0.744613 0.000000 0.920094
O O16 0.750000 0.750000 0.000000
O O17 0.004483 0.500000 0.829822
O O18 0.987781 0.250642 0.740470
O O19 0.005691 0.000000 0.327862
#
# Coordination Sequence:
#
# PCOD9219122 Si02
#       7
#     8   8   8   8   8   8   8
#     4   9  17  30  47  66  88 115 149 185 216 249
#     4   7  12  25  45  65  83 109 147 183 211 248
#     4   8  15  30  48  61  78 110 148 180 213 258
#     4   9  19  34  47  59  82 119 156 181 205 252
#     4  11  22  33  45  64  90 120 152 181 211 249
#     4  11  20  27  41  68  95 113 136 178 227 263
#     4   9  16  28  46  65  88 119 149 175 209 258
#
# _framework density 15.59971
#
# number of rings (size 3 to 8) (size 9 to 14) (size 15 to 20)
#    0.000    2.857    0.000    5.143    0.000    7.714 
#    0.000    0.714    0.000    2.571    0.000    1.000 
#    0.000    0.000    0.000    0.000    0.000    0.000 
#
# Total GULP energy -155919.865855 kJ/mol
# GULP energy per Si atom -5568.566638 kJ/mol
# Density = 1.556420 g / cm^3
# Si number density = 15.599710 Si / 1000 Ang^3
#
#
#
# Elastic Constant Matrix: (Units=GPa)
#
#
# Indices 1 2 3 4 5 6 
#
# 1 113.6228 34.2901 70.0905 0.0000 -20.8750 0.0000
# 2 34.2901 27.7106 33.5810 0.0000 -9.3190 0.0000
# 3 70.0905 33.5810 135.8979 0.0000 -22.4223 0.0000
# 4 0.0000 0.0000 0.0000 15.9045 0.0000 4.5079
# 5 -20.8750 -9.3190 -22.4223 0.0000 25.7102 0.0000
# 6 0.0000 0.0000 0.0000 4.5079 0.0000 14.2428
#
#
#
# Elastic Compliance Matrix: (Units=1/GPa)
#
#
# Indices 1 2 3 4 5 6 
#
# 1 0.016409 -0.013443 -0.004377 0.000000 0.004633 0.000000
# 2 -0.013443 0.064307 -0.008074 0.000000 0.005352 0.000000
# 3 -0.004377 -0.008074 0.012314 0.000000 0.004259 0.000000
# 4 0.000000 0.000000 0.000000 0.069072 0.000000 -0.021861
# 5 0.004633 0.005352 0.004259 0.000000 0.048311 0.000000
# 6 0.000000 0.000000 0.000000 -0.021861 0.000000 0.077130
#
#
# Mechanical properties :
#
#
# Convention : Reuss Voigt Hill
#
# Bulk Modulus (GPa) = 24.24727 61.46162 42.85445
# Shear Modulus (GPa) = 14.16117 20.45613 17.30865
#
# Velocity S-wave (km/s) = 3.01621 3.62514 3.33460
# Velocity P-wave (km/s) = 5.26376 7.55029 6.50823
#
# Compressibility (1/GPa) = 0.04124175
#
# Stress axis : x y z
#
# Youngs Moduli (GPa) = 60.94112 15.55044 81.21067
#
# Poissons Ratio (x) = 0.20905 0.35545
# Poissons Ratio (y) = 0.81924 0.65569
# Poissons Ratio (z) = 0.26673 0.12555
#
# Static dielectric constant tensor:
#      x y z
#    x 1.526360 0.000000 -0.018880 
#    y 0.000000 1.523810 0.000000 
#    z -0.018880 0.000000 1.522760 
# 
# From -- ./inp_files/291945.got.cif
#   From: 2010.05.17/outbox.cif.g08.bks.cpg/sg12_146_cif.got.tgz:291945.got - 2010.06.03 13:09:07.
