data_PCOD9219673
_publ_section_title
;
Structure prediction by ZEFSAII (Michael W. Deem and Ramdas Pophale) SiO2 
 PCOD9219673
Probable space group: C 2/M
;
_chemical_formula_sum "Si O2"
_cell_formula_units_Z 56
_cell_length_a 14.077698
_cell_length_b 9.311859
_cell_length_c 20.793615
_cell_angle_alpha 90.000000
_cell_angle_beta 115.441757
_cell_angle_gamma 90.000000
_cell_volume 2461.481522
_symmetry_space_group_name_H-M "C 2/M"
_symmetry_group_IT_number 12
_symmetry_cell_setting 'monoclinic'
loop_
_space_group_symop_operation_xyz
x,y,z
-x,y,-z
-x,-y,-z
x,-y,z
1/2+x,1/2+y,z
1/2-x,1/2+y,-z
1/2-x,1/2-y,-z
1/2+x,1/2-y,z
loop_
_atom_site_type_symbol
_atom_site_label
_atom_site_fract_x
_atom_site_fract_y
_atom_site_fract_z
Si Si1 0.094337 0.165612 0.578543
Si Si2 0.499622 0.664485 0.851821
Si Si3 0.826564 0.160116 0.267154
Si Si4 0.279645 0.337097 0.868734
Si Si5 0.274524 0.331554 0.572866
Si Si6 0.890870 0.665200 0.711902
Si Si7 0.610154 0.163864 0.991698
O O1 0.083469 0.180166 0.652499
O O2 0.169290 0.297331 0.582182
O O3 0.000000 0.170806 0.500000
O O4 0.138422 0.000000 0.583128
O O5 0.531223 0.500000 0.851336
O O6 0.389622 0.661922 0.860200
O O7 0.472059 0.746284 0.778435
O O8 0.581426 0.751120 0.918973
O O9 0.805970 0.269951 0.204075
O O10 0.718094 0.162608 0.278013
O O11 0.836561 0.000000 0.243073
O O12 0.253823 0.500000 0.877953
O O13 0.306770 0.244168 0.939080
O O14 0.295651 0.500000 0.570848
O O15 0.250000 0.250000 0.500000
O O16 0.363071 0.249185 0.638958
O O17 0.921846 0.500000 0.710208
O O18 0.640717 0.000000 0.988542
O O19 0.500000 0.161195 0.000000
#
# Coordination Sequence:
#
# PCOD9219673 Si02
#       7
#     8   8   8   8   8   8   8
#     4   9  18  33  51  70  93 121 153 190 233 279
#     4   9  15  22  32  48  70  97 131 170 211 255
#     4   8  14  24  38  55  76 104 137 172 212 261
#     4   9  15  21  30  45  67  96 131 171 210 250
#     4  11  21  33  49  69  93 121 155 193 233 276
#     4   9  16  27  41  57  78 106 141 178 218 264
#     4   9  15  21  29  42  63  94 131 169 208 251
#
# _framework density 22.750526000000001
#
# number of rings (size 3 to 8) (size 9 to 14) (size 15 to 20)
#    0.000    2.857    0.000    3.857    0.000    8.857 
#    0.000    0.000    0.000    0.000    0.000    0.000 
#    0.000    0.000    0.000    1.286    0.000   17.714 
#
# Total GULP energy -156412.026123 kJ/mol
# GULP energy per Si atom -5586.143790 kJ/mol
# Density = 2.269874 g / cm^3
# Si number density = 22.750526 Si / 1000 Ang^3
#
#
#
# Elastic Constant Matrix: (Units=GPa)
#
#
# Indices 1 2 3 4 5 6 
#
# 1 59.6810 17.0510 16.2709 0.0000 7.1733 0.0000
# 2 17.0510 241.4315 151.4715 0.0000 5.0784 0.0000
# 3 16.2709 151.4715 245.4382 0.0000 4.4812 0.0000
# 4 0.0000 0.0000 0.0000 44.3136 0.0000 3.4866
# 5 7.1733 5.0784 4.4812 0.0000 11.5356 0.0000
# 6 0.0000 0.0000 0.0000 3.4866 0.0000 0.6250
#
#
#
# Elastic Compliance Matrix: (Units=1/GPa)
#
#
# Indices 1 2 3 4 5 6 
#
# 1 0.018430 -0.000702 -0.000589 0.000000 -0.010922 0.000000
# 2 -0.000702 0.006807 -0.004137 0.000000 -0.000953 0.000000
# 3 -0.000589 -0.004137 0.006674 0.000000 -0.000405 0.000000
# 4 0.000000 0.000000 0.000000 0.040218 0.000000 -0.224343
# 5 -0.010922 -0.000953 -0.000405 0.000000 0.094057 0.000000
# 6 0.000000 0.000000 0.000000 -0.224343 0.000000 2.851363
#
#
# Mechanical properties :
#
#
# Convention : Reuss Voigt Hill
#
# Bulk Modulus (GPa) = 47.49633 101.79304 74.64468
# Shear Modulus (GPa) = 1.64722 35.41200 18.52961
#
# Velocity S-wave (km/s) = 0.85183 3.94958 2.85699
# Velocity P-wave (km/s) = 4.67866 8.10180 6.61547
#
# Compressibility (1/GPa) = 0.02105426
#
# Stress axis : x y z
#
# Youngs Moduli (GPa) = 54.25998 146.90433 149.83630
#
# Poissons Ratio (x) = 0.10318 0.08823
# Poissons Ratio (y) = 0.03811 0.61988
# Poissons Ratio (z) = 0.03195 0.60775
#
# Static dielectric constant tensor:
#      x y z
#    x 2.061560 0.000000 -0.062360 
#    y 0.000000 1.776010 0.000000 
#    z -0.062360 0.000000 1.836320 
# 
# From -- ./inp_files/348343.got.cif
#   From: 2010.05.17/outbox.cif.g08.bks.cpg/sg12_175_cif.got.tgz:348343.got - 2010.06.03 13:09:07.
