data_PCOD9219263
_publ_section_title
;
Structure prediction by ZEFSAII (Michael W. Deem and Ramdas Pophale) SiO2 
 PCOD9219263
Probable space group: C 2/M
;
_chemical_formula_sum "Si O2"
_cell_formula_units_Z 40
_cell_length_a 7.253728
_cell_length_b 29.508592
_cell_length_c 10.011295
_cell_angle_alpha 90.000000
_cell_angle_beta 128.910405
_cell_angle_gamma 90.000000
_cell_volume 1667.445577
_symmetry_space_group_name_H-M "C 2/M"
_symmetry_group_IT_number 12
_symmetry_cell_setting 'monoclinic'
loop_
_space_group_symop_operation_xyz
x,y,z
-x,y,-z
-x,-y,-z
x,-y,z
1/2+x,1/2+y,z
1/2-x,1/2+y,-z
1/2-x,1/2-y,-z
1/2+x,1/2-y,z
loop_
_atom_site_type_symbol
_atom_site_label
_atom_site_fract_x
_atom_site_fract_y
_atom_site_fract_z
Si Si1 0.281057 0.210285 0.646921
Si Si2 0.491627 0.613974 0.260184
Si Si3 0.128057 0.616061 0.352537
Si Si4 0.183093 0.448139 0.956287
Si Si5 0.117026 0.213186 0.846371
O O1 0.430343 0.169381 0.654015
O O2 0.303228 0.204901 0.815071
O O3 0.000000 0.203198 0.500000
O O4 0.108717 0.240308 0.319756
O O5 0.309141 0.615308 0.305768
O O6 0.735155 0.604502 0.448986
O O7 0.472804 0.661895 0.170177
O O8 0.413114 0.574919 0.124494
O O9 0.923625 0.583228 0.209240
O O10 0.213083 0.500000 0.928558
O O11 0.000000 0.447811 0.000000
O O12 0.250000 0.250000 0.000000
#
# Coordination Sequence:
#
# PCOD9219263 Si02
#       5
#     8   8   8   8   8
#     4  11  20  34  51  73 104 141 176 210 252 304
#     4   9  17  30  44  66  95 131 164 207 254 299
#     4   9  16  30  46  63  95 134 167 201 255 300
#     4   9  17  27  43  67  94 127 168 210 253 308
#     4  11  21  33  51  75 103 141 177 212 254 304
#
# _framework density 23.988790000000002
#
# number of rings (size 3 to 8) (size 9 to 14) (size 15 to 20)
#    0.000    2.200    4.000    2.400    0.000    4.000 
#    0.000    4.000    0.000    0.000    0.000    0.000 
#    0.000   13.600    0.000    0.600    0.000    0.000 
#
# Total GULP energy -111425.137431 kJ/mol
# GULP energy per Si atom -5571.256872 kJ/mol
# Density = 2.393419 g / cm^3
# Si number density = 23.988790 Si / 1000 Ang^3
#
#
#
# Elastic Constant Matrix: (Units=GPa)
#
#
# Indices 1 2 3 4 5 6 
#
# 1 44.9476 18.6838 19.2986 0.0000 14.8953 0.0000
# 2 18.6838 192.5920 94.9203 0.0000 25.7229 0.0000
# 3 19.2986 94.9203 176.7676 0.0000 24.7849 0.0000
# 4 0.0000 0.0000 0.0000 28.8505 0.0000 11.2372
# 5 14.8953 25.7229 24.7849 0.0000 24.2884 0.0000
# 6 0.0000 0.0000 0.0000 11.2372 0.0000 12.5510
#
#
#
# Elastic Compliance Matrix: (Units=1/GPa)
#
#
# Indices 1 2 3 4 5 6 
#
# 1 0.028016 -0.000219 -0.000659 0.000000 -0.016277 0.000000
# 2 -0.000219 0.007452 -0.003373 0.000000 -0.004316 0.000000
# 3 -0.000659 -0.003373 0.008148 0.000000 -0.004339 0.000000
# 4 0.000000 0.000000 0.000000 0.053221 0.000000 -0.047650
# 5 -0.016277 -0.004316 -0.004339 0.000000 0.060153 0.000000
# 6 0.000000 0.000000 0.000000 -0.047650 0.000000 0.122337
#
#
# Mechanical properties :
#
#
# Convention : Reuss Voigt Hill
#
# Bulk Modulus (GPa) = 28.47717 75.56808 52.02262
# Shear Modulus (GPa) = 16.69257 31.89828 24.29542
#
# Velocity S-wave (km/s) = 2.64076 3.65048 3.18588
# Velocity P-wave (km/s) = 4.60379 7.02409 5.93855
#
# Compressibility (1/GPa) = 0.03511585
#
# Stress axis : x y z
#
# Youngs Moduli (GPa) = 35.69370 134.18672 122.72224
#
# Poissons Ratio (x) = 0.02943 0.08083
# Poissons Ratio (y) = 0.00783 0.41389
# Poissons Ratio (z) = 0.02351 0.45255
#
# Static dielectric constant tensor:
#      x y z
#    x 2.184160 0.000000 -0.227830 
#    y 0.000000 2.025780 0.000000 
#    z -0.227830 0.000000 2.206840 
# 
# From -- ./inp_files/149347.got.cif
#   From: 2010.05.17/outbox.cif.g08.bks.cpg/sg12_75_cif.got.tgz:149347.got - 2010.06.03 13:09:07.
