data_PCOD9219432
_publ_section_title
;
Structure prediction by ZEFSAII (Michael W. Deem and Ramdas Pophale) SiO2 
 PCOD9219432
Probable space group: C 2/M
;
_chemical_formula_sum "Si O2"
_cell_formula_units_Z 40
_cell_length_a 13.929831
_cell_length_b 18.519576
_cell_length_c 14.453818
_cell_angle_alpha 90.000000
_cell_angle_beta 31.748675
_cell_angle_gamma 90.000000
_cell_volume 1962.029685
_symmetry_space_group_name_H-M "C 2/M"
_symmetry_group_IT_number 12
_symmetry_cell_setting 'monoclinic'
loop_
_space_group_symop_operation_xyz
x,y,z
-x,y,-z
-x,-y,-z
x,-y,z
1/2+x,1/2+y,z
1/2-x,1/2+y,-z
1/2-x,1/2-y,-z
1/2+x,1/2-y,z
loop_
_atom_site_type_symbol
_atom_site_label
_atom_site_fract_x
_atom_site_fract_y
_atom_site_fract_z
Si Si1 0.477109 0.624337 0.909130
Si Si2 0.116626 0.712350 0.996459
Si Si3 0.716344 0.136569 0.478063
Si Si4 0.472306 0.712154 0.414796
Si Si5 0.095201 0.421970 0.148885
O O1 0.655400 0.603308 0.705687
O O2 0.500000 0.617754 0.000000
O O3 0.442777 0.709739 0.915987
O O4 0.297830 0.583383 0.023658
O O5 0.328646 0.715860 0.794965
O O6 0.076774 0.646962 0.097608
O O7 0.000000 0.701017 0.000000
O O8 0.624802 0.209891 0.513569
O O9 0.845948 0.158516 0.458632
O O10 0.553978 0.087846 0.648951
O O11 0.500000 0.693016 0.500000
O O12 0.070279 0.500000 0.123131
#
# Coordination Sequence:
#
# PCOD9219432 Si02
#       5
#     8   8   8   8   8
#     4  11  23  43  71  95 124 167 218 271 316 370
#     4  11  21  41  69  98 127 163 213 272 321 372
#     4  11  23  39  63  96 130 162 211 264 316 376
#     4  11  20  37  68 101 127 157 210 274 323 368
#     4  12  26  43  62  92 136 174 212 258 319 388
#
# _framework density 20.387051
#
# number of rings (size 3 to 8) (size 9 to 14) (size 15 to 20)
#    0.000    0.800    4.000    6.600    0.000    1.600 
#    0.000    1.000    0.000    2.400    0.000    0.000 
#    0.000    0.000    0.000    0.000    0.000    0.000 
#
# Total GULP energy -111920.089780 kJ/mol
# GULP energy per Si atom -5596.004489 kJ/mol
# Density = 2.034065 g / cm^3
# Si number density = 20.387051 Si / 1000 Ang^3
#
#
#
# Elastic Constant Matrix: (Units=GPa)
#
#
# Indices 1 2 3 4 5 6 
#
# 1 91.0901 14.6982 35.0783 -0.0043 11.0439 0.0001
# 2 14.6982 58.9259 17.7728 0.0050 3.6809 -0.0036
# 3 35.0783 17.7728 179.1652 0.0046 -8.9943 -0.0026
# 4 -0.0043 0.0050 0.0046 -11.8902 -0.0044 3.1968
# 5 11.0439 3.6809 -8.9943 -0.0044 34.2394 0.0023
# 6 0.0001 -0.0036 -0.0026 3.1968 0.0023 -2.1194
#
#
#
# Elastic Compliance Matrix: (Units=1/GPa)
#
#
# Indices 1 2 3 4 5 6 
#
# 1 0.012857 -0.002157 -0.002533 -0.000007 -0.004581 -0.000008
# 2 -0.002157 0.018047 -0.001450 0.000000 -0.001625 -0.000030
# 3 -0.002533 -0.001450 0.006354 0.000002 0.002642 0.000000
# 4 -0.000007 0.000000 0.000002 -0.141472 -0.000001 -0.213381
# 5 -0.004581 -0.001625 0.002642 -0.000001 0.031552 0.000031
# 6 -0.000008 -0.000030 0.000000 -0.213381 0.000031 -0.793661
#
#
# Mechanical properties :
#
#
# Convention : Reuss Voigt Hill
#
# Bulk Modulus (GPa) = 40.03388 51.58665 45.81026
# Shear Modulus (GPa) = -5.91214 21.48809 7.78797
#
# Velocity S-wave (km/s) = -1.70477 3.25007 1.95662
# Velocity P-wave (km/s) = 3.97549 6.28033 5.25581
#
# Compressibility (1/GPa) = 0.02497884
#
# Stress axis : x y z
#
# Youngs Moduli (GPa) = 77.77829 55.41035 157.38506
#
# Poissons Ratio (x) = 0.11951 0.39870
# Poissons Ratio (y) = 0.16775 0.22814
# Poissons Ratio (z) = 0.19703 0.08032
#
# Static dielectric constant tensor:
#      x y z
#    x 1.717980 0.000000 0.005510 
#    y 0.000000 1.721490 0.000000 
#    z 0.005510 0.000000 1.726460 
# 
# From -- ./inp_files/216610.got.cif
#   From: 2010.05.17/outbox.cif.g08.bks.cpg/sg12_109_cif.got.tgz:216610.got - 2010.06.03 13:09:07.
