data_PCOD9219243
_publ_section_title
;
Structure prediction by ZEFSAII (Michael W. Deem and Ramdas Pophale) SiO2 
 PCOD9219243
Probable space group: C 2/M
;
_chemical_formula_sum "Si O2"
_cell_formula_units_Z 36
_cell_length_a 15.548566
_cell_length_b 7.795631
_cell_length_c 12.302814
_cell_angle_alpha 90.000000
_cell_angle_beta 104.361323
_cell_angle_gamma 90.000000
_cell_volume 1444.635075
_symmetry_space_group_name_H-M "C 2/M"
_symmetry_group_IT_number 12
_symmetry_cell_setting 'monoclinic'
loop_
_space_group_symop_operation_xyz
x,y,z
-x,y,-z
-x,-y,-z
x,-y,z
1/2+x,1/2+y,z
1/2-x,1/2+y,-z
1/2-x,1/2-y,-z
1/2+x,1/2-y,z
loop_
_atom_site_type_symbol
_atom_site_label
_atom_site_fract_x
_atom_site_fract_y
_atom_site_fract_z
Si Si1 0.303496 0.000000 0.085114
Si Si2 0.054583 0.289801 0.625460
Si Si3 0.436492 0.200168 0.786602
Si Si4 0.750497 0.794274 0.627511
Si Si5 0.125097 0.181661 0.010524
O O1 0.369925 0.152269 0.062239
O O2 0.226318 0.147343 0.087217
O O3 0.055768 0.500000 0.630374
O O4 0.156636 0.235679 0.648425
O O5 0.000000 0.242428 0.500000
O O6 0.002596 0.230619 0.715333
O O7 0.337768 0.214806 0.705885
O O8 0.433282 0.292407 0.900682
O O9 0.452760 0.000000 0.809089
O O10 0.750000 0.750000 0.500000
O O11 0.754762 0.000000 0.642120
O O12 0.107326 0.000000 0.947730
#
# Coordination Sequence:
#
# PCOD9219243 Si02
#       5
#     4   8   8   8   8
#     4   8  16  30  52  80 110 138 174 224 282 332
#     4   9  18  34  52  71 104 148 185 218 270 324
#     4  11  20  33  55  81 106 144 186 225 269 324
#     4  11  21  35  52  74 105 146 186 227 273 319
#     4   9  16  30  51  82 111 137 180 224 272 334
#
# _framework density 24.919789999999999
#
# number of rings (size 3 to 8) (size 9 to 14) (size 15 to 20)
#    0.667    1.556    3.333    1.333    0.000    0.000 
#    0.000    5.556    0.000    0.000    0.000    9.333 
#    0.000    0.000    0.000    0.000    0.000    0.000 
#
# Total GULP energy -100248.281809 kJ/mol
# GULP energy per Si atom -5569.348989 kJ/mol
# Density = 2.486307 g / cm^3
# Si number density = 24.919790 Si / 1000 Ang^3
#
#
#
# Elastic Constant Matrix: (Units=GPa)
#
#
# Indices 1 2 3 4 5 6 
#
# 1 207.4804 40.7324 87.0903 0.0000 -26.1817 0.0000
# 2 40.7324 129.4823 32.1996 0.0000 -12.0281 0.0000
# 3 87.0903 32.1996 106.8907 0.0000 1.1942 0.0000
# 4 0.0000 0.0000 0.0000 28.8335 0.0000 -7.1899
# 5 -26.1817 -12.0281 1.1942 0.0000 47.3349 0.0000
# 6 0.0000 0.0000 0.0000 -7.1899 0.0000 38.8271
#
#
#
# Elastic Compliance Matrix: (Units=1/GPa)
#
#
# Indices 1 2 3 4 5 6 
#
# 1 0.008301 -0.000526 -0.006656 0.000000 0.004625 0.000000
# 2 -0.000526 0.008614 -0.002188 0.000000 0.001953 0.000000
# 3 -0.006656 -0.002188 0.015489 0.000000 -0.004628 0.000000
# 4 0.000000 0.000000 0.000000 0.036361 0.000000 0.006733
# 5 0.004625 0.001953 -0.004628 0.000000 0.024297 0.000000
# 6 0.000000 0.000000 0.000000 0.006733 0.000000 0.027002
#
#
# Mechanical properties :
#
#
# Convention : Reuss Voigt Hill
#
# Bulk Modulus (GPa) = 73.18856 84.87755 79.03306
# Shear Modulus (GPa) = 34.87725 41.92119 38.39922
#
# Velocity S-wave (km/s) = 3.74516 4.10597 3.92970
# Velocity P-wave (km/s) = 6.93794 7.52415 7.23698
#
# Compressibility (1/GPa) = 0.01366334
#
# Stress axis : x y z
#
# Youngs Moduli (GPa) = 120.47183 116.08824 64.56039
#
# Poissons Ratio (x) = 0.06110 0.42973
# Poissons Ratio (y) = 0.06340 0.14125
# Poissons Ratio (z) = 0.80189 0.25399
#
# Static dielectric constant tensor:
#      x y z
#    x 2.031280 0.000000 0.059230 
#    y 0.000000 1.924260 0.000000 
#    z 0.059230 0.000000 1.983760 
# 
# From -- ./inp_files/210818.got.cif
#   From: 2010.05.17/outbox.cif.g08.bks.cpg/sg12_106_cif.got.tgz:210818.got - 2010.06.03 13:09:07.
