data_PCOD9219953
_publ_section_title
;
Structure prediction by ZEFSAII (Michael W. Deem and Ramdas Pophale) SiO2 
 PCOD9219953
Probable space group: C 2/M
;
_chemical_formula_sum "Si O2"
_cell_formula_units_Z 64
_cell_length_a 22.377486
_cell_length_b 29.056207
_cell_length_c 16.068794
_cell_angle_alpha 90.000000
_cell_angle_beta 160.834273
_cell_angle_gamma 90.000000
_cell_volume 3430.098634
_symmetry_space_group_name_H-M "C 2/M"
_symmetry_group_IT_number 12
_symmetry_cell_setting 'monoclinic'
loop_
_space_group_symop_operation_xyz
x,y,z
-x,y,-z
-x,-y,-z
x,-y,z
1/2+x,1/2+y,z
1/2-x,1/2+y,-z
1/2-x,1/2-y,-z
1/2+x,1/2-y,z
loop_
_atom_site_type_symbol
_atom_site_label
_atom_site_fract_x
_atom_site_fract_y
_atom_site_fract_z
Si Si1 0.014038 0.294114 0.678485
Si Si2 0.807156 0.359301 0.795421
Si Si3 0.992921 0.377369 0.778741
Si Si4 0.622510 0.709511 0.927385
Si Si5 0.884455 0.881158 0.616548
Si Si6 0.328020 0.247071 0.834281
Si Si7 0.466948 0.945263 0.591973
Si Si8 0.199785 0.054772 0.097685
O O1 0.172806 0.307268 0.822957
O O2 0.010353 0.330704 0.747943
O O3 0.817488 0.286032 0.380883
O O4 0.063079 0.243154 0.775407
O O5 0.669292 0.385378 0.552132
O O6 0.755184 0.305366 0.735119
O O7 0.000000 0.359627 0.000000
O O8 0.850782 0.378627 0.944572
O O9 0.801316 0.378716 0.575389
O O10 0.992649 0.417875 0.710742
O O11 0.613768 0.741158 0.996533
O O12 0.488975 0.667069 0.761233
O O13 0.019855 0.919089 0.831920
O O14 0.500000 0.249451 0.000000
O O15 0.642424 0.938033 0.763718
O O16 0.290920 0.930277 0.305493
O O17 0.450441 0.000000 0.584539
O O18 0.167191 0.000000 0.060384
#
# Coordination Sequence:
#
# PCOD9219953 Si02
#       8
#     8   8   8   8   8   8   8   8
#     4  11  23  37  54  81 116 153 195 240 287 339
#     4   9  20  37  56  80 115 155 193 237 287 336
#     4  11  22  38  60  86 115 152 197 240 287 343
#     4  11  23  37  54  81 116 153 195 240 287 339
#     4  11  22  38  60  86 115 152 197 240 287 343
#     4  11  21  37  57  76 109 156 200 241 284 335
#     4   9  20  41  65  87 115 149 184 232 295 352
#     4   9  20  41  65  87 115 149 184 232 295 352
#
# _framework density 18.658355
#
# number of rings (size 3 to 8) (size 9 to 14) (size 15 to 20)
#    0.000    1.750    2.500    2.625    1.750    2.000 
#    0.000    4.375    0.000    3.750    0.000    0.000 
#    0.000    0.000    0.000    0.000    0.000    0.000 
#
# Total GULP energy -178538.327491 kJ/mol
# GULP energy per Si atom -5579.322734 kJ/mol
# Density = 1.861589 g / cm^3
# Si number density = 18.658355 Si / 1000 Ang^3
#
#
#
# Elastic Constant Matrix: (Units=GPa)
#
#
# Indices 1 2 3 4 5 6 
#
# 1 94.4029 34.1198 38.8878 0.0000 -17.5341 0.0000
# 2 34.1198 55.1630 28.9932 0.0000 -8.5370 0.0000
# 3 38.8878 28.9932 77.6174 0.0000 -12.0976 0.0001
# 4 0.0000 0.0000 0.0000 34.4623 0.0000 -0.6336
# 5 -17.5341 -8.5370 -12.0976 0.0000 26.3865 0.0000
# 6 0.0000 0.0000 0.0001 -0.6336 0.0000 31.9803
#
#
#
# Elastic Compliance Matrix: (Units=1/GPa)
#
#
# Indices 1 2 3 4 5 6 
#
# 1 0.016035 -0.006503 -0.004601 0.000000 0.006442 0.000000
# 2 -0.006503 0.025534 -0.006102 0.000000 0.001142 0.000000
# 3 -0.004601 -0.006102 0.017968 0.000000 0.003207 0.000000
# 4 0.000000 0.000000 0.000000 0.029028 0.000000 0.000575
# 5 0.006442 0.001142 0.003207 0.000000 0.044019 0.000000
# 6 0.000000 0.000000 0.000000 0.000575 0.000000 0.031281
#
#
# Mechanical properties :
#
#
# Convention : Reuss Voigt Hill
#
# Bulk Modulus (GPa) = 39.79942 47.90944 43.85443
# Shear Modulus (GPa) = 24.19544 26.91132 25.55338
#
# Velocity S-wave (km/s) = 3.60496 3.80191 3.70475
# Velocity P-wave (km/s) = 6.22130 6.70862 6.46955
#
# Compressibility (1/GPa) = 0.02512599
#
# Stress axis : x y z
#
# Youngs Moduli (GPa) = 62.36375 39.16297 55.65526
#
# Poissons Ratio (x) = 0.25468 0.25605
# Poissons Ratio (y) = 0.40556 0.33960
# Poissons Ratio (z) = 0.28691 0.23897
#
# Static dielectric constant tensor:
#      x y z
#    x 1.634930 0.000000 -0.008260 
#    y 0.000000 1.623740 0.000000 
#    z -0.008260 0.000000 1.682110 
# 
# From -- ./inp_files/236017.got.cif
#   From: 2010.05.17/outbox.cif.g08.bks.cpg/sg12_119_cif.got.tgz:236017.got - 2010.06.03 13:09:07.
