data_PCOD9219331
_publ_section_title
;
Structure prediction by ZEFSAII (Michael W. Deem and Ramdas Pophale) SiO2 
 PCOD9219331
Probable space group: C 2/M
;
_chemical_formula_sum "Si O2"
_cell_formula_units_Z 52
_cell_length_a 13.530988
_cell_length_b 20.094264
_cell_length_c 11.996546
_cell_angle_alpha 90.000000
_cell_angle_beta 126.707047
_cell_angle_gamma 90.000000
_cell_volume 2614.995080
_symmetry_space_group_name_H-M "C 2/M"
_symmetry_group_IT_number 12
_symmetry_cell_setting 'monoclinic'
loop_
_space_group_symop_operation_xyz
x,y,z
-x,y,-z
-x,-y,-z
x,-y,z
1/2+x,1/2+y,z
1/2-x,1/2+y,-z
1/2-x,1/2-y,-z
1/2+x,1/2-y,z
loop_
_atom_site_type_symbol
_atom_site_label
_atom_site_fract_x
_atom_site_fract_y
_atom_site_fract_z
Si Si1 0.802891 0.316545 0.475964
Si Si2 0.859468 0.860558 0.279912
Si Si3 0.000000 0.749677 0.000000
Si Si4 0.278557 0.789714 0.200562
Si Si5 0.120806 0.571429 0.155572
Si Si6 0.009456 0.662749 0.779885
Si Si7 0.616817 0.581151 0.451156
O O1 0.750000 0.250000 0.500000
O O2 0.797663 0.310629 0.340651
O O3 0.722355 0.381418 0.453132
O O4 0.938582 0.317487 0.619718
O O5 0.845635 0.782980 0.242198
O O6 0.723397 0.886952 0.160730
O O7 0.867875 0.883222 0.416564
O O8 0.982455 0.894651 0.315486
O O9 0.867906 0.785724 0.919994
O O10 0.989547 0.707901 0.877155
O O11 0.348584 0.835761 0.158639
O O12 0.178723 0.500000 0.212702
O O13 0.066173 0.598117 0.233566
O O14 0.000000 0.567822 0.000000
O O15 0.620756 0.500000 0.459065
#
# Coordination Sequence:
#
# PCOD9219331 Si02
#       7
#     8   8   4   8   8   8   8
#     4  12  21  41  61  90 129 166 208 254 314 377
#     4  11  20  35  60  87 125 153 207 254 312 359
#     4  12  22  42  61  92 125 160 204 260 318 366
#     4  12  25  39  64  94 124 167 202 260 316 380
#     4  11  21  38  61  86 122 163 206 254 308 373
#     4  12  23  39  61  92 127 155 209 254 317 370
#     4  11  22  35  60  92 125 164 203 258 313 366
#
# _framework density 19.885314999999999
#
# number of rings (size 3 to 8) (size 9 to 14) (size 15 to 20)
#    0.000    0.462    6.923    3.692    2.154    0.000 
#    0.000    0.769    0.000    1.846    0.000    1.077 
#    0.000    0.000    0.000    0.000    0.000    0.000 
#
# Total GULP energy -144886.171858 kJ/mol
# GULP energy per Si atom -5572.545071 kJ/mol
# Density = 1.984005 g / cm^3
# Si number density = 19.885315 Si / 1000 Ang^3
#
#
#
# Elastic Constant Matrix: (Units=GPa)
#
#
# Indices 1 2 3 4 5 6 
#
# 1 107.3989 23.9720 26.2482 0.0000 19.1097 0.0000
# 2 23.9720 62.4802 6.4658 0.0000 9.3648 0.0000
# 3 26.2482 6.4658 77.8788 0.0000 18.0557 0.0000
# 4 0.0000 0.0000 0.0000 5.3031 0.0000 -2.6913
# 5 19.1097 9.3648 18.0557 0.0000 34.3584 0.0000
# 6 0.0000 0.0000 0.0000 -2.6913 0.0000 19.0543
#
#
#
# Elastic Compliance Matrix: (Units=1/GPa)
#
#
# Indices 1 2 3 4 5 6 
#
# 1 0.011458 -0.003519 -0.002636 0.000000 -0.004028 0.000000
# 2 -0.003519 0.017778 0.000432 0.000000 -0.003115 0.000000
# 3 -0.002636 0.000432 0.015237 0.000000 -0.006659 0.000000
# 4 0.000000 0.000000 0.000000 0.203130 0.000000 0.028691
# 5 -0.004028 -0.003115 -0.006659 0.000000 0.035694 0.000000
# 6 0.000000 0.000000 0.000000 0.028691 0.000000 0.056534
#
#
# Mechanical properties :
#
#
# Convention : Reuss Voigt Hill
#
# Bulk Modulus (GPa) = 30.27839 40.12555 35.20197
# Shear Modulus (GPa) = 13.80136 24.48128 19.14132
#
# Velocity S-wave (km/s) = 2.63734 3.51254 3.10592
# Velocity P-wave (km/s) = 4.95314 6.05582 5.53202
#
# Compressibility (1/GPa) = 0.03302685
#
# Stress axis : x y z
#
# Youngs Moduli (GPa) = 87.27894 56.25069 65.63107
#
# Poissons Ratio (x) = 0.19797 0.17297
# Poissons Ratio (y) = 0.30717 -0.02838
# Poissons Ratio (z) = 0.23002 -0.02433
#
# Static dielectric constant tensor:
#      x y z
#    x 1.726500 0.000000 0.052910 
#    y 0.000000 1.763540 0.000000 
#    z 0.052910 0.000000 1.812650 
# 
# From -- ./inp_files/147729.got.cif
#   From: 2010.05.17/outbox.cif.g08.bks.cpg/sg12_74_cif.got.tgz:147729.got - 2010.06.03 13:09:07.
