data_PCOD9219381
_publ_section_title
;
Structure prediction by ZEFSAII (Michael W. Deem and Ramdas Pophale) SiO2 
 PCOD9219381
Probable space group: C 2/M
;
_chemical_formula_sum "Si O2"
_cell_formula_units_Z 44
_cell_length_a 29.330165
_cell_length_b 17.217101
_cell_length_c 16.436885
_cell_angle_alpha 90.000000
_cell_angle_beta 15.247122
_cell_angle_gamma 90.000000
_cell_volume 2182.837048
_symmetry_space_group_name_H-M "C 2/M"
_symmetry_group_IT_number 12
_symmetry_cell_setting 'monoclinic'
loop_
_space_group_symop_operation_xyz
x,y,z
-x,y,-z
-x,-y,-z
x,-y,z
1/2+x,1/2+y,z
1/2-x,1/2+y,-z
1/2-x,1/2-y,-z
1/2+x,1/2-y,z
loop_
_atom_site_type_symbol
_atom_site_label
_atom_site_fract_x
_atom_site_fract_y
_atom_site_fract_z
Si Si1 0.766329 0.830095 0.309757
Si Si2 0.684947 0.775094 0.200442
Si Si3 0.585023 0.411216 0.673562
Si Si4 0.115671 0.584004 0.703936
Si Si5 0.429811 0.303663 0.441945
Si Si6 0.000000 0.720484 0.000000
O O1 0.687090 0.904110 0.490989
O O2 0.630159 0.778358 0.494692
O O3 0.839695 0.775466 0.255922
O O4 0.931376 0.858050 0.974405
O O5 0.500000 0.816417 0.500000
O O6 0.635756 0.708365 0.352009
O O7 0.637618 0.684625 0.076370
O O8 0.750000 0.750000 0.000000
O O9 0.529040 0.500000 0.756335
O O10 0.731415 0.413904 0.491814
O O11 0.645523 0.371734 0.485062
O O12 0.026689 0.500000 0.864038
O O13 0.013851 0.661992 0.900671
#
# Coordination Sequence:
#
# PCOD9219381 Si02
#       6
#     8   8   8   8   8   4
#     4  12  21  34  57  83 114 159 210 241 277 332
#     4   9  20  38  63  94 115 138 183 248 309 362
#     4  11  22  36  54  84 123 162 199 241 285 334
#     4  11  23  36  50  76 123 169 200 237 286 328
#     4  11  20  36  63  93 113 149 198 247 286 349
#     4  12  21  34  51  80 114 154 206 256 273 320
#
# _framework density 20.157253999999998
#
# number of rings (size 3 to 8) (size 9 to 14) (size 15 to 20)
#    0.000    1.091    5.455    2.455    0.000    1.455 
#    0.000    0.000    0.000    5.455    0.000    0.000 
#    0.000    0.000    0.000    0.000    0.000    0.000 
#
# Total GULP energy -122551.841313 kJ/mol
# GULP energy per Si atom -5570.538242 kJ/mol
# Density = 2.011138 g / cm^3
# Si number density = 20.157254 Si / 1000 Ang^3
#
#
#
# Elastic Constant Matrix: (Units=GPa)
#
#
# Indices 1 2 3 4 5 6 
#
# 1 89.3114 23.1139 23.3567 0.0021 10.6623 -0.0007
# 2 23.1139 98.5872 13.5876 0.0059 4.8063 -0.0017
# 3 23.3567 13.5876 78.5516 0.0029 -2.8114 -0.0016
# 4 0.0021 0.0059 0.0029 16.0190 -0.0022 5.7576
# 5 10.6623 4.8063 -2.8114 -0.0022 45.2921 0.0011
# 6 -0.0007 -0.0017 -0.0016 5.7576 0.0011 12.6254
#
#
#
# Elastic Compliance Matrix: (Units=1/GPa)
#
#
# Indices 1 2 3 4 5 6 
#
# 1 0.013131 -0.002434 -0.003593 -0.000001 -0.003056 0.000001
# 2 -0.002434 0.010910 -0.001187 -0.000005 -0.000658 0.000003
# 3 -0.003593 -0.001187 0.014070 -0.000002 0.001845 0.000002
# 4 -0.000001 -0.000005 -0.000002 0.074664 0.000005 -0.034049
# 5 -0.003056 -0.000658 0.001845 0.000005 0.022983 -0.000004
# 6 0.000001 0.000003 0.000002 -0.034049 -0.000004 0.094733
#
#
# Mechanical properties :
#
#
# Convention : Reuss Voigt Hill
#
# Bulk Modulus (GPa) = 42.22442 42.95184 42.58813
# Shear Modulus (GPa) = 19.77748 28.54679 24.16213
#
# Velocity S-wave (km/s) = 3.13574 3.76733 3.46595
# Velocity P-wave (km/s) = 5.83982 6.34652 6.09844
#
# Compressibility (1/GPa) = 0.02368298
#
# Stress axis : x y z
#
# Youngs Moduli (GPa) = 76.15442 91.66129 71.07282
#
# Poissons Ratio (x) = 0.22315 0.25534
# Poissons Ratio (y) = 0.18540 0.08435
# Poissons Ratio (z) = 0.27360 0.10879
#
# Static dielectric constant tensor:
#      x y z
#    x 1.778930 0.000000 -0.008510 
#    y 0.000000 1.673520 0.000000 
#    z -0.008510 0.000000 1.833530 
# 
# From -- ./inp_files/246978.got.cif
#   From: 2010.05.17/outbox.cif.g08.bks.cpg/sg12_124_cif.got.tgz:246978.got - 2010.06.03 13:09:07.
