data_PCOD9219644
_publ_section_title
;
Structure prediction by ZEFSAII (Michael W. Deem and Ramdas Pophale) SiO2 
 PCOD9219644
Probable space group: C 2/M
;
_chemical_formula_sum "Si O2"
_cell_formula_units_Z 56
_cell_length_a 13.674430
_cell_length_b 7.951462
_cell_length_c 20.659767
_cell_angle_alpha 90.000000
_cell_angle_beta 108.188931
_cell_angle_gamma 90.000000
_cell_volume 2134.125938
_symmetry_space_group_name_H-M "C 2/M"
_symmetry_group_IT_number 12
_symmetry_cell_setting 'monoclinic'
loop_
_space_group_symop_operation_xyz
x,y,z
-x,y,-z
-x,-y,-z
x,-y,z
1/2+x,1/2+y,z
1/2-x,1/2+y,-z
1/2-x,1/2-y,-z
1/2+x,1/2-y,z
loop_
_atom_site_type_symbol
_atom_site_label
_atom_site_fract_x
_atom_site_fract_y
_atom_site_fract_z
Si Si1 0.297898 0.819073 0.078353
Si Si2 0.725946 0.804085 0.348145
Si Si3 0.857375 0.797741 0.486829
Si Si4 0.004275 0.805190 0.076562
Si Si5 0.517463 0.303301 0.370952
Si Si6 0.084401 0.800914 0.774881
Si Si7 0.142307 0.196971 0.205975
O O1 0.416345 0.818302 0.080402
O O2 0.324668 0.755985 0.157926
O O3 0.247904 0.000000 0.075573
O O4 0.250000 0.750000 0.000000
O O5 0.829734 0.750368 0.407036
O O6 0.628950 0.702215 0.356733
O O7 0.719556 0.789117 0.269623
O O8 0.708958 0.000000 0.361041
O O9 0.750000 0.750000 0.500000
O O10 0.948804 0.731568 0.551871
O O11 0.870010 0.000000 0.490683
O O12 0.114783 0.753089 0.127056
O O13 0.982375 0.000000 0.093961
O O14 0.000000 0.808597 0.000000
O O15 0.488369 0.500000 0.373871
O O16 0.440016 0.226280 0.301658
O O17 0.973104 0.776890 0.787493
O O18 0.097023 0.000000 0.769672
O O19 0.167790 0.000000 0.214530
#
# Coordination Sequence:
#
# PCOD9219644 Si02
#       7
#     8   8   8   8   8   8   8
#     4  11  21  32  47  66  89 115 145 180 217 259
#     4   9  14  18  27  44  66  92 125 163 196 231
#     4   8  13  19  26  39  60  89 124 158 193 231
#     4   9  18  33  50  66  86 113 145 181 221 263
#     4   8  13  21  31  42  62  93 126 160 197 239
#     4   8  14  25  39  54  73 100 135 171 208 249
#     4   8  14  24  37  52  72 100 131 162 201 249
#
# _framework density 26.240248999999999
#
# number of rings (size 3 to 8) (size 9 to 14) (size 15 to 20)
#    0.000    3.286    0.000    3.429    0.000    6.000 
#    0.000    0.000    0.000    0.000    0.000    0.000 
#    0.000    0.000    0.000    1.286    0.000   28.286 
#
# Total GULP energy -156002.482231 kJ/mol
# GULP energy per Si atom -5571.517223 kJ/mol
# Density = 2.618052 g / cm^3
# Si number density = 26.240249 Si / 1000 Ang^3
#
#
#
# Elastic Constant Matrix: (Units=GPa)
#
#
# Indices 1 2 3 4 5 6 
#
# 1 70.0387 0.3859 36.4914 0.0000 30.7503 0.0000
# 2 0.3859 32.5897 34.4120 0.0000 5.0402 0.0000
# 3 36.4914 34.4120 359.3444 0.0000 20.1558 0.0000
# 4 0.0000 0.0000 0.0000 31.8325 0.0000 2.7884
# 5 30.7503 5.0402 20.1558 0.0000 51.8923 0.0000
# 6 0.0000 0.0000 0.0000 2.7884 0.0000 8.8103
#
#
#
# Elastic Compliance Matrix: (Units=1/GPa)
#
#
# Indices 1 2 3 4 5 6 
#
# 1 0.020289 0.003393 -0.001730 0.000000 -0.011680 0.000000
# 2 0.003393 0.034927 -0.003462 0.000000 -0.004058 0.000000
# 3 -0.001730 -0.003462 0.003285 0.000000 0.000085 0.000000
# 4 0.000000 0.000000 0.000000 0.032310 0.000000 -0.010226
# 5 -0.011680 -0.004058 0.000085 0.000000 0.026553 0.000000
# 6 0.000000 0.000000 0.000000 -0.010226 0.000000 0.116740
#
#
# Mechanical properties :
#
#
# Convention : Reuss Voigt Hill
#
# Bulk Modulus (GPa) = 18.21369 67.17238 42.69304
# Shear Modulus (GPa) = 19.53098 44.55257 32.04178
#
# Velocity S-wave (km/s) = 2.73117 4.12499 3.49820
# Velocity P-wave (km/s) = 4.11120 6.95284 5.71156
#
# Compressibility (1/GPa) = 0.05490374
#
# Stress axis : x y z
#
# Youngs Moduli (GPa) = 49.28848 28.63094 304.39114
#
# Poissons Ratio (x) = -0.09715 0.52663
# Poissons Ratio (y) = -0.16724 1.05370
# Poissons Ratio (z) = 0.08527 0.09911
#
# Static dielectric constant tensor:
#      x y z
#    x 2.250450 0.000000 -0.100880 
#    y 0.000000 2.144250 0.000000 
#    z -0.100880 0.000000 2.238950 
# 
# From -- ./inp_files/365054.got.cif
#   From: 2010.05.17/outbox.cif.g08.bks.cpg/sg12_183_cif.got.tgz:365054.got - 2010.06.03 13:09:07.
