data_PCOD9219372
_publ_section_title
;
Structure prediction by ZEFSAII (Michael W. Deem and Ramdas Pophale) SiO2 
 PCOD9219372
Probable space group: C 2/M
;
_chemical_formula_sum "Si O2"
_cell_formula_units_Z 64
_cell_length_a 27.185502
_cell_length_b 19.804976
_cell_length_c 12.169043
_cell_angle_alpha 90.000000
_cell_angle_beta 148.450609
_cell_angle_gamma 90.000000
_cell_volume 3428.179414
_symmetry_space_group_name_H-M "C 2/M"
_symmetry_group_IT_number 12
_symmetry_cell_setting 'monoclinic'
loop_
_space_group_symop_operation_xyz
x,y,z
-x,y,-z
-x,-y,-z
x,-y,z
1/2+x,1/2+y,z
1/2-x,1/2+y,-z
1/2-x,1/2-y,-z
1/2+x,1/2-y,z
loop_
_atom_site_type_symbol
_atom_site_label
_atom_site_fract_x
_atom_site_fract_y
_atom_site_fract_z
Si Si1 0.639476 0.249503 0.260831
Si Si2 0.111337 0.792143 0.965175
Si Si3 0.969206 0.580656 0.624854
Si Si4 0.399755 0.301578 0.577908
Si Si5 0.143236 0.656133 0.891026
Si Si6 0.308324 0.179599 0.261488
Si Si7 0.759866 0.076272 0.282026
Si Si8 0.070495 0.395514 0.045856
O O1 0.750000 0.250000 0.500000
O O2 0.590998 0.273974 0.280180
O O3 0.601000 0.176104 0.155064
O O4 0.625157 0.292381 0.122919
O O5 0.124811 0.716235 0.942876
O O6 0.005283 0.813202 0.735542
O O7 0.199028 0.830792 0.079624
O O8 0.967528 0.500000 0.614746
O O9 0.870359 0.615819 0.415546
O O10 0.048430 0.613244 0.697784
O O11 0.007316 0.603913 0.816388
O O12 0.347135 0.244714 0.403472
O O13 0.337285 0.368935 0.463607
O O14 0.175200 0.687226 0.837050
O O15 0.217717 0.605527 0.087931
O O16 0.670626 0.075316 0.195764
O O17 0.794988 0.000000 0.338203
O O18 0.000000 0.427675 0.000000
#
# Coordination Sequence:
#
# PCOD9219372 Si02
#       8
#     8   8   8   8   8   8   8   8
#     4  12  19  36  64  92 129 156 197 255 319 370
#     4  12  23  38  62  98 123 158 209 266 306 365
#     4  11  24  40  60  95 133 169 206 250 325 396
#     4  12  24  40  65  98 125 168 214 259 313 376
#     4  11  21  40  63  95 124 160 209 263 317 371
#     4  12  23  39  64  92 131 161 207 267 315 360
#     4  11  24  43  62  88 130 173 213 255 314 381
#     4  11  20  36  61  93 126 158 206 259 311 374
#
# _framework density 18.668800000000001
#
# number of rings (size 3 to 8) (size 9 to 14) (size 15 to 20)
#    0.000    0.500    7.500    4.125    0.000    2.500 
#    0.000    0.625    0.000    2.250    0.000    0.000 
#    0.000    0.000    0.000    0.000    0.000    0.000 
#
# Total GULP energy -178650.448294 kJ/mol
# GULP energy per Si atom -5582.826509 kJ/mol
# Density = 1.862631 g / cm^3
# Si number density = 18.668800 Si / 1000 Ang^3
#
#
#
# Elastic Constant Matrix: (Units=GPa)
#
#
# Indices 1 2 3 4 5 6 
#
# 1 124.2965 35.9288 49.0509 0.0000 0.9411 0.0000
# 2 35.9288 108.8245 39.0788 0.0000 -1.7959 0.0000
# 3 49.0509 39.0788 94.1907 0.0000 19.3173 0.0000
# 4 0.0000 0.0000 0.0000 -26.8622 0.0000 26.1288
# 5 0.9411 -1.7959 19.3173 0.0000 41.1098 0.0000
# 6 0.0000 0.0000 0.0000 26.1288 0.0000 -11.5070
#
#
#
# Elastic Compliance Matrix: (Units=1/GPa)
#
#
# Indices 1 2 3 4 5 6 
#
# 1 0.010572 -0.001547 -0.005312 0.000000 0.002187 0.000000
# 2 -0.001547 0.011335 -0.004433 0.000000 0.002614 0.000000
# 3 -0.005312 -0.004433 0.016862 0.000000 -0.007996 0.000000
# 4 0.000000 0.000000 0.000000 0.030800 0.000000 0.069936
# 5 0.002187 0.002614 -0.007996 0.000000 0.028146 0.000000
# 6 0.000000 0.000000 0.000000 0.069936 0.000000 0.071899
#
#
# Mechanical properties :
#
#
# Convention : Reuss Voigt Hill
#
# Bulk Modulus (GPa) = 61.78664 63.93649 62.86157
# Shear Modulus (GPa) = 25.30438 14.09834 19.70136
#
# Velocity S-wave (km/s) = 3.68562 2.75104 3.25208
# Velocity P-wave (km/s) = 7.16099 6.66431 6.91711
#
# Compressibility (1/GPa) = 0.01618473
#
# Stress axis : x y z
#
# Youngs Moduli (GPa) = 94.58766 88.22310 59.30368
#
# Poissons Ratio (x) = 0.13646 0.31504
# Poissons Ratio (y) = 0.14630 0.26291
# Poissons Ratio (z) = 0.50248 0.39112
#
# Static dielectric constant tensor:
#      x y z
#    x 1.701620 0.000000 0.013150 
#    y 0.000000 1.633890 0.000000 
#    z 0.013150 0.000000 1.660530 
# 
# From -- ./inp_files/184725.got.cif
#   From: 2010.05.17/outbox.cif.g08.bks.cpg/sg12_93_cif.got.tgz:184725.got - 2010.06.03 13:09:07.
