data_PCOD9219181
_publ_section_title
;
Structure prediction by ZEFSAII (Michael W. Deem and Ramdas Pophale) SiO2 
 PCOD9219181
Probable space group: C 2/M
;
_chemical_formula_sum "Si O2"
_cell_formula_units_Z 56
_cell_length_a 19.767532
_cell_length_b 7.620880
_cell_length_c 22.926348
_cell_angle_alpha 90.000000
_cell_angle_beta 123.235760
_cell_angle_gamma 90.000000
_cell_volume 2888.804215
_symmetry_space_group_name_H-M "C 2/M"
_symmetry_group_IT_number 12
_symmetry_cell_setting 'monoclinic'
loop_
_space_group_symop_operation_xyz
x,y,z
-x,y,-z
-x,-y,-z
x,-y,z
1/2+x,1/2+y,z
1/2-x,1/2+y,-z
1/2-x,1/2-y,-z
1/2+x,1/2-y,z
loop_
_atom_site_type_symbol
_atom_site_label
_atom_site_fract_x
_atom_site_fract_y
_atom_site_fract_z
Si Si1 0.567710 0.293572 0.355920
Si Si2 0.790799 0.198901 0.080361
Si Si3 0.536949 0.715809 0.799009
Si Si4 0.425791 0.284855 0.506852
Si Si5 0.246749 0.708219 0.429495
Si Si6 0.870823 0.787585 0.944646
Si Si7 0.990446 0.213037 0.901851
O O1 0.551692 0.500000 0.354721
O O2 0.503487 0.220102 0.279539
O O3 0.563883 0.224653 0.420693
O O4 0.657992 0.277148 0.371289
O O5 0.872484 0.281315 0.143961
O O6 0.718523 0.216480 0.091816
O O7 0.814821 0.000000 0.081364
O O8 0.750000 0.250000 0.000000
O O9 0.536001 0.500000 0.795208
O O10 0.487682 0.766785 0.833802
O O11 0.500000 0.230391 0.500000
O O12 0.425307 0.500000 0.506452
O O13 0.333770 0.229775 0.445664
O O14 0.244268 0.500000 0.420291
O O15 0.250000 0.750000 0.500000
O O16 0.917805 0.730216 0.909082
O O17 0.867031 0.000000 0.943814
O O18 0.926668 0.733271 0.026164
O O19 0.990725 0.000000 0.903372
#
# Coordination Sequence:
#
# PCOD9219181 Si02
#       7
#     8   8   8   8   8   8   8
#     4   9  17  30  49  69  91 124 162 197 231 274
#     4  11  20  31  48  69  94 123 159 203 246 291
#     4   9  17  30  48  68  90 122 163 197 233 287
#     4   8  14  26  46  71  94 119 153 185 217 267
#     4   9  16  28  48  71  94 121 154 190 226 271
#     4   9  16  29  49  68  86 114 156 199 240 284
#     4   8  14  27  48  67  85 116 156 194 233 290
#
# _framework density 19.385183999999999
#
# number of rings (size 3 to 8) (size 9 to 14) (size 15 to 20)
#    0.000    3.000    1.429    2.571    0.000    0.000 
#    0.000    4.286    0.000   12.429    0.000    0.000 
#    0.000    0.000    0.000    0.000    0.000    0.000 
#
# Total GULP energy -155871.609051 kJ/mol
# GULP energy per Si atom -5566.843180 kJ/mol
# Density = 1.934106 g / cm^3
# Si number density = 19.385184 Si / 1000 Ang^3
#
#
#
# Elastic Constant Matrix: (Units=GPa)
#
#
# Indices 1 2 3 4 5 6 
#
# 1 134.4545 -9.6948 65.5179 0.0000 9.1035 0.0000
# 2 -9.6948 32.0412 5.5157 0.0000 -2.7406 0.0000
# 3 65.5179 5.5157 123.5780 0.0000 10.4864 0.0000
# 4 0.0000 0.0000 0.0000 6.8824 0.0000 4.5096
# 5 9.1035 -2.7406 10.4864 0.0000 23.2435 0.0000
# 6 0.0000 0.0000 0.0000 4.5096 0.0000 17.5401
#
#
#
# Elastic Compliance Matrix: (Units=1/GPa)
#
#
# Indices 1 2 3 4 5 6 
#
# 1 0.010585 0.004091 -0.005702 0.000000 -0.001091 0.000000
# 2 0.004091 0.033495 -0.004017 0.000000 0.004159 0.000000
# 3 -0.005702 -0.004017 0.011589 0.000000 -0.003469 0.000000
# 4 0.000000 0.000000 0.000000 0.174733 0.000000 -0.044924
# 5 -0.001091 0.004159 -0.003469 0.000000 0.045505 0.000000
# 6 0.000000 0.000000 0.000000 -0.044924 0.000000 0.068562
#
#
# Mechanical properties :
#
#
# Convention : Reuss Voigt Hill
#
# Bulk Modulus (GPa) = 22.51605 45.86125 34.18865
# Shear Modulus (GPa) = 13.49422 24.78221 19.13822
#
# Velocity S-wave (km/s) = 2.64125 3.57936 3.14548
# Velocity P-wave (km/s) = 4.57623 6.38684 5.55579
#
# Compressibility (1/GPa) = 0.04441276
#
# Stress axis : x y z
#
# Youngs Moduli (GPa) = 94.47623 29.85531 86.29175
#
# Poissons Ratio (x) = -0.12213 0.49201
# Poissons Ratio (y) = -0.38649 0.34662
# Poissons Ratio (z) = 0.53868 0.11992
#
# Static dielectric constant tensor:
#      x y z
#    x 1.706950 0.000000 0.026660 
#    y 0.000000 1.732580 0.000000 
#    z 0.026660 0.000000 1.700710 
# 
# From -- ./inp_files/345644.got.cif
#   From: 2010.05.17/outbox.cif.g08.bks.cpg/sg12_173_cif.got.tgz:345644.got - 2010.06.03 13:09:07.
