data_PCOD9219184
_publ_section_title
;
Structure prediction by ZEFSAII (Michael W. Deem and Ramdas Pophale) SiO2 
 PCOD9219184
Probable space group: C 2/M
;
_chemical_formula_sum "Si O2"
_cell_formula_units_Z 40
_cell_length_a 29.755819
_cell_length_b 8.752289
_cell_length_c 13.152311
_cell_angle_alpha 90.000000
_cell_angle_beta 136.208577
_cell_angle_gamma 90.000000
_cell_volume 2370.411596
_symmetry_space_group_name_H-M "C 2/M"
_symmetry_group_IT_number 12
_symmetry_cell_setting 'monoclinic'
loop_
_space_group_symop_operation_xyz
x,y,z
-x,y,-z
-x,-y,-z
x,-y,z
1/2+x,1/2+y,z
1/2-x,1/2+y,-z
1/2-x,1/2-y,-z
1/2+x,1/2-y,z
loop_
_atom_site_type_symbol
_atom_site_label
_atom_site_fract_x
_atom_site_fract_y
_atom_site_fract_z
Si Si1 0.927304 0.686393 0.404908
Si Si2 0.149521 0.683795 0.522746
Si Si3 0.678154 0.317203 0.364363
Si Si4 0.200444 0.816548 0.179160
Si Si5 0.316976 0.817099 0.065960
O O1 0.927827 0.500000 0.406444
O O2 0.899666 0.733726 0.469580
O O3 0.876172 0.733129 0.234802
O O4 0.000000 0.738739 0.500000
O O5 0.147815 0.500000 0.511349
O O6 0.137180 0.753617 0.391530
O O7 0.223162 0.723351 0.678889
O O8 0.681020 0.500000 0.374683
O O9 0.750000 0.250000 0.500000
O O10 0.663099 0.276106 0.222747
O O11 0.197852 0.000000 0.161904
O O12 0.175368 0.737027 0.037176
O O13 0.313253 0.000000 0.064100
O O14 0.250000 0.750000 0.000000
#
# Coordination Sequence:
#
# PCOD9219184 Si02
#       5
#     8   8   8   8   8
#     4   9  18  33  51  71  98 132 166 201 244 290
#     4   9  16  29  48  70  97 126 161 202 243 286
#     4   9  17  28  44  68  98 128 159 198 243 288
#     4   9  17  30  46  70 100 126 158 200 246 288
#     4  11  20  31  50  74  99 128 162 201 246 291
#
# _framework density 16.874707000000001
#
# number of rings (size 3 to 8) (size 9 to 14) (size 15 to 20)
#    0.000    2.600    2.000    2.400    0.000    4.000 
#    0.000    0.000    0.000    6.600    0.000    8.400 
#    0.000    0.000    0.000    0.000    0.000    0.000 
#
# Total GULP energy -111427.017206 kJ/mol
# GULP energy per Si atom -5571.350860 kJ/mol
# Density = 1.683630 g / cm^3
# Si number density = 16.874707 Si / 1000 Ang^3
#
#
#
# Elastic Constant Matrix: (Units=GPa)
#
#
# Indices 1 2 3 4 5 6 
#
# 1 153.1675 33.9472 90.3142 0.0000 -32.4688 0.0000
# 2 33.9472 22.8549 30.4411 0.0000 -11.6432 0.0000
# 3 90.3142 30.4411 103.7501 0.0000 -23.2617 0.0000
# 4 0.0000 0.0000 0.0000 22.4612 0.0000 -11.0267
# 5 -32.4688 -11.6432 -23.2617 0.0000 35.8049 0.0000
# 6 0.0000 0.0000 0.0000 -11.0267 0.0000 24.4390
#
#
#
# Elastic Compliance Matrix: (Units=1/GPa)
#
#
# Indices 1 2 3 4 5 6 
#
# 1 0.014848 -0.006230 -0.009987 0.000000 0.004950 0.000000
# 2 -0.006230 0.078577 -0.015415 0.000000 0.009888 0.000000
# 3 -0.009987 -0.015415 0.023060 0.000000 0.000912 0.000000
# 4 0.000000 0.000000 0.000000 0.057189 0.000000 0.025803
# 5 0.004950 0.009888 0.000912 0.000000 0.036226 0.000000
# 6 0.000000 0.000000 0.000000 0.025803 0.000000 0.052560
#
#
# Mechanical properties :
#
#
# Convention : Reuss Voigt Hill
#
# Bulk Modulus (GPa) = 18.78990 65.46416 42.12703
# Shear Modulus (GPa) = 14.55758 24.87900 19.71829
#
# Velocity S-wave (km/s) = 2.94034 3.84388 3.42206
# Velocity P-wave (km/s) = 4.76304 7.65369 6.37438
#
# Compressibility (1/GPa) = 0.05322007
#
# Stress axis : x y z
#
# Youngs Moduli (GPa) = 67.35028 12.72638 43.36556
#
# Poissons Ratio (x) = 0.07928 0.43310
# Poissons Ratio (y) = 0.41959 0.66848
# Poissons Ratio (z) = 0.67264 0.19618
#
# Static dielectric constant tensor:
#      x y z
#    x 1.604830 0.000000 -0.028140 
#    y 0.000000 1.571140 0.000000 
#    z -0.028140 0.000000 1.559560 
# 
# From -- ./inp_files/151854.got.cif
#   From: 2010.05.17/outbox.cif.g08.bks.cpg/sg12_76_cif.got.tgz:151854.got - 2010.06.03 13:09:07.
