data_PCOD9219760
_publ_section_title
;
Structure prediction by ZEFSAII (Michael W. Deem and Ramdas Pophale) SiO2 
 PCOD9219760
Probable space group: C 2/M
;
_chemical_formula_sum "Si O2"
_cell_formula_units_Z 40
_cell_length_a 17.104035
_cell_length_b 20.788203
_cell_length_c 9.079234
_cell_angle_alpha 90.000000
_cell_angle_beta 43.686668
_cell_angle_gamma 90.000000
_cell_volume 2229.785561
_symmetry_space_group_name_H-M "C 2/M"
_symmetry_group_IT_number 12
_symmetry_cell_setting 'monoclinic'
loop_
_space_group_symop_operation_xyz
x,y,z
-x,y,-z
-x,-y,-z
x,-y,z
1/2+x,1/2+y,z
1/2-x,1/2+y,-z
1/2-x,1/2-y,-z
1/2+x,1/2-y,z
loop_
_atom_site_type_symbol
_atom_site_label
_atom_site_fract_x
_atom_site_fract_y
_atom_site_fract_z
Si Si1 0.010843 0.575725 0.810199
Si Si2 0.669163 0.163186 0.113928
Si Si3 0.812138 0.666926 0.559332
Si Si4 0.423055 0.714602 0.234113
Si Si5 0.917516 0.806825 0.751629
O O1 0.005174 0.500000 0.787062
O O2 0.913284 0.613403 0.853341
O O3 0.128707 0.606779 0.598188
O O4 0.000000 0.585533 0.000000
O O5 0.669934 0.159947 0.290560
O O6 0.623329 0.235141 0.145561
O O7 0.799373 0.157337 0.884669
O O8 0.681950 0.677649 0.694542
O O9 0.873951 0.730567 0.409395
O O10 0.505581 0.669851 0.217982
O O11 0.500000 0.744123 0.000000
O O12 0.000000 0.804325 0.500000
#
# Coordination Sequence:
#
# PCOD9219760 Si02
#       5
#     8   8   8   8   8
#     4  11  25  42  60  83 112 151 198 240 282 333
#     4  11  22  36  57  86 118 152 194 231 282 344
#     4  11  22  35  58  85 117 155 190 231 285 339
#     4  11  21  35  55  89 124 151 182 232 290 345
#     4  11  21  34  55  88 123 151 182 231 292 344
#
# _framework density 17.938943999999999
#
# number of rings (size 3 to 8) (size 9 to 14) (size 15 to 20)
#    0.000    1.000    6.000    1.200    2.800    1.600 
#    0.000    0.000    0.000    2.400    0.000    0.000 
#    0.000    0.000    0.000    0.000    0.000    0.000 
#
# Total GULP energy -111656.898391 kJ/mol
# GULP energy per Si atom -5582.844920 kJ/mol
# Density = 1.789811 g / cm^3
# Si number density = 17.938944 Si / 1000 Ang^3
#
#
#
# Elastic Constant Matrix: (Units=GPa)
#
#
# Indices 1 2 3 4 5 6 
#
# 1 143.4353 50.8776 60.0303 0.0000 -7.1489 0.0000
# 2 50.8776 77.4243 31.0134 0.0000 -4.1321 0.0000
# 3 60.0303 31.0134 120.9198 0.0000 -15.5888 0.0000
# 4 0.0000 0.0000 0.0000 16.3147 0.0000 1.8237
# 5 -7.1489 -4.1321 -15.5888 0.0000 31.7785 0.0000
# 6 0.0000 0.0000 0.0000 1.8237 0.0000 22.8037
#
#
#
# Elastic Compliance Matrix: (Units=1/GPa)
#
#
# Indices 1 2 3 4 5 6 
#
# 1 0.010472 -0.005349 -0.003857 0.000000 -0.000232 0.000000
# 2 -0.005349 0.017127 -0.001714 0.000000 0.000183 0.000000
# 3 -0.003857 -0.001714 0.011191 0.000000 0.004399 0.000000
# 4 0.000000 0.000000 0.000000 0.061847 0.000000 -0.004946
# 5 -0.000232 0.000183 0.004399 0.000000 0.033598 0.000000
# 6 0.000000 0.000000 0.000000 -0.004946 0.000000 0.044248
#
#
# Mechanical properties :
#
#
# Convention : Reuss Voigt Hill
#
# Bulk Modulus (GPa) = 58.99155 69.51353 64.25254
# Shear Modulus (GPa) = 24.27524 27.50326 25.88925
#
# Velocity S-wave (km/s) = 3.68260 3.91981 3.80305
# Velocity P-wave (km/s) = 7.14409 7.70199 7.42828
#
# Compressibility (1/GPa) = 0.01695158
#
# Stress axis : x y z
#
# Youngs Moduli (GPa) = 95.49729 58.38800 89.35557
#
# Poissons Ratio (x) = 0.31230 0.34461
# Poissons Ratio (y) = 0.51078 0.15313
# Poissons Ratio (z) = 0.36829 0.10006
#
# Static dielectric constant tensor:
#      x y z
#    x 1.670000 0.000000 0.000780 
#    y 0.000000 1.583480 0.000000 
#    z 0.000780 0.000000 1.647960 
# 
# From -- ./inp_files/48511.got.cif
#   From: 2010.05.17/outbox.cif.g08.bks.cpg/sg12_25_cif.got.tgz:48511.got - 2010.06.03 13:09:07.
