data_PCOD9219247
_publ_section_title
;
Structure prediction by ZEFSAII (Michael W. Deem and Ramdas Pophale) SiO2 
 PCOD9219247
Probable space group: C 2/M
;
_chemical_formula_sum "Si O2"
_cell_formula_units_Z 32
_cell_length_a 11.582934
_cell_length_b 17.995248
_cell_length_c 9.032615
_cell_angle_alpha 90.000000
_cell_angle_beta 41.528860
_cell_angle_gamma 90.000000
_cell_volume 1248.250134
_symmetry_space_group_name_H-M "C 2/M"
_symmetry_group_IT_number 12
_symmetry_cell_setting 'monoclinic'
loop_
_space_group_symop_operation_xyz
x,y,z
-x,y,-z
-x,-y,-z
x,-y,z
1/2+x,1/2+y,z
1/2-x,1/2+y,-z
1/2-x,1/2-y,-z
1/2+x,1/2-y,z
loop_
_atom_site_type_symbol
_atom_site_label
_atom_site_fract_x
_atom_site_fract_y
_atom_site_fract_z
Si Si1 0.101636 0.083939 0.200774
Si Si2 0.440010 0.280371 0.224098
Si Si3 0.945911 0.361508 0.720836
Si Si4 0.315267 0.863991 0.269950
O O1 0.182467 0.098728 0.285941
O O2 0.954183 0.143045 0.299532
O O3 0.042721 0.000000 0.244536
O O4 0.264360 0.100027 0.934244
O O5 0.558728 0.221685 0.202858
O O6 0.280190 0.224079 0.337138
O O7 0.500000 0.300516 0.000000
O O8 0.000000 0.359016 0.500000
O O9 0.106137 0.399191 0.656563
O O10 0.500000 0.861633 0.000000
#
# Coordination Sequence:
#
# PCOD9219247 Si02
#       4
#     8   8   8   8
#     4  11  20  33  56  80 105 135 171 217 264 304
#     4   9  18  35  55  75 103 137 183 209 243 313
#     4   9  18  33  55  80 104 135 176 217 254 303
#     4   7  16  31  52  72  98 135 173 206 238 310
#
# _framework density 25.635888999999999
#
# number of rings (size 3 to 8) (size 9 to 14) (size 15 to 20)
#    1.500    1.500    2.500    0.750    0.000    5.500 
#    0.000    5.000    0.000    0.750    0.000    0.000 
#    0.000    0.000    0.000    0.000    0.000    0.000 
#
# Total GULP energy -89277.923288 kJ/mol
# GULP energy per Si atom -5579.870206 kJ/mol
# Density = 2.557754 g / cm^3
# Si number density = 25.635889 Si / 1000 Ang^3
#
#
#
# Elastic Constant Matrix: (Units=GPa)
#
#
# Indices 1 2 3 4 5 6 
#
# 1 108.6519 55.6993 72.2253 0.0001 4.7477 -0.0001
# 2 55.6993 183.6317 31.5932 0.0000 2.2944 0.0000
# 3 72.2253 31.5932 109.4554 0.0000 28.4683 0.0000
# 4 0.0001 0.0000 0.0000 13.7171 0.0000 14.9134
# 5 4.7477 2.2944 28.4683 0.0000 71.5534 0.0000
# 6 -0.0001 0.0000 0.0000 14.9134 0.0000 9.1247
#
#
#
# Elastic Compliance Matrix: (Units=1/GPa)
#
#
# Indices 1 2 3 4 5 6 
#
# 1 0.019437 -0.003749 -0.012760 0.000000 0.003907 0.000000
# 2 -0.003749 0.006471 0.000664 0.000000 -0.000223 0.000000
# 3 -0.012760 0.000664 0.019129 0.000000 -0.006785 0.000000
# 4 0.000000 0.000000 0.000000 -0.093832 0.000000 0.153359
# 5 0.003907 -0.000223 -0.006785 0.000000 0.016423 0.000000
# 6 0.000000 0.000000 0.000000 0.153359 0.000000 -0.141057
#
#
# Mechanical properties :
#
#
# Convention : Reuss Voigt Hill
#
# Bulk Modulus (GPa) = 74.92045 80.08609 77.50327
# Shear Modulus (GPa) = -36.41917 35.02711 -0.69603
#
# Velocity S-wave (km/s) = -3.77322 3.70040 -0.52163
# Velocity P-wave (km/s) = 3.21020 7.04024 5.47130
#
# Compressibility (1/GPa) = 0.01334749
#
# Stress axis : x y z
#
# Youngs Moduli (GPa) = 51.44886 154.52545 52.27702
#
# Poissons Ratio (x) = 0.57934 0.66704
# Poissons Ratio (y) = 0.19289 -0.03471
# Poissons Ratio (z) = 0.65647 -0.10260
#
# Static dielectric constant tensor:
#      x y z
#    x 2.021740 0.000000 -0.031950 
#    y 0.000000 1.978410 0.000000 
#    z -0.031950 0.000000 2.332890 
# 
# From -- ./inp_files/46449.got.cif
#   From: 2010.05.17/outbox.cif.g08.bks.cpg/sg12_24_cif.got.tgz:46449.got - 2010.06.03 13:09:07.
