data_PCOD9219863
_publ_section_title
;
Structure prediction by ZEFSAII (Michael W. Deem and Ramdas Pophale) SiO2 
 PCOD9219863
Probable space group: C 2/M
;
_chemical_formula_sum "Si O2"
_cell_formula_units_Z 50
_cell_length_a 23.059621
_cell_length_b 7.543632
_cell_length_c 13.062485
_cell_angle_alpha 90.000000
_cell_angle_beta 99.558951
_cell_angle_gamma 90.000000
_cell_volume 2240.712543
_symmetry_space_group_name_H-M "C 2/M"
_symmetry_group_IT_number 12
_symmetry_cell_setting 'monoclinic'
loop_
_space_group_symop_operation_xyz
x,y,z
-x,y,-z
-x,-y,-z
x,-y,z
1/2+x,1/2+y,z
1/2-x,1/2+y,-z
1/2-x,1/2-y,-z
1/2+x,1/2-y,z
loop_
_atom_site_type_symbol
_atom_site_label
_atom_site_fract_x
_atom_site_fract_y
_atom_site_fract_z
Si Si1 0.967846 0.796421 0.354986
Si Si2 0.247015 0.283824 0.825812
Si Si3 0.380338 0.791857 0.152210
Si Si4 0.375597 0.713352 0.925783
Si Si5 0.088223 0.216138 0.286447
Si Si6 0.216114 0.788321 0.386073
Si Si7 0.500000 0.000000 0.500000
O O1 0.921228 0.791924 0.249732
O O2 0.029408 0.725388 0.325146
O O3 0.956315 0.657774 0.440976
O O4 0.972982 0.000000 0.389826
O O5 0.247616 0.500000 0.829832
O O6 0.186531 0.222415 0.857995
O O7 0.307674 0.224326 0.896153
O O8 0.251066 0.228361 0.707853
O O9 0.379342 0.000000 0.174343
O O10 0.401264 0.767100 0.042091
O O11 0.375070 0.500000 0.922874
O O12 0.407838 0.771766 0.831291
O O13 0.148611 0.275485 0.358308
O O14 0.086506 0.000000 0.287162
O O15 0.250000 0.750000 0.500000
O O16 0.212397 0.000000 0.376352
#
# Coordination Sequence:
#
# PCOD9219863 Si02
#       7
#     8   8   8   8   8   8   2
#     4  11  24  45  67  90 122 165 207 254 308 369
#     4   8  17  33  55  80 122 163 200 250 308 364
#     4  11  21  36  55  91 129 160 206 255 303 370
#     4   9  17  35  61  87 117 165 206 250 310 371
#     4   8  18  38  61  83 117 156 204 250 304 367
#     4   9  17  34  55  82 109 147 199 253 304 359
#     4  12  26  48  64  92 120 156 210 260 312 360
#
# _framework density 22.314332
#
# number of rings (size 3 to 8) (size 9 to 14) (size 15 to 20)
#    0.000    2.560    0.800    3.120    0.000    1.920 
#    5.760    9.600    0.000    0.000    0.000    0.000 
#    0.000    0.000    0.000    0.000    0.000    0.000 
#
# Total GULP energy -139371.509182 kJ/mol
# GULP energy per Si atom -5574.860367 kJ/mol
# Density = 2.226354 g / cm^3
# Si number density = 22.314332 Si / 1000 Ang^3
#
#
#
# Elastic Constant Matrix: (Units=GPa)
#
#
# Indices 1 2 3 4 5 6 
#
# 1 39.0374 4.7891 -0.2002 0.0000 -11.9200 0.0000
# 2 4.7891 92.4559 12.1722 0.0000 2.4415 0.0000
# 3 -0.2002 12.1722 123.8418 0.0000 13.6996 0.0000
# 4 0.0000 0.0000 0.0000 25.3205 0.0000 13.6901
# 5 -11.9200 2.4415 13.6996 0.0000 16.7967 0.0000
# 6 0.0000 0.0000 0.0000 13.6901 0.0000 -0.1360
#
#
#
# Elastic Compliance Matrix: (Units=1/GPa)
#
#
# Indices 1 2 3 4 5 6 
#
# 1 0.033988 -0.002110 -0.002682 0.000000 0.026614 0.000000
# 2 -0.002110 0.011098 -0.000825 0.000000 -0.002438 0.000000
# 3 -0.002682 -0.000825 0.009177 0.000000 -0.009268 0.000000
# 4 0.000000 0.000000 0.000000 0.000713 0.000000 0.071727
# 5 0.026614 -0.002438 -0.009268 0.000000 0.086336 0.000000
# 6 0.000000 0.000000 0.000000 0.071727 0.000000 -0.132662
#
#
# Mechanical properties :
#
#
# Convention : Reuss Voigt Hill
#
# Bulk Modulus (GPa) = 23.23956 32.09526 27.66741
# Shear Modulus (GPa) = 146.08765 24.30115 85.19440
#
# Velocity S-wave (km/s) = 8.10001 3.30364 6.18564
# Velocity P-wave (km/s) = 9.89533 5.38205 7.96505
#
# Compressibility (1/GPa) = 0.04303007
#
# Stress axis : x y z
#
# Youngs Moduli (GPa) = 29.42201 90.10456 108.97080
#
# Poissons Ratio (x) = 0.19015 0.29223
# Poissons Ratio (y) = 0.06209 0.08985
# Poissons Ratio (z) = 0.07890 0.07429
#
# Static dielectric constant tensor:
#      x y z
#    x 1.828780 0.000000 -0.029890 
#    y 0.000000 2.480820 0.000000 
#    z -0.029890 0.000000 1.852050 
# 
# From -- ./inp_files/180175.got.cif
#   From: 2010.05.17/outbox.cif.g08.bks.cpg/sg12_91_cif.got.tgz:180175.got - 2010.06.03 13:09:07.
