data_PCOD9219360
_publ_section_title
;
Structure prediction by ZEFSAII (Michael W. Deem and Ramdas Pophale) SiO2 
 PCOD9219360
Probable space group: C 2/M
;
_chemical_formula_sum "Si O2"
_cell_formula_units_Z 48
_cell_length_a 16.600278
_cell_length_b 20.398819
_cell_length_c 12.127571
_cell_angle_alpha 90.000000
_cell_angle_beta 35.361613
_cell_angle_gamma 90.000000
_cell_volume 2376.697459
_symmetry_space_group_name_H-M "C 2/M"
_symmetry_group_IT_number 12
_symmetry_cell_setting 'monoclinic'
loop_
_space_group_symop_operation_xyz
x,y,z
-x,y,-z
-x,-y,-z
x,-y,z
1/2+x,1/2+y,z
1/2-x,1/2+y,-z
1/2-x,1/2-y,-z
1/2+x,1/2-y,z
loop_
_atom_site_type_symbol
_atom_site_label
_atom_site_fract_x
_atom_site_fract_y
_atom_site_fract_z
Si Si1 0.704888 0.207976 0.381911
Si Si2 0.382577 0.426748 0.534056
Si Si3 0.264985 0.822415 0.169976
Si Si4 0.165031 0.925572 0.842501
Si Si5 0.105829 0.871107 0.131978
Si Si6 0.471073 0.762684 0.213837
O O1 0.689178 0.254498 0.292037
O O2 0.746950 0.133429 0.308967
O O3 0.580517 0.213575 0.608646
O O4 0.837207 0.242502 0.293024
O O5 0.500000 0.426172 0.500000
O O6 0.327244 0.500000 0.586818
O O7 0.269481 0.373734 0.695090
O O8 0.466009 0.405656 0.332603
O O9 0.198046 0.851752 0.133708
O O10 0.425657 0.811026 0.963912
O O11 0.202404 0.000000 0.768517
O O12 0.177181 0.915645 0.960686
O O13 0.000000 0.916224 0.000000
O O14 0.060221 0.803293 0.128127
#
# Coordination Sequence:
#
# PCOD9219360 Si02
#       6
#     8   8   8   8   8   8
#     4  11  22  39  59  85 123 152 199 244 289 353
#     4   9  19  35  56  85 118 148 186 239 295 345
#     4  11  21  36  61  86 117 149 195 239 301 343
#     4  11  22  38  60  86 119 157 195 239 294 353
#     4  11  20  36  58  91 114 144 193 249 287 346
#     4  11  22  36  58  89 115 152 194 244 288 344
#
# _framework density 20.196090999999999
#
# number of rings (size 3 to 8) (size 9 to 14) (size 15 to 20)
#    0.000    1.333    5.000    1.500    0.000    0.667 
#    0.000    0.833    0.000    3.000    0.000    0.000 
#    0.000    0.000    0.000    0.000    0.000    0.000 
#
# Total GULP energy -134063.905822 kJ/mol
# GULP energy per Si atom -5585.996076 kJ/mol
# Density = 2.015012 g / cm^3
# Si number density = 20.196091 Si / 1000 Ang^3
#
#
#
# Elastic Constant Matrix: (Units=GPa)
#
#
# Indices 1 2 3 4 5 6 
#
# 1 32.7642 6.7893 2.3530 0.0001 10.6086 -0.0004
# 2 6.7893 152.0094 56.8206 0.0000 -2.3007 -0.0003
# 3 2.3530 56.8206 113.0042 0.0000 -1.4365 -0.0003
# 4 0.0001 0.0000 0.0000 22.3534 0.0000 -8.7297
# 5 10.6086 -2.3007 -1.4365 0.0000 19.6498 0.0002
# 6 -0.0004 -0.0003 -0.0003 -8.7297 0.0002 11.0317
#
#
#
# Elastic Compliance Matrix: (Units=1/GPa)
#
#
# Indices 1 2 3 4 5 6 
#
# 1 0.037578 -0.001969 -0.000053 0.000001 -0.020522 0.000002
# 2 -0.001969 0.008213 -0.004067 0.000000 0.001727 0.000000
# 3 -0.000053 -0.004067 0.010900 0.000000 0.000349 0.000000
# 4 0.000001 0.000000 0.000000 0.064745 -0.000001 0.051234
# 5 -0.020522 0.001727 0.000349 -0.000001 0.062198 -0.000003
# 6 0.000002 0.000000 0.000000 0.051234 -0.000003 0.131191
#
#
# Mechanical properties :
#
#
# Convention : Reuss Voigt Hill
#
# Bulk Modulus (GPa) = 22.46574 47.74484 35.10529
# Shear Modulus (GPa) = 14.62677 26.06132 20.34404
#
# Velocity S-wave (km/s) = 2.69409 3.59613 3.17728
# Velocity P-wave (km/s) = 4.56349 6.39803 5.55699
#
# Compressibility (1/GPa) = 0.04451223
#
# Stress axis : x y z
#
# Youngs Moduli (GPa) = 26.61151 121.76279 91.74729
#
# Poissons Ratio (x) = 0.23976 0.00488
# Poissons Ratio (y) = 0.05240 0.37309
# Poissons Ratio (z) = 0.00142 0.49515
#
# Static dielectric constant tensor:
#      x y z
#    x 1.796480 0.000000 0.057340 
#    y 0.000000 1.715110 0.000000 
#    z 0.057340 0.000000 1.726980 
# 
# From -- ./inp_files/159129.got.cif
#   From: 2010.05.17/outbox.cif.g08.bks.cpg/sg12_80_cif.got.tgz:159129.got - 2010.06.03 13:09:07.
