data_PCOD9219020
_publ_section_title
;
Structure prediction by ZEFSAII (Michael W. Deem and Ramdas Pophale) SiO2 
 PCOD9219020
Probable space group: C 2/M
;
_chemical_formula_sum "Si O2"
_cell_formula_units_Z 56
_cell_length_a 18.743134
_cell_length_b 13.519520
_cell_length_c 21.387112
_cell_angle_alpha 90.000000
_cell_angle_beta 31.450686
_cell_angle_gamma 90.000000
_cell_volume 2827.679366
_symmetry_space_group_name_H-M "C 2/M"
_symmetry_group_IT_number 12
_symmetry_cell_setting 'monoclinic'
loop_
_space_group_symop_operation_xyz
x,y,z
-x,y,-z
-x,-y,-z
x,-y,z
1/2+x,1/2+y,z
1/2-x,1/2+y,-z
1/2-x,1/2-y,-z
1/2+x,1/2-y,z
loop_
_atom_site_type_symbol
_atom_site_label
_atom_site_fract_x
_atom_site_fract_y
_atom_site_fract_z
Si Si1 0.048141 0.883411 0.076588
Si Si2 0.823720 0.886897 0.694358
Si Si3 0.866460 0.295876 0.066968
Si Si4 0.135851 0.815238 0.461795
Si Si5 0.338001 0.618519 0.873850
Si Si6 0.380790 0.614662 0.396604
Si Si7 0.250975 0.888939 0.641681
O O1 0.887936 0.870627 0.214555
O O2 0.133784 0.854869 0.075159
O O3 0.069205 0.000000 0.048408
O O4 0.094035 0.812940 0.986422
O O5 0.745631 0.809263 0.795611
O O6 0.783766 0.875502 0.651506
O O7 0.983372 0.859267 0.577760
O O8 0.802081 0.000000 0.731838
O O9 0.800623 0.348035 0.055557
O O10 0.000000 0.341721 0.000000
O O11 0.185070 0.828451 0.496008
O O12 0.146160 0.702305 0.431175
O O13 0.345748 0.500000 0.866548
O O14 0.468811 0.654198 0.735304
O O15 0.395294 0.500000 0.406022
O O16 0.298003 0.612336 0.394021
O O17 0.300823 0.000000 0.619020
#
# Coordination Sequence:
#
# PCOD9219020 Si02
#       7
#     8   8   8   8   8   8   8
#     4   9  20  40  62  83 113 155 199 239 282 343
#     4  11  24  38  55  82 116 153 189 227 282 351
#     4  12  23  36  57  88 117 153 194 240 293 339
#     4  11  19  35  57  82 113 151 190 226 277 340
#     4   9  18  35  59  85 115 152 192 235 289 346
#     4   9  16  31  58  85 112 149 188 228 279 342
#     4   9  19  35  58  88 114 142 189 239 282 330
#
# _framework density 19.804226
#
# number of rings (size 3 to 8) (size 9 to 14) (size 15 to 20)
#    0.000    2.000    1.429    5.571    0.000    1.429 
#    0.000    2.857    0.000    0.000    0.000    0.000 
#    0.000    0.000    0.000    0.000    0.000    0.000 
#
# Total GULP energy -156085.643474 kJ/mol
# GULP energy per Si atom -5574.487267 kJ/mol
# Density = 1.975915 g / cm^3
# Si number density = 19.804226 Si / 1000 Ang^3
#
#
#
# Elastic Constant Matrix: (Units=GPa)
#
#
# Indices 1 2 3 4 5 6 
#
# 1 69.0982 21.5561 28.7489 0.0000 10.9432 0.0000
# 2 21.5561 90.0792 40.8846 0.0001 19.5134 -0.0002
# 3 28.7489 40.8846 60.9493 0.0000 31.3675 -0.0001
# 4 0.0000 0.0001 0.0000 29.9318 0.0000 2.5672
# 5 10.9432 19.5134 31.3675 0.0000 33.5222 0.0000
# 6 0.0000 -0.0002 -0.0001 2.5672 0.0000 23.2952
#
#
#
# Elastic Compliance Matrix: (Units=1/GPa)
#
#
# Indices 1 2 3 4 5 6 
#
# 1 0.018307 -0.000566 -0.010318 0.000000 0.004008 0.000000
# 2 -0.000566 0.016012 -0.011134 0.000000 0.001282 0.000000
# 3 -0.010318 -0.011134 0.045664 0.000000 -0.032880 0.000000
# 4 0.000000 0.000000 0.000000 0.033728 0.000000 -0.003717
# 5 0.004008 0.001282 -0.032880 0.000000 0.058542 0.000000
# 6 0.000000 0.000000 0.000000 -0.003717 0.000000 0.043337
#
#
# Mechanical properties :
#
#
# Convention : Reuss Voigt Hill
#
# Bulk Modulus (GPa) = 27.81887 44.72287 36.27087
# Shear Modulus (GPa) = 18.40874 25.94564 22.17719
#
# Velocity S-wave (km/s) = 3.05214 3.62347 3.35000
# Velocity P-wave (km/s) = 5.14764 6.33542 5.77216
#
# Compressibility (1/GPa) = 0.03594682
#
# Stress axis : x y z
#
# Youngs Moduli (GPa) = 54.62397 62.45129 21.89896
#
# Poissons Ratio (x) = 0.03534 0.22596
# Poissons Ratio (y) = 0.03091 0.24382
# Poissons Ratio (z) = 0.56363 0.69534
#
# Static dielectric constant tensor:
#      x y z
#    x 1.797980 0.000000 -0.000400 
#    y 0.000000 1.706370 0.000000 
#    z -0.000400 0.000000 1.701530 
# 
# From -- ./inp_files/316701.got.cif
#   From: 2010.05.17/outbox.cif.g08.bks.cpg/sg12_159_cif.got.tgz:316701.got - 2010.06.03 13:09:07.
