data_PCOD9219458
_publ_section_title
;
Structure prediction by ZEFSAII (Michael W. Deem and Ramdas Pophale) SiO2 
 PCOD9219458
Probable space group: C 2/M
;
_chemical_formula_sum "Si O2"
_cell_formula_units_Z 44
_cell_length_a 10.580387
_cell_length_b 22.531819
_cell_length_c 12.678201
_cell_angle_alpha 90.000000
_cell_angle_beta 127.052182
_cell_angle_gamma 90.000000
_cell_volume 2412.157818
_symmetry_space_group_name_H-M "C 2/M"
_symmetry_group_IT_number 12
_symmetry_cell_setting 'monoclinic'
loop_
_space_group_symop_operation_xyz
x,y,z
-x,y,-z
-x,-y,-z
x,-y,z
1/2+x,1/2+y,z
1/2-x,1/2+y,-z
1/2-x,1/2-y,-z
1/2+x,1/2-y,z
loop_
_atom_site_type_symbol
_atom_site_label
_atom_site_fract_x
_atom_site_fract_y
_atom_site_fract_z
Si Si1 0.246406 0.127285 0.493995
Si Si2 0.353721 0.500000 0.561376
Si Si3 0.000000 0.295759 0.500000
Si Si4 0.565572 0.765359 0.919900
Si Si5 0.277546 0.500000 0.270674
Si Si6 0.850150 0.628233 0.790390
Si Si7 0.556125 0.297996 0.704545
O O1 0.226633 0.060547 0.442617
O O2 0.364602 0.164679 0.482891
O O3 0.305195 0.129669 0.643985
O O4 0.074272 0.156758 0.403838
O O5 0.319555 0.500000 0.417446
O O6 0.541632 0.500000 0.682494
O O7 0.930213 0.254410 0.373145
O O8 0.513082 0.834712 0.883987
O O9 0.496972 0.729843 0.784737
O O10 0.500000 0.744464 0.000000
O O11 0.750000 0.750000 0.000000
O O12 0.178436 0.559437 0.193798
O O13 0.721581 0.667214 0.789900
#
# Coordination Sequence:
#
# PCOD9219458 Si02
#       7
#     8   4   4   8   4   8   8
#     4  11  21  34  58  89 124 156 193 242 305 366
#     4   9  18  33  54  86 124 159 184 236 297 374
#     4  12  22  31  54  91 124 156 188 242 304 376
#     4  12  26  41  59  86 121 163 205 247 296 352
#     4   9  18  34  59  88 117 150 199 244 296 349
#     4  11  20  38  62  89 118 155 197 249 297 356
#     4  12  21  36  61  89 121 151 197 245 312 357
#
# _framework density 18.240929000000001
#
# number of rings (size 3 to 8) (size 9 to 14) (size 15 to 20)
#    0.000    0.909    7.273    1.636    0.000    0.364 
#    0.000    0.455    0.000    0.000    0.000    3.182 
#    0.000    0.000    0.000    0.000    0.000    0.000 
#
# Total GULP energy -122748.092660 kJ/mol
# GULP energy per Si atom -5579.458757 kJ/mol
# Density = 1.819941 g / cm^3
# Si number density = 18.240929 Si / 1000 Ang^3
#
#
#
# Elastic Constant Matrix: (Units=GPa)
#
#
# Indices 1 2 3 4 5 6 
#
# 1 90.8160 56.0221 28.1188 0.0000 1.7735 0.0000
# 2 56.0221 163.9533 35.7948 0.0000 6.7860 0.0000
# 3 28.1188 35.7948 60.7507 0.0000 -4.6938 0.0000
# 4 0.0000 0.0000 0.0000 -36.6082 0.0000 24.3030
# 5 1.7735 6.7860 -4.6938 0.0000 42.6909 0.0000
# 6 0.0000 0.0000 0.0000 24.3030 0.0000 13.5177
#
#
#
# Elastic Compliance Matrix: (Units=1/GPa)
#
#
# Indices 1 2 3 4 5 6 
#
# 1 0.014956 -0.004099 -0.004543 0.000000 -0.000469 0.000000
# 2 -0.004099 0.008230 -0.003066 0.000000 -0.001475 0.000000
# 3 -0.004543 -0.003066 0.020597 0.000000 0.002941 0.000000
# 4 0.000000 0.000000 0.000000 -0.012453 0.000000 0.022389
# 5 -0.000469 -0.001475 0.002941 0.000000 0.024002 0.000000
# 6 0.000000 0.000000 0.000000 0.022389 0.000000 0.033725
#
#
# Mechanical properties :
#
#
# Convention : Reuss Voigt Hill
#
# Bulk Modulus (GPa) = 49.10032 61.71017 55.40524
# Shear Modulus (GPa) = 41.92416 16.95902 29.44159
#
# Velocity S-wave (km/s) = 4.79932 3.05244 4.02187
# Velocity P-wave (km/s) = 7.59522 6.80641 7.21161
#
# Compressibility (1/GPa) = 0.02036647
#
# Stress axis : x y z
#
# Youngs Moduli (GPa) = 66.86399 121.50142 48.54963
#
# Poissons Ratio (x) = 0.49803 0.22058
# Poissons Ratio (y) = 0.27407 0.14886
# Poissons Ratio (z) = 0.30379 0.37254
#
# Static dielectric constant tensor:
#      x y z
#    x 1.619050 0.000000 0.018130 
#    y 0.000000 1.635780 0.000000 
#    z 0.018130 0.000000 1.691470 
# 
# From -- ./inp_files/122710.got.cif
#   From: 2010.05.17/outbox.cif.g08.bks.cpg/sg12_62_cif.got.tgz:122710.got - 2010.06.03 13:09:07.
