data_PCOD9219091
_publ_section_title
;
Structure prediction by ZEFSAII (Michael W. Deem and Ramdas Pophale) SiO2 
 PCOD9219091
Probable space group: C 2/M
;
_chemical_formula_sum "Si O2"
_cell_formula_units_Z 36
_cell_length_a 28.200250
_cell_length_b 14.749898
_cell_length_c 9.588868
_cell_angle_alpha 90.000000
_cell_angle_beta 26.899299
_cell_angle_gamma 90.000000
_cell_volume 1804.491153
_symmetry_space_group_name_H-M "C 2/M"
_symmetry_group_IT_number 12
_symmetry_cell_setting 'monoclinic'
loop_
_space_group_symop_operation_xyz
x,y,z
-x,y,-z
-x,-y,-z
x,-y,z
1/2+x,1/2+y,z
1/2-x,1/2+y,-z
1/2-x,1/2-y,-z
1/2+x,1/2-y,z
loop_
_atom_site_type_symbol
_atom_site_label
_atom_site_fract_x
_atom_site_fract_y
_atom_site_fract_z
Si Si1 0.223724 0.142546 0.872445
Si Si2 0.196405 0.000000 0.454213
Si Si3 0.064779 0.604926 0.534491
Si Si4 0.109846 0.000000 0.369781
Si Si5 0.646795 0.843818 0.016284
Si Si6 0.370755 0.500000 0.072773
O O1 0.345283 0.137219 0.596560
O O2 0.194264 0.086074 0.812331
O O3 0.188449 0.245006 0.945037
O O4 0.159584 0.087546 0.161209
O O5 0.144419 0.000000 0.439201
O O6 0.120202 0.000000 0.785702
O O7 0.268861 0.910674 0.271346
O O8 0.040129 0.500000 0.628228
O O9 0.113149 0.611569 0.252059
O O10 0.956931 0.660017 0.807509
O O11 0.984182 0.000000 0.701630
#
# Coordination Sequence:
#
# PCOD9219091 Si02
#       6
#     8   4   8   4   8   4
#     4  11  22  41  66  96 124 162 225 273 311 367
#     4  12  23  43  60  92 135 171 209 257 329 396
#     4  11  19  38  64  99 123 162 211 273 324 363
#     4  11  23  42  63  91 123 172 220 261 320 373
#     4  11  22  35  67  97 125 162 214 270 320 377
#     4  11  27  40  60  89 136 175 210 260 319 393
#
# _framework density 19.950223000000001
#
# number of rings (size 3 to 8) (size 9 to 14) (size 15 to 20)
#    0.000    0.889    6.667    3.000    6.222    0.889 
#    0.000    2.222    0.000    0.000    0.000    0.000 
#    0.000    0.000    0.000    0.000    0.000    0.000 
#
# Total GULP energy -100576.664958 kJ/mol
# GULP energy per Si atom -5587.592498 kJ/mol
# Density = 1.990482 g / cm^3
# Si number density = 19.950223 Si / 1000 Ang^3
#
#
#
# Elastic Constant Matrix: (Units=GPa)
#
#
# Indices 1 2 3 4 5 6 
#
# 1 119.8558 48.8459 35.0503 0.0000 -22.2469 0.0000
# 2 48.8459 135.1777 31.8174 0.0000 -13.2449 0.0000
# 3 35.0503 31.8174 44.4636 0.0000 -7.1821 0.0000
# 4 0.0000 0.0000 0.0000 2.3036 0.0000 -19.3984
# 5 -22.2469 -13.2449 -7.1821 0.0000 46.3726 0.0000
# 6 0.0000 0.0000 0.0000 -19.3984 0.0000 -24.4428
#
#
#
# Elastic Compliance Matrix: (Units=1/GPa)
#
#
# Indices 1 2 3 4 5 6 
#
# 1 0.012159 -0.002278 -0.007300 0.000000 0.004052 0.000000
# 2 -0.002278 0.009439 -0.004820 0.000000 0.000857 0.000000
# 3 -0.007300 -0.004820 0.031699 0.000000 0.000031 0.000000
# 4 0.000000 0.000000 0.000000 0.056501 0.000000 -0.044841
# 5 0.004052 0.000857 0.000031 0.000000 0.023758 0.000000
# 6 0.000000 0.000000 0.000000 -0.044841 0.000000 -0.005325
#
#
# Mechanical properties :
#
#
# Convention : Reuss Voigt Hill
#
# Bulk Modulus (GPa) = 40.81605 58.99158 49.90382
# Shear Modulus (GPa) = 30.26732 17.09892 23.68312
#
# Velocity S-wave (km/s) = 3.89928 2.93077 3.44918
# Velocity P-wave (km/s) = 6.38560 6.40984 6.39773
#
# Compressibility (1/GPa) = 0.02450017
#
# Stress axis : x y z
#
# Youngs Moduli (GPa) = 82.24609 105.93843 31.54669
#
# Poissons Ratio (x) = 0.24136 0.23028
# Poissons Ratio (y) = 0.18738 0.15207
# Poissons Ratio (z) = 0.60038 0.51067
#
# Static dielectric constant tensor:
#      x y z
#    x 1.721050 0.000000 -0.018000 
#    y 0.000000 1.713700 0.000000 
#    z -0.018000 0.000000 1.703370 
# 
# From -- ./inp_files/104896.got.cif
#   From: 2010.05.17/outbox.cif.g08.bks.cpg/sg12_53_cif.got.tgz:104896.got - 2010.06.03 13:09:07.
