data_PCOD9219034
_publ_section_title
;
Structure prediction by ZEFSAII (Michael W. Deem and Ramdas Pophale) SiO2 
 PCOD9219034
Probable space group: C 2/M
;
_chemical_formula_sum "Si O2"
_cell_formula_units_Z 52
_cell_length_a 18.937808
_cell_length_b 21.861885
_cell_length_c 11.253945
_cell_angle_alpha 90.000000
_cell_angle_beta 40.641137
_cell_angle_gamma 90.000000
_cell_volume 3034.701475
_symmetry_space_group_name_H-M "C 2/M"
_symmetry_group_IT_number 12
_symmetry_cell_setting 'monoclinic'
loop_
_space_group_symop_operation_xyz
x,y,z
-x,y,-z
-x,-y,-z
x,-y,z
1/2+x,1/2+y,z
1/2-x,1/2+y,-z
1/2-x,1/2-y,-z
1/2+x,1/2-y,z
loop_
_atom_site_type_symbol
_atom_site_label
_atom_site_fract_x
_atom_site_fract_y
_atom_site_fract_z
Si Si1 0.395113 0.705356 0.717714
Si Si2 0.795270 0.170569 0.446748
Si Si3 0.764139 0.763557 0.270625
Si Si4 0.282231 0.069358 0.304171
Si Si5 0.119936 0.932094 0.289067
Si Si6 0.500000 0.854225 0.000000
Si Si7 0.021424 0.242817 0.141693
O O1 0.500000 0.700926 0.500000
O O2 0.306880 0.740150 0.749105
O O3 0.367371 0.634704 0.789072
O O4 0.428056 0.742829 0.791800
O O5 0.734906 0.181602 0.398359
O O6 0.742483 0.208936 0.623538
O O7 0.785025 0.102350 0.505632
O O8 0.916312 0.198842 0.281111
O O9 0.882345 0.778274 0.068553
O O10 0.206695 0.070765 0.284497
O O11 0.393360 0.104612 0.136220
O O12 0.306508 0.000000 0.304437
O O13 0.000000 0.932507 0.500000
O O14 0.132633 0.000000 0.213606
O O15 0.503749 0.809432 0.880402
#
# Coordination Sequence:
#
# PCOD9219034 Si02
#       7
#     8   8   8   8   8   4   8
#     4  11  20  32  51  85 116 149 190 238 293 355
#     4  11  19  36  56  79 115 152 186 231 291 350
#     4  11  20  34  53  84 115 148 187 239 297 341
#     4  11  22  36  58  84 116 156 197 239 284 346
#     4   9  17  32  51  75 110 149 192 236 278 332
#     4  12  21  38  56  90 119 150 190 246 304 338
#     4  12  21  34  59  83 118 151 187 244 299 346
#
# _framework density 17.135127000000001
#
# number of rings (size 3 to 8) (size 9 to 14) (size 15 to 20)
#    0.000    1.077    6.154    2.538    0.000    0.000 
#    0.000    0.000    0.000    2.769    0.000    3.231 
#    0.000    0.000    0.000    0.000    0.000    0.000 
#
# Total GULP energy -144744.619967 kJ/mol
# GULP energy per Si atom -5567.100768 kJ/mol
# Density = 1.709613 g / cm^3
# Si number density = 17.135127 Si / 1000 Ang^3
#
#
#
# Elastic Constant Matrix: (Units=GPa)
#
#
# Indices 1 2 3 4 5 6 
#
# 1 104.5351 47.7187 37.2129 0.0000 -0.5356 0.0000
# 2 47.7187 108.7045 44.6212 0.0000 -8.0926 0.0000
# 3 37.2129 44.6212 93.8120 0.0000 -6.9151 0.0000
# 4 0.0000 0.0000 0.0000 37.0077 0.0000 -11.5000
# 5 -0.5356 -8.0926 -6.9151 0.0000 30.2677 0.0000
# 6 0.0000 0.0000 0.0000 -11.5000 0.0000 25.7560
#
#
#
# Elastic Compliance Matrix: (Units=1/GPa)
#
#
# Indices 1 2 3 4 5 6 
#
# 1 0.012663 -0.004436 -0.003035 0.000000 -0.001655 0.000000
# 2 -0.004436 0.013087 -0.004285 0.000000 0.002442 0.000000
# 3 -0.003035 -0.004285 0.014050 0.000000 0.002011 0.000000
# 4 0.000000 0.000000 0.000000 0.031375 0.000000 0.014009
# 5 -0.001655 0.002442 0.002011 0.000000 0.034121 0.000000
# 6 0.000000 0.000000 0.000000 0.014009 0.000000 0.045081
#
#
# Mechanical properties :
#
#
# Convention : Reuss Voigt Hill
#
# Bulk Modulus (GPa) = 61.39695 62.90635 62.15165
# Shear Modulus (GPa) = 27.88315 30.43952 29.16134
#
# Velocity S-wave (km/s) = 4.03830 4.21936 4.12982
# Velocity P-wave (km/s) = 7.59293 7.78003 7.68705
#
# Compressibility (1/GPa) = 0.01628745
#
# Stress axis : x y z
#
# Youngs Moduli (GPa) = 78.96884 76.40916 71.17413
#
# Poissons Ratio (x) = 0.33897 0.21602
# Poissons Ratio (y) = 0.35032 0.30500
# Poissons Ratio (z) = 0.23968 0.32743
#
# Static dielectric constant tensor:
#      x y z
#    x 1.629850 0.000000 -0.020100 
#    y 0.000000 1.637550 0.000000 
#    z -0.020100 0.000000 1.612290 
# 
# From -- ./inp_files/159471.got.cif
#   From: 2010.05.17/outbox.cif.g08.bks.cpg/sg12_80_cif.got.tgz:159471.got - 2010.06.03 13:09:07.
