data_PCOD9219818
_publ_section_title
;
Structure prediction by ZEFSAII (Michael W. Deem and Ramdas Pophale) SiO2 
 PCOD9219818
Probable space group: C 2/M
;
_chemical_formula_sum "Si O2"
_cell_formula_units_Z 56
_cell_length_a 25.217230
_cell_length_b 8.695652
_cell_length_c 15.382070
_cell_angle_alpha 90.000000
_cell_angle_beta 105.770807
_cell_angle_gamma 90.000000
_cell_volume 3246.013657
_symmetry_space_group_name_H-M "C 2/M"
_symmetry_group_IT_number 12
_symmetry_cell_setting 'monoclinic'
loop_
_space_group_symop_operation_xyz
x,y,z
-x,y,-z
-x,-y,-z
x,-y,z
1/2+x,1/2+y,z
1/2-x,1/2+y,-z
1/2-x,1/2-y,-z
1/2+x,1/2-y,z
loop_
_atom_site_type_symbol
_atom_site_label
_atom_site_fract_x
_atom_site_fract_y
_atom_site_fract_z
Si Si1 0.429889 0.683532 0.112082
Si Si2 0.075394 0.816031 0.597330
Si Si3 0.241934 0.316169 0.093074
Si Si4 0.384336 0.183862 0.915330
Si Si5 0.956533 0.316251 0.596134
Si Si6 0.444256 0.316260 0.776287
Si Si7 0.349321 0.816818 0.222748
O O1 0.421351 0.500000 0.113536
O O2 0.492447 0.716944 0.167973
O O3 0.387885 0.765090 0.159287
O O4 0.417891 0.741201 0.009781
O O5 0.077100 0.750485 0.500538
O O6 0.124559 0.758728 0.679986
O O7 0.018332 0.751236 0.612296
O O8 0.072593 0.000000 0.594940
O O9 0.249275 0.500000 0.093742
O O10 0.180097 0.282777 0.097104
O O11 0.288351 0.242445 0.174533
O O12 0.250000 0.250000 0.000000
O O13 0.405522 0.250984 0.834245
O O14 0.391912 0.000000 0.920636
O O15 0.958950 0.500000 0.592086
O O16 0.934290 0.260969 0.678727
O O17 0.438506 0.500000 0.766758
O O18 0.350379 0.000000 0.230337
#
# Coordination Sequence:
#
# PCOD9219818 Si02
#       7
#     8   8   8   8   8   8   8
#     4  11  22  36  56  82 116 154 192 232 284 344
#     4  11  21  36  57  84 117 151 188 233 288 344
#     4  11  23  39  59  83 113 151 195 240 289 336
#     4  11  24  39  57  82 114 153 197 240 284 339
#     4  11  21  35  57  85 117 150 189 235 283 340
#     4  11  23  38  57  83 117 157 194 232 285 345
#     4  12  23  36  58  86 116 151 192 238 288 338
#
# _framework density 17.251929000000001
#
# number of rings (size 3 to 8) (size 9 to 14) (size 15 to 20)
#    0.000    0.857    2.857    6.857    0.000    5.143 
#    0.000    0.000    0.000    0.857    0.000    0.000 
#    0.000    0.000    0.000    0.000    0.000    0.000 
#
# Total GULP energy -156617.095794 kJ/mol
# GULP energy per Si atom -5593.467707 kJ/mol
# Density = 1.721266 g / cm^3
# Si number density = 17.251929 Si / 1000 Ang^3
#
#
#
# Elastic Constant Matrix: (Units=GPa)
#
#
# Indices 1 2 3 4 5 6 
#
# 1 53.1430 45.6290 46.1189 0.0000 -12.9577 0.0000
# 2 45.6290 119.2776 61.1710 0.0000 -7.4080 0.0000
# 3 46.1189 61.1710 160.7516 0.0000 -7.1730 0.0000
# 4 0.0000 0.0000 0.0000 35.2369 0.0000 -1.8816
# 5 -12.9577 -7.4080 -7.1730 0.0000 27.2223 0.0000
# 6 0.0000 0.0000 0.0000 -1.8816 0.0000 20.9509
#
#
#
# Elastic Compliance Matrix: (Units=1/GPa)
#
#
# Indices 1 2 3 4 5 6 
#
# 1 0.035344 -0.009723 -0.005877 0.000000 0.012629 0.000000
# 2 -0.009723 0.013180 -0.002300 0.000000 -0.001647 0.000000
# 3 -0.005877 -0.002300 0.008732 0.000000 -0.001122 0.000000
# 4 0.000000 0.000000 0.000000 0.028516 0.000000 0.002561
# 5 0.012629 -0.001647 -0.001122 0.000000 0.042002 0.000000
# 6 0.000000 0.000000 0.000000 0.002561 0.000000 0.047961
#
#
# Mechanical properties :
#
#
# Convention : Reuss Voigt Hill
#
# Bulk Modulus (GPa) = 46.60180 71.00110 58.80145
# Shear Modulus (GPa) = 22.86379 28.69889 25.78134
#
# Velocity S-wave (km/s) = 3.64440 4.08305 3.86995
# Velocity P-wave (km/s) = 6.69179 7.96701 7.35708
#
# Compressibility (1/GPa) = 0.02145840
#
# Stress axis : x y z
#
# Youngs Moduli (GPa) = 28.29297 75.87168 114.52358
#
# Poissons Ratio (x) = 0.73766 0.67304
# Poissons Ratio (y) = 0.27508 0.26336
# Poissons Ratio (z) = 0.16628 0.17448
#
# Static dielectric constant tensor:
#      x y z
#    x 1.561000 0.000000 0.002880 
#    y 0.000000 1.574510 0.000000 
#    z 0.002880 0.000000 1.576410 
# 
# From -- ./inp_files/237828.got.cif
#   From: 2010.05.17/outbox.cif.g08.bks.cpg/sg12_119_cif.got.tgz:237828.got - 2010.06.03 13:09:07.
