data_PCOD9219141
_publ_section_title
;
Structure prediction by ZEFSAII (Michael W. Deem and Ramdas Pophale) SiO2 
 PCOD9219141
Probable space group: C 2/M
;
_chemical_formula_sum "Si O2"
_cell_formula_units_Z 48
_cell_length_a 20.819188
_cell_length_b 15.750559
_cell_length_c 14.361971
_cell_angle_alpha 90.000000
_cell_angle_beta 146.264405
_cell_angle_gamma 90.000000
_cell_volume 2615.467434
_symmetry_space_group_name_H-M "C 2/M"
_symmetry_group_IT_number 12
_symmetry_cell_setting 'monoclinic'
loop_
_space_group_symop_operation_xyz
x,y,z
-x,y,-z
-x,-y,-z
x,-y,z
1/2+x,1/2+y,z
1/2-x,1/2+y,-z
1/2-x,1/2-y,-z
1/2+x,1/2-y,z
loop_
_atom_site_type_symbol
_atom_site_label
_atom_site_fract_x
_atom_site_fract_y
_atom_site_fract_z
Si Si1 0.717138 0.160765 0.415647
Si Si2 0.092356 0.098587 0.230180
Si Si3 0.365810 0.901169 0.871112
Si Si4 0.399075 0.103721 0.307087
Si Si5 0.659735 0.604026 0.107611
Si Si6 0.464233 0.103026 0.178019
O O1 0.750000 0.250000 0.500000
O O2 0.822494 0.105044 0.581058
O O3 0.703426 0.152768 0.288234
O O4 0.593681 0.132593 0.309052
O O5 0.151681 0.131292 0.206390
O O6 0.073585 0.000000 0.188167
O O7 0.962552 0.134110 0.083534
O O8 0.327242 0.000000 0.820493
O O9 0.500000 0.900933 0.000000
O O10 0.375483 0.870835 0.989126
O O11 0.500000 0.129404 0.500000
O O12 0.274884 0.133375 0.194992
O O13 0.427110 0.130855 0.235815
O O14 0.398506 0.000000 0.305376
O O15 0.666238 0.500000 0.112442
O O16 0.466831 0.000000 0.178480
#
# Coordination Sequence:
#
# PCOD9219141 Si02
#       6
#     8   8   8   8   8   8
#     4  11  20  29  44  72  94 123 162 203 241 283
#     4   9  16  29  47  68  98 127 152 189 239 292
#     4   8  15  30  49  67  91 123 159 201 243 283
#     4   9  15  24  46  77 101 119 152 204 245 280
#     4   8  15  27  44  72  99 120 149 186 240 295
#     4   9  17  31  51  73  97 124 159 204 250 286
#
# _framework density 18.352360000000001
#
# number of rings (size 3 to 8) (size 9 to 14) (size 15 to 20)
#    0.000    3.000    0.000    4.500    0.000    2.667 
#    9.000    0.000    0.000    2.000    4.333    5.833 
#    0.000    0.000    0.000    0.000    0.000    0.000 
#
# Total GULP energy -133628.192680 kJ/mol
# GULP energy per Si atom -5567.841362 kJ/mol
# Density = 1.831059 g / cm^3
# Si number density = 18.352360 Si / 1000 Ang^3
#
#
#
# Elastic Constant Matrix: (Units=GPa)
#
#
# Indices 1 2 3 4 5 6 
#
# 1 133.1879 9.6136 91.7365 0.0000 -13.4946 0.0000
# 2 9.6136 23.2831 20.5282 0.0000 -8.4679 0.0000
# 3 91.7365 20.5282 158.1302 0.0000 -24.6205 0.0000
# 4 0.0000 0.0000 0.0000 5.3318 0.0000 -6.2029
# 5 -13.4946 -8.4679 -24.6205 0.0000 35.0963 0.0000
# 6 0.0000 0.0000 0.0000 -6.2029 0.0000 2.6806
#
#
#
# Elastic Compliance Matrix: (Units=1/GPa)
#
#
# Indices 1 2 3 4 5 6 
#
# 1 0.012545 0.001375 -0.007470 0.000000 -0.000085 0.000000
# 2 0.001375 0.050837 -0.006068 0.000000 0.008538 0.000000
# 3 -0.007470 -0.006068 0.012090 0.000000 0.004145 0.000000
# 4 0.000000 0.000000 0.000000 -0.110843 0.000000 -0.256491
# 5 -0.000085 0.008538 0.004145 0.000000 0.033429 0.000000
# 6 0.000000 0.000000 0.000000 -0.256491 0.000000 -0.220470
#
#
# Mechanical properties :
#
#
# Convention : Reuss Voigt Hill
#
# Bulk Modulus (GPa) = 19.55122 62.03974 40.79548
# Shear Modulus (GPa) = -27.61848 21.46994 -3.07427
#
# Velocity S-wave (km/s) = -3.88351 3.42405 -1.29567
# Velocity P-wave (km/s) = 3.07124 7.03636 4.47648
#
# Compressibility (1/GPa) = 0.05114770
#
# Stress axis : x y z
#
# Youngs Moduli (GPa) = 79.71157 19.67069 82.70999
#
# Poissons Ratio (x) = -0.02705 0.61781
# Poissons Ratio (y) = -0.10961 0.50189
# Poissons Ratio (z) = 0.59541 0.11936
#
# Static dielectric constant tensor:
#      x y z
#    x 1.635400 0.000000 -0.030280 
#    y 0.000000 1.473040 0.000000 
#    z -0.030280 0.000000 1.697860 
# 
# From -- ./inp_files/234344.got.cif
#   From: 2010.05.17/outbox.cif.g08.bks.cpg/sg12_118_cif.got.tgz:234344.got - 2010.06.03 13:09:07.
