data_PCOD9219651
_publ_section_title
;
Structure prediction by ZEFSAII (Michael W. Deem and Ramdas Pophale) SiO2 
 PCOD9219651
Probable space group: C 2/M
;
_chemical_formula_sum "Si O2"
_cell_formula_units_Z 40
_cell_length_a 15.245601
_cell_length_b 14.750393
_cell_length_c 8.019335
_cell_angle_alpha 90.000000
_cell_angle_beta 128.148863
_cell_angle_gamma 90.000000
_cell_volume 1418.190933
_symmetry_space_group_name_H-M "C 2/M"
_symmetry_group_IT_number 12
_symmetry_cell_setting 'monoclinic'
loop_
_space_group_symop_operation_xyz
x,y,z
-x,y,-z
-x,-y,-z
x,-y,z
1/2+x,1/2+y,z
1/2-x,1/2+y,-z
1/2-x,1/2-y,-z
1/2+x,1/2-y,z
loop_
_atom_site_type_symbol
_atom_site_label
_atom_site_fract_x
_atom_site_fract_y
_atom_site_fract_z
Si Si1 0.659597 0.171574 0.360088
Si Si2 0.326579 0.392476 0.342880
Si Si3 0.475627 0.391520 0.193818
Si Si4 0.556635 0.106384 0.750517
Si Si5 0.235676 0.104564 0.195350
O O1 0.750000 0.250000 0.500000
O O2 0.701287 0.140273 0.227928
O O3 0.527479 0.166814 0.236488
O O4 0.705925 0.103728 0.557183
O O5 0.323601 0.500000 0.353088
O O6 0.388424 0.374551 0.243508
O O7 0.411260 0.357956 0.587552
O O8 0.495688 0.500000 0.193065
O O9 0.392427 0.360378 0.946927
O O10 0.500000 0.102472 0.500000
O O11 0.676892 0.146099 0.833903
O O12 0.562811 0.000000 0.815760
O O13 0.226249 0.000000 0.131373
#
# Coordination Sequence:
#
# PCOD9219651 Si02
#       5
#     8   8   8   8   8
#     4  11  21  32  48  76 109 141 176 211 261 315
#     4   9  17  33  55  78 106 135 169 216 267 313
#     4   8  16  32  56  82 101 129 172 216 265 313
#     4   8  15  31  54  76  99 131 174 220 259 299
#     4   9  17  34  60  82 100 131 180 225 259 306
#
# _framework density 28.204947000000001
#
# number of rings (size 3 to 8) (size 9 to 14) (size 15 to 20)
#    0.000    3.000    0.000    4.200    0.000    0.800 
#   10.800    5.000    4.400    4.800    0.000    0.000 
#    0.000    0.000    0.000    0.000    0.000    0.000 
#
# Total GULP energy -111514.667474 kJ/mol
# GULP energy per Si atom -5575.733374 kJ/mol
# Density = 2.814075 g / cm^3
# Si number density = 28.204947 Si / 1000 Ang^3
#
#
#
# Elastic Constant Matrix: (Units=GPa)
#
#
# Indices 1 2 3 4 5 6 
#
# 1 149.8713 16.4831 -19.6358 0.0000 40.3067 0.0000
# 2 16.4831 63.5492 -19.6545 0.0000 18.2108 0.0000
# 3 -19.6358 -19.6545 85.2395 0.0000 14.5415 0.0000
# 4 0.0000 0.0000 0.0000 71.4224 0.0000 -38.8987
# 5 40.3067 18.2108 14.5415 0.0000 60.8305 0.0000
# 6 0.0000 0.0000 0.0000 -38.8987 0.0000 72.5293
#
#
#
# Elastic Compliance Matrix: (Units=1/GPa)
#
#
# Indices 1 2 3 4 5 6 
#
# 1 0.008901 0.000729 0.003401 0.000000 -0.006929 0.000000
# 2 0.000729 0.019649 0.006030 0.000000 -0.007807 0.000000
# 3 0.003401 0.006030 0.015218 0.000000 -0.007696 0.000000
# 4 0.000000 0.000000 0.000000 0.019778 0.000000 0.010607
# 5 -0.006929 -0.007807 -0.007696 0.000000 0.025207 0.000000
# 6 0.000000 0.000000 0.000000 0.010607 0.000000 0.019476
#
#
# Mechanical properties :
#
#
# Convention : Reuss Voigt Hill
#
# Bulk Modulus (GPa) = 15.60366 28.11618 21.85992
# Shear Modulus (GPa) = 45.75632 62.38760 54.07196
#
# Velocity S-wave (km/s) = 4.03212 4.70823 4.38323
# Velocity P-wave (km/s) = 5.21743 6.28862 5.77790
#
# Compressibility (1/GPa) = 0.06408754
#
# Stress axis : x y z
#
# Youngs Moduli (GPa) = 112.34293 50.89321 65.70974
#
# Poissons Ratio (x) = -0.03708 -0.22345
# Poissons Ratio (y) = -0.08185 -0.39625
# Poissons Ratio (z) = -0.38203 -0.30690
#
# Static dielectric constant tensor:
#      x y z
#    x 1.647330 0.000000 0.561560 
#    y 0.000000 2.178460 0.000000 
#    z 0.561560 0.000000 1.698450 
# 
# From -- ./inp_files/60858.got.cif
#   From: 2010.05.17/outbox.cif.g08.bks.cpg/sg12_31_cif.got.tgz:60858.got - 2010.06.03 13:09:07.
