data_PCOD9219599
_publ_section_title
;
Structure prediction by ZEFSAII (Michael W. Deem and Ramdas Pophale) SiO2 
 PCOD9219599
Probable space group: C 2/M
;
_chemical_formula_sum "Si O2"
_cell_formula_units_Z 40
_cell_length_a 23.757787
_cell_length_b 11.298268
_cell_length_c 10.035768
_cell_angle_alpha 90.000000
_cell_angle_beta 127.081613
_cell_angle_gamma 90.000000
_cell_volume 2149.068380
_symmetry_space_group_name_H-M "C 2/M"
_symmetry_group_IT_number 12
_symmetry_cell_setting 'monoclinic'
loop_
_space_group_symop_operation_xyz
x,y,z
-x,y,-z
-x,-y,-z
x,-y,z
1/2+x,1/2+y,z
1/2-x,1/2+y,-z
1/2-x,1/2-y,-z
1/2+x,1/2-y,z
loop_
_atom_site_type_symbol
_atom_site_label
_atom_site_fract_x
_atom_site_fract_y
_atom_site_fract_z
Si Si1 0.694443 0.640542 0.266256
Si Si2 0.436913 0.000000 0.600051
Si Si3 0.854044 0.721449 0.549376
Si Si4 0.898679 0.500000 0.234307
Si Si5 0.328397 0.246250 0.051328
Si Si6 0.079983 0.138993 0.601082
O O1 0.682880 0.500000 0.235078
O O2 0.777320 0.664378 0.413125
O O3 0.652707 0.695744 0.331524
O O4 0.674870 0.712135 0.105338
O O5 0.409759 0.884668 0.638132
O O6 0.401345 0.000000 0.400380
O O7 0.520282 0.000000 0.696838
O O8 0.878405 0.797015 0.457276
O O9 0.859817 0.616315 0.124181
O O10 0.378175 0.334934 0.204494
O O11 0.250000 0.250000 0.000000
O O12 0.000000 0.186426 0.500000
O O13 0.076440 0.000000 0.568693
#
# Coordination Sequence:
#
# PCOD9219599 Si02
#       6
#     8   4   8   4   8   8
#     4  11  24  42  63  97 133 168 214 264 327 378
#     4  11  20  43  69  91 133 168 217 264 318 386
#     4  11  22  40  67  93 128 173 213 264 319 384
#     4  11  24  39  67 101 126 170 214 267 323 379
#     4  12  24  39  66  96 130 166 214 270 322 376
#     4  11  23  40  63  93 128 171 217 259 315 387
#
# _framework density 18.612717
#
# number of rings (size 3 to 8) (size 9 to 14) (size 15 to 20)
#    0.000    0.800    5.000    2.400    2.800    0.800 
#    1.800    5.000    0.000    7.200    0.000    0.000 
#    0.000    0.000    0.000    0.000    0.000    0.000 
#
# Total GULP energy -111820.388841 kJ/mol
# GULP energy per Si atom -5591.019442 kJ/mol
# Density = 1.857035 g / cm^3
# Si number density = 18.612717 Si / 1000 Ang^3
#
#
#
# Elastic Constant Matrix: (Units=GPa)
#
#
# Indices 1 2 3 4 5 6 
#
# 1 98.4581 42.2906 35.3001 0.0000 -3.6309 0.0000
# 2 42.2906 125.4196 27.4736 0.0000 -4.9913 0.0000
# 3 35.3001 27.4736 84.8334 0.0000 -5.8500 0.0000
# 4 0.0000 0.0000 0.0000 33.9014 0.0000 13.7162
# 5 -3.6309 -4.9913 -5.8500 0.0000 32.4374 0.0000
# 6 0.0000 0.0000 0.0000 13.7162 0.0000 88.6625
#
#
#
# Elastic Compliance Matrix: (Units=1/GPa)
#
#
# Indices 1 2 3 4 5 6 
#
# 1 0.013229 -0.003499 -0.004361 0.000000 0.000156 0.000000
# 2 -0.003499 0.009530 -0.001576 0.000000 0.000791 0.000000
# 3 -0.004361 -0.001576 0.014239 0.000000 0.001837 0.000000
# 4 0.000000 0.000000 0.000000 0.031467 0.000000 -0.004868
# 5 0.000156 0.000791 0.001837 0.000000 0.031299 0.000000
# 6 0.000000 0.000000 0.000000 -0.004868 0.000000 0.012032
#
#
# Mechanical properties :
#
#
# Convention : Reuss Voigt Hill
#
# Bulk Modulus (GPa) = 55.16700 57.64885 56.40793
# Shear Modulus (GPa) = 36.57403 44.57671 40.57537
#
# Velocity S-wave (km/s) = 4.43764 4.89914 4.67409
# Velocity P-wave (km/s) = 7.48069 7.93991 7.71372
#
# Compressibility (1/GPa) = 0.01812678
#
# Stress axis : x y z
#
# Youngs Moduli (GPa) = 75.59268 104.93433 70.22806
#
# Poissons Ratio (x) = 0.36719 0.30624
# Poissons Ratio (y) = 0.26452 0.11066
# Poissons Ratio (z) = 0.32963 0.16534
#
# Static dielectric constant tensor:
#      x y z
#    x 1.623990 0.000000 0.010990 
#    y 0.000000 1.650150 0.000000 
#    z 0.010990 0.000000 1.624530 
# 
# From -- ./inp_files/94680.got.cif
#   From: 2010.05.17/outbox.cif.g08.bks.cpg/sg12_48_cif.got.tgz:94680.got - 2010.06.03 13:09:07.
