data_PCOD9219068
_publ_section_title
;
Structure prediction by ZEFSAII (Michael W. Deem and Ramdas Pophale) SiO2 
 PCOD9219068
Probable space group: C 2/M
;
_chemical_formula_sum "Si O2"
_cell_formula_units_Z 64
_cell_length_a 14.737759
_cell_length_b 24.986691
_cell_length_c 13.247950
_cell_angle_alpha 90.000000
_cell_angle_beta 39.736074
_cell_angle_gamma 90.000000
_cell_volume 3118.609868
_symmetry_space_group_name_H-M "C 2/M"
_symmetry_group_IT_number 12
_symmetry_cell_setting 'monoclinic'
loop_
_space_group_symop_operation_xyz
x,y,z
-x,y,-z
-x,-y,-z
x,-y,z
1/2+x,1/2+y,z
1/2-x,1/2+y,-z
1/2-x,1/2-y,-z
1/2+x,1/2-y,z
loop_
_atom_site_type_symbol
_atom_site_label
_atom_site_fract_x
_atom_site_fract_y
_atom_site_fract_z
Si Si1 0.149907 0.112876 0.567672
Si Si2 0.191633 0.716793 0.643587
Si Si3 0.637890 0.762375 0.324248
Si Si4 0.086531 0.439820 0.268800
Si Si5 0.221044 0.439894 0.362259
Si Si6 0.172247 0.941734 0.355869
Si Si7 0.154553 0.149366 0.220499
Si Si8 0.615499 0.171916 0.142988
O O1 0.221411 0.162237 0.448230
O O2 0.197466 0.103252 0.640869
O O3 0.201285 0.065204 0.450013
O O4 0.981211 0.120219 0.710864
O O5 0.250000 0.750000 0.500000
O O6 0.235231 0.749669 0.706263
O O7 0.026401 0.702194 0.773241
O O8 0.500000 0.785737 0.500000
O O9 0.596927 0.702818 0.322679
O O10 0.665606 0.798642 0.202929
O O11 0.111999 0.500000 0.205955
O O12 0.199499 0.429250 0.262298
O O13 0.084561 0.390149 0.195468
O O14 0.934920 0.440916 0.454275
O O15 0.282220 0.500000 0.320891
O O16 0.220710 0.892812 0.243667
O O17 0.000000 0.939263 0.500000
O O18 0.219670 0.000000 0.279291
O O19 0.266121 0.170163 0.043878
#
# Coordination Sequence:
#
# PCOD9219068 Si02
#       8
#     8   8   8   8   8   8   8   8
#     4  11  19  37  64  88 127 162 221 264 320 381
#     4  12  24  39  67  97 116 167 220 268 325 394
#     4  12  23  44  68  89 127 167 218 276 320 388
#     4   9  20  38  60  93 133 169 209 273 334 382
#     4   9  18  33  60  92 123 164 220 272 309 374
#     4   9  18  35  63  93 124 172 220 261 318 385
#     4  11  23  42  60  93 136 169 202 280 334 388
#     4  12  26  41  68  97 134 171 217 267 344 398
#
# _framework density 20.521964000000001
#
# number of rings (size 3 to 8) (size 9 to 14) (size 15 to 20)
#    0.000    1.375    5.000    1.875    3.500    1.500 
#    0.000    0.625    0.000    2.250    0.000    0.000 
#    0.000    0.000    0.000    0.000    0.000    0.000 
#
# Total GULP energy -178519.029065 kJ/mol
# GULP energy per Si atom -5578.719658 kJ/mol
# Density = 2.047526 g / cm^3
# Si number density = 20.521964 Si / 1000 Ang^3
#
#
#
# Elastic Constant Matrix: (Units=GPa)
#
#
# Indices 1 2 3 4 5 6 
#
# 1 109.5102 27.1722 32.3719 -0.0001 -0.4824 0.0001
# 2 27.1722 83.6063 25.4569 0.0000 6.7396 0.0000
# 3 32.3719 25.4569 94.0307 0.0000 0.8158 0.0000
# 4 -0.0001 0.0000 0.0000 16.6250 0.0000 7.7799
# 5 -0.4824 6.7396 0.8158 0.0000 13.0696 0.0000
# 6 0.0001 0.0000 0.0000 7.7799 0.0000 25.9572
#
#
#
# Elastic Compliance Matrix: (Units=1/GPa)
#
#
# Indices 1 2 3 4 5 6 
#
# 1 0.010693 -0.002735 -0.002958 0.000000 0.001990 0.000000
# 2 -0.002735 0.014312 -0.002870 0.000000 -0.007302 0.000000
# 3 -0.002958 -0.002870 0.012425 0.000000 0.000595 0.000000
# 4 0.000000 0.000000 0.000000 0.069963 0.000000 -0.020969
# 5 0.001990 -0.007302 0.000595 0.000000 0.080315 0.000000
# 6 0.000000 0.000000 0.000000 -0.020969 0.000000 0.044810
#
#
# Mechanical properties :
#
#
# Convention : Reuss Voigt Hill
#
# Bulk Modulus (GPa) = 49.25016 50.79437 50.02227
# Shear Modulus (GPa) = 19.49975 24.60677 22.05326
#
# Velocity S-wave (km/s) = 3.08586 3.46648 3.28169
# Velocity P-wave (km/s) = 6.06198 6.38960 6.22794
#
# Compressibility (1/GPa) = 0.02030450
#
# Stress axis : x y z
#
# Youngs Moduli (GPa) = 93.51525 69.87061 80.48276
#
# Poissons Ratio (x) = 0.19110 0.23809
# Poissons Ratio (y) = 0.25577 0.23097
# Poissons Ratio (z) = 0.27664 0.20051
#
# Static dielectric constant tensor:
#      x y z
#    x 1.816190 0.000000 0.023400 
#    y 0.000000 1.852230 0.000000 
#    z 0.023400 0.000000 1.694060 
# 
# From -- ./inp_files/149725.got.cif
#   From: 2010.05.17/outbox.cif.g08.bks.cpg/sg12_75_cif.got.tgz:149725.got - 2010.06.03 13:09:07.
