data_PCOD9219891
_publ_section_title
;
Structure prediction by ZEFSAII (Michael W. Deem and Ramdas Pophale) SiO2 
 PCOD9219891
Probable space group: C 2/M
;
_chemical_formula_sum "Si O2"
_cell_formula_units_Z 40
_cell_length_a 18.548551
_cell_length_b 14.535411
_cell_length_c 18.693743
_cell_angle_alpha 90.000000
_cell_angle_beta 25.072476
_cell_angle_gamma 90.000000
_cell_volume 2135.787268
_symmetry_space_group_name_H-M "C 2/M"
_symmetry_group_IT_number 12
_symmetry_cell_setting 'monoclinic'
loop_
_space_group_symop_operation_xyz
x,y,z
-x,y,-z
-x,-y,-z
x,-y,z
1/2+x,1/2+y,z
1/2-x,1/2+y,-z
1/2-x,1/2-y,-z
1/2+x,1/2-y,z
loop_
_atom_site_type_symbol
_atom_site_label
_atom_site_fract_x
_atom_site_fract_y
_atom_site_fract_z
Si Si1 0.142279 0.701460 0.659513
Si Si2 0.659931 0.500000 0.761002
Si Si3 0.521170 0.000000 0.613767
Si Si4 0.306111 0.850558 0.883678
Si Si5 0.472474 0.698890 0.101400
Si Si6 0.409580 0.500000 0.848756
Si Si7 0.732272 0.500000 0.471059
O O1 0.250000 0.750000 0.500000
O O2 0.209112 0.597583 0.613919
O O3 0.953134 0.700612 0.794939
O O4 0.143713 0.755676 0.732837
O O5 0.859656 0.500000 0.562413
O O6 0.606734 0.597262 0.842670
O O7 0.540968 0.500000 0.797083
O O8 0.403112 0.086735 0.737371
O O9 0.659596 0.000000 0.552830
O O10 0.156547 0.803924 0.973874
O O11 0.211080 0.913444 0.028435
O O12 0.500000 0.745610 0.000000
O O13 0.531815 0.500000 0.670489
#
# Coordination Sequence:
#
# PCOD9219891 Si02
#       7
#     8   4   4   8   8   4   4
#     4  11  21  36  58  81 106 140 179 219 262 315
#     4   9  17  33  51  73 112 145 168 209 266 320
#     4   8  14  28  51  77 103 138 177 213 257 315
#     4   9  17  31  53  80 106 137 179 216 258 314
#     4  11  22  35  52  79 110 143 178 219 267 316
#     4   8  14  29  55  80 103 133 174 218 259 310
#     4   9  18  32  51  78 106 134 176 226 266 299
#
# _framework density 18.728456999999999
#
# number of rings (size 3 to 8) (size 9 to 14) (size 15 to 20)
#    0.000    2.400    0.000    6.900    0.000    0.000 
#    0.000    5.500    0.000    0.000    0.000    2.800 
#    0.000    0.000    0.000    0.000    0.000    0.000 
#
# Total GULP energy -111352.849767 kJ/mol
# GULP energy per Si atom -5567.642488 kJ/mol
# Density = 1.868583 g / cm^3
# Si number density = 18.728457 Si / 1000 Ang^3
#
#
#
# Elastic Constant Matrix: (Units=GPa)
#
#
# Indices 1 2 3 4 5 6 
#
# 1 58.7613 33.8411 41.5095 0.0006 19.2245 0.0001
# 2 33.8411 81.4796 45.6790 0.0058 16.3632 -0.0008
# 3 41.5095 45.6790 131.8558 0.0075 12.7928 -0.0011
# 4 0.0006 0.0058 0.0075 -25.6172 -0.0036 -8.1173
# 5 19.2245 16.3632 12.7928 -0.0036 32.6611 0.0006
# 6 0.0001 -0.0008 -0.0011 -8.1173 0.0006 4.3855
#
#
#
# Elastic Compliance Matrix: (Units=1/GPa)
#
#
# Indices 1 2 3 4 5 6 
#
# 1 0.028347 -0.006349 -0.005628 0.000000 -0.011300 -0.000002
# 2 -0.006349 0.017782 -0.003804 0.000001 -0.003682 0.000006
# 3 -0.005628 -0.003804 0.010569 0.000001 0.001079 0.000004
# 4 0.000000 0.000001 0.000001 -0.024605 -0.000003 -0.045542
# 5 -0.011300 -0.003682 0.001079 -0.000003 0.038691 -0.000011
# 6 -0.000002 0.000006 0.000004 -0.045542 -0.000011 0.143727
#
#
# Mechanical properties :
#
#
# Convention : Reuss Voigt Hill
#
# Bulk Modulus (GPa) = 39.78444 57.12843 48.45644
# Shear Modulus (GPa) = 19.65012 12.35704 16.00358
#
# Velocity S-wave (km/s) = 3.24267 2.57144 2.92636
# Velocity P-wave (km/s) = 5.94212 6.27584 6.11126
#
# Compressibility (1/GPa) = 0.02513545
#
# Stress axis : x y z
#
# Youngs Moduli (GPa) = 35.27703 56.23643 94.61534
#
# Poissons Ratio (x) = 0.35704 0.53251
# Poissons Ratio (y) = 0.22397 0.35995
# Poissons Ratio (z) = 0.19854 0.21394
#
# Static dielectric constant tensor:
#      x y z
#    x 1.626400 0.000000 0.029830 
#    y 0.000000 1.767160 -0.000010 
#    z 0.029830 -0.000010 1.716000 
# 
# From -- ./inp_files/216677.got.cif
#   From: 2010.05.17/outbox.cif.g08.bks.cpg/sg12_109_cif.got.tgz:216677.got - 2010.06.03 13:09:07.
