data_PCOD9219783
_publ_section_title
;
Structure prediction by ZEFSAII (Michael W. Deem and Ramdas Pophale) SiO2 
 PCOD9219783
Probable space group: C 2/M
;
_chemical_formula_sum "Si O2"
_cell_formula_units_Z 36
_cell_length_a 14.804663
_cell_length_b 27.778250
_cell_length_c 15.319803
_cell_angle_alpha 90.000000
_cell_angle_beta 160.094026
_cell_angle_gamma 90.000000
_cell_volume 2145.088028
_symmetry_space_group_name_H-M "C 2/M"
_symmetry_group_IT_number 12
_symmetry_cell_setting 'monoclinic'
loop_
_space_group_symop_operation_xyz
x,y,z
-x,y,-z
-x,-y,-z
x,-y,z
1/2+x,1/2+y,z
1/2-x,1/2+y,-z
1/2-x,1/2-y,-z
1/2+x,1/2-y,z
loop_
_atom_site_type_symbol
_atom_site_label
_atom_site_fract_x
_atom_site_fract_y
_atom_site_fract_z
Si Si1 0.000000 0.322238 0.000000
Si Si2 0.832715 0.056105 0.438760
Si Si3 0.194394 0.247592 0.597742
Si Si4 0.773671 0.387830 0.925426
Si Si5 0.937247 0.795363 0.190707
O O1 0.104221 0.288620 0.171482
O O2 0.782913 0.357115 0.843795
O O3 0.561452 0.087180 0.193921
O O4 0.000000 0.059260 0.500000
O O5 0.763503 0.000000 0.386870
O O6 0.035825 0.074791 0.697113
O O7 0.340076 0.291452 0.681962
O O8 0.000000 0.261892 0.500000
O O9 0.061973 0.217863 0.398283
O O10 0.707352 0.346628 0.935861
O O11 0.750000 0.750000 0.000000
#
# Coordination Sequence:
#
# PCOD9219783 Si02
#       5
#     4   8   8   8   8
#     4  12  20  32  53  80 108 164 183 222 276 328
#     4  11  23  37  54  79 107 145 193 240 280 328
#     4  11  21  35  51  73 119 152 192 233 265 325
#     4  12  22  35  57  78 112 151 194 224 277 338
#     4  11  23  33  52  82 110 151 197 226 274 335
#
# _framework density 16.782527999999999
#
# number of rings (size 3 to 8) (size 9 to 14) (size 15 to 20)
#    0.000    0.667    6.667    2.000    3.111    1.778 
#    0.000    0.000    0.000    0.000    0.000    0.000 
#    0.000    5.333    0.000    0.000    0.000    0.000 
#
# Total GULP energy -100390.842390 kJ/mol
# GULP energy per Si atom -5577.269022 kJ/mol
# Density = 1.674433 g / cm^3
# Si number density = 16.782528 Si / 1000 Ang^3
#
#
#
# Elastic Constant Matrix: (Units=GPa)
#
#
# Indices 1 2 3 4 5 6 
#
# 1 103.7717 46.5197 30.4391 0.0009 17.4298 0.0004
# 2 46.5197 115.0082 50.9891 0.0023 17.9856 0.0020
# 3 30.4391 50.9891 105.2765 0.0040 -0.7610 0.0027
# 4 0.0009 0.0023 0.0040 25.9588 -0.0010 10.7884
# 5 17.4298 17.9856 -0.7610 -0.0010 33.0719 0.0000
# 6 0.0004 0.0020 0.0027 10.7884 0.0000 32.0919
#
#
#
# Elastic Compliance Matrix: (Units=1/GPa)
#
#
# Indices 1 2 3 4 5 6 
#
# 1 0.012575 -0.003450 -0.002000 0.000000 -0.004798 0.000000
# 2 -0.003450 0.013427 -0.005546 0.000000 -0.005612 0.000000
# 3 -0.002000 -0.005546 0.012795 -0.000001 0.004365 0.000000
# 4 0.000000 0.000000 -0.000001 0.044779 0.000002 -0.015053
# 5 -0.004798 -0.005612 0.004365 0.000002 0.035918 0.000000
# 6 0.000000 0.000000 0.000000 -0.015053 0.000000 0.036221
#
#
# Mechanical properties :
#
#
# Convention : Reuss Voigt Hill
#
# Bulk Modulus (GPa) = 59.50435 64.43913 61.97174
# Shear Modulus (GPa) = 27.27647 31.29843 29.28745
#
# Velocity S-wave (km/s) = 4.03586 4.32318 4.18199
# Velocity P-wave (km/s) = 7.56642 7.96240 7.76693
#
# Compressibility (1/GPa) = 0.01680549
#
# Stress axis : x y z
#
# Youngs Moduli (GPa) = 79.52009 74.47726 78.15667
#
# Poissons Ratio (x) = 0.25693 0.15630
# Poissons Ratio (y) = 0.27432 0.43348
# Poissons Ratio (z) = 0.15903 0.41307
#
# Static dielectric constant tensor:
#      x y z
#    x 1.552910 0.000000 0.038290 
#    y 0.000000 1.579120 0.000000 
#    z 0.038290 0.000000 1.641360 
# 
# From -- ./inp_files/11153.got.cif
#   From: 2010.05.17/outbox.cif.g08.bks.cpg/sg12_6_cif.got.tgz:11153.got - 2010.06.03 13:09:07.
