data_PCOD9219919
_publ_section_title
;
Structure prediction by ZEFSAII (Michael W. Deem and Ramdas Pophale) SiO2 
 PCOD9219919
Probable space group: C 2/M
;
_chemical_formula_sum "Si O2"
_cell_formula_units_Z 32
_cell_length_a 17.359142
_cell_length_b 12.388631
_cell_length_c 11.874263
_cell_angle_alpha 90.000000
_cell_angle_beta 149.137785
_cell_angle_gamma 90.000000
_cell_volume 1309.949839
_symmetry_space_group_name_H-M "C 2/M"
_symmetry_group_IT_number 12
_symmetry_cell_setting 'monoclinic'
loop_
_space_group_symop_operation_xyz
x,y,z
-x,y,-z
-x,-y,-z
x,-y,z
1/2+x,1/2+y,z
1/2-x,1/2+y,-z
1/2-x,1/2-y,-z
1/2+x,1/2-y,z
loop_
_atom_site_type_symbol
_atom_site_label
_atom_site_fract_x
_atom_site_fract_y
_atom_site_fract_z
Si Si1 0.298181 0.881151 0.083286
Si Si2 0.053545 0.175039 0.347201
Si Si3 0.273332 0.284116 0.228890
Si Si4 0.248029 0.624058 0.615764
O O1 0.314254 0.856240 0.970678
O O2 0.116719 0.865701 0.872755
O O3 0.346917 0.000000 0.171931
O O4 0.360641 0.796035 0.252140
O O5 0.127763 0.146483 0.561080
O O6 0.100737 0.303600 0.401130
O O7 0.145688 0.126437 0.359011
O O8 0.187216 0.199305 0.202063
O O9 0.220819 0.500000 0.614571
#
# Coordination Sequence:
#
# PCOD9219919 Si02
#       4
#     8   8   8   8
#     4  11  21  36  61  84 110 149 187 231 277 322
#     4   9  20  36  56  87 109 142 189 234 267 338
#     4   9  21  37  52  88 116 136 187 232 272 336
#     4   9  18  37  57  79 114 150 180 230 283 324
#
# _framework density 24.428415999999999
#
# number of rings (size 3 to 8) (size 9 to 14) (size 15 to 20)
#    1.500    1.000    0.000    2.250    0.000    4.000 
#    0.000   10.000    0.000    1.500    0.000    0.000 
#    0.000    0.000    0.000    0.000    0.000    0.000 
#
# Total GULP energy -89109.686809 kJ/mol
# GULP energy per Si atom -5569.355426 kJ/mol
# Density = 2.437282 g / cm^3
# Si number density = 24.428416 Si / 1000 Ang^3
#
#
#
# Elastic Constant Matrix: (Units=GPa)
#
#
# Indices 1 2 3 4 5 6 
#
# 1 132.1357 -5.8054 50.4541 0.0000 -25.4178 0.0000
# 2 -5.8054 80.5199 -34.3104 0.0000 -5.0511 0.0000
# 3 50.4541 -34.3104 106.7383 0.0000 -12.9342 0.0000
# 4 0.0000 0.0000 0.0000 13.3317 0.0000 -5.2983
# 5 -25.4178 -5.0511 -12.9342 0.0000 37.3623 0.0000
# 6 0.0000 0.0000 0.0000 -5.2983 0.0000 17.7391
#
#
#
# Elastic Compliance Matrix: (Units=1/GPa)
#
#
# Indices 1 2 3 4 5 6 
#
# 1 0.010263 -0.000833 -0.004474 0.000000 0.005321 0.000000
# 2 -0.000833 0.014966 0.005616 0.000000 0.003401 0.000000
# 3 -0.004474 0.005616 0.013582 0.000000 0.002417 0.000000
# 4 0.000000 0.000000 0.000000 0.085112 0.000000 0.025421
# 5 0.005321 0.003401 0.002417 0.000000 0.031681 0.000000
# 6 0.000000 0.000000 0.000000 0.025421 0.000000 0.063965
#
#
# Mechanical properties :
#
#
# Convention : Reuss Voigt Hill
#
# Bulk Modulus (GPa) = 25.36155 37.78561 31.57358
# Shear Modulus (GPa) = 21.54297 34.29032 27.91665
#
# Velocity S-wave (km/s) = 2.97287 3.75067 3.38419
# Velocity P-wave (km/s) = 4.71046 5.85305 5.31256
#
# Compressibility (1/GPa) = 0.03942977
#
# Stress axis : x y z
#
# Youngs Moduli (GPa) = 97.43423 66.81887 73.62708
#
# Poissons Ratio (x) = 0.05565 0.32943
# Poissons Ratio (y) = 0.08114 -0.41352
# Poissons Ratio (z) = 0.43595 -0.37529
#
# Static dielectric constant tensor:
#      x y z
#    x 2.009930 0.000000 0.021790 
#    y 0.000000 2.030650 0.000000 
#    z 0.021790 0.000000 1.965490 
# 
# From -- ./inp_files/138637.got.cif
#   From: 2010.05.17/outbox.cif.g08.bks.cpg/sg12_70_cif.got.tgz:138637.got - 2010.06.03 13:09:07.
