data_PCOD9219565
_publ_section_title
;
Structure prediction by ZEFSAII (Michael W. Deem and Ramdas Pophale) SiO2 
 PCOD9219565
Probable space group: C 2/M
;
_chemical_formula_sum "Si O2"
_cell_formula_units_Z 56
_cell_length_a 14.819803
_cell_length_b 19.328730
_cell_length_c 12.175636
_cell_angle_alpha 90.000000
_cell_angle_beta 53.210021
_cell_angle_gamma 90.000000
_cell_volume 2793.065131
_symmetry_space_group_name_H-M "C 2/M"
_symmetry_group_IT_number 12
_symmetry_cell_setting 'monoclinic'
loop_
_space_group_symop_operation_xyz
x,y,z
-x,y,-z
-x,-y,-z
x,-y,z
1/2+x,1/2+y,z
1/2-x,1/2+y,-z
1/2-x,1/2-y,-z
1/2+x,1/2-y,z
loop_
_atom_site_type_symbol
_atom_site_label
_atom_site_fract_x
_atom_site_fract_y
_atom_site_fract_z
Si Si1 0.726274 0.186202 0.313385
Si Si2 0.091849 0.183259 0.517900
Si Si3 0.716252 0.323332 0.973157
Si Si4 0.275246 0.081217 0.494323
Si Si5 0.675904 0.076989 0.932663
Si Si6 0.520255 0.723438 0.808335
Si Si7 0.555603 0.882102 0.810429
O O1 0.655290 0.251384 0.413495
O O2 0.718312 0.171002 0.189885
O O3 0.705003 0.119187 0.404094
O O4 0.857163 0.204507 0.236526
O O5 0.180248 0.126718 0.499337
O O6 0.026279 0.210118 0.673589
O O7 0.000000 0.154803 0.500000
O O8 0.748086 0.381506 0.037908
O O9 0.750000 0.250000 0.000000
O O10 0.581024 0.318249 0.062433
O O11 0.387382 0.091544 0.340994
O O12 0.247019 0.000000 0.523544
O O13 0.551522 0.073941 0.076238
O O14 0.718553 0.000000 0.879691
O O15 0.651105 0.114828 0.835581
O O16 0.508567 0.804815 0.836674
#
# Coordination Sequence:
#
# PCOD9219565 Si02
#       7
#     8   8   8   8   8   8   8
#     4  11  23  42  64  92 130 170 215 264 317 383
#     4  11  23  39  64  93 130 161 211 271 323 367
#     4  12  24  38  65  96 127 166 217 267 316 379
#     4  11  23  41  66  92 126 174 214 256 323 390
#     4  11  25  40  60  95 133 168 210 266 325 380
#     4  11  21  39  64  95 123 163 216 266 315 373
#     4  11  20  41  66  92 126 167 214 263 319 386
#
# _framework density 20.049658000000001
#
# number of rings (size 3 to 8) (size 9 to 14) (size 15 to 20)
#    0.000    0.857    4.286    4.714    4.000    0.857 
#    0.000    2.857    0.000    6.429    0.000    0.000 
#    0.000    0.000    0.000    0.000    0.000    0.000 
#
# Total GULP energy -156459.264216 kJ/mol
# GULP energy per Si atom -5587.830865 kJ/mol
# Density = 2.000402 g / cm^3
# Si number density = 20.049658 Si / 1000 Ang^3
#
#
#
# Elastic Constant Matrix: (Units=GPa)
#
#
# Indices 1 2 3 4 5 6 
#
# 1 49.5862 20.3207 19.6588 0.0000 14.8219 0.0000
# 2 20.3207 115.7706 30.6772 0.0000 9.7347 0.0000
# 3 19.6588 30.6772 117.7264 0.0000 10.8628 0.0000
# 4 0.0000 0.0000 0.0000 -1.2660 0.0000 -10.2466
# 5 14.8219 9.7347 10.8628 0.0000 30.3101 0.0000
# 6 0.0000 0.0000 0.0000 -10.2466 0.0000 5.6944
#
#
#
# Elastic Compliance Matrix: (Units=1/GPa)
#
#
# Indices 1 2 3 4 5 6 
#
# 1 0.025547 -0.002920 -0.002522 0.000000 -0.010651 0.000000
# 2 -0.002920 0.009754 -0.001962 0.000000 -0.001002 0.000000
# 3 -0.002522 -0.001962 0.009571 0.000000 -0.001567 0.000000
# 4 0.000000 0.000000 0.000000 -0.050751 0.000000 -0.091323
# 5 -0.010651 -0.001002 -0.001567 0.000000 0.039084 0.000000
# 6 0.000000 0.000000 0.000000 -0.091323 0.000000 0.011283
#
#
# Mechanical properties :
#
#
# Convention : Reuss Voigt Hill
#
# Bulk Modulus (GPa) = 33.26195 47.15517 40.20856
# Shear Modulus (GPa) = 72.13027 21.10947 46.61987
#
# Velocity S-wave (km/s) = 6.00449 3.24830 4.82729
# Velocity P-wave (km/s) = 8.04349 6.13505 7.15320
#
# Compressibility (1/GPa) = 0.03006438
#
# Stress axis : x y z
#
# Youngs Moduli (GPa) = 39.14296 102.51781 104.47986
#
# Poissons Ratio (x) = 0.29938 0.26353
# Poissons Ratio (y) = 0.11431 0.20496
# Poissons Ratio (z) = 0.09873 0.20111
#
# Static dielectric constant tensor:
#      x y z
#    x 1.744890 0.000000 0.009560 
#    y 0.000000 1.696200 0.000000 
#    z 0.009560 0.000000 1.746350 
# 
# From -- ./inp_files/146043.got.cif
#   From: 2010.05.17/outbox.cif.g08.bks.cpg/sg12_74_cif.got.tgz:146043.got - 2010.06.03 13:09:07.
