data_PCOD9219347
_publ_section_title
;
Structure prediction by ZEFSAII (Michael W. Deem and Ramdas Pophale) SiO2 
 PCOD9219347
Probable space group: C 2/M
;
_chemical_formula_sum "Si O2"
_cell_formula_units_Z 48
_cell_length_a 21.442166
_cell_length_b 16.949580
_cell_length_c 10.305855
_cell_angle_alpha 90.000000
_cell_angle_beta 37.663280
_cell_angle_gamma 90.000000
_cell_volume 2288.584377
_symmetry_space_group_name_H-M "C 2/M"
_symmetry_group_IT_number 12
_symmetry_cell_setting 'monoclinic'
loop_
_space_group_symop_operation_xyz
x,y,z
-x,y,-z
-x,-y,-z
x,-y,z
1/2+x,1/2+y,z
1/2-x,1/2+y,-z
1/2-x,1/2-y,-z
1/2+x,1/2-y,z
loop_
_atom_site_type_symbol
_atom_site_label
_atom_site_fract_x
_atom_site_fract_y
_atom_site_fract_z
Si Si1 0.908306 0.259584 0.078974
Si Si2 0.656089 0.588243 0.430662
Si Si3 0.213037 0.340684 0.315505
Si Si4 0.307839 0.666875 0.897704
Si Si5 0.016739 0.767778 0.646309
Si Si6 0.162373 0.414299 0.663680
O O1 0.800327 0.216364 0.234839
O O2 0.892625 0.336805 0.191565
O O3 0.000000 0.212726 0.000000
O O4 0.952551 0.276171 0.863802
O O5 0.614186 0.500000 0.478922
O O6 0.705499 0.618855 0.213206
O O7 0.575063 0.654740 0.600357
O O8 0.737031 0.584817 0.412538
O O9 0.108613 0.291879 0.456012
O O10 0.186541 0.400989 0.472975
O O11 0.265145 0.374040 0.098736
O O12 0.425902 0.693009 0.711768
O O13 0.250000 0.750000 0.000000
O O14 0.112353 0.500000 0.763055
#
# Coordination Sequence:
#
# PCOD9219347 Si02
#       6
#     8   8   8   8   8   8
#     4  11  20  35  64  92 121 163 212 259 308 377
#     4  11  23  41  64  93 131 169 210 263 323 383
#     4  11  22  40  65  93 128 164 220 260 319 378
#     4  11  23  39  64  95 124 164 218 261 314 381
#     4  11  21  38  64  91 123 165 209 264 313 377
#     4  11  23  41  63  93 132 169 210 264 322 378
#
# _framework density 20.973663999999999
#
# number of rings (size 3 to 8) (size 9 to 14) (size 15 to 20)
#    0.000    1.000    5.000    3.000    0.000    2.333 
#    0.000    2.500    0.000    9.000    0.000    4.667 
#    0.000    0.000    0.000    0.000    0.000    0.000 
#
# Total GULP energy -133774.296220 kJ/mol
# GULP energy per Si atom -5573.929009 kJ/mol
# Density = 2.092593 g / cm^3
# Si number density = 20.973664 Si / 1000 Ang^3
#
#
#
# Elastic Constant Matrix: (Units=GPa)
#
#
# Indices 1 2 3 4 5 6 
#
# 1 68.5699 9.3155 21.3416 0.0000 12.0464 0.0000
# 2 9.3155 65.7605 18.6936 0.0000 13.5388 0.0000
# 3 21.3416 18.6936 112.3704 0.0000 5.3426 0.0000
# 4 0.0000 0.0000 0.0000 5.1233 0.0000 -3.1109
# 5 12.0464 13.5388 5.3426 0.0000 46.9585 0.0000
# 6 0.0000 0.0000 0.0000 -3.1109 0.0000 6.2062
#
#
#
# Elastic Compliance Matrix: (Units=1/GPa)
#
#
# Indices 1 2 3 4 5 6 
#
# 1 0.016186 -0.000759 -0.002776 0.000000 -0.003618 0.000000
# 2 -0.000759 0.016921 -0.002461 0.000000 -0.004404 0.000000
# 3 -0.002776 -0.002461 0.009821 0.000000 0.000304 0.000000
# 4 0.000000 0.000000 0.000000 0.280593 0.000000 0.140650
# 5 -0.003618 -0.004404 0.000304 0.000000 0.023458 0.000000
# 6 0.000000 0.000000 0.000000 0.140650 0.000000 0.231631
#
#
# Mechanical properties :
#
#
# Convention : Reuss Voigt Hill
#
# Bulk Modulus (GPa) = 32.32507 38.37802 35.35155
# Shear Modulus (GPa) = 8.32065 24.81428 16.56746
#
# Velocity S-wave (km/s) = 1.99394 3.44338 2.81360
# Velocity P-wave (km/s) = 4.55486 5.84355 5.23898
#
# Compressibility (1/GPa) = 0.03093574
#
# Stress axis : x y z
#
# Youngs Moduli (GPa) = 61.78072 59.09981 101.81926
#
# Poissons Ratio (x) = 0.04486 0.28264
# Poissons Ratio (y) = 0.04689 0.25061
# Poissons Ratio (z) = 0.17149 0.14546
#
# Static dielectric constant tensor:
#      x y z
#    x 1.861210 0.000000 0.038550 
#    y 0.000000 1.764750 0.000000 
#    z 0.038550 0.000000 1.800140 
# 
# From -- ./inp_files/177313.got.cif
#   From: 2010.05.17/outbox.cif.g08.bks.cpg/sg12_89_cif.got.tgz:177313.got - 2010.06.03 13:09:07.
