data_PCOD9219080
_publ_section_title
;
Structure prediction by ZEFSAII (Michael W. Deem and Ramdas Pophale) SiO2 
 PCOD9219080
Probable space group: C 2/M
;
_chemical_formula_sum "Si O2"
_cell_formula_units_Z 36
_cell_length_a 19.461715
_cell_length_b 13.264524
_cell_length_c 19.989449
_cell_angle_alpha 90.000000
_cell_angle_beta 159.009703
_cell_angle_gamma 90.000000
_cell_volume 1848.464512
_symmetry_space_group_name_H-M "C 2/M"
_symmetry_group_IT_number 12
_symmetry_cell_setting 'monoclinic'
loop_
_space_group_symop_operation_xyz
x,y,z
-x,y,-z
-x,-y,-z
x,-y,z
1/2+x,1/2+y,z
1/2-x,1/2+y,-z
1/2-x,1/2-y,-z
1/2+x,1/2-y,z
loop_
_atom_site_type_symbol
_atom_site_label
_atom_site_fract_x
_atom_site_fract_y
_atom_site_fract_z
Si Si1 0.454220 0.500000 0.245980
Si Si2 0.500000 0.824849 0.500000
Si Si3 0.008972 0.000000 0.880917
Si Si4 0.927564 0.500000 0.327793
Si Si5 0.398324 0.000000 0.655531
Si Si6 0.594561 0.286577 0.158599
Si Si7 0.654883 0.166721 0.961398
O O1 0.466960 0.500000 0.176526
O O2 0.673443 0.500000 0.469493
O O3 0.325766 0.597516 0.146193
O O4 0.316850 0.759228 0.353395
O O5 0.446158 0.900763 0.390395
O O6 0.905704 0.099721 0.812938
O O7 0.219565 0.000000 0.104786
O O8 0.077225 0.500000 0.402613
O O9 0.512759 0.904375 0.789257
O O10 0.469437 0.219771 0.094567
O O11 0.500000 0.286951 0.000000
O O12 0.750000 0.250000 0.000000
#
# Coordination Sequence:
#
# PCOD9219080 Si02
#       7
#     4   4   4   4   4   8   8
#     4  11  23  43  68  94 132 169 214 268 322 374
#     4  11  24  34  60  97 130 166 204 249 332 399
#     4  12  19  42  64  95 136 171 193 268 337 392
#     4  11  19  38  61  93 132 169 197 254 332 398
#     4  11  24  43  67  92 134 170 214 268 319 374
#     4  12  24  40  64  95 134 168 210 263 325 390
#     4  11  24  43  66  98 129 169 220 263 319 382
#
# _framework density 19.475624
#
# number of rings (size 3 to 8) (size 9 to 14) (size 15 to 20)
#    0.000    0.667    6.667    3.000    0.000    2.667 
#    0.000    2.222    0.000    4.000    0.000    0.000 
#    0.000    0.000    0.000    0.000    0.000    0.000 
#
# Total GULP energy -100685.231999 kJ/mol
# GULP energy per Si atom -5593.624000 kJ/mol
# Density = 1.943130 g / cm^3
# Si number density = 19.475624 Si / 1000 Ang^3
#
#
#
# Elastic Constant Matrix: (Units=GPa)
#
#
# Indices 1 2 3 4 5 6 
#
# 1 137.1911 55.2172 37.2609 -0.0064 21.5318 -0.0110
# 2 55.2172 107.6868 41.0609 -0.0562 18.6074 -0.1050
# 3 37.2609 41.0609 130.9777 0.0067 38.1303 0.0062
# 4 -0.0064 -0.0562 0.0067 89.5464 -0.0112 171.1184
# 5 21.5318 18.6074 38.1303 -0.0112 47.4975 -0.0236
# 6 -0.0110 -0.1050 0.0062 171.1184 -0.0236 337.6555
#
#
#
# Elastic Compliance Matrix: (Units=1/GPa)
#
#
# Indices 1 2 3 4 5 6 
#
# 1 0.009526 -0.004232 -0.000794 0.000000 -0.002023 -0.000001
# 2 -0.004232 0.012564 -0.002428 0.000016 -0.001055 -0.000004
# 3 -0.000794 -0.002428 0.010753 -0.000014 -0.007321 0.000006
# 4 0.000000 0.000016 -0.000014 0.353816 0.000000 -0.179308
# 5 -0.002023 -0.001055 -0.007321 0.000000 0.028261 0.000002
# 6 -0.000001 -0.000004 0.000006 -0.179308 0.000002 0.093832
#
#
# Mechanical properties :
#
#
# Convention : Reuss Voigt Hill
#
# Bulk Modulus (GPa) = 55.75751 71.43704 63.59728
# Shear Modulus (GPa) = 9.44038 111.09433 60.26735
#
# Velocity S-wave (km/s) = 2.20404 7.56086 5.56886
# Velocity P-wave (km/s) = 5.93031 10.62930 8.60670
#
# Compressibility (1/GPa) = 0.01793480
#
# Stress axis : x y z
#
# Youngs Moduli (GPa) = 104.98058 79.59177 92.99361
#
# Poissons Ratio (x) = 0.33683 0.07387
# Poissons Ratio (y) = 0.44427 0.22578
# Poissons Ratio (z) = 0.08339 0.19324
#
# Static dielectric constant tensor:
#      x y z
#    x 1.680090 0.000020 0.033740 
#    y 0.000020 1.866540 0.000020 
#    z 0.033740 0.000020 1.715290 
# 
# From -- ./inp_files/321668.got.cif
#   From: 2010.05.17/outbox.cif.g08.bks.cpg/sg12_161_cif.got.tgz:321668.got - 2010.06.03 13:09:07.
