data_PCOD9219819
_publ_section_title
;
Structure prediction by ZEFSAII (Michael W. Deem and Ramdas Pophale) SiO2 
 PCOD9219819
Probable space group: C 2/M
;
_chemical_formula_sum "Si O2"
_cell_formula_units_Z 40
_cell_length_a 30.661573
_cell_length_b 8.188441
_cell_length_c 15.159615
_cell_angle_alpha 90.000000
_cell_angle_beta 149.092064
_cell_angle_gamma 90.000000
_cell_volume 1955.058049
_symmetry_space_group_name_H-M "C 2/M"
_symmetry_group_IT_number 12
_symmetry_cell_setting 'monoclinic'
loop_
_space_group_symop_operation_xyz
x,y,z
-x,y,-z
-x,-y,-z
x,-y,z
1/2+x,1/2+y,z
1/2-x,1/2+y,-z
1/2-x,1/2-y,-z
1/2+x,1/2-y,z
loop_
_atom_site_type_symbol
_atom_site_label
_atom_site_fract_x
_atom_site_fract_y
_atom_site_fract_z
Si Si1 0.971365 0.200520 0.232344
Si Si2 0.213361 0.807016 0.029276
Si Si3 0.053960 0.801331 0.010074
Si Si4 0.245136 0.804306 0.390579
Si Si5 0.847443 0.807735 0.406048
O O1 0.055606 0.253765 0.430342
O O2 0.971558 0.000000 0.233255
O O3 0.881007 0.258837 0.112977
O O4 0.977390 0.251819 0.140296
O O5 0.280056 0.768785 0.222360
O O6 0.203706 0.000000 0.008492
O O7 0.250000 0.750000 0.000000
O O8 0.152256 0.757601 0.192973
O O9 0.049701 0.000000 0.003667
O O10 0.000000 0.741774 0.000000
O O11 0.250000 0.750000 0.500000
O O12 0.314592 0.723321 0.448248
O O13 0.253486 0.000000 0.399382
O O14 0.847990 0.000000 0.388939
#
# Coordination Sequence:
#
# PCOD9219819 Si02
#       5
#     8   8   8   8   8
#     4   9  19  37  61  87 119 162 204 242 296 376
#     4  11  23  43  66  90 122 160 205 253 307 363
#     4   9  16  30  55  83 112 155 204 241 282 355
#     4  11  21  35  57  86 124 165 206 251 302 359
#     4  11  22  39  64  92 121 158 204 252 305 365
#
# _framework density 20.45975
#
# number of rings (size 3 to 8) (size 9 to 14) (size 15 to 20)
#    0.000    1.800    2.000    3.000    0.000    4.000 
#    0.000    8.000    0.000    2.400    0.000    0.000 
#    0.000    0.000    0.000    0.000    0.000    0.000 
#
# Total GULP energy -111725.073637 kJ/mol
# GULP energy per Si atom -5586.253682 kJ/mol
# Density = 2.041318 g / cm^3
# Si number density = 20.459750 Si / 1000 Ang^3
#
#
#
# Elastic Constant Matrix: (Units=GPa)
#
#
# Indices 1 2 3 4 5 6 
#
# 1 131.0763 -1.6169 52.7405 0.0000 15.6005 0.0000
# 2 -1.6169 14.2951 1.9485 0.0000 6.6310 0.0000
# 3 52.7405 1.9485 115.3080 0.0000 29.4269 0.0000
# 4 0.0000 0.0000 0.0000 22.7338 0.0000 -5.3205
# 5 15.6005 6.6310 29.4269 0.0000 32.8273 0.0000
# 6 0.0000 0.0000 0.0000 -5.3205 0.0000 29.3380
#
#
#
# Elastic Compliance Matrix: (Units=1/GPa)
#
#
# Indices 1 2 3 4 5 6 
#
# 1 0.009429 0.002234 -0.004009 0.000000 -0.001339 0.000000
# 2 0.002234 0.078800 0.002567 0.000000 -0.019280 0.000000
# 3 -0.004009 0.002567 0.013107 0.000000 -0.010363 0.000000
# 4 0.000000 0.000000 0.000000 0.045937 0.000000 0.008331
# 5 -0.001339 -0.019280 -0.010363 0.000000 0.044283 0.000000
# 6 0.000000 0.000000 0.000000 0.008331 0.000000 0.035596
#
#
# Mechanical properties :
#
#
# Convention : Reuss Voigt Hill
#
# Bulk Modulus (GPa) = 9.71625 40.75819 25.23722
# Shear Modulus (GPa) = 19.23998 30.82028 25.03013
#
# Velocity S-wave (km/s) = 3.06989 3.88543 3.50148
# Velocity P-wave (km/s) = 4.16232 6.33192 5.35808
#
# Compressibility (1/GPa) = 0.10292038
#
# Stress axis : x y z
#
# Youngs Moduli (GPa) = 106.05521 12.69034 76.29320
#
# Poissons Ratio (x) = -0.02835 0.30585
# Poissons Ratio (y) = -0.23691 -0.19584
# Poissons Ratio (z) = 0.42516 -0.03258
#
# Static dielectric constant tensor:
#      x y z
#    x 1.731980 0.000000 0.021060 
#    y 0.000000 1.716970 0.000000 
#    z 0.021060 0.000000 1.741430 
# 
# From -- ./inp_files/211175.got.cif
#   From: 2010.05.17/outbox.cif.g08.bks.cpg/sg12_106_cif.got.tgz:211175.got - 2010.06.03 13:09:07.
