data_PCOD9219997
_publ_section_title
;
Structure prediction by ZEFSAII (Michael W. Deem and Ramdas Pophale) SiO2 
 PCOD9219997
Probable space group: C 2/M
;
_chemical_formula_sum "Si O2"
_cell_formula_units_Z 56
_cell_length_a 24.321277
_cell_length_b 8.601729
_cell_length_c 15.410012
_cell_angle_alpha 90.000000
_cell_angle_beta 60.874312
_cell_angle_gamma 90.000000
_cell_volume 2816.209175
_symmetry_space_group_name_H-M "C 2/M"
_symmetry_group_IT_number 12
_symmetry_cell_setting 'monoclinic'
loop_
_space_group_symop_operation_xyz
x,y,z
-x,y,-z
-x,-y,-z
x,-y,z
1/2+x,1/2+y,z
1/2-x,1/2+y,-z
1/2-x,1/2-y,-z
1/2+x,1/2-y,z
loop_
_atom_site_type_symbol
_atom_site_label
_atom_site_fract_x
_atom_site_fract_y
_atom_site_fract_z
Si Si1 0.457313 0.814796 0.614815
Si Si2 0.195274 0.320335 0.483412
Si Si3 0.938377 0.189298 0.992393
Si Si4 0.012424 0.818907 0.224142
Si Si5 0.819173 0.182607 0.693073
Si Si6 0.813118 0.186063 0.192160
Si Si7 0.114333 0.677912 0.709419
O O1 0.500000 0.758417 0.500000
O O2 0.484962 0.770799 0.687386
O O3 0.386814 0.747205 0.668830
O O4 0.453245 0.000000 0.609475
O O5 0.208685 0.500000 0.449308
O O6 0.250000 0.250000 0.500000
O O7 0.184452 0.221706 0.406375
O O8 0.135960 0.319298 0.593220
O O9 0.943025 0.238230 0.888193
O O10 0.941171 0.000000 0.990162
O O11 0.871985 0.233524 0.086267
O O12 0.000000 0.242526 0.000000
O O13 0.943299 0.794522 0.236681
O O14 0.024496 0.000000 0.232070
O O15 0.756600 0.260948 0.781402
O O16 0.816296 0.000000 0.710652
O O17 0.829823 0.266267 0.271092
O O18 0.814138 0.000000 0.200097
O O19 0.097029 0.500000 0.744529
#
# Coordination Sequence:
#
# PCOD9219997 Si02
#       7
#     8   8   8   8   8   8   8
#     4  11  25  46  68  91 123 163 210 259 309 370
#     4  11  22  35  54  82 120 160 201 248 305 367
#     4   9  18  36  61  93 127 163 206 255 310 371
#     4  11  22  39  65  93 123 161 209 258 310 370
#     4  12  25  41  61  89 125 162 208 259 313 376
#     4  11  21  37  62  88 122 164 205 251 311 369
#     4  11  22  35  54  87 126 160 201 252 306 367
#
# _framework density 19.884886999999999
#
# number of rings (size 3 to 8) (size 9 to 14) (size 15 to 20)
#    0.000    1.143    2.857    4.286    0.000    6.286 
#    0.000    4.286    0.000    0.000    0.000    0.000 
#    0.000    0.000    0.000    0.000    0.000    0.000 
#
# Total GULP energy -156382.150225 kJ/mol
# GULP energy per Si atom -5585.076794 kJ/mol
# Density = 1.983963 g / cm^3
# Si number density = 19.884887 Si / 1000 Ang^3
#
#
#
# Elastic Constant Matrix: (Units=GPa)
#
#
# Indices 1 2 3 4 5 6 
#
# 1 88.3371 10.9927 27.1379 0.0000 -17.1499 0.0000
# 2 10.9927 59.1126 23.0423 0.0000 -6.9195 0.0000
# 3 27.1379 23.0423 115.7905 0.0000 -17.8126 0.0000
# 4 0.0000 0.0000 0.0000 16.3988 0.0000 -3.1150
# 5 -17.1499 -6.9195 -17.8126 0.0000 30.5169 0.0000
# 6 0.0000 0.0000 0.0000 -3.1150 0.0000 25.7910
#
#
#
# Elastic Compliance Matrix: (Units=1/GPa)
#
#
# Indices 1 2 3 4 5 6 
#
# 1 0.013224 -0.000981 -0.001972 0.000000 0.006058 0.000000
# 2 -0.000981 0.018551 -0.003185 0.000000 0.001796 0.000000
# 3 -0.001972 -0.003185 0.010383 0.000000 0.004230 0.000000
# 4 0.000000 0.000000 0.000000 0.062412 0.000000 0.007538
# 5 0.006058 0.001796 0.004230 0.000000 0.039049 0.000000
# 6 0.000000 0.000000 0.000000 0.007538 0.000000 0.039684
#
#
# Mechanical properties :
#
#
# Convention : Reuss Voigt Hill
#
# Bulk Modulus (GPa) = 33.46628 42.84289 38.15459
# Shear Modulus (GPa) = 24.32594 28.01251 26.16923
#
# Velocity S-wave (km/s) = 3.50142 3.75738 3.63166
# Velocity P-wave (km/s) = 5.76308 6.35737 6.06751
#
# Compressibility (1/GPa) = 0.02988082
#
# Stress axis : x y z
#
# Youngs Moduli (GPa) = 75.61778 53.90475 96.31007
#
# Poissons Ratio (x) = 0.05290 0.18994
# Poissons Ratio (y) = 0.07421 0.30679
# Poissons Ratio (z) = 0.14913 0.17171
#
# Static dielectric constant tensor:
#      x y z
#    x 1.664650 0.000000 -0.032350 
#    y 0.000000 1.674970 0.000000 
#    z -0.032350 0.000000 1.743190 
# 
# From -- ./inp_files/238315.got.cif
#   From: 2010.05.17/outbox.cif.g08.bks.cpg/sg12_120_cif.got.tgz:238315.got - 2010.06.03 13:09:07.
