data_PCOD9219405
_publ_section_title
;
Structure prediction by ZEFSAII (Michael W. Deem and Ramdas Pophale) SiO2 
 PCOD9219405
Probable space group: C 2/M
;
_chemical_formula_sum "Si O2"
_cell_formula_units_Z 64
_cell_length_a 29.575917
_cell_length_b 14.099841
_cell_length_c 11.657085
_cell_angle_alpha 90.000000
_cell_angle_beta 139.319671
_cell_angle_gamma 90.000000
_cell_volume 3168.707307
_symmetry_space_group_name_H-M "C 2/M"
_symmetry_group_IT_number 12
_symmetry_cell_setting 'monoclinic'
loop_
_space_group_symop_operation_xyz
x,y,z
-x,y,-z
-x,-y,-z
x,-y,z
1/2+x,1/2+y,z
1/2-x,1/2+y,-z
1/2-x,1/2-y,-z
1/2+x,1/2-y,z
loop_
_atom_site_type_symbol
_atom_site_label
_atom_site_fract_x
_atom_site_fract_y
_atom_site_fract_z
Si Si1 0.011969 0.760594 0.649770
Si Si2 0.175567 0.108773 0.196644
Si Si3 0.775619 0.748630 0.260937
Si Si4 0.607471 0.105521 0.084026
Si Si5 0.028845 0.198901 0.929583
Si Si6 0.895639 0.607876 0.413817
Si Si7 0.847354 0.660005 0.077551
Si Si8 0.740275 0.389109 0.568014
O O1 0.970275 0.659864 0.564833
O O2 0.000000 0.805670 0.500000
O O3 0.990193 0.805862 0.730830
O O4 0.094602 0.743233 0.813397
O O5 0.217766 0.176634 0.195570
O O6 0.202081 0.127975 0.376011
O O7 0.189400 0.000000 0.195133
O O8 0.095472 0.133525 0.039664
O O9 0.842108 0.684974 0.362636
O O10 0.788588 0.823082 0.387613
O O11 0.732467 0.805677 0.080236
O O12 0.677118 0.128308 0.289777
O O13 0.581661 0.000000 0.062259
O O14 0.553529 0.190885 0.988207
O O15 0.637203 0.106681 0.011431
O O16 0.000000 0.173693 0.000000
O O17 0.896263 0.500000 0.461984
O O18 0.868773 0.603780 0.231325
O O19 0.733398 0.500000 0.585271
#
# Coordination Sequence:
#
# PCOD9219405 Si02
#       8
#     8   8   8   8   8   8   8   8
#     4   9  20  39  60  84 120 167 204 245 305 372
#     4  11  22  38  59  82 116 158 203 252 311 370
#     4  11  20  37  60  88 123 159 198 256 310 361
#     4   9  17  33  56  83 117 155 191 234 303 371
#     4  11  23  37  59  87 117 159 206 256 303 359
#     4  11  23  34  57  96 127 157 204 258 308 363
#     4   9  18  37  58  82 118 167 206 240 293 367
#     4   9  19  34  58  84 108 150 196 237 297 371
#
# _framework density 20.197510999999999
#
# number of rings (size 3 to 8) (size 9 to 14) (size 15 to 20)
#    0.000    2.000    3.750    1.500    1.750    5.250 
#    0.000    1.250    0.000    0.375    0.000    0.000 
#    0.000    0.000    0.000    0.000    0.000    0.000 
#
# Total GULP energy -178276.045924 kJ/mol
# GULP energy per Si atom -5571.126435 kJ/mol
# Density = 2.015154 g / cm^3
# Si number density = 20.197511 Si / 1000 Ang^3
#
#
#
# Elastic Constant Matrix: (Units=GPa)
#
#
# Indices 1 2 3 4 5 6 
#
# 1 52.2945 -0.4723 7.9606 0.0000 -3.7073 0.0000
# 2 -0.4723 17.9148 21.0562 0.0000 -6.6726 0.0000
# 3 7.9606 21.0562 86.7647 0.0000 -15.0815 0.0000
# 4 0.0000 0.0000 0.0000 18.2755 0.0000 -5.1048
# 5 -3.7073 -6.6726 -15.0815 0.0000 25.2726 0.0000
# 6 0.0000 0.0000 0.0000 -5.1048 0.0000 2.8462
#
#
#
# Elastic Compliance Matrix: (Units=1/GPa)
#
#
# Indices 1 2 3 4 5 6 
#
# 1 0.019711 0.004312 -0.002404 0.000000 0.002595 0.000000
# 2 0.004312 0.081561 -0.018227 0.000000 0.011290 0.000000
# 3 -0.002404 -0.018227 0.017039 0.000000 0.005003 0.000000
# 4 0.000000 0.000000 0.000000 0.109650 0.000000 0.196660
# 5 0.002595 0.011290 0.005003 0.000000 0.045916 0.000000
# 6 0.000000 0.000000 0.000000 0.196660 0.000000 0.704057
#
#
# Mechanical properties :
#
#
# Convention : Reuss Voigt Hill
#
# Bulk Modulus (GPa) = 11.67212 23.78476 17.72844
# Shear Modulus (GPa) = 4.81172 17.84082 11.32627
#
# Velocity S-wave (km/s) = 1.54516 2.97529 2.37064
# Velocity P-wave (km/s) = 2.99581 4.85848 4.03607
#
# Compressibility (1/GPa) = 0.08567421
#
# Stress axis : x y z
#
# Youngs Moduli (GPa) = 50.73225 12.26069 58.68936
#
# Poissons Ratio (x) = -0.05286 0.14107
# Poissons Ratio (y) = -0.21874 1.06971
# Poissons Ratio (z) = 0.12195 0.22347
#
# Static dielectric constant tensor:
#      x y z
#    x 1.745820 0.000000 -0.022920 
#    y 0.000000 1.709500 0.000000 
#    z -0.022920 0.000000 1.749400 
# 
# From -- ./inp_files/189475.got.cif
#   From: 2010.05.17/outbox.cif.g08.bks.cpg/sg12_95_cif.got.tgz:189475.got - 2010.06.03 13:09:07.
