data_PCOD9219321
_publ_section_title
;
Structure prediction by ZEFSAII (Michael W. Deem and Ramdas Pophale) SiO2 
 PCOD9219321
Probable space group: C 2/M
;
_chemical_formula_sum "Si O2"
_cell_formula_units_Z 44
_cell_length_a 7.710076
_cell_length_b 25.004163
_cell_length_c 12.360029
_cell_angle_alpha 90.000000
_cell_angle_beta 100.884192
_cell_angle_gamma 90.000000
_cell_volume 2339.950956
_symmetry_space_group_name_H-M "C 2/M"
_symmetry_group_IT_number 12
_symmetry_cell_setting 'monoclinic'
loop_
_space_group_symop_operation_xyz
x,y,z
-x,y,-z
-x,-y,-z
x,-y,z
1/2+x,1/2+y,z
1/2-x,1/2+y,-z
1/2-x,1/2-y,-z
1/2+x,1/2-y,z
loop_
_atom_site_type_symbol
_atom_site_label
_atom_site_fract_x
_atom_site_fract_y
_atom_site_fract_z
Si Si1 0.063479 0.000000 0.318290
Si Si2 0.480174 0.000000 0.314237
Si Si3 0.113165 0.384503 0.410687
Si Si4 0.027503 0.326451 0.813543
Si Si5 0.716624 0.000000 0.127925
Si Si6 0.500000 0.911539 0.000000
Si Si7 0.500000 0.414246 0.500000
Si Si8 0.643055 0.275274 0.087928
O O1 0.265727 0.000000 0.297421
O O2 0.907371 0.000000 0.209311
O O3 0.034568 0.049672 0.397026
O O4 0.557055 0.053701 0.378718
O O5 0.565741 0.000000 0.204654
O O6 0.063899 0.348744 0.302775
O O7 0.320501 0.382678 0.458309
O O8 0.000000 0.367252 0.500000
O O9 0.933251 0.274087 0.852495
O O10 0.230897 0.309888 0.822944
O O11 0.028394 0.373077 0.902123
O O12 0.667256 0.948823 0.049144
O O13 0.500000 0.307501 0.000000
O O14 0.750000 0.250000 0.000000
#
# Coordination Sequence:
#
# PCOD9219321 Si02
#       8
#     4   4   8   8   4   4   4   8
#     4  11  20  35  57  85 121 174 216 251 283 356
#     4  12  20  37  62  85 129 167 208 248 290 369
#     4  12  24  41  61  94 127 168 213 253 304 369
#     4  11  21  41  65  92 123 156 208 263 315 369
#     4  11  23  38  57  93 137 164 197 256 314 364
#     4  11  20  38  64  88 130 166 192 257 324 362
#     4  11  20  36  62  82 118 174 222 246 288 361
#     4   9  18  38  65  88 114 152 203 253 308 377
#
# _framework density 18.803813999999999
#
# number of rings (size 3 to 8) (size 9 to 14) (size 15 to 20)
#    0.000    1.091    8.182    0.818    0.000    0.000 
#    9.818    2.727    0.000    0.000    0.000    0.000 
#    0.000    0.000    0.000    0.000    0.000    0.000 
#
# Total GULP energy -122683.498170 kJ/mol
# GULP energy per Si atom -5576.522644 kJ/mol
# Density = 1.876102 g / cm^3
# Si number density = 18.803814 Si / 1000 Ang^3
#
#
#
# Elastic Constant Matrix: (Units=GPa)
#
#
# Indices 1 2 3 4 5 6 
#
# 1 137.9497 34.0126 66.8441 0.0000 34.5981 0.0000
# 2 34.0126 78.8699 50.6660 0.0000 22.0770 0.0000
# 3 66.8441 50.6660 143.5802 0.0000 30.8930 0.0000
# 4 0.0000 0.0000 0.0000 -76.5857 0.0000 -31.0745
# 5 34.5981 22.0770 30.8930 0.0000 45.4173 0.0000
# 6 0.0000 0.0000 0.0000 -31.0745 0.0000 -6.6941
#
#
#
# Elastic Compliance Matrix: (Units=1/GPa)
#
#
# Indices 1 2 3 4 5 6 
#
# 1 0.010425 -0.000830 -0.003442 0.000000 -0.005197 0.000000
# 2 -0.000830 0.017376 -0.004761 0.000000 -0.004576 0.000000
# 3 -0.003442 -0.004761 0.010760 0.000000 -0.002382 0.000000
# 4 0.000000 0.000000 0.000000 0.014779 0.000000 -0.068604
# 5 -0.005197 -0.004576 -0.002382 0.000000 0.029822 0.000000
# 6 0.000000 0.000000 0.000000 -0.068604 0.000000 0.169081
#
#
# Mechanical properties :
#
#
# Convention : Reuss Voigt Hill
#
# Bulk Modulus (GPa) = 48.79182 73.71612 61.25397
# Shear Modulus (GPa) = 18.04138 6.35262 12.19700
#
# Velocity S-wave (km/s) = 3.10086 1.84003 2.54961
# Velocity P-wave (km/s) = 6.23094 6.61832 6.42755
#
# Compressibility (1/GPa) = 0.02049524
#
# Stress axis : x y z
#
# Youngs Moduli (GPa) = 95.92332 57.55024 92.93728
#
# Poissons Ratio (x) = 0.04775 0.31993
# Poissons Ratio (y) = 0.07959 0.44245
# Poissons Ratio (z) = 0.33021 0.27398
#
# Static dielectric constant tensor:
#      x y z
#    x 1.727580 0.000000 0.024720 
#    y 0.000000 1.647450 0.000000 
#    z 0.024720 0.000000 1.691040 
# 
# From -- ./inp_files/122161.got.cif
#   From: 2010.05.17/outbox.cif.g08.bks.cpg/sg12_62_cif.got.tgz:122161.got - 2010.06.03 13:09:07.
