data_PCOD9219086
_publ_section_title
;
Structure prediction by ZEFSAII (Michael W. Deem and Ramdas Pophale) SiO2 
 PCOD9219086
Probable space group: C 2/M
;
_chemical_formula_sum "Si O2"
_cell_formula_units_Z 48
_cell_length_a 13.724554
_cell_length_b 13.966941
_cell_length_c 14.144487
_cell_angle_alpha 90.000000
_cell_angle_beta 127.908295
_cell_angle_gamma 90.000000
_cell_volume 2139.247680
_symmetry_space_group_name_H-M "C 2/M"
_symmetry_group_IT_number 12
_symmetry_cell_setting 'monoclinic'
loop_
_space_group_symop_operation_xyz
x,y,z
-x,y,-z
-x,-y,-z
x,-y,z
1/2+x,1/2+y,z
1/2-x,1/2+y,-z
1/2-x,1/2-y,-z
1/2+x,1/2-y,z
loop_
_atom_site_type_symbol
_atom_site_label
_atom_site_fract_x
_atom_site_fract_y
_atom_site_fract_z
Si Si1 0.540282 0.650300 0.766630
Si Si2 0.016056 0.695915 0.113019
Si Si3 0.638430 0.811508 0.550938
Si Si4 0.259838 0.246756 0.211629
Si Si5 0.314321 0.604303 0.509124
Si Si6 0.767837 0.605891 0.038293
O O1 0.486949 0.730109 0.804425
O O2 0.610167 0.701820 0.722924
O O3 0.425629 0.598317 0.651899
O O4 0.653955 0.607138 0.896028
O O5 0.900368 0.626994 0.066061
O O6 0.159952 0.672412 0.182823
O O7 0.000000 0.743522 0.000000
O O8 0.500000 0.833906 0.500000
O O9 0.725072 0.827190 0.694110
O O10 0.656529 0.699153 0.534247
O O11 0.689515 0.871264 0.492847
O O12 0.245127 0.188398 0.103567
O O13 0.305342 0.500000 0.456033
O O14 0.773354 0.500000 0.084390
#
# Coordination Sequence:
#
# PCOD9219086 Si02
#       6
#     8   8   8   8   8   8
#     4  11  20  39  65  92 128 165 208 254 307 376
#     4  11  19  38  63  88 125 173 208 240 309 386
#     4  11  24  45  69  88 127 172 212 260 323 376
#     4  11  21  41  64  88 124 174 210 248 316 380
#     4  11  25  42  66  99 127 159 215 270 313 374
#     4  11  24  37  60  99 132 157 206 264 306 369
#
# _framework density 22.437794
#
# number of rings (size 3 to 8) (size 9 to 14) (size 15 to 20)
#    0.000    1.000    6.667    1.500    0.000    1.667 
#    0.000    3.333    0.000    0.000    0.000    0.000 
#    0.000    0.000    0.000    0.000    0.000    0.000 
#
# Total GULP energy -133605.575772 kJ/mol
# GULP energy per Si atom -5566.898991 kJ/mol
# Density = 2.238672 g / cm^3
# Si number density = 22.437794 Si / 1000 Ang^3
#
#
#
# Elastic Constant Matrix: (Units=GPa)
#
#
# Indices 1 2 3 4 5 6 
#
# 1 149.0764 16.8105 16.3612 0.0000 28.0579 0.0000
# 2 16.8105 79.6313 -4.7662 0.0000 5.1828 0.0000
# 3 16.3612 -4.7662 64.6023 0.0000 1.1882 0.0000
# 4 0.0000 0.0000 0.0000 -1.0696 0.0000 -7.6444
# 5 28.0579 5.1828 1.1882 0.0000 30.7161 0.0000
# 6 0.0000 0.0000 0.0000 -7.6444 0.0000 2.9134
#
#
#
# Elastic Compliance Matrix: (Units=1/GPa)
#
#
# Indices 1 2 3 4 5 6 
#
# 1 0.008504 -0.001438 -0.002123 0.000000 -0.007443 0.000000
# 2 -0.001438 0.013002 0.001341 0.000000 -0.000932 0.000000
# 3 -0.002123 0.001341 0.016096 0.000000 0.001090 0.000000
# 4 0.000000 0.000000 0.000000 -0.047331 0.000000 -0.124192
# 5 -0.007443 -0.000932 0.001090 0.000000 0.039471 0.000000
# 6 0.000000 0.000000 0.000000 -0.124192 0.000000 0.017376
#
#
# Mechanical properties :
#
#
# Convention : Reuss Voigt Hill
#
# Bulk Modulus (GPa) = 30.15515 38.90230 34.52873
# Shear Modulus (GPa) = 79.85706 24.17229 52.01467
#
# Velocity S-wave (km/s) = 5.97224 3.28579 4.81996
# Velocity P-wave (km/s) = 7.81188 5.63655 6.81162
#
# Compressibility (1/GPa) = 0.03316183
#
# Stress axis : x y z
#
# Youngs Moduli (GPa) = 117.59143 76.90931 62.12789
#
# Poissons Ratio (x) = 0.11058 0.13189
# Poissons Ratio (y) = 0.16908 -0.08329
# Poissons Ratio (z) = 0.24964 -0.10310
#
# Static dielectric constant tensor:
#      x y z
#    x 1.839460 0.000000 0.048820 
#    y 0.000000 1.814870 0.000000 
#    z 0.048820 0.000000 1.970900 
# 
# From -- ./inp_files/205119.got.cif
#   From: 2010.05.17/outbox.cif.g08.bks.cpg/sg12_103_cif.got.tgz:205119.got - 2010.06.03 13:09:07.
