data_PCOD9219975
_publ_section_title
;
Structure prediction by ZEFSAII (Michael W. Deem and Ramdas Pophale) SiO2 
 PCOD9219975
Probable space group: C 2/M
;
_chemical_formula_sum "Si O2"
_cell_formula_units_Z 40
_cell_length_a 15.633117
_cell_length_b 13.207574
_cell_length_c 28.642849
_cell_angle_alpha 90.000000
_cell_angle_beta 20.595413
_cell_angle_gamma 90.000000
_cell_volume 2080.365192
_symmetry_space_group_name_H-M "C 2/M"
_symmetry_group_IT_number 12
_symmetry_cell_setting 'monoclinic'
loop_
_space_group_symop_operation_xyz
x,y,z
-x,y,-z
-x,-y,-z
x,-y,z
1/2+x,1/2+y,z
1/2-x,1/2+y,-z
1/2-x,1/2-y,-z
1/2+x,1/2-y,z
loop_
_atom_site_type_symbol
_atom_site_label
_atom_site_fract_x
_atom_site_fract_y
_atom_site_fract_z
Si Si1 0.500000 0.169834 0.500000
Si Si2 0.052310 0.000000 0.254052
Si Si3 0.604562 0.169113 0.699976
Si Si4 0.317919 0.500000 0.656343
Si Si5 0.766316 0.326866 0.085492
Si Si6 0.510707 0.000000 0.566523
Si Si7 0.983626 0.500000 0.915956
Si Si8 0.601595 0.000000 0.627115
O O1 0.713259 0.242606 0.408685
O O2 0.419909 0.097614 0.583907
O O3 0.088716 0.902822 0.203616
O O4 0.284249 0.000000 0.168665
O O5 0.800365 0.000000 0.409093
O O6 0.760125 0.097350 0.654436
O O7 0.380154 0.221835 0.841863
O O8 0.530714 0.098609 0.694012
O O9 0.109602 0.500000 0.801865
O O10 0.599990 0.500000 0.528250
O O11 0.000000 0.312554 0.000000
O O12 0.843110 0.395751 0.001607
O O13 0.483224 0.000000 0.636175
#
# Coordination Sequence:
#
# PCOD9219975 Si02
#       8
#     4   4   8   4   8   4   4   4
#     4  11  22  37  60  92 124 155 192 255 318 336
#     4   9  15  32  57  82 107 144 191 246 287 341
#     4  11  21  40  61  85 123 165 196 246 308 358
#     4  11  21  37  60  87 123 157 204 252 292 358
#     4   9  19  36  60  82 111 155 205 242 295 357
#     4  11  22  35  59  94 123 152 192 260 301 348
#     4   9  19  34  58  86 110 152 202 253 281 345
#     4  11  23  40  60  90 124 164 202 239 297 378
#
# _framework density 19.227392999999999
#
# number of rings (size 3 to 8) (size 9 to 14) (size 15 to 20)
#    0.000    1.800    5.000    1.800    0.000    1.600 
#    7.200    2.000    4.400    0.000    0.000    0.000 
#    0.000    0.000    0.000    0.000    0.000    0.000 
#
# Total GULP energy -111406.179119 kJ/mol
# GULP energy per Si atom -5570.308956 kJ/mol
# Density = 1.918363 g / cm^3
# Si number density = 19.227393 Si / 1000 Ang^3
#
#
#
# Elastic Constant Matrix: (Units=GPa)
#
#
# Indices 1 2 3 4 5 6 
#
# 1 80.9418 38.2743 11.2164 0.0198 17.4081 0.0029
# 2 38.2743 116.1804 32.4719 -0.0022 1.8320 -0.0017
# 3 11.2164 32.4719 70.9122 -0.0779 8.3625 -0.0093
# 4 0.0198 -0.0022 -0.0779 68.4771 -0.0057 5.1284
# 5 17.4081 1.8320 8.3625 -0.0057 35.4851 0.0024
# 6 0.0029 -0.0017 -0.0093 5.1284 0.0024 0.7949
#
#
#
# Elastic Compliance Matrix: (Units=1/GPa)
#
#
# Indices 1 2 3 4 5 6 
#
# 1 0.016612 -0.005593 0.000885 -0.000003 -0.008069 -0.000017
# 2 -0.005593 0.011765 -0.004891 -0.000003 0.003289 -0.000001
# 3 0.000885 -0.004891 0.016687 0.000007 -0.004114 0.000147
# 4 -0.000003 -0.000003 0.000007 0.028257 0.000017 -0.182306
# 5 -0.008069 0.003289 -0.004114 0.000017 0.032939 -0.000219
# 6 -0.000017 -0.000001 0.000147 -0.182306 -0.000219 2.434229
#
#
# Mechanical properties :
#
#
# Convention : Reuss Voigt Hill
#
# Bulk Modulus (GPa) = 38.65946 47.99551 43.32748
# Shear Modulus (GPa) = 1.94681 33.35619 17.65150
#
# Velocity S-wave (km/s) = 1.00733 4.16964 3.03320
# Velocity P-wave (km/s) = 4.63714 6.94244 5.90341
#
# Compressibility (1/GPa) = 0.02586689
#
# Stress axis : x y z
#
# Youngs Moduli (GPa) = 60.19756 84.99945 59.92834
#
# Poissons Ratio (x) = 0.47538 -0.05304
# Poissons Ratio (y) = 0.33667 0.29308
# Poissons Ratio (z) = -0.05328 0.41569
#
# Static dielectric constant tensor:
#      x y z
#    x 1.673950 0.000000 -0.005210 
#    y 0.000000 1.712660 0.000020 
#    z -0.005210 0.000020 1.692820 
# 
# From -- ./inp_files/153392.got.cif
#   From: 2010.05.17/outbox.cif.g08.bks.cpg/sg12_77_cif.got.tgz:153392.got - 2010.06.03 13:09:07.
