data_PCOD9219678
_publ_section_title
;
Structure prediction by ZEFSAII (Michael W. Deem and Ramdas Pophale) SiO2 
 PCOD9219678
Probable space group: C 2/M
;
_chemical_formula_sum "Si O2"
_cell_formula_units_Z 56
_cell_length_a 30.527816
_cell_length_b 7.619726
_cell_length_c 20.305833
_cell_angle_alpha 90.000000
_cell_angle_beta 33.049017
_cell_angle_gamma 90.000000
_cell_volume 2575.943035
_symmetry_space_group_name_H-M "C 2/M"
_symmetry_group_IT_number 12
_symmetry_cell_setting 'monoclinic'
loop_
_space_group_symop_operation_xyz
x,y,z
-x,y,-z
-x,-y,-z
x,-y,z
1/2+x,1/2+y,z
1/2-x,1/2+y,-z
1/2-x,1/2-y,-z
1/2+x,1/2-y,z
loop_
_atom_site_type_symbol
_atom_site_label
_atom_site_fract_x
_atom_site_fract_y
_atom_site_fract_z
Si Si1 0.712278 0.701761 0.208404
Si Si2 0.085443 0.206111 0.564464
Si Si3 0.025792 0.213813 0.779151
Si Si4 0.924539 0.784606 0.139310
Si Si5 0.243127 0.200704 0.705926
Si Si6 0.855476 0.788435 0.937949
Si Si7 0.076368 0.214349 0.290494
O O1 0.699584 0.500000 0.244385
O O2 0.750771 0.792372 0.222941
O O3 0.628417 0.776494 0.286745
O O4 0.775197 0.709864 0.069150
O O5 0.072056 0.276182 0.655279
O O6 0.174628 0.222994 0.425876
O O7 0.015348 0.274337 0.604177
O O8 0.067279 0.000000 0.592776
O O9 0.061581 0.273147 0.803128
O O10 0.932499 0.260628 0.885531
O O11 0.028534 0.000000 0.777210
O O12 0.840121 0.722229 0.215716
O O13 0.924272 0.000000 0.138437
O O14 0.000000 0.729673 0.000000
O O15 0.243671 0.000000 0.683404
O O16 0.878187 0.737952 0.834833
O O17 0.847892 0.000000 0.948841
O O18 0.078074 0.000000 0.292793
#
# Coordination Sequence:
#
# PCOD9219678 Si02
#       7
#     8   8   8   8   8   8   8
#     4  11  21  33  50  74 105 139 173 207 252 303
#     4   9  18  36  57  75  99 132 172 211 251 301
#     4   8  15  30  55  80 101 133 171 205 246 303
#     4   9  17  31  53  79 103 130 166 204 246 302
#     4  11  23  36  51  74 103 133 171 216 254 293
#     4   9  16  31  55  81 105 128 165 212 254 299
#     4   8  17  33  54  77 101 135 172 205 246 306
#
# _framework density 21.739612000000001
#
# number of rings (size 3 to 8) (size 9 to 14) (size 15 to 20)
#    0.000    2.714    0.000    3.857    0.000    3.429 
#    0.000    7.857    0.000    8.571    0.000    0.000 
#    0.000    0.000    0.000    0.000    0.000    0.000 
#
# Total GULP energy -156292.068109 kJ/mol
# GULP energy per Si atom -5581.859575 kJ/mol
# Density = 2.169013 g / cm^3
# Si number density = 21.739612 Si / 1000 Ang^3
#
#
#
# Elastic Constant Matrix: (Units=GPa)
#
#
# Indices 1 2 3 4 5 6 
#
# 1 147.1279 3.0774 40.6108 0.0015 -40.1945 -0.0064
# 2 3.0774 38.4067 -4.2122 -0.0014 -0.7566 -0.0078
# 3 40.6108 -4.2122 92.2824 -0.0043 -30.8039 -0.0101
# 4 0.0015 -0.0014 -0.0043 14.7749 0.0025 0.7952
# 5 -40.1945 -0.7566 -30.8039 0.0025 21.5631 0.0010
# 6 -0.0064 -0.0078 -0.0101 0.7952 0.0010 6.9849
#
#
#
# Elastic Compliance Matrix: (Units=1/GPa)
#
#
# Indices 1 2 3 4 5 6 
#
# 1 0.015071 0.000070 0.005255 -0.000007 0.035603 0.000017
# 2 0.000070 0.026455 0.002925 0.000001 0.005237 0.000033
# 3 0.005255 0.002925 0.022864 -0.000003 0.042561 0.000035
# 4 -0.000007 0.000001 -0.000003 0.068100 -0.000025 -0.007753
# 5 0.035603 0.005237 0.042561 -0.000025 0.173726 0.000078
# 6 0.000017 0.000033 0.000035 -0.007753 0.000078 0.144049
#
#
# Mechanical properties :
#
#
# Convention : Reuss Voigt Hill
#
# Bulk Modulus (GPa) = 12.36228 39.64099 26.00164
# Shear Modulus (GPa) = 10.85238 24.55397 17.70318
#
# Velocity S-wave (km/s) = 2.23670 3.36439 2.85674
# Velocity P-wave (km/s) = 3.51700 5.77635 4.78202
#
# Compressibility (1/GPa) = 0.08089124
#
# Stress axis : x y z
#
# Youngs Moduli (GPa) = 66.35061 37.79939 43.73699
#
# Poissons Ratio (x) = -0.00265 -0.22984
# Poissons Ratio (y) = -0.00465 -0.12793
# Poissons Ratio (z) = -0.34868 -0.11056
#
# Static dielectric constant tensor:
#      x y z
#    x 1.795160 -0.000010 -0.013750 
#    y -0.000010 1.829590 0.000010 
#    z -0.013750 0.000010 1.764930 
# 
# From -- ./inp_files/329550.got.cif
#   From: 2010.05.17/outbox.cif.g08.bks.cpg/sg12_165_cif.got.tgz:329550.got - 2010.06.03 13:09:07.
