data_PCOD9219916
_publ_section_title
;
Structure prediction by ZEFSAII (Michael W. Deem and Ramdas Pophale) SiO2 
 PCOD9219916
Probable space group: C 2/M
;
_chemical_formula_sum "Si O2"
_cell_formula_units_Z 32
_cell_length_a 17.360816
_cell_length_b 16.938395
_cell_length_c 4.941375
_cell_angle_alpha 90.000000
_cell_angle_beta 97.796583
_cell_angle_gamma 90.000000
_cell_volume 1439.649881
_symmetry_space_group_name_H-M "C 2/M"
_symmetry_group_IT_number 12
_symmetry_cell_setting 'monoclinic'
loop_
_space_group_symop_operation_xyz
x,y,z
-x,y,-z
-x,-y,-z
x,-y,z
1/2+x,1/2+y,z
1/2-x,1/2+y,-z
1/2-x,1/2-y,-z
1/2+x,1/2-y,z
loop_
_atom_site_type_symbol
_atom_site_label
_atom_site_fract_x
_atom_site_fract_y
_atom_site_fract_z
Si Si1 0.950470 0.369844 0.207799
Si Si2 0.188521 0.825227 0.481069
Si Si3 0.750533 0.500000 0.546979
Si Si4 0.665637 0.000000 0.897830
Si Si5 0.084703 0.802623 0.937859
O O1 0.878114 0.424043 0.236563
O O2 0.921486 0.291798 0.043843
O O3 0.000000 0.353281 0.500000
O O4 0.000000 0.412790 0.000000
O O5 0.250000 0.750000 0.500000
O O6 0.114853 0.811309 0.645913
O O7 0.218584 0.911472 0.588439
O O8 0.152259 0.831730 0.166029
O O9 0.754133 0.500000 0.222726
O O10 0.825945 0.500000 0.778566
O O11 0.000000 0.833230 0.000000
#
# Coordination Sequence:
#
# PCOD9219916 Si02
#       5
#     8   8   4   4   8
#     4  11  21  36  60  93 126 164 206 252 320 399
#     4  12  24  44  67  95 129 170 215 270 324 381
#     4  12  26  41  63  92 124 168 221 262 319 386
#     4  12  22  39  58  90 131 166 201 264 321 388
#     4  11  23  42  66  93 126 169 217 268 321 380
#
# _framework density 22.227625
#
# number of rings (size 3 to 8) (size 9 to 14) (size 15 to 20)
#    0.000    0.500    0.000   11.250    0.000    0.000 
#    0.000    3.750    0.000    0.000    0.000    0.000 
#    0.000    0.000    0.000    0.000    0.000    0.000 
#
# Total GULP energy -89122.372587 kJ/mol
# GULP energy per Si atom -5570.148287 kJ/mol
# Density = 2.217703 g / cm^3
# Si number density = 22.227625 Si / 1000 Ang^3
#
#
#
# Elastic Constant Matrix: (Units=GPa)
#
#
# Indices 1 2 3 4 5 6 
#
# 1 63.4522 38.7988 9.0044 0.0000 -2.1811 0.0000
# 2 38.7988 116.5911 -4.1646 0.0000 5.4908 0.0000
# 3 9.0044 -4.1646 86.0057 0.0000 -2.1331 0.0000
# 4 0.0000 0.0000 0.0000 -384.8662 0.0000 132.5830
# 5 -2.1811 5.4908 -2.1331 0.0000 55.5573 0.0000
# 6 0.0000 0.0000 0.0000 132.5830 0.0000 -16.0782
#
#
#
# Elastic Compliance Matrix: (Units=1/GPa)
#
#
# Indices 1 2 3 4 5 6 
#
# 1 0.020397 -0.006940 -0.002437 0.000000 0.001393 0.000000
# 2 -0.006940 0.010992 0.001226 0.000000 -0.001312 0.000000
# 3 -0.002437 0.001226 0.011948 0.000000 0.000242 0.000000
# 4 0.000000 0.000000 0.000000 0.001412 0.000000 0.011640
# 5 0.001393 -0.001312 0.000242 0.000000 0.018193 0.000000
# 6 0.000000 0.000000 0.000000 0.011640 0.000000 0.033789
#
#
# Mechanical properties :
#
#
# Convention : Reuss Voigt Hill
#
# Bulk Modulus (GPa) = 36.98901 39.25846 38.12373
# Shear Modulus (GPa) = 40.96856 -54.25005 -6.64074
#
# Velocity S-wave (km/s) = 4.29783 -4.94566 -1.73035
# Velocity P-wave (km/s) = 6.42695 3.86166 3.63271
#
# Compressibility (1/GPa) = 0.02703506
#
# Stress axis : x y z
#
# Youngs Moduli (GPa) = 49.02577 90.97375 83.69840
#
# Poissons Ratio (x) = 0.63140 0.20398
# Poissons Ratio (y) = 0.34026 -0.10264
# Poissons Ratio (z) = 0.11948 -0.11157
#
# Static dielectric constant tensor:
#      x y z
#    x 1.928560 0.000000 -0.071980 
#    y 0.000000 1.813030 0.000000 
#    z -0.071980 0.000000 1.763060 
# 
# From -- ./inp_files/10170.got.cif
#   From: 2010.05.17/outbox.cif.g08.bks.cpg/sg12_6_cif.got.tgz:10170.got - 2010.06.03 13:09:07.
