data_PCOD9219519
_publ_section_title
;
Structure prediction by ZEFSAII (Michael W. Deem and Ramdas Pophale) SiO2 
 PCOD9219519
Probable space group: C 2/M
;
_chemical_formula_sum "Si O2"
_cell_formula_units_Z 64
_cell_length_a 14.211275
_cell_length_b 31.478957
_cell_length_c 11.306309
_cell_angle_alpha 90.000000
_cell_angle_beta 140.209209
_cell_angle_gamma 90.000000
_cell_volume 3237.015974
_symmetry_space_group_name_H-M "C 2/M"
_symmetry_group_IT_number 12
_symmetry_cell_setting 'monoclinic'
loop_
_space_group_symop_operation_xyz
x,y,z
-x,y,-z
-x,-y,-z
x,-y,z
1/2+x,1/2+y,z
1/2-x,1/2+y,-z
1/2-x,1/2-y,-z
1/2+x,1/2-y,z
loop_
_atom_site_type_symbol
_atom_site_label
_atom_site_fract_x
_atom_site_fract_y
_atom_site_fract_z
Si Si1 0.919763 0.651258 0.541100
Si Si2 0.033509 0.832971 0.905462
Si Si3 0.695033 0.144107 0.957361
Si Si4 0.823999 0.121989 0.539049
Si Si5 0.208041 0.452416 0.304280
Si Si6 0.720658 0.732756 0.340249
Si Si7 0.632099 0.950398 0.956277
Si Si8 0.680453 0.683682 0.678783
O O1 0.000000 0.636008 0.500000
O O2 0.793058 0.620744 0.468197
O O3 0.836759 0.695025 0.432500
O O4 0.032135 0.656564 0.758456
O O5 0.971420 0.861716 0.740116
O O6 0.939847 0.789418 0.814624
O O7 0.203727 0.832512 0.042320
O O8 0.000000 0.852619 0.000000
O O9 0.695058 0.092111 0.954253
O O10 0.751162 0.161581 0.138537
O O11 0.826863 0.078610 0.472862
O O12 0.776880 0.156194 0.395078
O O13 0.247082 0.500000 0.371915
O O14 0.193219 0.448440 0.149212
O O15 0.044553 0.444053 0.199204
O O16 0.750000 0.750000 0.500000
O O17 0.750621 0.769919 0.275980
O O18 0.655315 0.000000 0.937100
O O19 0.500000 0.685757 0.500000
#
# Coordination Sequence:
#
# PCOD9219519 Si02
#       8
#     8   8   8   8   8   8   8   8
#     4  11  24  40  61  85 121 170 213 255 303 369
#     4  11  25  42  60  83 122 175 209 252 310 375
#     4  12  22  39  68  95 122 165 214 253 322 382
#     4  11  20  40  63  85 127 157 203 256 312 368
#     4   9  17  33  59  94 128 155 187 247 325 383
#     4  11  22  44  61  83 125 159 207 266 315 354
#     4   9  18  32  59  98 134 153 189 257 319 381
#     4  12  23  40  64  93 123 161 205 268 318 373
#
# _framework density 19.771296
#
# number of rings (size 3 to 8) (size 9 to 14) (size 15 to 20)
#    0.000    1.250    6.250    2.625    0.000    1.500 
#    0.000    3.125    0.000    6.750    0.000    0.000 
#    0.000    0.000    0.000    0.000    0.000    0.000 
#
# Total GULP energy -178453.922397 kJ/mol
# GULP energy per Si atom -5576.685075 kJ/mol
# Density = 1.972630 g / cm^3
# Si number density = 19.771296 Si / 1000 Ang^3
#
#
#
# Elastic Constant Matrix: (Units=GPa)
#
#
# Indices 1 2 3 4 5 6 
#
# 1 62.5071 13.1349 -0.8598 0.0000 2.3626 0.0000
# 2 13.1349 108.3426 22.6627 0.0000 -4.8000 0.0000
# 3 -0.8598 22.6627 64.0585 0.0000 -9.2760 0.0000
# 4 0.0000 0.0000 0.0000 23.7176 0.0000 2.6328
# 5 2.3626 -4.8000 -9.2760 0.0000 27.7270 0.0000
# 6 0.0000 0.0000 0.0000 2.6328 0.0000 8.9631
#
#
#
# Elastic Compliance Matrix: (Units=1/GPa)
#
#
# Indices 1 2 3 4 5 6 
#
# 1 0.016537 -0.002238 0.000792 0.000000 -0.001532 0.000000
# 2 -0.002238 0.010279 -0.003554 0.000000 0.000781 0.000000
# 3 0.000792 -0.003554 0.017634 0.000000 0.005217 0.000000
# 4 0.000000 0.000000 0.000000 0.043584 0.000000 -0.012802
# 5 -0.001532 0.000781 0.005217 0.000000 0.038077 0.000000
# 6 0.000000 0.000000 0.000000 -0.012802 0.000000 0.115329
#
#
# Mechanical properties :
#
#
# Convention : Reuss Voigt Hill
#
# Bulk Modulus (GPa) = 29.02688 33.86488 31.44588
# Shear Modulus (GPa) = 19.01689 25.41289 22.21489
#
# Velocity S-wave (km/s) = 3.10472 3.58906 3.35564
# Velocity P-wave (km/s) = 5.25030 5.86008 5.56355
#
# Compressibility (1/GPa) = 0.03445083
#
# Stress axis : x y z
#
# Youngs Moduli (GPa) = 60.46917 97.28296 56.70887
#
# Poissons Ratio (x) = 0.21776 -0.04492
# Poissons Ratio (y) = 0.13536 0.20152
# Poissons Ratio (z) = -0.04790 0.34570
#
# Static dielectric constant tensor:
#      x y z
#    x 1.709810 0.000000 0.008910 
#    y 0.000000 1.708450 0.000000 
#    z 0.008910 0.000000 1.716990 
# 
# From -- ./inp_files/150287.got.cif
#   From: 2010.05.17/outbox.cif.g08.bks.cpg/sg12_76_cif.got.tgz:150287.got - 2010.06.03 13:09:07.
