data_PCOD9219326
_publ_section_title
;
Structure prediction by ZEFSAII (Michael W. Deem and Ramdas Pophale) SiO2 
 PCOD9219326
Probable space group: C 2/M
;
_chemical_formula_sum "Si O2"
_cell_formula_units_Z 58
_cell_length_a 13.028816
_cell_length_b 19.808379
_cell_length_c 17.461790
_cell_angle_alpha 90.000000
_cell_angle_beta 139.385716
_cell_angle_gamma 90.000000
_cell_volume 2933.589058
_symmetry_space_group_name_H-M "C 2/M"
_symmetry_group_IT_number 12
_symmetry_cell_setting 'monoclinic'
loop_
_space_group_symop_operation_xyz
x,y,z
-x,y,-z
-x,-y,-z
x,-y,z
1/2+x,1/2+y,z
1/2-x,1/2+y,-z
1/2-x,1/2-y,-z
1/2+x,1/2-y,z
loop_
_atom_site_type_symbol
_atom_site_label
_atom_site_fract_x
_atom_site_fract_y
_atom_site_fract_z
Si Si1 0.668634 0.853250 0.431151
Si Si2 0.504292 0.422438 0.410309
Si Si3 0.146683 0.229022 0.165980
Si Si4 0.327991 0.114962 0.822449
Si Si5 0.670494 0.762075 0.576180
Si Si6 0.049743 0.422185 0.809681
Si Si7 0.704019 0.309095 0.032435
Si Si8 0.000000 0.500000 0.000000
O O1 0.639914 0.821468 0.497956
O O2 0.715810 0.791642 0.400959
O O3 0.526298 0.893485 0.311346
O O4 0.826244 0.898129 0.521874
O O5 0.500000 0.419861 0.500000
O O6 0.476900 0.500000 0.372806
O O7 0.358929 0.379779 0.295307
O O8 0.107372 0.308945 0.136170
O O9 0.247248 0.217378 0.298631
O O10 0.236056 0.211999 0.138437
O O11 0.985191 0.186737 0.079866
O O12 0.410339 0.082930 0.793834
O O13 0.369570 0.061037 0.911140
O O14 0.500000 0.731711 0.500000
O O15 0.095921 0.500000 0.828675
O O16 0.192668 0.375845 0.920353
O O17 0.750000 0.250000 0.000000
#
# Coordination Sequence:
#
# PCOD9219326 Si02
#       8
#     8   8   8   8   8   8   8   2
#     4  11  22  37  63  95 124 166 217 261 330 401
#     4  11  20  35  59  88 125 165 203 258 331 405
#     4  11  23  41  64  92 127 168 222 274 327 377
#     4  12  22  38  60  91 131 169 208 270 334 397
#     4  11  22  39  62  94 128 161 214 281 325 377
#     4  12  23  41  64  96 132 174 218 267 331 403
#     4  11  23  41  66  93 124 173 222 270 317 387
#     4  12  24  36  50  96 132 170 210 254 336 408
#
# _framework density 19.771003
#
# number of rings (size 3 to 8) (size 9 to 14) (size 15 to 20)
#    0.000    0.690    5.517    3.310    0.000    3.310 
#    0.000    1.379    0.000    8.276    0.000    0.000 
#    0.000    0.000    0.000    0.000    0.000    0.000 
#
# Total GULP energy -161784.872033 kJ/mol
# GULP energy per Si atom -5578.788691 kJ/mol
# Density = 1.972600 g / cm^3
# Si number density = 19.771003 Si / 1000 Ang^3
#
#
#
# Elastic Constant Matrix: (Units=GPa)
#
#
# Indices 1 2 3 4 5 6 
#
# 1 68.8724 22.6122 23.5902 0.0000 -10.4004 0.0000
# 2 22.6122 108.8683 40.5370 0.0000 9.2971 0.0000
# 3 23.5902 40.5370 111.0006 -0.0001 10.8775 0.0000
# 4 0.0000 0.0000 -0.0001 21.8939 -0.0001 11.0982
# 5 -10.4004 9.2971 10.8775 -0.0001 24.8191 0.0000
# 6 0.0000 0.0000 0.0000 11.0982 0.0000 12.6340
#
#
#
# Elastic Compliance Matrix: (Units=1/GPa)
#
#
# Indices 1 2 3 4 5 6 
#
# 1 0.018519 -0.003359 -0.003754 0.000000 0.010664 0.000000
# 2 -0.003359 0.011377 -0.003015 0.000000 -0.004348 0.000000
# 3 -0.003754 -0.003015 0.011443 0.000000 -0.005459 0.000000
# 4 0.000000 0.000000 0.000000 0.082340 0.000000 -0.072330
# 5 0.010664 -0.004348 -0.005459 0.000000 0.048781 0.000000
# 6 0.000000 0.000000 0.000000 -0.072330 0.000000 0.142689
#
#
# Mechanical properties :
#
#
# Convention : Reuss Voigt Hill
#
# Bulk Modulus (GPa) = 47.43284 51.35778 49.39531
# Shear Modulus (GPa) = 14.60144 25.33618 19.96881
#
# Velocity S-wave (km/s) = 2.72054 3.58366 3.18151
# Velocity P-wave (km/s) = 5.82337 6.56934 6.20757
#
# Compressibility (1/GPa) = 0.02108244
#
# Stress axis : x y z
#
# Youngs Moduli (GPa) = 53.99966 87.89631 87.39217
#
# Poissons Ratio (x) = 0.29527 0.32806
# Poissons Ratio (y) = 0.18140 0.26347
# Poissons Ratio (z) = 0.20271 0.26499
#
# Static dielectric constant tensor:
#      x y z
#    x 1.720100 0.000000 -0.005750 
#    y 0.000000 1.702270 0.000000 
#    z -0.005750 0.000000 1.737160 
# 
# From -- ./inp_files/265280.got.cif
#   From: 2010.05.17/outbox.cif.g08.bks.cpg/sg12_133_cif.got.tgz:265280.got - 2010.06.03 13:09:07.
