data_PCOD9219442
_publ_section_title
;
Structure prediction by ZEFSAII (Michael W. Deem and Ramdas Pophale) SiO2 
 PCOD9219442
Probable space group: C 2/M
;
_chemical_formula_sum "Si O2"
_cell_formula_units_Z 58
_cell_length_a 15.158058
_cell_length_b 18.025252
_cell_length_c 30.203585
_cell_angle_alpha 90.000000
_cell_angle_beta 161.164754
_cell_angle_gamma 90.000000
_cell_volume 2664.289842
_symmetry_space_group_name_H-M "C 2/M"
_symmetry_group_IT_number 12
_symmetry_cell_setting 'monoclinic'
loop_
_space_group_symop_operation_xyz
x,y,z
-x,y,-z
-x,-y,-z
x,-y,z
1/2+x,1/2+y,z
1/2-x,1/2+y,-z
1/2-x,1/2-y,-z
1/2+x,1/2-y,z
loop_
_atom_site_type_symbol
_atom_site_label
_atom_site_fract_x
_atom_site_fract_y
_atom_site_fract_z
Si Si1 0.690557 0.163494 0.051283
Si Si2 0.267610 0.318932 0.233867
Si Si3 0.104666 0.086252 0.113502
Si Si4 0.256902 0.342865 0.731475
Si Si5 0.537419 0.635320 0.584223
Si Si6 0.650340 0.167359 0.854132
Si Si7 0.000000 0.000000 0.500000
Si Si8 0.821538 0.710365 0.459592
O O1 0.742427 0.250259 0.087092
O O2 0.993669 0.136893 0.182938
O O3 0.500000 0.131847 0.000000
O O4 0.508347 0.157543 0.920710
O O5 0.210947 0.239888 0.231503
O O6 0.389916 0.372614 0.329551
O O7 0.503276 0.309620 0.308617
O O8 0.225951 0.102788 0.218904
O O9 0.260007 0.133823 0.150127
O O10 0.124091 0.000000 0.111749
O O11 0.793979 0.115198 0.959302
O O12 0.981026 0.337083 0.572443
O O13 0.458287 0.564696 0.518418
O O14 0.333986 0.703989 0.481249
O O15 0.827190 0.664137 0.702642
O O16 0.000000 0.703084 0.500000
#
# Coordination Sequence:
#
# PCOD9219442 Si02
#       8
#     8   8   8   8   8   8   2   8
#     4  12  20  35  65  95 122 155 211 272 321 365
#     4  11  22  38  62  89 128 164 210 267 308 370
#     4  11  24  37  57  92 126 168 202 248 321 395
#     4  11  21  37  60  87 121 163 210 262 310 376
#     4  11  24  40  57  88 128 172 206 245 315 384
#     4  11  20  38  58  89 126 160 199 253 316 374
#     4  12  28  40  60  90 132 180 194 248 314 416
#     4  11  23  39  63  89 125 159 213 269 315 358
#
# _framework density 21.769404000000002
#
# number of rings (size 3 to 8) (size 9 to 14) (size 15 to 20)
#    0.000    0.828    6.207    4.552    3.862    1.103 
#    0.000    0.000    0.000    0.828    3.586    0.000 
#    0.000    0.000    0.000    0.000    0.000    0.000 
#
# Total GULP energy -161891.509630 kJ/mol
# GULP energy per Si atom -5582.465849 kJ/mol
# Density = 2.171986 g / cm^3
# Si number density = 21.769404 Si / 1000 Ang^3
#
#
#
# Elastic Constant Matrix: (Units=GPa)
#
#
# Indices 1 2 3 4 5 6 
#
# 1 104.7480 19.1709 11.1522 -0.0039 0.4698 -0.0040
# 2 19.1709 48.3415 13.6753 0.0122 -13.8166 -0.0048
# 3 11.1522 13.6753 76.2295 0.0212 4.3540 -0.0164
# 4 -0.0039 0.0122 0.0212 2.6618 0.0172 -7.0664
# 5 0.4698 -13.8166 4.3540 0.0172 42.6766 0.0058
# 6 -0.0040 -0.0048 -0.0164 -7.0664 0.0058 23.3199
#
#
#
# Elastic Compliance Matrix: (Units=1/GPa)
#
#
# Indices 1 2 3 4 5 6 
#
# 1 0.010422 -0.004364 -0.000658 0.000266 -0.001461 0.000081
# 2 -0.004364 0.026298 -0.004595 -0.000770 0.009031 -0.000234
# 3 -0.000658 -0.004595 0.014206 -0.000249 -0.002930 -0.000066
# 4 0.000266 -0.000770 -0.000249 1.921140 -0.001078 0.582142
# 5 -0.001461 0.009031 -0.002930 -0.001078 0.026671 -0.000334
# 6 0.000081 -0.000234 -0.000066 0.582142 -0.000334 0.219282
#
#
# Mechanical properties :
#
#
# Convention : Reuss Voigt Hill
#
# Bulk Modulus (GPa) = 31.55456 35.25729 33.40593
# Shear Modulus (GPa) = 2.22438 26.08636 14.15537
#
# Velocity S-wave (km/s) = 1.01193 3.46541 2.55275
# Velocity P-wave (km/s) = 3.98644 5.67829 4.90585
#
# Compressibility (1/GPa) = 0.03169114
#
# Stress axis : x y z
#
# Youngs Moduli (GPa) = 95.94942 38.02532 70.39129
#
# Poissons Ratio (x) = 0.16596 0.04635
# Poissons Ratio (y) = 0.41876 0.32345
# Poissons Ratio (z) = 0.06317 0.17473
#
# Static dielectric constant tensor:
#      x y z
#    x 1.874020 0.000010 0.014450 
#    y 0.000010 1.741130 -0.000030 
#    z 0.014450 -0.000030 1.841810 
# 
# From -- ./inp_files/377051.got.cif
#   From: 2010.05.17/outbox.cif.g08.bks.cpg/sg12_189_cif.got.tgz:377051.got - 2010.06.03 13:09:07.
