data_PCOD9219242
_publ_section_title
;
Structure prediction by ZEFSAII (Michael W. Deem and Ramdas Pophale) SiO2 
 PCOD9219242
Probable space group: C 2/M
;
_chemical_formula_sum "Si O2"
_cell_formula_units_Z 32
_cell_length_a 5.141354
_cell_length_b 21.236118
_cell_length_c 17.169872
_cell_angle_alpha 90.000000
_cell_angle_beta 111.579953
_cell_angle_gamma 90.000000
_cell_volume 1743.244829
_symmetry_space_group_name_H-M "C 2/M"
_symmetry_group_IT_number 12
_symmetry_cell_setting 'monoclinic'
loop_
_space_group_symop_operation_xyz
x,y,z
-x,y,-z
-x,-y,-z
x,-y,z
1/2+x,1/2+y,z
1/2-x,1/2+y,-z
1/2-x,1/2-y,-z
1/2+x,1/2-y,z
loop_
_atom_site_type_symbol
_atom_site_label
_atom_site_fract_x
_atom_site_fract_y
_atom_site_fract_z
Si Si1 0.000000 0.294080 0.500000
Si Si2 0.856699 0.576957 0.756007
Si Si3 0.680503 0.500000 0.443766
Si Si4 0.811262 0.423537 0.050941
Si Si5 0.766147 0.884726 0.660148
O O1 0.750000 0.250000 0.500000
O O2 0.879765 0.334120 0.413204
O O3 0.802033 0.500000 0.752883
O O4 0.575556 0.620220 0.733127
O O5 0.054865 0.592123 0.851316
O O6 0.036188 0.592363 0.697706
O O7 0.500000 0.500000 0.500000
O O8 0.639575 0.438821 0.389126
O O9 0.000000 0.500000 0.500000
O O10 0.803304 0.500000 0.048346
O O11 0.500000 0.400588 0.000000
O O12 0.000000 0.402451 0.000000
#
# Coordination Sequence:
#
# PCOD9219242 Si02
#       5
#     4   8   4   8   8
#     4  12  28  45  58  75 108 152 194 236 282 334
#     4  11  20  33  54  87 117 146 186 227 272 330
#     4  12  22  34  56  84 108 142 180 232 286 332
#     4   9  17  29  46  72 116 160 180 201 255 333
#     4  12  23  37  58  81 112 144 192 235 277 327
#
# _framework density 18.356572
#
# number of rings (size 3 to 8) (size 9 to 14) (size 15 to 20)
#    0.000    1.000    3.750    4.500    1.750    4.000 
#    0.000    0.000    0.000    0.000    0.000    0.000 
#    0.000   70.000    0.000    0.000    0.000    0.000 
#
# Total GULP energy -89124.581706 kJ/mol
# GULP energy per Si atom -5570.286357 kJ/mol
# Density = 1.831479 g / cm^3
# Si number density = 18.356572 Si / 1000 Ang^3
#
#
#
# Elastic Constant Matrix: (Units=GPa)
#
#
# Indices 1 2 3 4 5 6 
#
# 1 149.9067 28.1893 53.8090 0.0000 13.4572 0.0000
# 2 28.1893 53.3200 39.4918 0.0000 5.2351 0.0000
# 3 53.8090 39.4918 125.4786 0.0000 16.6114 0.0000
# 4 0.0000 0.0000 0.0000 4.0879 0.0000 -9.1095
# 5 13.4572 5.2351 16.6114 0.0000 45.4785 0.0000
# 6 0.0000 0.0000 0.0000 -9.1095 0.0000 13.8968
#
#
#
# Elastic Compliance Matrix: (Units=1/GPa)
#
#
# Indices 1 2 3 4 5 6 
#
# 1 0.008143 -0.002241 -0.002629 0.000000 -0.001191 0.000000
# 2 -0.002241 0.025072 -0.006973 0.000000 0.000324 0.000000
# 3 -0.002629 -0.006973 0.011645 0.000000 -0.002673 0.000000
# 4 0.000000 0.000000 0.000000 -0.530945 0.000000 -0.348040
# 5 -0.001191 0.000324 -0.002673 0.000000 0.023280 0.000000
# 6 0.000000 0.000000 0.000000 -0.348040 0.000000 -0.156185
#
#
# Mechanical properties :
#
#
# Convention : Reuss Voigt Hill
#
# Bulk Modulus (GPa) = 47.22570 63.52060 55.37315
# Shear Modulus (GPa) = -8.49984 26.50700 9.00358
#
# Velocity S-wave (km/s) = -2.15417 3.80413 2.21709
# Velocity P-wave (km/s) = 4.42667 7.34670 6.06504
#
# Compressibility (1/GPa) = 0.02117491
#
# Stress axis : x y z
#
# Youngs Moduli (GPa) = 122.80816 39.88500 85.87192
#
# Poissons Ratio (x) = 0.08938 0.22575
# Poissons Ratio (y) = 0.27520 0.59877
# Poissons Ratio (z) = 0.32285 0.27811
#
# Static dielectric constant tensor:
#      x y z
#    x 1.676380 0.000000 0.101630 
#    y 0.000000 1.606390 0.000000 
#    z 0.101630 0.000000 1.736950 
# 
# From -- ./inp_files/191411.got.cif
#   From: 2010.05.17/outbox.cif.g08.bks.cpg/sg12_96_cif.got.tgz:191411.got - 2010.06.03 13:09:07.
