data_PCOD9219917
_publ_section_title
;
Structure prediction by ZEFSAII (Michael W. Deem and Ramdas Pophale) SiO2 
 PCOD9219917
Probable space group: C 2/M
;
_chemical_formula_sum "Si O2"
_cell_formula_units_Z 42
_cell_length_a 14.800629
_cell_length_b 7.397070
_cell_length_c 17.393533
_cell_angle_alpha 90.000000
_cell_angle_beta 123.559393
_cell_angle_gamma 90.000000
_cell_volume 1586.850400
_symmetry_space_group_name_H-M "C 2/M"
_symmetry_group_IT_number 12
_symmetry_cell_setting 'monoclinic'
loop_
_space_group_symop_operation_xyz
x,y,z
-x,y,-z
-x,-y,-z
x,-y,z
1/2+x,1/2+y,z
1/2-x,1/2+y,-z
1/2-x,1/2-y,-z
1/2+x,1/2-y,z
loop_
_atom_site_type_symbol
_atom_site_label
_atom_site_fract_x
_atom_site_fract_y
_atom_site_fract_z
Si Si1 0.854448 0.718412 0.256573
Si Si2 0.500000 0.500000 0.500000
Si Si3 0.003807 0.218127 0.126949
Si Si4 0.828565 0.781585 0.933101
Si Si5 0.682507 0.204420 0.590495
Si Si6 0.917645 0.704732 0.666948
O O1 0.861753 0.500000 0.251916
O O2 0.786425 0.786667 0.151949
O O3 0.795687 0.753338 0.309182
O O4 0.975910 0.791371 0.320886
O O5 0.591915 0.343088 0.523191
O O6 0.043155 0.296658 0.225512
O O7 0.089506 0.256172 0.099226
O O8 0.001866 0.000000 0.135139
O O9 0.887897 0.282045 0.038242
O O10 0.822882 0.000000 0.936539
O O11 0.700233 0.289234 0.393861
O O12 0.641549 0.000000 0.569521
O O13 0.905423 0.500000 0.633125
#
# Coordination Sequence:
#
# PCOD9219917 Si02
#       6
#     8   2   8   8   8   8
#     4   9  19  36  63  90 125 172 213 255 317 376
#     4  12  26  48  76 102 126 154 202 268 324 386
#     4   9  16  29  53  83 117 169 224 262 305 361
#     4   8  14  28  52  82 117 167 223 263 302 362
#     4  11  23  46  73  95 127 166 206 250 323 395
#     4  11  21  36  60  93 130 167 211 268 310 368
#
# _framework density 26.467524000000001
#
# number of rings (size 3 to 8) (size 9 to 14) (size 15 to 20)
#    0.000    2.286    2.857    2.000    0.000    0.762 
#    3.429    2.857    2.095    0.000    0.000    0.000 
#    0.000    0.000    0.000    0.000    0.000    0.000 
#
# Total GULP energy -117297.323661 kJ/mol
# GULP energy per Si atom -5585.586841 kJ/mol
# Density = 2.640728 g / cm^3
# Si number density = 26.467524 Si / 1000 Ang^3
#
#
#
# Elastic Constant Matrix: (Units=GPa)
#
#
# Indices 1 2 3 4 5 6 
#
# 1 136.4098 19.7314 37.2534 0.0000 41.5274 0.0000
# 2 19.7314 123.3611 5.5915 0.0000 25.6938 0.0000
# 3 37.2534 5.5915 155.4082 0.0000 23.0169 0.0000
# 4 0.0000 0.0000 0.0000 5.1543 0.0000 5.2860
# 5 41.5274 25.6938 23.0169 0.0000 50.2950 0.0000
# 6 0.0000 0.0000 0.0000 5.2860 0.0000 -1.8948
#
#
#
# Elastic Compliance Matrix: (Units=1/GPa)
#
#
# Indices 1 2 3 4 5 6 
#
# 1 0.010018 0.000064 -0.001259 0.000000 -0.007728 0.000000
# 2 0.000064 0.009094 0.000379 0.000000 -0.004872 0.000000
# 3 -0.001259 0.000379 0.007077 0.000000 -0.002393 0.000000
# 4 0.000000 0.000000 0.000000 0.050248 0.000000 0.140182
# 5 -0.007728 -0.004872 -0.002393 0.000000 0.029848 0.000000
# 6 0.000000 0.000000 0.000000 0.140182 0.000000 -0.136689
#
#
# Mechanical properties :
#
#
# Convention : Reuss Voigt Hill
#
# Bulk Modulus (GPa) = 40.72099 60.03685 50.37892
# Shear Modulus (GPa) = -242.87433 34.21776 -104.32829
#
# Velocity S-wave (km/s) = -9.58970 3.59948 -6.28514
# Velocity P-wave (km/s) = 10.35364 6.32515 5.79613
#
# Compressibility (1/GPa) = 0.02455736
#
# Stress axis : x y z
#
# Youngs Moduli (GPa) = 99.81848 109.96757 141.29769
#
# Poissons Ratio (x) = -0.00708 0.17792
# Poissons Ratio (y) = -0.00642 -0.05355
# Poissons Ratio (z) = 0.12569 -0.04168
#
# Static dielectric constant tensor:
#      x y z
#    x 2.061400 0.000000 -0.010570 
#    y 0.000000 1.969010 0.000000 
#    z -0.010570 0.000000 2.104080 
# 
# From -- ./inp_files/221841.got.cif
#   From: 2010.05.17/outbox.cif.g08.bks.cpg/sg12_111_cif.got.tgz:221841.got - 2010.06.03 13:09:07.
