data_PCOD9219634
_publ_section_title
;
Structure prediction by ZEFSAII (Michael W. Deem and Ramdas Pophale) SiO2 
 PCOD9219634
Probable space group: C 2/M
;
_chemical_formula_sum "Si O2"
_cell_formula_units_Z 48
_cell_length_a 14.291404
_cell_length_b 22.169283
_cell_length_c 8.453848
_cell_angle_alpha 90.000000
_cell_angle_beta 66.261695
_cell_angle_gamma 90.000000
_cell_volume 2451.821688
_symmetry_space_group_name_H-M "C 2/M"
_symmetry_group_IT_number 12
_symmetry_cell_setting 'monoclinic'
loop_
_space_group_symop_operation_xyz
x,y,z
-x,y,-z
-x,-y,-z
x,-y,z
1/2+x,1/2+y,z
1/2-x,1/2+y,-z
1/2-x,1/2-y,-z
1/2+x,1/2-y,z
loop_
_atom_site_type_symbol
_atom_site_label
_atom_site_fract_x
_atom_site_fract_y
_atom_site_fract_z
Si Si1 0.772904 0.186405 0.393546
Si Si2 0.244779 0.668447 0.850837
Si Si3 0.124019 0.285886 0.243910
Si Si4 0.426736 0.221871 0.199635
Si Si5 0.121098 0.929738 0.094316
Si Si6 0.382830 0.428441 0.281147
O O1 0.750000 0.250000 0.500000
O O2 0.673120 0.177097 0.354072
O O3 0.869675 0.213848 0.229200
O O4 0.816207 0.121793 0.418639
O O5 0.333046 0.718120 0.762347
O O6 0.161879 0.671959 0.766072
O O7 0.300060 0.607612 0.856442
O O8 0.181370 0.689655 0.048355
O O9 0.003163 0.284918 0.294980
O O10 0.500000 0.218203 0.000000
O O11 0.003586 0.915558 0.218030
O O12 0.135025 0.000000 0.112746
O O13 0.136788 0.920026 0.894815
O O14 0.365147 0.500000 0.329279
#
# Coordination Sequence:
#
# PCOD9219634 Si02
#       6
#     8   8   8   8   8   8
#     4  11  21  31  50  78 106 138 179 219 262 310
#     4   9  15  27  48  73  99 131 167 209 261 308
#     4   9  17  29  46  70 102 135 165 214 267 302
#     4   9  19  31  50  73 100 136 167 212 274 310
#     4   9  16  27  50  79 105 136 168 209 263 318
#     4   9  18  30  48  76 108 138 171 212 264 318
#
# _framework density 19.577279000000001
#
# number of rings (size 3 to 8) (size 9 to 14) (size 15 to 20)
#    0.000    2.667    1.667    3.000    2.333    0.667 
#    0.000    0.000    0.000    9.500    0.000   11.667 
#    0.000    0.000    0.000    0.000    0.000    0.000 
#
# Total GULP energy -133617.228127 kJ/mol
# GULP energy per Si atom -5567.384505 kJ/mol
# Density = 1.953272 g / cm^3
# Si number density = 19.577279 Si / 1000 Ang^3
#
#
#
# Elastic Constant Matrix: (Units=GPa)
#
#
# Indices 1 2 3 4 5 6 
#
# 1 169.2687 59.2041 15.5499 0.0000 9.9998 0.0000
# 2 59.2041 95.1323 23.9244 0.0000 -12.5391 0.0000
# 3 15.5499 23.9244 26.9273 0.0000 -8.4987 0.0000
# 4 0.0000 0.0000 0.0000 23.9762 0.0000 -1.1461
# 5 9.9998 -12.5391 -8.4987 0.0000 24.0803 0.0000
# 6 0.0000 0.0000 0.0000 -1.1461 0.0000 37.0573
#
#
#
# Elastic Compliance Matrix: (Units=1/GPa)
#
#
# Indices 1 2 3 4 5 6 
#
# 1 0.008542 -0.005740 -0.002133 0.000000 -0.007289 0.000000
# 2 -0.005740 0.017610 -0.009774 0.000000 0.008104 0.000000
# 3 -0.002133 -0.009774 0.051458 0.000000 0.013958 0.000000
# 4 0.000000 0.000000 0.000000 0.041770 0.000000 0.001292
# 5 -0.007289 0.008104 0.013958 0.000000 0.053701 0.000000
# 6 0.000000 0.000000 0.000000 0.001292 0.000000 0.027025
#
#
# Mechanical properties :
#
#
# Convention : Reuss Voigt Hill
#
# Bulk Modulus (GPa) = 23.63178 54.29835 38.96507
# Shear Modulus (GPa) = 20.03957 29.86607 24.95282
#
# Velocity S-wave (km/s) = 3.20287 3.91006 3.57400
# Velocity P-wave (km/s) = 5.07691 6.94121 6.08093
#
# Compressibility (1/GPa) = 0.04231589
#
# Stress axis : x y z
#
# Youngs Moduli (GPa) = 117.06669 56.78518 19.43330
#
# Poissons Ratio (x) = 0.32597 0.04146
# Poissons Ratio (y) = 0.67200 0.18993
# Poissons Ratio (z) = 0.24974 0.55500
#
# Static dielectric constant tensor:
#      x y z
#    x 1.743980 0.000000 0.012010 
#    y 0.000000 1.682890 0.000000 
#    z 0.012010 0.000000 1.877190 
# 
# From -- ./inp_files/63368.got.cif
#   From: 2010.05.17/outbox.cif.g08.bks.cpg/sg12_32_cif.got.tgz:63368.got - 2010.06.03 13:09:07.
