data_PCOD9219457
_publ_section_title
;
Structure prediction by ZEFSAII (Michael W. Deem and Ramdas Pophale) SiO2 
 PCOD9219457
Probable space group: C 2/M
;
_chemical_formula_sum "Si O2"
_cell_formula_units_Z 64
_cell_length_a 19.093701
_cell_length_b 29.962762
_cell_length_c 13.093538
_cell_angle_alpha 90.000000
_cell_angle_beta 28.722189
_cell_angle_gamma 90.000000
_cell_volume 3599.808888
_symmetry_space_group_name_H-M "C 2/M"
_symmetry_group_IT_number 12
_symmetry_cell_setting 'monoclinic'
loop_
_space_group_symop_operation_xyz
x,y,z
-x,y,-z
-x,-y,-z
x,-y,z
1/2+x,1/2+y,z
1/2-x,1/2+y,-z
1/2-x,1/2-y,-z
1/2+x,1/2-y,z
loop_
_atom_site_type_symbol
_atom_site_label
_atom_site_fract_x
_atom_site_fract_y
_atom_site_fract_z
Si Si1 0.342716 0.926242 0.153090
Si Si2 0.619373 0.776712 0.115727
Si Si3 0.857451 0.133050 0.252525
Si Si4 0.544884 0.049404 0.199106
Si Si5 0.352700 0.286745 0.418673
Si Si6 0.781585 0.049461 0.479361
Si Si7 0.656269 0.819483 0.850417
Si Si8 0.472655 0.862441 0.413885
O O1 0.229686 0.940830 0.384935
O O2 0.339481 0.872902 0.146856
O O3 0.500000 0.938799 0.000000
O O4 0.342465 0.945585 0.039391
O O5 0.500940 0.738602 0.248605
O O6 0.546818 0.817955 0.271052
O O7 0.750000 0.750000 0.000000
O O8 0.666588 0.797324 0.947130
O O9 0.862801 0.172888 0.326961
O O10 0.860146 0.087599 0.314898
O O11 0.700671 0.136506 0.394142
O O12 0.000000 0.135493 0.000000
O O13 0.384172 0.050341 0.352494
O O14 0.543847 0.092748 0.272952
O O15 0.562896 0.000000 0.223718
O O16 0.250000 0.250000 0.500000
O O17 0.280587 0.303621 0.615047
O O18 0.841336 0.000000 0.386361
O O19 0.500000 0.807622 0.000000
O O20 0.500000 0.862547 0.500000
#
# Coordination Sequence:
#
# PCOD9219457 Si02
#       8
#     8   8   8   8   8   8   8   8
#     4   9  15  28  54  87 120 144 181 238 301 345
#     4  12  28  41  61  89 122 159 197 248 306 350
#     4  11  24  40  60  89 118 158 205 250 294 354
#     4   9  17  32  57  87 117 153 194 238 297 360
#     4  12  24  39  63  88 116 156 202 241 291 358
#     4   9  17  32  55  88 122 150 187 243 303 356
#     4  11  20  38  62  88 119 154 195 246 291 346
#     4  11  24  42  58  85 125 157 199 252 298 352
#
# _framework density 17.778721000000001
#
# number of rings (size 3 to 8) (size 9 to 14) (size 15 to 20)
#    0.000    1.500    5.000    0.375    5.250    2.000 
#    0.000    0.000    0.000    0.000    0.000    0.000 
#    0.000    4.000    0.000    0.000    0.000    0.000 
#
# Total GULP energy -178496.128756 kJ/mol
# GULP energy per Si atom -5578.004024 kJ/mol
# Density = 1.773826 g / cm^3
# Si number density = 17.778721 Si / 1000 Ang^3
#
#
#
# Elastic Constant Matrix: (Units=GPa)
#
#
# Indices 1 2 3 4 5 6 
#
# 1 103.8493 75.0568 61.4315 -0.0044 16.5643 0.0014
# 2 75.0568 144.2622 67.7472 -0.0008 18.8513 0.0003
# 3 61.4315 67.7472 112.9073 -0.0065 25.6679 0.0036
# 4 -0.0044 -0.0008 -0.0065 27.3171 0.0042 11.2910
# 5 16.5643 18.8513 25.6679 0.0042 36.3394 -0.0015
# 6 0.0014 0.0003 0.0036 11.2910 -0.0015 20.0495
#
#
#
# Elastic Compliance Matrix: (Units=1/GPa)
#
#
# Indices 1 2 3 4 5 6 
#
# 1 0.017766 -0.006524 -0.005576 0.000002 -0.000776 -0.000001
# 2 -0.006524 0.012083 -0.003517 -0.000002 -0.000811 0.000002
# 3 -0.005576 -0.003517 0.015496 0.000006 -0.006580 -0.000006
# 4 0.000002 -0.000002 0.000006 0.047713 -0.000011 -0.026870
# 5 -0.000776 -0.000811 -0.006580 -0.000011 0.032940 0.000010
# 6 -0.000001 0.000002 -0.000006 -0.026870 0.000010 0.065008
#
#
# Mechanical properties :
#
#
# Convention : Reuss Voigt Hill
#
# Bulk Modulus (GPa) = 70.85070 85.49887 78.17478
# Shear Modulus (GPa) = 22.03182 27.19343 24.61263
#
# Velocity S-wave (km/s) = 3.52408 3.91519 3.72477
# Velocity P-wave (km/s) = 7.51643 8.28452 7.90980
#
# Compressibility (1/GPa) = 0.01411419
#
# Stress axis : x y z
#
# Youngs Moduli (GPa) = 56.28629 82.75881 64.53134
#
# Poissons Ratio (x) = 0.53989 0.35981
# Poissons Ratio (y) = 0.36719 0.22693
# Poissons Ratio (z) = 0.31384 0.29102
#
# Static dielectric constant tensor:
#      x y z
#    x 1.580180 0.000000 0.018170 
#    y 0.000000 1.607390 0.000000 
#    z 0.018170 0.000000 1.606480 
# 
# From -- ./inp_files/161174.got.cif
#   From: 2010.05.17/outbox.cif.g08.bks.cpg/sg12_81_cif.got.tgz:161174.got - 2010.06.03 13:09:07.
