data_PCOD9219167
_publ_section_title
;
Structure prediction by ZEFSAII (Michael W. Deem and Ramdas Pophale) SiO2 
 PCOD9219167
Probable space group: C 2/M
;
_chemical_formula_sum "Si O2"
_cell_formula_units_Z 40
_cell_length_a 26.007522
_cell_length_b 8.953179
_cell_length_c 18.492333
_cell_angle_alpha 90.000000
_cell_angle_beta 147.002902
_cell_angle_gamma 90.000000
_cell_volume 2344.999951
_symmetry_space_group_name_H-M "C 2/M"
_symmetry_group_IT_number 12
_symmetry_cell_setting 'monoclinic'
loop_
_space_group_symop_operation_xyz
x,y,z
-x,y,-z
-x,-y,-z
x,-y,z
1/2+x,1/2+y,z
1/2-x,1/2+y,-z
1/2-x,1/2-y,-z
1/2+x,1/2-y,z
loop_
_atom_site_type_symbol
_atom_site_label
_atom_site_fract_x
_atom_site_fract_y
_atom_site_fract_z
Si Si1 0.215059 0.677431 0.198474
Si Si2 0.088032 0.172041 0.160334
Si Si3 0.350338 0.678465 0.139341
Si Si4 0.604271 0.822796 0.654050
Si Si5 0.936156 0.820775 0.088746
O O1 0.220412 0.500000 0.200509
O O2 0.168545 0.729111 0.219149
O O3 0.316058 0.750511 0.302729
O O4 0.144798 0.738705 0.052911
O O5 0.038068 0.220704 0.175837
O O6 0.119833 0.000000 0.203339
O O7 0.000000 0.174765 0.000000
O O8 0.339816 0.500000 0.134801
O O9 0.385018 0.749334 0.254625
O O10 0.419797 0.707875 0.153675
O O11 0.250000 0.750000 0.000000
O O12 0.500000 0.798501 0.500000
O O13 0.621789 0.000000 0.680303
O O14 0.925226 0.000000 0.063552
#
# Coordination Sequence:
#
# PCOD9219167 Si02
#       5
#     8   8   8   8   8
#     4  11  20  30  50  78 107 138 174 223 269 314
#     4   8  15  29  48  71 103 141 174 210 259 317
#     4  11  21  34  56  83 111 142 177 221 269 319
#     4  11  24  40  56  75 105 146 186 224 270 324
#     4   9  18  32  51  76 108 142 174 211 263 321
#
# _framework density 17.057569000000001
#
# number of rings (size 3 to 8) (size 9 to 14) (size 15 to 20)
#    0.000    2.000    2.000    4.200    0.000    6.000 
#    0.000    0.000    0.000    1.200    0.000    0.000 
#    0.000    0.000    0.000    0.000    0.000    0.000 
#
# Total GULP energy -111585.608793 kJ/mol
# GULP energy per Si atom -5579.280440 kJ/mol
# Density = 1.701875 g / cm^3
# Si number density = 17.057569 Si / 1000 Ang^3
#
#
#
# Elastic Constant Matrix: (Units=GPa)
#
#
# Indices 1 2 3 4 5 6 
#
# 1 177.7914 80.6665 56.4991 0.0000 15.0745 0.0000
# 2 80.6665 98.9328 55.0874 0.0000 12.2831 0.0000
# 3 56.4991 55.0874 58.0157 0.0000 4.0344 0.0000
# 4 0.0000 0.0000 0.0000 12.0468 0.0000 -5.3960
# 5 15.0745 12.2831 4.0344 0.0000 19.3863 0.0000
# 6 0.0000 0.0000 0.0000 -5.3960 0.0000 26.9620
#
#
#
# Elastic Compliance Matrix: (Units=1/GPa)
#
#
# Indices 1 2 3 4 5 6 
#
# 1 0.009534 -0.004910 -0.004386 0.000000 -0.003389 0.000000
# 2 -0.004910 0.025846 -0.019164 0.000000 -0.008570 0.000000
# 3 -0.004386 -0.019164 0.039191 0.000000 0.007397 0.000000
# 4 0.000000 0.000000 0.000000 0.091184 0.000000 0.018249
# 5 -0.003389 -0.008570 0.007397 0.000000 0.058109 0.000000
# 6 0.000000 0.000000 0.000000 0.018249 0.000000 0.040742
#
#
# Mechanical properties :
#
#
# Convention : Reuss Voigt Hill
#
# Bulk Modulus (GPa) = 56.65851 79.91621 68.28736
# Shear Modulus (GPa) = 15.27142 21.17814 18.22478
#
# Velocity S-wave (km/s) = 2.99538 3.52741 3.27223
# Velocity P-wave (km/s) = 6.72690 7.97137 7.37543
#
# Compressibility (1/GPa) = 0.01764960
#
# Stress axis : x y z
#
# Youngs Moduli (GPa) = 104.89095 38.69035 25.51629
#
# Poissons Ratio (x) = 0.18998 0.11192
# Poissons Ratio (y) = 0.51504 0.48899
# Poissons Ratio (z) = 0.46009 0.74146
#
# Static dielectric constant tensor:
#      x y z
#    x 1.622720 0.000000 0.003170 
#    y 0.000000 1.570290 0.000000 
#    z 0.003170 0.000000 1.533470 
# 
# From -- ./inp_files/228941.got.cif
#   From: 2010.05.17/outbox.cif.g08.bks.cpg/sg12_115_cif.got.tgz:228941.got - 2010.06.03 13:09:07.
