data_PCOD9219968
_publ_section_title
;
Structure prediction by ZEFSAII (Michael W. Deem and Ramdas Pophale) SiO2 
 PCOD9219968
Probable space group: C 2/M
;
_chemical_formula_sum "Si O2"
_cell_formula_units_Z 56
_cell_length_a 9.922498
_cell_length_b 25.331600
_cell_length_c 14.588518
_cell_angle_alpha 90.000000
_cell_angle_beta 122.445192
_cell_angle_gamma 90.000000
_cell_volume 3094.485077
_symmetry_space_group_name_H-M "C 2/M"
_symmetry_group_IT_number 12
_symmetry_cell_setting 'monoclinic'
loop_
_space_group_symop_operation_xyz
x,y,z
-x,y,-z
-x,-y,-z
x,-y,z
1/2+x,1/2+y,z
1/2-x,1/2+y,-z
1/2-x,1/2-y,-z
1/2+x,1/2-y,z
loop_
_atom_site_type_symbol
_atom_site_label
_atom_site_fract_x
_atom_site_fract_y
_atom_site_fract_z
Si Si1 0.996436 0.158318 0.246923
Si Si2 0.850196 0.809623 0.384827
Si Si3 0.152628 0.686592 0.614849
Si Si4 0.950289 0.560549 0.129873
Si Si5 0.561880 0.749165 0.919375
Si Si6 0.499024 0.838313 0.748463
Si Si7 0.270138 0.561087 0.126504
O O1 0.183501 0.155319 0.340413
O O2 0.902043 0.184090 0.298076
O O3 0.987038 0.197722 0.156730
O O4 0.907954 0.103505 0.193134
O O5 0.816928 0.748278 0.396336
O O6 0.687622 0.840372 0.344875
O O7 0.000000 0.827383 0.500000
O O8 0.099653 0.684168 0.701208
O O9 0.000000 0.668843 0.500000
O O10 0.940903 0.500000 0.157780
O O11 0.936170 0.604602 0.201120
O O12 0.123326 0.568112 0.144410
O O13 0.815538 0.568504 0.003086
O O14 0.509471 0.799601 0.840052
O O15 0.500000 0.750136 0.000000
O O16 0.750000 0.750000 0.000000
O O17 0.323299 0.500000 0.152358
#
# Coordination Sequence:
#
# PCOD9219968 Si02
#       7
#     8   8   8   8   8   8   8
#     4  12  21  38  58  85 118 152 189 237 292 336
#     4  11  21  37  59  83 112 151 200 239 279 341
#     4  11  23  39  57  84 118 153 196 239 286 346
#     4   9  19  36  60  87 114 150 195 234 277 339
#     4  12  24  34  51  84 122 150 179 224 286 346
#     4  12  21  37  59  84 117 153 189 234 290 339
#     4   9  19  36  60  87 114 151 194 233 277 342
#
# _framework density 18.096710000000002
#
# number of rings (size 3 to 8) (size 9 to 14) (size 15 to 20)
#    0.000    1.143    4.286    4.286    2.000    2.286 
#    0.000    0.714    0.000    7.286    0.000    0.000 
#    0.000    0.000    0.000    0.000    0.000    0.000 
#
# Total GULP energy -156424.335987 kJ/mol
# GULP energy per Si atom -5586.583428 kJ/mol
# Density = 1.805552 g / cm^3
# Si number density = 18.096710 Si / 1000 Ang^3
#
#
#
# Elastic Constant Matrix: (Units=GPa)
#
#
# Indices 1 2 3 4 5 6 
#
# 1 72.2017 13.3833 17.4509 0.0000 14.0957 0.0000
# 2 13.3833 90.4391 41.3442 0.0000 18.2127 0.0000
# 3 17.4509 41.3442 65.4205 0.0000 21.1308 0.0000
# 4 0.0000 0.0000 0.0000 26.2215 0.0000 6.9321
# 5 14.0957 18.2127 21.1308 0.0000 40.1265 0.0000
# 6 0.0000 0.0000 0.0000 6.9321 0.0000 19.1809
#
#
#
# Elastic Compliance Matrix: (Units=1/GPa)
#
#
# Indices 1 2 3 4 5 6 
#
# 1 0.015296 -0.000269 -0.002668 0.000000 -0.003846 0.000000
# 2 -0.000269 0.015728 -0.009149 0.000000 -0.002226 0.000000
# 3 -0.002668 -0.009149 0.024262 0.000000 -0.007687 0.000000
# 4 0.000000 0.000000 0.000000 0.042165 0.000000 -0.015239
# 5 -0.003846 -0.002226 -0.007687 0.000000 0.031331 0.000000
# 6 0.000000 0.000000 0.000000 -0.015239 0.000000 0.057643
#
#
# Mechanical properties :
#
#
# Convention : Reuss Voigt Hill
#
# Bulk Modulus (GPa) = 32.13993 41.37979 36.75986
# Shear Modulus (GPa) = 22.62790 27.49796 25.06293
#
# Velocity S-wave (km/s) = 3.53992 3.90231 3.72552
# Velocity P-wave (km/s) = 5.87424 6.57416 6.23403
#
# Compressibility (1/GPa) = 0.03111394
#
# Stress axis : x y z
#
# Youngs Moduli (GPa) = 65.37817 63.58252 41.21693
#
# Poissons Ratio (x) = 0.01713 0.10995
# Poissons Ratio (y) = 0.01762 0.37707
# Poissons Ratio (z) = 0.17440 0.58169
#
# Static dielectric constant tensor:
#      x y z
#    x 1.613730 0.000000 0.006430 
#    y 0.000000 1.611830 0.000000 
#    z 0.006430 0.000000 1.634150 
# 
# From -- ./inp_files/185129.got.cif
#   From: 2010.05.17/outbox.cif.g08.bks.cpg/sg12_93_cif.got.tgz:185129.got - 2010.06.03 13:09:07.
