data_PCOD9219513
_publ_section_title
;
Structure prediction by ZEFSAII (Michael W. Deem and Ramdas Pophale) SiO2 
 PCOD9219513
Probable space group: C 2/M
;
_chemical_formula_sum "Si O2"
_cell_formula_units_Z 32
_cell_length_a 23.568888
_cell_length_b 15.023389
_cell_length_c 9.438876
_cell_angle_alpha 90.000000
_cell_angle_beta 27.693110
_cell_angle_gamma 90.000000
_cell_volume 1553.220810
_symmetry_space_group_name_H-M "C 2/M"
_symmetry_group_IT_number 12
_symmetry_cell_setting 'monoclinic'
loop_
_space_group_symop_operation_xyz
x,y,z
-x,y,-z
-x,-y,-z
x,-y,z
1/2+x,1/2+y,z
1/2-x,1/2+y,-z
1/2-x,1/2-y,-z
1/2+x,1/2-y,z
loop_
_atom_site_type_symbol
_atom_site_label
_atom_site_fract_x
_atom_site_fract_y
_atom_site_fract_z
Si Si1 0.109951 0.759537 0.363941
Si Si2 0.191538 0.652832 0.639778
Si Si3 0.912158 0.100822 0.326134
Si Si4 0.557692 0.103472 0.667394
O O1 0.096773 0.827813 0.526820
O O2 0.083780 0.659300 0.471999
O O3 0.000000 0.784787 0.500000
O O4 0.250000 0.750000 0.000000
O O5 0.250000 0.750000 0.500000
O O6 0.280957 0.598137 0.541512
O O7 0.168506 0.614903 0.534066
O O8 0.060190 0.649773 0.002950
O O9 0.947143 0.000000 0.294642
O O10 0.000000 0.128003 0.000000
O O11 0.533486 0.000000 0.700978
#
# Coordination Sequence:
#
# PCOD9219513 Si02
#       4
#     8   8   8   8
#     4  12  28  46  68 101 143 191 234 291 364 431
#     4  11  20  39  71 103 136 171 228 294 347 409
#     4  11  24  43  71 102 136 180 234 292 352 421
#     4  11  24  42  69 102 137 182 234 289 349 422
#
# _framework density 20.602349
#
# number of rings (size 3 to 8) (size 9 to 14) (size 15 to 20)
#    0.000    0.750    2.500    6.000    3.500    2.000 
#    0.000    0.000    0.000    0.000    0.000    0.000 
#    0.000    0.000    0.000    0.000    0.000    0.000 
#
# Total GULP energy -89303.701712 kJ/mol
# GULP energy per Si atom -5581.481357 kJ/mol
# Density = 2.055546 g / cm^3
# Si number density = 20.602349 Si / 1000 Ang^3
#
#
#
# Elastic Constant Matrix: (Units=GPa)
#
#
# Indices 1 2 3 4 5 6 
#
# 1 134.7410 32.1163 55.1416 0.0000 -14.0335 0.0000
# 2 32.1163 168.7705 64.5257 0.0000 8.8969 0.0000
# 3 55.1416 64.5257 125.4444 0.0000 0.7836 0.0000
# 4 0.0000 0.0000 0.0000 -10.7565 0.0000 -30.4524
# 5 -14.0335 8.8969 0.7836 0.0000 26.1588 0.0000
# 6 0.0000 0.0000 0.0000 -30.4524 0.0000 4.8989
#
#
#
# Elastic Compliance Matrix: (Units=1/GPa)
#
#
# Indices 1 2 3 4 5 6 
#
# 1 0.009798 -0.000621 -0.004022 0.000000 0.005588 0.000000
# 2 -0.000621 0.007568 -0.003602 0.000000 -0.002799 0.000000
# 3 -0.004022 -0.003602 0.011601 0.000000 -0.001280 0.000000
# 4 0.000000 0.000000 0.000000 -0.004999 0.000000 -0.031072
# 5 0.005588 -0.002799 -0.001280 0.000000 0.042216 0.000000
# 6 0.000000 0.000000 0.000000 -0.031072 0.000000 0.010976
#
#
# Mechanical properties :
#
#
# Convention : Reuss Voigt Hill
#
# Bulk Modulus (GPa) = 80.15948 81.39142 80.77545
# Shear Modulus (GPa) = 51.11953 22.53838 36.82895
#
# Velocity S-wave (km/s) = 4.98662 3.31111 4.23260
# Velocity P-wave (km/s) = 8.49397 7.36272 7.94849
#
# Compressibility (1/GPa) = 0.01247513
#
# Stress axis : x y z
#
# Youngs Moduli (GPa) = 102.06414 132.13006 86.20210
#
# Poissons Ratio (x) = 0.08209 0.34672
# Poissons Ratio (y) = 0.06341 0.31053
# Poissons Ratio (z) = 0.41052 0.47598
#
# Static dielectric constant tensor:
#      x y z
#    x 1.784050 0.000000 -0.021030 
#    y 0.000000 1.749370 0.000000 
#    z -0.021030 0.000000 1.827730 
# 
# From -- ./inp_files/45221.got.cif
#   From: 2010.05.17/outbox.cif.g08.bks.cpg/sg12_23_cif.got.tgz:45221.got - 2010.06.03 13:09:07.
