data_PCOD9219358
_publ_section_title
;
Structure prediction by ZEFSAII (Michael W. Deem and Ramdas Pophale) SiO2 
 PCOD9219358
Probable space group: C 2/M
;
_chemical_formula_sum "Si O2"
_cell_formula_units_Z 48
_cell_length_a 24.326741
_cell_length_b 13.688794
_cell_length_c 12.467663
_cell_angle_alpha 90.000000
_cell_angle_beta 32.991914
_cell_angle_gamma 90.000000
_cell_volume 2260.729204
_symmetry_space_group_name_H-M "C 2/M"
_symmetry_group_IT_number 12
_symmetry_cell_setting 'monoclinic'
loop_
_space_group_symop_operation_xyz
x,y,z
-x,y,-z
-x,-y,-z
x,-y,z
1/2+x,1/2+y,z
1/2-x,1/2+y,-z
1/2-x,1/2-y,-z
1/2+x,1/2-y,z
loop_
_atom_site_type_symbol
_atom_site_label
_atom_site_fract_x
_atom_site_fract_y
_atom_site_fract_z
Si Si1 0.817700 0.784247 0.617613
Si Si2 0.382696 0.885931 0.655187
Si Si3 0.667252 0.885731 0.714244
Si Si4 0.495585 0.111103 0.180463
Si Si5 0.346630 0.211347 0.931441
Si Si6 0.521024 0.385667 0.339375
O O1 0.851672 0.675915 0.600821
O O2 0.751948 0.813369 0.621376
O O3 0.918248 0.849373 0.451827
O O4 0.742963 0.811084 0.839415
O O5 0.500000 0.875869 0.500000
O O6 0.327780 0.837850 0.847827
O O7 0.360277 0.000000 0.680156
O O8 0.607626 0.852176 0.705074
O O9 0.701104 0.000000 0.646220
O O10 0.579527 0.889052 0.948309
O O11 0.552918 0.164411 0.180933
O O12 0.477237 0.000000 0.243922
O O13 0.384548 0.322110 0.853884
O O14 0.500000 0.366612 0.500000
O O15 0.537424 0.500000 0.296848
#
# Coordination Sequence:
#
# PCOD9219358 Si02
#       6
#     8   8   8   8   8   8
#     4  11  20  36  57  80 109 145 185 222 271 332
#     4  11  22  36  53  76 110 143 177 226 278 324
#     4   8  15  29  52  82 110 140 180 227 270 317
#     4   8  15  29  52  82 111 139 180 227 271 317
#     4  11  20  36  57  83 110 144 183 225 275 329
#     4  11  23  38  54  78 115 150 183 227 276 329
#
# _framework density 21.232087
#
# number of rings (size 3 to 8) (size 9 to 14) (size 15 to 20)
#    0.000    2.000    3.333    2.500    0.000    2.667 
#    0.000    0.833    0.000    1.000    0.000    4.667 
#    0.000    0.000    0.000    0.000    0.000    0.000 
#
# Total GULP energy -133959.059023 kJ/mol
# GULP energy per Si atom -5581.627459 kJ/mol
# Density = 2.118376 g / cm^3
# Si number density = 21.232087 Si / 1000 Ang^3
#
#
#
# Elastic Constant Matrix: (Units=GPa)
#
#
# Indices 1 2 3 4 5 6 
#
# 1 139.7019 50.6028 13.3039 0.0000 -31.6799 0.0000
# 2 50.6028 109.1411 11.0973 0.0000 -22.9203 0.0000
# 3 13.3039 11.0973 81.3316 0.0000 -16.1850 0.0000
# 4 0.0000 0.0000 0.0000 19.7629 0.0000 -3.7129
# 5 -31.6799 -22.9203 -16.1850 0.0000 37.7575 0.0000
# 6 0.0000 0.0000 0.0000 -3.7129 0.0000 31.1806
#
#
#
# Elastic Compliance Matrix: (Units=1/GPa)
#
#
# Indices 1 2 3 4 5 6 
#
# 1 0.009730 -0.003207 0.000091 0.000000 0.006256 0.000000
# 2 -0.003207 0.011560 -0.000210 0.000000 0.004237 0.000000
# 3 0.000091 -0.000210 0.013446 0.000000 0.005713 0.000000
# 4 0.000000 0.000000 0.000000 0.051758 0.000000 0.006163
# 5 0.006256 0.004237 0.005713 0.000000 0.036755 0.000000
# 6 0.000000 0.000000 0.000000 0.006163 0.000000 0.032805
#
#
# Mechanical properties :
#
#
# Convention : Reuss Voigt Hill
#
# Bulk Modulus (GPa) = 35.60578 53.35363 44.47970
# Shear Modulus (GPa) = 29.05869 34.75157 31.90513
#
# Velocity S-wave (km/s) = 3.70350 4.05006 3.88065
# Velocity P-wave (km/s) = 5.92403 6.85959 6.40890
#
# Compressibility (1/GPa) = 0.02808533
#
# Stress axis : x y z
#
# Youngs Moduli (GPa) = 102.77964 86.50275 74.37214
#
# Poissons Ratio (x) = 0.27737 -0.00676
# Poissons Ratio (y) = 0.32957 0.01559
# Poissons Ratio (z) = -0.00934 0.01813
#
# Static dielectric constant tensor:
#      x y z
#    x 1.783690 0.000000 -0.005660 
#    y 0.000000 1.767300 0.000000 
#    z -0.005660 0.000000 1.802160 
# 
# From -- ./inp_files/240768.got.cif
#   From: 2010.05.17/outbox.cif.g08.bks.cpg/sg12_121_cif.got.tgz:240768.got - 2010.06.03 13:09:07.
