data_PCOD9219322
_publ_section_title
;
Structure prediction by ZEFSAII (Michael W. Deem and Ramdas Pophale) SiO2 
 PCOD9219322
Probable space group: C 2/M
;
_chemical_formula_sum "Si O2"
_cell_formula_units_Z 44
_cell_length_a 11.864307
_cell_length_b 19.996223
_cell_length_c 9.482883
_cell_angle_alpha 90.000000
_cell_angle_beta 105.718454
_cell_angle_gamma 90.000000
_cell_volume 2165.602008
_symmetry_space_group_name_H-M "C 2/M"
_symmetry_group_IT_number 12
_symmetry_cell_setting 'monoclinic'
loop_
_space_group_symop_operation_xyz
x,y,z
-x,y,-z
-x,-y,-z
x,-y,z
1/2+x,1/2+y,z
1/2-x,1/2+y,-z
1/2-x,1/2-y,-z
1/2+x,1/2-y,z
loop_
_atom_site_type_symbol
_atom_site_label
_atom_site_fract_x
_atom_site_fract_y
_atom_site_fract_z
Si Si1 0.604888 0.775949 0.644071
Si Si2 0.302019 0.370970 0.242702
Si Si3 0.551238 0.182397 0.173878
Si Si4 0.500000 0.388546 0.500000
Si Si5 0.845017 0.824509 0.695048
Si Si6 0.358783 0.423872 0.953765
O O1 0.500000 0.767514 0.500000
O O2 0.648659 0.705075 0.721502
O O3 0.554302 0.822859 0.750226
O O4 0.715817 0.805484 0.600464
O O5 0.164433 0.365085 0.233251
O O6 0.390366 0.415807 0.368570
O O7 0.316142 0.392906 0.086271
O O8 0.596880 0.258491 0.216847
O O9 0.500000 0.175838 0.000000
O O10 0.423866 0.352860 0.597070
O O11 0.826996 0.878448 0.810868
O O12 0.316938 0.500000 0.926205
O O13 0.500000 0.424536 0.000000
#
# Coordination Sequence:
#
# PCOD9219322 Si02
#       6
#     8   8   8   4   8   8
#     4  11  20  35  58  87 122 155 182 219 289 361
#     4  11  21  36  58  85 120 150 184 239 280 343
#     4  11  21  34  56  85 118 153 190 224 284 353
#     4  12  20  36  55  82 122 146 181 230 290 334
#     4  11  22  36  57  84 120 154 185 238 281 341
#     4  11  22  40  60  81 111 149 197 242 284 328
#
# _framework density 20.317675999999999
#
# number of rings (size 3 to 8) (size 9 to 14) (size 15 to 20)
#    0.000    0.909    4.545    3.818    0.000    5.818 
#    0.000    1.818    0.000    5.455    0.000    0.000 
#    0.000    0.000    0.000    0.000    0.000    0.000 
#
# Total GULP energy -122744.418836 kJ/mol
# GULP energy per Si atom -5579.291765 kJ/mol
# Density = 2.027143 g / cm^3
# Si number density = 20.317676 Si / 1000 Ang^3
#
#
#
# Elastic Constant Matrix: (Units=GPa)
#
#
# Indices 1 2 3 4 5 6 
#
# 1 115.9484 13.2736 28.2385 0.0000 6.7527 0.0000
# 2 13.2736 51.6521 21.2105 0.0000 -2.7073 0.0000
# 3 28.2385 21.2105 114.0994 0.0000 -7.2337 0.0000
# 4 0.0000 0.0000 0.0000 -3.2560 0.0000 7.6370
# 5 6.7527 -2.7073 -7.2337 0.0000 36.1667 0.0000
# 6 0.0000 0.0000 0.0000 7.6370 0.0000 30.8978
#
#
#
# Elastic Compliance Matrix: (Units=1/GPa)
#
#
# Indices 1 2 3 4 5 6 
#
# 1 0.009483 -0.001662 -0.002186 0.000000 -0.002332 0.000000
# 2 -0.001662 0.021274 -0.003467 0.000000 0.001209 0.000000
# 3 -0.002186 -0.003467 0.010087 0.000000 0.002166 0.000000
# 4 0.000000 0.000000 0.000000 -0.194415 0.000000 0.048054
# 5 -0.002332 0.001209 0.002166 0.000000 0.028609 0.000000
# 6 0.000000 0.000000 0.000000 0.048054 0.000000 0.020487
#
#
# Mechanical properties :
#
#
# Convention : Reuss Voigt Hill
#
# Bulk Modulus (GPa) = 38.14521 45.23834 41.69177
# Shear Modulus (GPa) = -61.64700 27.36018 -17.14341
#
# Velocity S-wave (km/s) = -5.51429 3.67361 -2.90792
# Velocity P-wave (km/s) = 4.66134 6.34884 3.04792
#
# Compressibility (1/GPa) = 0.02621561
#
# Stress axis : x y z
#
# Youngs Moduli (GPa) = 105.45268 47.00503 99.13668
#
# Poissons Ratio (x) = 0.07810 0.21670
# Poissons Ratio (y) = 0.17522 0.34370
# Poissons Ratio (z) = 0.23051 0.16296
#
# Static dielectric constant tensor:
#      x y z
#    x 1.773660 0.000000 0.019600 
#    y 0.000000 1.744780 0.000000 
#    z 0.019600 0.000000 1.729950 
# 
# From -- ./inp_files/49373.got.cif
#   From: 2010.05.17/outbox.cif.g08.bks.cpg/sg12_25_cif.got.tgz:49373.got - 2010.06.03 13:09:07.
