data_PCOD9219957
_publ_section_title
;
Structure prediction by ZEFSAII (Michael W. Deem and Ramdas Pophale) SiO2 
 PCOD9219957
Probable space group: C 2/M
;
_chemical_formula_sum "Si O2"
_cell_formula_units_Z 56
_cell_length_a 12.166385
_cell_length_b 24.822187
_cell_length_c 12.478528
_cell_angle_alpha 90.000000
_cell_angle_beta 130.290743
_cell_angle_gamma 90.000000
_cell_volume 2874.485782
_symmetry_space_group_name_H-M "C 2/M"
_symmetry_group_IT_number 12
_symmetry_cell_setting 'monoclinic'
loop_
_space_group_symop_operation_xyz
x,y,z
-x,y,-z
-x,-y,-z
x,-y,z
1/2+x,1/2+y,z
1/2-x,1/2+y,-z
1/2-x,1/2-y,-z
1/2+x,1/2-y,z
loop_
_atom_site_type_symbol
_atom_site_label
_atom_site_fract_x
_atom_site_fract_y
_atom_site_fract_z
Si Si1 0.372049 0.678424 0.134731
Si Si2 0.348059 0.324761 0.368481
Si Si3 0.931285 0.706874 0.074972
Si Si4 0.169922 0.703921 0.589408
Si Si5 0.111788 0.643181 0.346564
Si Si6 0.596480 0.062307 0.669491
Si Si7 0.884300 0.131635 0.830111
O O1 0.362412 0.691570 0.254050
O O2 0.399496 0.730492 0.077233
O O3 0.500157 0.636520 0.194203
O O4 0.205759 0.666901 0.004200
O O5 0.500000 0.346681 0.500000
O O6 0.319294 0.268009 0.411570
O O7 0.227249 0.367394 0.325790
O O8 0.024372 0.691243 0.236302
O O9 0.000000 0.701287 0.000000
O O10 0.196233 0.666177 0.503180
O O11 0.280480 0.684103 0.750354
O O12 0.000000 0.693458 0.500000
O O13 0.999487 0.597579 0.309399
O O14 0.500000 0.065065 0.500000
O O15 0.758561 0.086391 0.756078
O O16 0.607332 0.000000 0.707846
O O17 0.000000 0.130022 0.000000
#
# Coordination Sequence:
#
# PCOD9219957 Si02
#       7
#     8   8   8   8   8   8   8
#     4  11  24  34  55  89 136 168 208 244 300 368
#     4  11  23  34  55  91 131 172 209 246 295 365
#     4  11  22  37  55  90 130 179 210 240 293 373
#     4  11  21  37  57  89 126 173 208 238 294 370
#     4  12  20  40  64  83 124 163 212 258 303 369
#     4  11  25  46  71  93 114 156 214 268 324 374
#     4  12  23  39  64  93 126 156 202 264 316 357
#
# _framework density 19.481746000000001
#
# number of rings (size 3 to 8) (size 9 to 14) (size 15 to 20)
#    0.000    0.714    4.286    5.143    4.000    0.286 
#    0.000    0.000    0.000    1.714    0.000    0.000 
#    0.000    0.000    0.000    0.000    0.000    0.000 
#
# Total GULP energy -155936.697797 kJ/mol
# GULP energy per Si atom -5569.167778 kJ/mol
# Density = 1.943740 g / cm^3
# Si number density = 19.481746 Si / 1000 Ang^3
#
#
#
# Elastic Constant Matrix: (Units=GPa)
#
#
# Indices 1 2 3 4 5 6 
#
# 1 134.6808 62.5434 37.6685 0.0000 16.4897 0.0000
# 2 62.5434 65.9907 12.4406 0.0000 -4.2294 0.0000
# 3 37.6685 12.4406 104.6534 0.0000 20.9512 0.0000
# 4 0.0000 0.0000 0.0000 15.9358 0.0000 0.0073
# 5 16.4897 -4.2294 20.9512 0.0000 30.3926 0.0000
# 6 0.0000 0.0000 0.0000 0.0073 0.0000 24.5889
#
#
#
# Elastic Compliance Matrix: (Units=1/GPa)
#
#
# Indices 1 2 3 4 5 6 
#
# 1 0.016656 -0.016012 -0.002130 0.000000 -0.009796 0.000000
# 2 -0.016012 0.031320 -0.000663 0.000000 0.013503 0.000000
# 3 -0.002130 -0.000663 0.011819 0.000000 -0.007084 0.000000
# 4 0.000000 0.000000 0.000000 0.062752 0.000000 -0.000019
# 5 -0.009796 0.013503 -0.007084 0.000000 0.044980 0.000000
# 6 0.000000 0.000000 0.000000 -0.000019 0.000000 0.040669
#
#
# Mechanical properties :
#
#
# Convention : Reuss Voigt Hill
#
# Bulk Modulus (GPa) = 45.07814 58.95888 52.01851
# Shear Modulus (GPa) = 19.74712 27.02828 23.38770
#
# Velocity S-wave (km/s) = 3.18720 3.72877 3.46857
# Velocity P-wave (km/s) = 6.06079 6.99054 6.54220
#
# Compressibility (1/GPa) = 0.02218370
#
# Stress axis : x y z
#
# Youngs Moduli (GPa) = 60.03840 31.92876 84.60830
#
# Poissons Ratio (x) = 0.51125 0.18025
# Poissons Ratio (y) = 0.96134 0.05610
# Poissons Ratio (z) = 0.12791 0.02117
#
# Static dielectric constant tensor:
#      x y z
#    x 1.795540 0.000000 0.016240 
#    y 0.000000 1.651300 0.000000 
#    z 0.016240 0.000000 1.784930 
# 
# From -- ./inp_files/137016.got.cif
#   From: 2010.05.17/outbox.cif.g08.bks.cpg/sg12_69_cif.got.tgz:137016.got - 2010.06.03 13:09:07.
