data_PCOD9219018
_publ_section_title
;
Structure prediction by ZEFSAII (Michael W. Deem and Ramdas Pophale) SiO2 
 PCOD9219018
Probable space group: C 2/M
;
_chemical_formula_sum "Si O2"
_cell_formula_units_Z 52
_cell_length_a 15.757086
_cell_length_b 24.064756
_cell_length_c 8.381618
_cell_angle_alpha 90.000000
_cell_angle_beta 84.387294
_cell_angle_gamma 90.000000
_cell_volume 3162.992060
_symmetry_space_group_name_H-M "C 2/M"
_symmetry_group_IT_number 12
_symmetry_cell_setting 'monoclinic'
loop_
_space_group_symop_operation_xyz
x,y,z
-x,y,-z
-x,-y,-z
x,-y,z
1/2+x,1/2+y,z
1/2-x,1/2+y,-z
1/2-x,1/2-y,-z
1/2+x,1/2-y,z
loop_
_atom_site_type_symbol
_atom_site_label
_atom_site_fract_x
_atom_site_fract_y
_atom_site_fract_z
Si Si1 0.949072 0.191378 0.289048
Si Si2 0.317465 0.379952 0.109560
Si Si3 0.563851 0.500000 0.238479
Si Si4 0.500000 0.226862 0.000000
Si Si5 0.116784 0.879802 0.267507
Si Si6 0.328483 0.276207 0.580956
Si Si7 0.623187 0.500000 0.855312
Si Si8 0.320062 0.791780 0.904155
O O1 0.874415 0.157020 0.216599
O O2 0.908000 0.221758 0.446817
O O3 0.025203 0.148910 0.307931
O O4 0.983785 0.234657 0.155315
O O5 0.323920 0.443176 0.167912
O O6 0.226821 0.350029 0.116014
O O7 0.357971 0.376553 0.924028
O O8 0.602936 0.444446 0.308102
O O9 0.460507 0.500000 0.243541
O O10 0.590509 0.500000 0.045910
O O11 0.592121 0.199201 0.015580
O O12 0.180287 0.840285 0.356025
O O13 0.250000 0.250000 0.500000
O O14 0.341364 0.238884 0.734586
O O15 0.250000 0.750000 0.000000
#
# Coordination Sequence:
#
# PCOD9219018 Si02
#       8
#     8   8   4   4   8   8   4   8
#     4  12  19  32  53  78 109 144 179 221 269 327
#     4  11  19  35  56  78 109 146 184 226 270 331
#     4   9  18  30  54  79 110 143 185 224 263 334
#     4  12  22  34  56  78 108 146 184 222 278 338
#     4  11  20  34  52  81 110 148 185 222 272 327
#     4  12  23  33  50  76 111 150 182 228 272 324
#     4   9  18  30  55  83 103 142 189 225 269 326
#     4  12  21  37  55  78 108 147 185 227 282 330
#
# _framework density 16.44013
#
# number of rings (size 3 to 8) (size 9 to 14) (size 15 to 20)
#    0.000    0.769    9.231    0.462    0.000    0.000 
#    0.000    2.308    0.000    0.462    0.000    0.000 
#    0.000    1.231    0.000    0.077    0.000    0.000 
#
# Total GULP energy -145005.638714 kJ/mol
# GULP energy per Si atom -5577.139951 kJ/mol
# Density = 1.640271 g / cm^3
# Si number density = 16.440130 Si / 1000 Ang^3
#
#
#
# Elastic Constant Matrix: (Units=GPa)
#
#
# Indices 1 2 3 4 5 6 
#
# 1 115.1517 65.9417 18.8347 0.0000 14.6717 0.0000
# 2 65.9417 109.1799 20.7985 0.0000 1.4954 0.0000
# 3 18.8347 20.7985 76.6921 0.0000 -14.1057 0.0000
# 4 0.0000 0.0000 0.0000 13.6464 0.0000 0.0118
# 5 14.6717 1.4954 -14.1057 0.0000 29.4424 0.0000
# 6 0.0000 0.0000 0.0000 0.0118 0.0000 30.5272
#
#
#
# Elastic Compliance Matrix: (Units=1/GPa)
#
#
# Indices 1 2 3 4 5 6 
#
# 1 0.015082 -0.008423 -0.002986 0.000000 -0.008518 0.000000
# 2 -0.008423 0.014462 -0.001334 0.000000 0.002824 0.000000
# 3 -0.002986 -0.001334 0.015814 0.000000 0.009132 0.000000
# 4 0.000000 0.000000 0.000000 0.073280 0.000000 -0.000028
# 5 -0.008518 0.002824 0.009132 0.000000 0.042441 0.000000
# 6 0.000000 0.000000 0.000000 -0.000028 0.000000 0.032758
#
#
# Mechanical properties :
#
#
# Convention : Reuss Voigt Hill
#
# Bulk Modulus (GPa) = 50.32574 56.90816 53.61695
# Shear Modulus (GPa) = 22.12909 27.75311 24.94110
#
# Velocity S-wave (km/s) = 3.67282 4.11315 3.89921
# Velocity P-wave (km/s) = 6.97597 7.56623 7.27709
#
# Compressibility (1/GPa) = 0.01987055
#
# Stress axis : x y z
#
# Youngs Moduli (GPa) = 66.30589 69.14621 63.23519
#
# Poissons Ratio (x) = 0.58244 0.18884
# Poissons Ratio (y) = 0.55852 0.08435
# Poissons Ratio (z) = 0.19801 0.09224
#
# Static dielectric constant tensor:
#      x y z
#    x 1.590740 0.000000 0.013460 
#    y 0.000000 1.558000 0.000000 
#    z 0.013460 0.000000 1.595280 
# 
# From -- ./inp_files/64783.got.cif
#   From: 2010.05.17/outbox.cif.g08.bks.cpg/sg12_33_cif.got.tgz:64783.got - 2010.06.03 13:09:07.
