data_PCOD9219342
_publ_section_title
;
Structure prediction by ZEFSAII (Michael W. Deem and Ramdas Pophale) SiO2 
 PCOD9219342
Probable space group: C 2/M
;
_chemical_formula_sum "Si O2"
_cell_formula_units_Z 48
_cell_length_a 11.798830
_cell_length_b 17.745831
_cell_length_c 21.512720
_cell_angle_alpha 90.000000
_cell_angle_beta 152.504109
_cell_angle_gamma 90.000000
_cell_volume 2079.583553
_symmetry_space_group_name_H-M "C 2/M"
_symmetry_group_IT_number 12
_symmetry_cell_setting 'monoclinic'
loop_
_space_group_symop_operation_xyz
x,y,z
-x,y,-z
-x,-y,-z
x,-y,z
1/2+x,1/2+y,z
1/2-x,1/2+y,-z
1/2-x,1/2-y,-z
1/2+x,1/2-y,z
loop_
_atom_site_type_symbol
_atom_site_label
_atom_site_fract_x
_atom_site_fract_y
_atom_site_fract_z
Si Si1 0.714263 0.151682 0.787911
Si Si2 0.370614 0.581350 0.073255
Si Si3 0.558635 0.915016 0.455125
Si Si4 0.578023 0.187914 0.132396
Si Si5 0.494258 0.368518 0.730246
Si Si6 0.282788 0.201511 0.658813
O O1 0.562666 0.145171 0.649170
O O2 0.872474 0.228185 0.868775
O O3 0.497021 0.149408 0.732380
O O4 0.927789 0.090574 0.882704
O O5 0.246113 0.500000 0.007569
O O6 0.510545 0.586148 0.207785
O O7 0.189483 0.652804 0.988422
O O8 0.500000 0.906356 0.500000
O O9 0.849035 0.903588 0.601793
O O10 0.500034 0.000000 0.406404
O O11 0.727837 0.137867 0.156853
O O12 0.700054 0.189955 0.259524
O O13 0.378594 0.285508 0.686518
O O14 0.000000 0.191414 0.500000
#
# Coordination Sequence:
#
# PCOD9219342 Si02
#       6
#     8   8   8   8   8   8
#     4  11  23  41  67  97 133 172 221 267 322 388
#     4  12  25  44  66  95 133 173 223 273 326 385
#     4  11  20  35  62  96 131 165 206 264 330 385
#     4  11  24  42  65  94 133 174 221 266 325 387
#     4  11  22  38  67  99 131 168 212 274 328 386
#     4  11  23  42  67  98 132 168 218 272 324 385
#
# _framework density 23.081544000000001
#
# number of rings (size 3 to 8) (size 9 to 14) (size 15 to 20)
#    0.000    0.833    3.333    4.500    0.000    5.333 
#    0.000    2.500    0.000    3.500    0.000    0.000 
#    0.000    0.000    0.000    0.000    0.000    0.000 
#
# Total GULP energy -134006.336809 kJ/mol
# GULP energy per Si atom -5583.597367 kJ/mol
# Density = 2.302901 g / cm^3
# Si number density = 23.081544 Si / 1000 Ang^3
#
#
#
# Elastic Constant Matrix: (Units=GPa)
#
#
# Indices 1 2 3 4 5 6 
#
# 1 112.5626 11.7575 6.3582 0.0007 19.9349 0.0008
# 2 11.7575 71.2727 21.0278 0.0036 9.4732 -0.0002
# 3 6.3582 21.0278 92.7958 0.0115 12.1347 -0.0035
# 4 0.0007 0.0036 0.0115 24.1029 0.0006 5.1838
# 5 19.9349 9.4732 12.1347 0.0006 42.5165 -0.0011
# 6 0.0008 -0.0002 -0.0035 5.1838 -0.0011 15.6856
#
#
#
# Elastic Compliance Matrix: (Units=1/GPa)
#
#
# Indices 1 2 3 4 5 6 
#
# 1 0.009763 -0.001072 0.000147 0.000000 -0.004381 -0.000001
# 2 -0.001072 0.015407 -0.003152 -0.000001 -0.002031 0.000000
# 3 0.000147 -0.003152 0.011840 -0.000006 -0.002746 0.000004
# 4 0.000000 -0.000001 -0.000006 0.044663 0.000001 -0.014760
# 5 -0.004381 -0.002031 -0.002746 0.000001 0.026810 0.000001
# 6 -0.000001 0.000000 0.000004 -0.014760 0.000001 0.068631
#
#
# Mechanical properties :
#
#
# Convention : Reuss Voigt Hill
#
# Bulk Modulus (GPa) = 34.65485 39.43533 37.04509
# Shear Modulus (GPa) = 25.65576 32.29352 28.97464
#
# Velocity S-wave (km/s) = 3.33757 3.74452 3.54689
# Velocity P-wave (km/s) = 5.46802 5.98478 5.73222
#
# Compressibility (1/GPa) = 0.02885599
#
# Stress axis : x y z
#
# Youngs Moduli (GPa) = 102.42278 64.90403 84.46184
#
# Poissons Ratio (x) = 0.06955 -0.01239
# Poissons Ratio (y) = 0.10976 0.26625
# Poissons Ratio (z) = -0.01503 0.20460
#
# Static dielectric constant tensor:
#      x y z
#    x 1.889860 0.000000 0.071970 
#    y 0.000000 1.870190 0.000000 
#    z 0.071970 0.000000 1.951100 
# 
# From -- ./inp_files/306843.got.cif
#   From: 2010.05.17/outbox.cif.g08.bks.cpg/sg12_154_cif.got.tgz:306843.got - 2010.06.03 13:09:07.
