data_PCOD9219208
_publ_section_title
;
Structure prediction by ZEFSAII (Michael W. Deem and Ramdas Pophale) SiO2 
 PCOD9219208
Probable space group: C 2/M
;
_chemical_formula_sum "Si O2"
_cell_formula_units_Z 56
_cell_length_a 26.201089
_cell_length_b 8.699149
_cell_length_c 19.881534
_cell_angle_alpha 90.000000
_cell_angle_beta 48.238788
_cell_angle_gamma 90.000000
_cell_volume 3380.199729
_symmetry_space_group_name_H-M "C 2/M"
_symmetry_group_IT_number 12
_symmetry_cell_setting 'monoclinic'
loop_
_space_group_symop_operation_xyz
x,y,z
-x,y,-z
-x,-y,-z
x,-y,z
1/2+x,1/2+y,z
1/2-x,1/2+y,-z
1/2-x,1/2-y,-z
1/2+x,1/2-y,z
loop_
_atom_site_type_symbol
_atom_site_label
_atom_site_fract_x
_atom_site_fract_y
_atom_site_fract_z
Si Si1 0.499466 0.685383 0.110197
Si Si2 0.611464 0.814417 0.397879
Si Si3 0.457497 0.184623 0.787430
Si Si4 0.009588 0.313504 0.598512
Si Si5 0.238181 0.816510 0.212832
Si Si6 0.111463 0.185161 0.901347
Si Si7 0.305971 0.315004 0.899339
O O1 0.499783 0.500000 0.116206
O O2 0.506370 0.760433 0.176483
O O3 0.432472 0.728998 0.125966
O O4 0.564871 0.728100 0.006591
O O5 0.577005 0.764051 0.498475
O O6 0.556293 0.770078 0.388669
O O7 0.683849 0.746099 0.314237
O O8 0.616094 0.000000 0.393787
O O9 0.497853 0.237102 0.684940
O O10 0.380998 0.252266 0.851051
O O11 0.452953 0.000000 0.790425
O O12 0.011044 0.500000 0.597215
O O13 0.314089 0.756505 0.159893
O O14 0.213961 0.767405 0.159228
O O15 0.237844 0.000000 0.214440
O O16 0.116946 0.000000 0.896689
O O17 0.306342 0.500000 0.902598
O O18 0.250000 0.250000 0.000000
#
# Coordination Sequence:
#
# PCOD9219208 Si02
#       7
#     8   8   8   8   8   8   8
#     4   9  19  36  55  76  99 130 175 215 249 296
#     4   9  16  32  54  72  97 135 173 206 241 299
#     4  11  20  32  52  78 105 133 165 206 254 302
#     4   8  16  30  51  76  99 130 173 207 240 298
#     4  11  22  33  48  76 107 131 164 212 260 298
#     4   9  19  36  56  73  96 135 177 211 246 299
#     4  11  23  35  47  70 105 140 169 202 248 302
#
# _framework density 16.567067999999999
#
# number of rings (size 3 to 8) (size 9 to 14) (size 15 to 20)
#    0.000    2.286    1.429    3.857    0.000    5.143 
#    0.000    4.286    0.000    0.857    0.000    0.000 
#    0.000    0.000    0.000    0.000    0.000    0.000 
#
# Total GULP energy -156212.472405 kJ/mol
# GULP energy per Si atom -5579.016872 kJ/mol
# Density = 1.652936 g / cm^3
# Si number density = 16.567068 Si / 1000 Ang^3
#
#
#
# Elastic Constant Matrix: (Units=GPa)
#
#
# Indices 1 2 3 4 5 6 
#
# 1 76.3788 23.0428 52.8150 0.0006 14.7254 -0.0033
# 2 23.0428 24.5351 26.6099 -0.0109 4.6694 0.0143
# 3 52.8150 26.6099 118.0599 0.0051 19.5459 -0.0119
# 4 0.0006 -0.0109 0.0051 19.1868 -0.0001 2.6742
# 5 14.7254 4.6694 19.5459 -0.0001 24.9233 0.0008
# 6 -0.0033 0.0143 -0.0119 2.6742 0.0008 26.3539
#
#
#
# Elastic Compliance Matrix: (Units=1/GPa)
#
#
# Indices 1 2 3 4 5 6 
#
# 1 0.022474 -0.013418 -0.006031 -0.000008 -0.006035 0.000008
# 2 -0.013418 0.061966 -0.008452 0.000044 0.002947 -0.000044
# 3 -0.006031 -0.008452 0.014045 -0.000010 -0.005868 0.000011
# 4 -0.000008 0.000044 -0.000010 0.052867 0.000005 -0.005365
# 5 -0.006035 0.002947 -0.005868 0.000005 0.047739 -0.000007
# 6 0.000008 -0.000044 0.000011 -0.005365 -0.000007 0.038489
#
#
# Mechanical properties :
#
#
# Convention : Reuss Voigt Hill
#
# Bulk Modulus (GPa) = 23.42824 47.10101 35.26463
# Shear Modulus (GPa) = 16.25440 21.85986 19.05713
#
# Velocity S-wave (km/s) = 3.13569 3.63640 3.39529
# Velocity P-wave (km/s) = 5.22324 6.79142 6.05829
#
# Compressibility (1/GPa) = 0.04268353
#
# Stress axis : x y z
#
# Youngs Moduli (GPa) = 44.49502 16.13792 71.20215
#
# Poissons Ratio (x) = 0.21654 0.42939
# Poissons Ratio (y) = 0.59705 0.60178
# Poissons Ratio (z) = 0.26833 0.13639
#
# Static dielectric constant tensor:
#      x y z
#    x 1.534010 0.000000 0.014870 
#    y 0.000000 1.559300 0.000000 
#    z 0.014870 0.000000 1.557950 
# 
# From -- ./inp_files/288166.got.cif
#   From: 2010.05.17/outbox.cif.g08.bks.cpg/sg12_145_cif.got.tgz:288166.got - 2010.06.03 13:09:07.
