data_PCOD9219333
_publ_section_title
;
Structure prediction by ZEFSAII (Michael W. Deem and Ramdas Pophale) SiO2 
 PCOD9219333
Probable space group: C 2/M
;
_chemical_formula_sum "Si O2"
_cell_formula_units_Z 64
_cell_length_a 25.745085
_cell_length_b 20.106390
_cell_length_c 9.977989
_cell_angle_alpha 90.000000
_cell_angle_beta 41.801625
_cell_angle_gamma 90.000000
_cell_volume 3442.758346
_symmetry_space_group_name_H-M "C 2/M"
_symmetry_group_IT_number 12
_symmetry_cell_setting 'monoclinic'
loop_
_space_group_symop_operation_xyz
x,y,z
-x,y,-z
-x,-y,-z
x,-y,z
1/2+x,1/2+y,z
1/2-x,1/2+y,-z
1/2-x,1/2-y,-z
1/2+x,1/2-y,z
loop_
_atom_site_type_symbol
_atom_site_label
_atom_site_fract_x
_atom_site_fract_y
_atom_site_fract_z
Si Si1 0.685221 0.803442 0.931218
Si Si2 0.716047 0.424118 0.809987
Si Si3 0.048859 0.882055 0.032410
Si Si4 0.085363 0.733226 0.376165
Si Si5 0.584721 0.228939 0.883165
Si Si6 0.225460 0.074545 0.111392
Si Si7 0.185160 0.298521 0.429367
Si Si8 0.057527 0.113055 0.503723
O O1 0.622638 0.810652 0.933058
O O2 0.722420 0.870827 0.915549
O O3 0.752226 0.755513 0.743412
O O4 0.642470 0.769967 0.139741
O O5 0.742886 0.500000 0.739520
O O6 0.770301 0.368176 0.639481
O O7 0.629188 0.416984 0.918016
O O8 0.715192 0.410076 0.972280
O O9 0.989672 0.887162 0.269050
O O10 0.071501 0.804988 0.958162
O O11 0.000000 0.907891 0.000000
O O12 0.122242 0.695733 0.431208
O O13 0.075748 0.809978 0.435478
O O14 0.000000 0.707785 0.500000
O O15 0.642857 0.225883 0.645093
O O16 0.500000 0.204159 0.000000
O O17 0.139870 0.077205 0.341406
O O18 0.257501 0.000000 0.060595
O O19 0.000000 0.086402 0.500000
#
# Coordination Sequence:
#
# PCOD9219333 Si02
#       8
#     8   8   8   8   8   8   8   8
#     4  12  22  38  64  93 120 162 211 262 309 363
#     4  11  24  42  62  91 130 170 208 258 315 368
#     4  11  23  38  60  93 133 168 204 248 305 383
#     4  11  21  34  61  93 121 153 209 262 311 366
#     4  11  24  40  62  93 131 159 198 262 323 368
#     4  11  24  40  62  93 127 167 211 264 313 364
#     4  12  22  39  65  92 124 166 208 259 315 364
#     4  11  20  35  60  90 125 166 205 247 306 382
#
# _framework density 18.589745000000001
#
# number of rings (size 3 to 8) (size 9 to 14) (size 15 to 20)
#    0.000    0.750    5.000    5.250    0.000    1.000 
#    0.000    1.875    0.000    4.500    0.000    0.000 
#    0.000    0.000    0.000    0.000    0.000    0.000 
#
# Total GULP energy -178904.124572 kJ/mol
# GULP energy per Si atom -5590.753893 kJ/mol
# Density = 1.854743 g / cm^3
# Si number density = 18.589745 Si / 1000 Ang^3
#
#
#
# Elastic Constant Matrix: (Units=GPa)
#
#
# Indices 1 2 3 4 5 6 
#
# 1 116.1833 26.4988 -2.8649 0.0000 11.0204 0.0000
# 2 26.4988 52.8848 -3.1169 0.0000 0.6749 0.0000
# 3 -2.8649 -3.1169 72.5250 0.0000 25.1220 0.0000
# 4 0.0000 0.0000 0.0000 19.7611 0.0000 -7.5312
# 5 11.0204 0.6749 25.1220 0.0000 30.7382 0.0000
# 6 0.0000 0.0000 0.0000 -7.5312 0.0000 26.2162
#
#
#
# Elastic Compliance Matrix: (Units=1/GPa)
#
#
# Indices 1 2 3 4 5 6 
#
# 1 0.010284 -0.004969 0.001998 0.000000 -0.005210 0.000000
# 2 -0.004969 0.021408 0.000376 0.000000 0.001004 0.000000
# 3 0.001998 0.000376 0.019716 0.000000 -0.016838 0.000000
# 4 0.000000 0.000000 0.000000 0.056826 0.000000 0.016324
# 5 -0.005210 0.001004 -0.016838 0.000000 0.048140 0.000000
# 6 0.000000 0.000000 0.000000 0.016324 0.000000 0.042834
#
#
# Mechanical properties :
#
#
# Convention : Reuss Voigt Hill
#
# Bulk Modulus (GPa) = 21.63676 31.40300 26.51988
# Shear Modulus (GPa) = 22.74753 30.08151 26.41452
#
# Velocity S-wave (km/s) = 3.50188 4.02702 3.77360
# Velocity P-wave (km/s) = 5.29294 6.20901 5.76919
#
# Compressibility (1/GPa) = 0.04621764
#
# Stress axis : x y z
#
# Youngs Moduli (GPa) = 97.24014 46.71153 50.72023
#
# Poissons Ratio (x) = 0.23209 -0.10132
# Poissons Ratio (y) = 0.48315 -0.01907
# Poissons Ratio (z) = -0.19424 -0.01756
#
# Static dielectric constant tensor:
#      x y z
#    x 1.678790 0.000000 0.017770 
#    y 0.000000 1.645880 0.000000 
#    z 0.017770 0.000000 1.702470 
# 
# From -- ./inp_files/99083.got.cif
#   From: 2010.05.17/outbox.cif.g08.bks.cpg/sg12_50_cif.got.tgz:99083.got - 2010.06.03 13:09:07.
