data_PCOD9219203
_publ_section_title
;
Structure prediction by ZEFSAII (Michael W. Deem and Ramdas Pophale) SiO2 
 PCOD9219203
Probable space group: C 2/M
;
_chemical_formula_sum "Si O2"
_cell_formula_units_Z 56
_cell_length_a 4.990414
_cell_length_b 23.569961
_cell_length_c 25.366317
_cell_angle_alpha 90.000000
_cell_angle_beta 89.258077
_cell_angle_gamma 90.000000
_cell_volume 2983.434061
_symmetry_space_group_name_H-M "C 2/M"
_symmetry_group_IT_number 12
_symmetry_cell_setting 'monoclinic'
loop_
_space_group_symop_operation_xyz
x,y,z
-x,y,-z
-x,-y,-z
x,-y,z
1/2+x,1/2+y,z
1/2-x,1/2+y,-z
1/2-x,1/2-y,-z
1/2+x,1/2-y,z
loop_
_atom_site_type_symbol
_atom_site_label
_atom_site_fract_x
_atom_site_fract_y
_atom_site_fract_z
Si Si1 0.896259 0.431120 0.880227
Si Si2 0.849779 0.713748 0.653468
Si Si3 0.852569 0.898454 0.293412
Si Si4 0.582874 0.433914 0.405691
Si Si5 0.146197 0.434180 0.769568
Si Si6 0.096260 0.365346 0.441822
Si Si7 0.393332 0.569027 0.943689
O O1 0.891640 0.500000 0.877473
O O2 0.599767 0.413382 0.897317
O O3 0.017159 0.412393 0.824340
O O4 0.097042 0.414643 0.926822
O O5 0.654268 0.767165 0.660350
O O6 0.750498 0.664181 0.692062
O O7 0.824220 0.687556 0.594919
O O8 0.592652 0.930855 0.272348
O O9 0.972406 0.925387 0.346571
O O10 0.093188 0.901229 0.250977
O O11 0.628964 0.500000 0.416057
O O12 0.349252 0.407476 0.442465
O O13 0.853081 0.398307 0.413619
O O14 0.228754 0.500000 0.776453
O O15 0.000000 0.349292 0.500000
O O16 0.394554 0.500000 0.945626
O O17 0.500000 0.588626 0.000000
#
# Coordination Sequence:
#
# PCOD9219203 Si02
#       7
#     8   8   8   8   8   8   8
#     4   9  17  26  38  61  90 125 169 210 246 281
#     4  11  23  41  60  77  99 127 164 211 254 301
#     4  11  22  36  54  77  99 130 172 204 249 306
#     4  11  22  37  56  79 110 140 166 199 239 295
#     4  11  20  32  51  75 106 136 167 210 252 295
#     4  11  24  39  57  83 106 130 167 203 245 301
#     4   9  15  24  37  54  83 126 176 219 243 268
#
# _framework density 18.770316000000001
#
# number of rings (size 3 to 8) (size 9 to 14) (size 15 to 20)
#    0.000    1.571    0.000    7.714    0.000    6.286 
#    0.000    0.000    0.000    0.000    0.000    0.000 
#    0.000    0.000    0.000    0.000    0.000  180.000 
#
# Total GULP energy -156409.244804 kJ/mol
# GULP energy per Si atom -5586.044457 kJ/mol
# Density = 1.872759 g / cm^3
# Si number density = 18.770316 Si / 1000 Ang^3
#
#
#
# Elastic Constant Matrix: (Units=GPa)
#
#
# Indices 1 2 3 4 5 6 
#
# 1 82.6307 7.2200 -1.9071 0.0000 -5.9379 0.0000
# 2 7.2200 35.2956 7.2577 0.0000 -7.1301 0.0000
# 3 -1.9071 7.2577 53.3548 0.0000 -10.9273 0.0000
# 4 0.0000 0.0000 0.0000 9.5222 0.0000 5.2164
# 5 -5.9379 -7.1301 -10.9273 0.0000 31.4498 0.0000
# 6 0.0000 0.0000 0.0000 5.2164 0.0000 67.2569
#
#
#
# Elastic Compliance Matrix: (Units=1/GPa)
#
#
# Indices 1 2 3 4 5 6 
#
# 1 0.012498 -0.002354 0.001228 0.000000 0.002253 0.000000
# 2 -0.002354 0.030548 -0.003135 0.000000 0.005392 0.000000
# 3 0.001228 -0.003135 0.020579 0.000000 0.006671 0.000000
# 4 0.000000 0.000000 0.000000 0.109678 0.000000 -0.008507
# 5 0.002253 0.005392 0.006671 0.000000 0.035762 0.000000
# 6 0.000000 0.000000 0.000000 -0.008507 0.000000 0.015528
#
#
# Mechanical properties :
#
#
# Convention : Reuss Voigt Hill
#
# Bulk Modulus (GPa) = 18.14788 21.82469 19.98629
# Shear Modulus (GPa) = 19.88209 32.22648 26.05429
#
# Velocity S-wave (km/s) = 3.25811 4.14803 3.72971
# Velocity P-wave (km/s) = 4.88294 5.88166 5.40542
#
# Compressibility (1/GPa) = 0.05510285
#
# Stress axis : x y z
#
# Youngs Moduli (GPa) = 80.01304 32.73586 48.59279
#
# Poissons Ratio (x) = 0.07706 -0.05969
# Poissons Ratio (y) = 0.18835 0.15235
# Poissons Ratio (z) = -0.09828 0.10263
#
# Static dielectric constant tensor:
#      x y z
#    x 1.651280 0.000000 -0.002270 
#    y 0.000000 1.620700 0.000000 
#    z -0.002270 0.000000 1.686440 
# 
# From -- ./inp_files/331187.got.cif
#   From: 2010.05.17/outbox.cif.g08.bks.cpg/sg12_166_cif.got.tgz:331187.got - 2010.06.03 13:09:07.
