data_PCOD9219087
_publ_section_title
;
Structure prediction by ZEFSAII (Michael W. Deem and Ramdas Pophale) SiO2 
 PCOD9219087
Probable space group: C 2/M
;
_chemical_formula_sum "Si O2"
_cell_formula_units_Z 48
_cell_length_a 15.607101
_cell_length_b 15.168239
_cell_length_c 9.798087
_cell_angle_alpha 90.000000
_cell_angle_beta 78.474114
_cell_angle_gamma 90.000000
_cell_volume 2272.748794
_symmetry_space_group_name_H-M "C 2/M"
_symmetry_group_IT_number 12
_symmetry_cell_setting 'monoclinic'
loop_
_space_group_symop_operation_xyz
x,y,z
-x,y,-z
-x,-y,-z
x,-y,z
1/2+x,1/2+y,z
1/2-x,1/2+y,-z
1/2-x,1/2-y,-z
1/2+x,1/2-y,z
loop_
_atom_site_type_symbol
_atom_site_label
_atom_site_fract_x
_atom_site_fract_y
_atom_site_fract_z
Si Si1 0.193124 0.094641 0.261358
Si Si2 0.888113 0.898858 0.230768
Si Si3 0.754220 0.148201 0.042580
Si Si4 0.234409 0.645576 0.487712
Si Si5 0.599510 0.101368 0.300663
Si Si6 0.527945 0.716502 0.334803
O O1 0.238530 0.097443 0.101234
O O2 0.260467 0.106539 0.363319
O O3 0.124109 0.174307 0.289554
O O4 0.147120 0.000000 0.294198
O O5 0.814940 0.891854 0.373079
O O6 0.965054 0.834801 0.252218
O O7 0.917097 0.000000 0.209092
O O8 0.839438 0.869316 0.108489
O O9 0.750000 0.250000 0.000000
O O10 0.672784 0.117454 0.160478
O O11 0.250000 0.750000 0.500000
O O12 0.148972 0.622317 0.428000
O O13 0.529803 0.179242 0.306413
O O14 0.570254 0.000000 0.307790
O O15 0.500000 0.700923 0.500000
#
# Coordination Sequence:
#
# PCOD9219087 Si02
#       6
#     8   8   8   8   8   8
#     4  12  22  36  63  97 129 160 204 260 319 376
#     4  11  23  40  64  94 131 169 208 256 320 381
#     4  11  22  43  67  95 126 163 208 263 317 377
#     4  11  19  38  63  96 127 162 210 261 313 371
#     4  11  23  43  67  91 125 171 217 262 312 373
#     4  12  24  40  62  95 132 170 208 260 316 376
#
# _framework density 21.119800999999999
#
# number of rings (size 3 to 8) (size 9 to 14) (size 15 to 20)
#    0.000    0.667    5.000    5.500    0.000    1.667 
#    0.000    1.667    0.000    4.000    0.000    0.000 
#    0.000    0.000    0.000    0.000    0.000    0.000 
#
# Total GULP energy -134272.620614 kJ/mol
# GULP energy per Si atom -5594.692526 kJ/mol
# Density = 2.107173 g / cm^3
# Si number density = 21.119801 Si / 1000 Ang^3
#
#
#
# Elastic Constant Matrix: (Units=GPa)
#
#
# Indices 1 2 3 4 5 6 
#
# 1 45.8153 29.9951 32.2565 0.0000 16.0272 0.0000
# 2 29.9951 201.0762 37.7503 0.0000 22.5425 0.0000
# 3 32.2565 37.7503 161.5836 0.0000 20.6496 0.0000
# 4 0.0000 0.0000 0.0000 -0.1243 0.0000 -18.7353
# 5 16.0272 22.5425 20.6496 0.0000 25.4059 0.0000
# 6 0.0000 0.0000 0.0000 -18.7353 0.0000 14.4368
#
#
#
# Elastic Compliance Matrix: (Units=1/GPa)
#
#
# Indices 1 2 3 4 5 6 
#
# 1 0.031080 -0.002298 -0.003819 0.000000 -0.014463 0.000000
# 2 -0.002298 0.005773 -0.000469 0.000000 -0.003291 0.000000
# 3 -0.003819 -0.000469 0.007476 0.000000 -0.003251 0.000000
# 4 0.000000 0.000000 0.000000 -0.040920 0.000000 -0.053104
# 5 -0.014463 -0.003291 -0.003251 0.000000 0.054048 0.000000
# 6 0.000000 0.000000 0.000000 -0.053104 0.000000 0.000352
#
#
# Mechanical properties :
#
#
# Convention : Reuss Voigt Hill
#
# Bulk Modulus (GPa) = 32.09619 67.60877 49.85248
# Shear Modulus (GPa) = 61.44964 28.50854 44.97909
#
# Velocity S-wave (km/s) = 5.39990 3.67801 4.61989
# Velocity P-wave (km/s) = 7.35586 7.07945 7.21898
#
# Compressibility (1/GPa) = 0.03115634
#
# Stress axis : x y z
#
# Youngs Moduli (GPa) = 32.17542 173.21625 133.75663
#
# Poissons Ratio (x) = 0.39801 0.51084
# Poissons Ratio (y) = 0.07393 0.06279
# Poissons Ratio (z) = 0.12288 0.08132
#
# Static dielectric constant tensor:
#      x y z
#    x 1.765640 0.000000 -0.018630 
#    y 0.000000 1.816780 0.000000 
#    z -0.018630 0.000000 1.739260 
# 
# From -- ./inp_files/73632.got.cif
#   From: 2010.05.17/outbox.cif.g08.bks.cpg/sg12_37_cif.got.tgz:73632.got - 2010.06.03 13:09:07.
