data_PCOD9219152
_publ_section_title
;
Structure prediction by ZEFSAII (Michael W. Deem and Ramdas Pophale) SiO2 
 PCOD9219152
Probable space group: C 2/M
;
_chemical_formula_sum "Si O2"
_cell_formula_units_Z 48
_cell_length_a 20.234152
_cell_length_b 14.671151
_cell_length_c 7.460169
_cell_angle_alpha 90.000000
_cell_angle_beta 121.552344
_cell_angle_gamma 90.000000
_cell_volume 1887.210147
_symmetry_space_group_name_H-M "C 2/M"
_symmetry_group_IT_number 12
_symmetry_cell_setting 'monoclinic'
loop_
_space_group_symop_operation_xyz
x,y,z
-x,y,-z
-x,-y,-z
x,-y,z
1/2+x,1/2+y,z
1/2-x,1/2+y,-z
1/2-x,1/2-y,-z
1/2+x,1/2-y,z
loop_
_atom_site_type_symbol
_atom_site_label
_atom_site_fract_x
_atom_site_fract_y
_atom_site_fract_z
Si Si1 0.444938 0.598730 0.212082
Si Si2 0.151831 0.149519 0.585610
Si Si3 0.304267 0.377640 0.752192
Si Si4 0.182703 0.666990 0.119512
Si Si5 0.519969 0.199665 0.733836
Si Si6 0.638410 0.138446 0.441019
O O1 0.485064 0.500000 0.250534
O O2 0.414542 0.614966 0.373776
O O3 0.483561 0.694650 0.201729
O O4 0.368463 0.590721 0.981150
O O5 0.167442 0.105121 0.412840
O O6 0.231323 0.139559 0.814631
O O7 0.140842 0.255815 0.514961
O O8 0.306759 0.269145 0.789565
O O9 0.213470 0.402532 0.649670
O O10 0.161701 0.616041 0.271118
O O11 0.108468 0.667753 0.887213
O O12 0.500000 0.205546 0.500000
O O13 0.454807 0.128329 0.703621
#
# Coordination Sequence:
#
# PCOD9219152 Si02
#       6
#     8   8   8   8   8   8
#     4  11  23  35  49  72 109 153 184 203 237 305
#     4   9  17  34  52  73  94 132 181 226 259 297
#     4   8  18  33  55  72  94 130 180 228 263 295
#     4   8  17  30  52  73  98 127 169 225 275 308
#     4  11  20  29  47  78 109 137 166 207 265 316
#     4   9  16  32  51  75  99 127 168 223 276 312
#
# _framework density 25.434369
#
# number of rings (size 3 to 8) (size 9 to 14) (size 15 to 20)
#    0.000    2.667    1.667    2.500    2.333    3.000 
#    0.000    0.000    0.000    4.000    0.000    2.333 
#    0.000    5.333    0.000    0.000    0.000    0.000 
#
# Total GULP energy -133629.021250 kJ/mol
# GULP energy per Si atom -5567.875885 kJ/mol
# Density = 2.537648 g / cm^3
# Si number density = 25.434369 Si / 1000 Ang^3
#
#
#
# Elastic Constant Matrix: (Units=GPa)
#
#
# Indices 1 2 3 4 5 6 
#
# 1 101.8047 10.7626 34.6286 0.0000 26.6154 0.0000
# 2 10.7626 52.4981 5.1644 0.0000 0.5942 0.0000
# 3 34.6286 5.1644 168.7083 0.0000 32.1213 0.0000
# 4 0.0000 0.0000 0.0000 -28.7820 0.0000 33.8202
# 5 26.6154 0.5942 32.1213 0.0000 46.7155 0.0000
# 6 0.0000 0.0000 0.0000 33.8202 0.0000 -73.7917
#
#
#
# Elastic Compliance Matrix: (Units=1/GPa)
#
#
# Indices 1 2 3 4 5 6 
#
# 1 0.012055 -0.002279 -0.001269 0.000000 -0.005967 0.000000
# 2 -0.002279 0.019538 -0.000380 0.000000 0.001311 0.000000
# 3 -0.001269 -0.000380 0.006974 0.000000 -0.004068 0.000000
# 4 0.000000 0.000000 0.000000 -0.075292 0.000000 -0.034508
# 5 -0.005967 0.001311 -0.004068 0.000000 0.027586 0.000000
# 6 0.000000 0.000000 0.000000 -0.034508 0.000000 -0.029367
#
#
# Mechanical properties :
#
#
# Convention : Reuss Voigt Hill
#
# Bulk Modulus (GPa) = 32.56064 47.12470 39.84267
# Shear Modulus (GPa) = -244.92896 6.99205 -118.96845
#
# Velocity S-wave (km/s) = -9.82382 1.65983 -6.84662
# Velocity P-wave (km/s) = 10.76323 4.71609 6.84125
#
# Compressibility (1/GPa) = 0.03071193
#
# Stress axis : x y z
#
# Youngs Moduli (GPa) = 82.95212 51.18211 143.39267
#
# Poissons Ratio (x) = 0.11665 0.18190
# Poissons Ratio (y) = 0.18906 0.05448
# Poissons Ratio (z) = 0.10523 0.01945
#
# Static dielectric constant tensor:
#      x y z
#    x 2.170680 0.000000 0.096510 
#    y 0.000000 2.086050 0.000000 
#    z 0.096510 0.000000 2.055300 
# 
# From -- ./inp_files/74461.got.cif
#   From: 2010.05.17/outbox.cif.g08.bks.cpg/sg12_38_cif.got.tgz:74461.got - 2010.06.03 13:09:07.
