data_PCOD9219978
_publ_section_title
;
Structure prediction by ZEFSAII (Michael W. Deem and Ramdas Pophale) SiO2 
 PCOD9219978
Probable space group: C 2/M
;
_chemical_formula_sum "Si O2"
_cell_formula_units_Z 50
_cell_length_a 14.044736
_cell_length_b 18.306388
_cell_length_c 12.464394
_cell_angle_alpha 90.000000
_cell_angle_beta 60.584694
_cell_angle_gamma 90.000000
_cell_volume 2791.558737
_symmetry_space_group_name_H-M "C 2/M"
_symmetry_group_IT_number 12
_symmetry_cell_setting 'monoclinic'
loop_
_space_group_symop_operation_xyz
x,y,z
-x,y,-z
-x,-y,-z
x,-y,z
1/2+x,1/2+y,z
1/2-x,1/2+y,-z
1/2-x,1/2-y,-z
1/2+x,1/2-y,z
loop_
_atom_site_type_symbol
_atom_site_label
_atom_site_fract_x
_atom_site_fract_y
_atom_site_fract_z
Si Si1 0.321772 0.781214 0.606384
Si Si2 0.498936 0.867271 0.174814
Si Si3 0.000000 0.000000 0.500000
Si Si4 0.921552 0.420665 0.646985
Si Si5 0.830285 0.585861 0.087758
Si Si6 0.387365 0.367162 0.689182
Si Si7 0.078368 0.769587 0.662083
O O1 0.350112 0.848196 0.668190
O O2 0.338082 0.702371 0.652211
O O3 0.198933 0.791735 0.632643
O O4 0.401493 0.776200 0.458974
O O5 0.515221 0.911298 0.276008
O O6 0.400138 0.897302 0.156759
O O7 0.473279 0.784780 0.223178
O O8 0.607354 0.873701 0.042914
O O9 0.079023 0.064974 0.403763
O O10 0.863676 0.500000 0.681186
O O11 0.000000 0.422415 0.500000
O O12 0.837770 0.500000 0.061676
O O13 0.706186 0.608975 0.176366
O O14 0.497637 0.335901 0.682050
#
# Coordination Sequence:
#
# PCOD9219978 Si02
#       7
#     8   8   2   8   8   8   8
#     4  11  21  40  60  89 126 162 199 260 314 370
#     4  11  21  40  63  90 125 164 207 260 312 376
#     4  12  24  40  64  94 126 164 214 256 320 370
#     4  11  21  37  60  91 122 161 208 259 313 369
#     4  11  24  40  62  93 129 167 210 261 319 372
#     4  12  22  41  63  90 125 166 209 261 313 376
#     4  11  22  37  62  88 122 161 207 252 318 369
#
# _framework density 17.911141000000001
#
# number of rings (size 3 to 8) (size 9 to 14) (size 15 to 20)
#    0.000    0.800    7.200    1.920    0.000    0.640 
#    1.440    0.000    0.000    0.000    0.000    2.240 
#    0.000    0.000    0.000    0.000    0.000    0.000 
#
# Total GULP energy -139266.998241 kJ/mol
# GULP energy per Si atom -5570.679930 kJ/mol
# Density = 1.787037 g / cm^3
# Si number density = 17.911141 Si / 1000 Ang^3
#
#
#
# Elastic Constant Matrix: (Units=GPa)
#
#
# Indices 1 2 3 4 5 6 
#
# 1 76.5781 23.4635 31.1674 0.0000 -8.4011 0.0000
# 2 23.4635 97.8208 28.1446 0.0000 -8.7444 0.0000
# 3 31.1674 28.1446 100.8198 0.0000 -9.2221 0.0000
# 4 0.0000 0.0000 0.0000 8.8264 0.0000 -1.2295
# 5 -8.4011 -8.7444 -9.2221 0.0000 32.8196 0.0000
# 6 0.0000 0.0000 0.0000 -1.2295 0.0000 8.7984
#
#
#
# Elastic Compliance Matrix: (Units=1/GPa)
#
#
# Indices 1 2 3 4 5 6 
#
# 1 0.015657 -0.002415 -0.003960 0.000000 0.002252 0.000000
# 2 -0.002415 0.011637 -0.002335 0.000000 0.001826 0.000000
# 3 -0.003960 -0.002335 0.011952 0.000000 0.001723 0.000000
# 4 0.000000 0.000000 0.000000 0.115546 0.000000 0.016146
# 5 0.002252 0.001826 0.001723 0.000000 0.032017 0.000000
# 6 0.000000 0.000000 0.000000 0.016146 0.000000 0.115914
#
#
# Mechanical properties :
#
#
# Convention : Reuss Voigt Hill
#
# Bulk Modulus (GPa) = 45.81567 48.97442 47.39504
# Shear Modulus (GPa) = 15.27096 22.91841 19.09468
#
# Velocity S-wave (km/s) = 2.92309 3.58098 3.26863
# Velocity P-wave (km/s) = 6.08503 6.67085 6.38466
#
# Compressibility (1/GPa) = 0.02182659
#
# Stress axis : x y z
#
# Youngs Moduli (GPa) = 63.86788 85.93213 83.66562
#
# Poissons Ratio (x) = 0.20752 0.33133
# Poissons Ratio (y) = 0.15423 0.19536
# Poissons Ratio (z) = 0.25293 0.20065
#
# Static dielectric constant tensor:
#      x y z
#    x 1.621900 0.000000 0.008560 
#    y 0.000000 1.628830 0.000000 
#    z 0.008560 0.000000 1.614980 
# 
# From -- ./inp_files/145418.got.cif
#   From: 2010.05.17/outbox.cif.g08.bks.cpg/sg12_73_cif.got.tgz:145418.got - 2010.06.03 13:09:07.
