data_PCOD9219118
_publ_section_title
;
Structure prediction by ZEFSAII (Michael W. Deem and Ramdas Pophale) SiO2 
 PCOD9219118
Probable space group: C 2/M
;
_chemical_formula_sum "Si O2"
_cell_formula_units_Z 48
_cell_length_a 17.537863
_cell_length_b 17.006412
_cell_length_c 14.047212
_cell_angle_alpha 90.000000
_cell_angle_beta 31.947680
_cell_angle_gamma 90.000000
_cell_volume 2216.939849
_symmetry_space_group_name_H-M "C 2/M"
_symmetry_group_IT_number 12
_symmetry_cell_setting 'monoclinic'
loop_
_space_group_symop_operation_xyz
x,y,z
-x,y,-z
-x,-y,-z
x,-y,z
1/2+x,1/2+y,z
1/2-x,1/2+y,-z
1/2-x,1/2-y,-z
1/2+x,1/2-y,z
loop_
_atom_site_type_symbol
_atom_site_label
_atom_site_fract_x
_atom_site_fract_y
_atom_site_fract_z
Si Si1 0.522491 0.235847 0.365537
Si Si2 0.037382 0.848820 0.071693
Si Si3 0.834436 0.411853 0.212071
Si Si4 0.687609 0.666329 0.534723
Si Si5 0.339777 0.907675 0.845601
Si Si6 0.184723 0.688538 0.941872
O O1 0.500000 0.237086 0.500000
O O2 0.428076 0.302783 0.418578
O O3 0.523889 0.144303 0.334962
O O4 0.681554 0.260145 0.166390
O O5 0.902888 0.871019 0.282481
O O6 0.187727 0.887762 0.950434
O O7 0.059563 0.753515 0.060487
O O8 0.000000 0.863913 0.000000
O O9 0.776715 0.500000 0.261405
O O10 0.802225 0.384937 0.354047
O O11 0.771950 0.349139 0.204507
O O12 0.000000 0.412890 0.000000
O O13 0.750000 0.750000 0.500000
O O14 0.363748 0.000000 0.812431
O O15 0.332695 0.880045 0.963192
#
# Coordination Sequence:
#
# PCOD9219118 Si02
#       6
#     8   8   8   8   8   8
#     4  11  22  41  66  97 124 162 228 270 312 401
#     4  11  23  41  69  98 131 177 228 268 317 398
#     4  11  25  42  64 100 135 166 214 277 342 390
#     4  12  23  41  67  95 129 175 218 266 330 391
#     4  11  24  41  65  95 135 176 213 271 332 386
#     4  11  19  42  68  97 126 165 218 275 329 384
#
# _framework density 21.651467
#
# number of rings (size 3 to 8) (size 9 to 14) (size 15 to 20)
#    0.000    0.833    5.000    4.000    2.333    1.333 
#    0.000    0.833    0.000    0.000    0.000    0.000 
#    0.000    0.000    0.000    0.000    0.000    0.000 
#
# Total GULP energy -133819.328172 kJ/mol
# GULP energy per Si atom -5575.805340 kJ/mol
# Density = 2.160219 g / cm^3
# Si number density = 21.651467 Si / 1000 Ang^3
#
#
#
# Elastic Constant Matrix: (Units=GPa)
#
#
# Indices 1 2 3 4 5 6 
#
# 1 52.3107 -7.2695 29.8216 0.0000 29.7138 0.0000
# 2 -7.2695 88.6792 13.4049 0.0000 10.6210 -0.0001
# 3 29.8216 13.4049 117.5757 0.0000 33.6483 -0.0001
# 4 0.0000 0.0000 0.0000 16.7648 0.0000 0.2167
# 5 29.7138 10.6210 33.6483 0.0000 38.1436 0.0000
# 6 0.0000 -0.0001 -0.0001 0.2167 0.0000 23.6232
#
#
#
# Elastic Compliance Matrix: (Units=1/GPa)
#
#
# Indices 1 2 3 4 5 6 
#
# 1 0.038270 0.007028 -0.001894 0.000000 -0.030098 0.000000
# 2 0.007028 0.012982 -0.000885 0.000000 -0.008309 0.000000
# 3 -0.001894 -0.000885 0.011496 0.000000 -0.008419 0.000000
# 4 0.000000 0.000000 0.000000 0.059656 0.000000 -0.000547
# 5 -0.030098 -0.008309 -0.008419 0.000000 0.059403 0.000000
# 6 0.000000 0.000000 0.000000 -0.000547 0.000000 0.042336
#
#
# Mechanical properties :
#
#
# Convention : Reuss Voigt Hill
#
# Bulk Modulus (GPa) = 14.03598 36.71995 25.37796
# Shear Modulus (GPa) = 20.88619 30.54690 25.71655
#
# Velocity S-wave (km/s) = 3.10926 3.76020 3.45011
# Velocity P-wave (km/s) = 4.40304 5.98736 5.25525
#
# Compressibility (1/GPa) = 0.07124548
#
# Stress axis : x y z
#
# Youngs Moduli (GPa) = 26.13046 77.03165 86.98761
#
# Poissons Ratio (x) = -0.54140 0.16479
# Poissons Ratio (y) = -0.18365 0.07696
# Poissons Ratio (z) = 0.04950 0.06815
#
# Static dielectric constant tensor:
#      x y z
#    x 1.839480 0.000000 0.022150 
#    y 0.000000 1.750310 0.000000 
#    z 0.022150 0.000000 1.801930 
# 
# From -- ./inp_files/234247.got.cif
#   From: 2010.05.17/outbox.cif.g08.bks.cpg/sg12_118_cif.got.tgz:234247.got - 2010.06.03 13:09:07.
