data_PCOD9219929
_publ_section_title
;
Structure prediction by ZEFSAII (Michael W. Deem and Ramdas Pophale) SiO2 
 PCOD9219929
Probable space group: C 2/M
;
_chemical_formula_sum "Si O2"
_cell_formula_units_Z 56
_cell_length_a 11.920880
_cell_length_b 18.571262
_cell_length_c 16.462991
_cell_angle_alpha 90.000000
_cell_angle_beta 117.391268
_cell_angle_gamma 90.000000
_cell_volume 3236.051635
_symmetry_space_group_name_H-M "C 2/M"
_symmetry_group_IT_number 12
_symmetry_cell_setting 'monoclinic'
loop_
_space_group_symop_operation_xyz
x,y,z
-x,y,-z
-x,-y,-z
x,-y,z
1/2+x,1/2+y,z
1/2-x,1/2+y,-z
1/2-x,1/2-y,-z
1/2+x,1/2-y,z
loop_
_atom_site_type_symbol
_atom_site_label
_atom_site_fract_x
_atom_site_fract_y
_atom_site_fract_z
Si Si1 0.476763 0.177275 0.284535
Si Si2 0.773795 0.817184 0.398783
Si Si3 0.637614 0.846134 0.584335
Si Si4 0.361932 0.583031 0.571883
Si Si5 0.902863 0.841897 0.269920
Si Si6 0.450657 0.914476 0.114275
Si Si7 0.795535 0.585216 0.907407
O O1 0.624296 0.169767 0.357902
O O2 0.386420 0.151916 0.327489
O O3 0.452316 0.262232 0.266266
O O4 0.450609 0.132687 0.194759
O O5 0.809106 0.733217 0.421472
O O6 0.847737 0.865578 0.488621
O O7 0.816099 0.836836 0.321749
O O8 0.500000 0.854632 0.500000
O O9 0.736141 0.903088 0.582744
O O10 0.373726 0.500000 0.551947
O O11 0.480057 0.608635 0.664833
O O12 0.821206 0.872757 0.169146
O O13 0.583078 0.904155 0.110777
O O14 0.440413 0.000000 0.128791
O O15 0.341629 0.894859 0.013122
O O16 0.768484 0.500000 0.898374
#
# Coordination Sequence:
#
# PCOD9219929 Si02
#       7
#     8   8   8   8   8   8   8
#     4  11  21  36  62  82 112 151 187 230 280 327
#     4  11  21  39  58  81 111 151 188 233 277 323
#     4  11  22  39  58  77 111 155 193 224 272 330
#     4  12  25  38  55  83 118 149 186 229 276 335
#     4  11  22  36  60  84 112 147 188 232 279 333
#     4   9  19  36  58  85 112 141 183 232 282 334
#     4   9  18  35  59  84 113 144 178 232 288 328
#
# _framework density 17.305039000000001
#
# number of rings (size 3 to 8) (size 9 to 14) (size 15 to 20)
#    0.000    1.429    4.286    3.857    0.000    3.714 
#    0.000    0.000    0.000    0.857    0.000    3.000 
#    0.000    0.000    0.000    0.000    0.000    0.000 
#
# Total GULP energy -156392.583377 kJ/mol
# GULP energy per Si atom -5585.449406 kJ/mol
# Density = 1.726565 g / cm^3
# Si number density = 17.305039 Si / 1000 Ang^3
#
#
#
# Elastic Constant Matrix: (Units=GPa)
#
#
# Indices 1 2 3 4 5 6 
#
# 1 52.5438 20.1940 28.6251 0.0000 1.4934 0.0000
# 2 20.1940 65.5993 53.3767 0.0000 -4.5943 0.0000
# 3 28.6251 53.3767 118.8936 0.0000 13.6721 0.0000
# 4 0.0000 0.0000 0.0000 33.5022 0.0000 -4.7634
# 5 1.4934 -4.5943 13.6721 0.0000 28.7522 0.0000
# 6 0.0000 0.0000 0.0000 -4.7634 0.0000 -3.1234
#
#
#
# Elastic Compliance Matrix: (Units=1/GPa)
#
#
# Indices 1 2 3 4 5 6 
#
# 1 0.022545 -0.003998 -0.003623 0.000000 -0.000087 0.000000
# 2 -0.003998 0.027448 -0.012576 0.000000 0.010574 0.000000
# 3 -0.003623 -0.012576 0.016014 0.000000 -0.009436 0.000000
# 4 0.000000 0.000000 0.000000 0.024530 0.000000 -0.037410
# 5 -0.000087 0.010574 -0.009436 0.000000 0.040961 0.000000
# 6 0.000000 0.000000 0.000000 -0.037410 0.000000 -0.263114
#
#
# Mechanical properties :
#
#
# Convention : Reuss Voigt Hill
#
# Bulk Modulus (GPa) = 39.04328 49.04756 44.04542
# Shear Modulus (GPa) = -60.47125 20.81561 -19.82782
#
# Velocity S-wave (km/s) = -5.91778 3.47200 -3.38861
# Velocity P-wave (km/s) = 4.90742 6.66914 3.19333
#
# Compressibility (1/GPa) = 0.02561260
#
# Stress axis : x y z
#
# Youngs Moduli (GPa) = 44.35663 36.43217 62.44471
#
# Poissons Ratio (x) = 0.14567 0.22622
# Poissons Ratio (y) = 0.17736 0.78531
# Poissons Ratio (z) = 0.16069 0.45817
#
# Static dielectric constant tensor:
#      x y z
#    x 1.586970 0.000000 -0.004660 
#    y 0.000000 1.566050 0.000000 
#    z -0.004660 0.000000 1.577120 
# 
# From -- ./inp_files/206775.got.cif
#   From: 2010.05.17/outbox.cif.g08.bks.cpg/sg12_104_cif.got.tgz:206775.got - 2010.06.03 13:09:07.
