data_PCOD9219486
_publ_section_title
;
Structure prediction by ZEFSAII (Michael W. Deem and Ramdas Pophale) SiO2 
 PCOD9219486
Probable space group: C 2/M
;
_chemical_formula_sum "Si O2"
_cell_formula_units_Z 40
_cell_length_a 25.146468
_cell_length_b 10.467687
_cell_length_c 9.419858
_cell_angle_alpha 90.000000
_cell_angle_beta 132.165425
_cell_angle_gamma 90.000000
_cell_volume 1837.863431
_symmetry_space_group_name_H-M "C 2/M"
_symmetry_group_IT_number 12
_symmetry_cell_setting 'monoclinic'
loop_
_space_group_symop_operation_xyz
x,y,z
-x,y,-z
-x,-y,-z
x,-y,z
1/2+x,1/2+y,z
1/2-x,1/2+y,-z
1/2-x,1/2-y,-z
1/2+x,1/2-y,z
loop_
_atom_site_type_symbol
_atom_site_label
_atom_site_fract_x
_atom_site_fract_y
_atom_site_fract_z
Si Si1 0.617533 0.000000 0.216147
Si Si2 0.052271 0.257549 0.483083
Si Si3 0.689096 0.242465 0.235123
Si Si4 0.501837 0.000000 0.242615
Si Si5 0.317668 0.843184 0.085963
Si Si6 0.841565 0.143878 0.543678
O O1 0.666429 0.879070 0.286759
O O2 0.575581 0.000000 0.286732
O O3 0.560085 0.000000 0.985312
O O4 0.003999 0.374049 0.339879
O O5 0.120487 0.314655 0.689607
O O6 0.086338 0.185375 0.408586
O O7 0.000000 0.184532 0.500000
O O8 0.775032 0.234056 0.378477
O O9 0.658585 0.351090 0.284080
O O10 0.659267 0.213107 0.026378
O O11 0.304622 0.000000 0.055040
O O12 0.250000 0.750000 0.000000
O O13 0.824389 0.000000 0.466156
#
# Coordination Sequence:
#
# PCOD9219486 Si02
#       6
#     4   8   8   4   8   8
#     4  11  20  38  72  98 129 167 229 281 337 384
#     4  12  25  42  65 100 137 178 225 274 343 401
#     4  11  22  41  67  97 128 171 225 280 335 398
#     4  11  23  40  66 102 134 171 220 286 333 396
#     4  12  25  42  68 102 143 176 225 285 343 410
#     4  11  24  43  67  95 134 178 225 277 341 407
#
# _framework density 21.764403000000001
#
# number of rings (size 3 to 8) (size 9 to 14) (size 15 to 20)
#    0.000    0.600    7.000    1.500    0.000    1.200 
#    0.000    0.000    0.000    8.400    0.000    0.000 
#    0.000    0.000    0.000    0.000    0.000    0.000 
#
# Total GULP energy -111538.208642 kJ/mol
# GULP energy per Si atom -5576.910432 kJ/mol
# Density = 2.171487 g / cm^3
# Si number density = 21.764403 Si / 1000 Ang^3
#
#
#
# Elastic Constant Matrix: (Units=GPa)
#
#
# Indices 1 2 3 4 5 6 
#
# 1 159.9498 31.7611 7.9171 0.0000 -13.5960 0.0000
# 2 31.7611 61.9537 26.2982 0.0000 -5.3492 0.0000
# 3 7.9171 26.2982 80.0446 0.0000 -13.7515 0.0000
# 4 0.0000 0.0000 0.0000 24.0154 0.0000 4.3668
# 5 -13.5960 -5.3492 -13.7515 0.0000 35.0195 0.0000
# 6 0.0000 0.0000 0.0000 4.3668 0.0000 21.5948
#
#
#
# Elastic Compliance Matrix: (Units=1/GPa)
#
#
# Indices 1 2 3 4 5 6 
#
# 1 0.007196 -0.003895 0.001014 0.000000 0.002597 0.000000
# 2 -0.003895 0.020873 -0.006632 0.000000 -0.000928 0.000000
# 3 0.001014 -0.006632 0.015512 0.000000 0.005472 0.000000
# 4 0.000000 0.000000 0.000000 0.043230 0.000000 -0.008742
# 5 0.002597 -0.000928 0.005472 0.000000 0.031571 0.000000
# 6 0.000000 0.000000 0.000000 -0.008742 0.000000 0.048075
#
#
# Mechanical properties :
#
#
# Convention : Reuss Voigt Hill
#
# Bulk Modulus (GPa) = 40.72556 48.21119 44.46837
# Shear Modulus (GPa) = 25.81750 31.85739 28.83744
#
# Velocity S-wave (km/s) = 3.44790 3.83003 3.64398
# Velocity P-wave (km/s) = 5.88246 6.46207 6.17906
#
# Compressibility (1/GPa) = 0.02455460
#
# Stress axis : x y z
#
# Youngs Moduli (GPa) = 138.96586 47.90864 64.46768
#
# Poissons Ratio (x) = 0.18662 -0.06538
# Poissons Ratio (y) = 0.54132 0.42754
# Poissons Ratio (z) = -0.14094 0.31773
#
# Static dielectric constant tensor:
#      x y z
#    x 1.884000 0.000000 -0.041730 
#    y 0.000000 1.807740 0.000000 
#    z -0.041730 0.000000 1.799830 
# 
# From -- ./inp_files/102902.got.cif
#   From: 2010.05.17/outbox.cif.g08.bks.cpg/sg12_52_cif.got.tgz:102902.got - 2010.06.03 13:09:07.
