data_PCOD9219858
_publ_section_title
;
Structure prediction by ZEFSAII (Michael W. Deem and Ramdas Pophale) SiO2 
 PCOD9219858
Probable space group: C 2/M
;
_chemical_formula_sum "Si O2"
_cell_formula_units_Z 40
_cell_length_a 22.332431
_cell_length_b 16.819891
_cell_length_c 14.311131
_cell_angle_alpha 90.000000
_cell_angle_beta 161.502426
_cell_angle_gamma 90.000000
_cell_volume 1705.511367
_symmetry_space_group_name_H-M "C 2/M"
_symmetry_group_IT_number 12
_symmetry_cell_setting 'monoclinic'
loop_
_space_group_symop_operation_xyz
x,y,z
-x,y,-z
-x,-y,-z
x,-y,z
1/2+x,1/2+y,z
1/2-x,1/2+y,-z
1/2-x,1/2-y,-z
1/2+x,1/2-y,z
loop_
_atom_site_type_symbol
_atom_site_label
_atom_site_fract_x
_atom_site_fract_y
_atom_site_fract_z
Si Si1 0.271990 0.588207 0.081803
Si Si2 0.679428 0.158600 0.395022
Si Si3 0.205545 0.712802 0.135790
Si Si4 0.541279 0.373640 0.830091
Si Si5 0.348948 0.134153 0.431934
O O1 0.278125 0.500000 0.130942
O O2 0.060046 0.603865 0.727955
O O3 0.296874 0.652550 0.199395
O O4 0.413118 0.595230 0.204290
O O5 0.750000 0.250000 0.500000
O O6 0.696328 0.124917 0.525595
O O7 0.827980 0.114932 0.548502
O O8 0.455760 0.166141 0.045172
O O9 0.333898 0.771341 0.385849
O O10 0.095112 0.779805 0.912034
O O11 0.691108 0.403600 0.130521
#
# Coordination Sequence:
#
# PCOD9219858 Si02
#       5
#     8   8   8   8   8
#     4  11  21  36  54  85 122 154 186 232 284 340
#     4   9  16  31  53  82 106 144 192 247 277 329
#     4   8  19  34  54  78 108 150 191 233 281 338
#     4   9  18  31  53  80 114 146 188 234 287 332
#     4   9  19  32  53  82 113 145 192 234 285 336
#
# _framework density 23.453375999999999
#
# number of rings (size 3 to 8) (size 9 to 14) (size 15 to 20)
#    1.200    1.600    0.000    1.800    0.000    1.600 
#    0.000    4.000    0.000    6.000    0.000   75.600 
#    0.000    0.000    0.000    0.000    0.000    0.000 
#
# Total GULP energy -111615.499373 kJ/mol
# GULP energy per Si atom -5580.774969 kJ/mol
# Density = 2.340000 g / cm^3
# Si number density = 23.453376 Si / 1000 Ang^3
#
#
#
# Elastic Constant Matrix: (Units=GPa)
#
#
# Indices 1 2 3 4 5 6 
#
# 1 93.5339 38.3042 13.0669 0.0000 27.7614 0.0000
# 2 38.3042 79.5977 24.1351 0.0000 11.1441 0.0000
# 3 13.0669 24.1351 65.9242 0.0000 3.6741 0.0000
# 4 0.0000 0.0000 0.0000 111.6110 0.0000 68.9802
# 5 27.7614 11.1441 3.6741 0.0000 45.9143 0.0000
# 6 0.0000 0.0000 0.0000 68.9802 0.0000 -10.4081
#
#
#
# Elastic Compliance Matrix: (Units=1/GPa)
#
#
# Indices 1 2 3 4 5 6 
#
# 1 0.015684 -0.006333 -0.000349 0.000000 -0.007918 0.000000
# 2 -0.006333 0.017122 -0.005017 0.000000 0.000075 0.000000
# 3 -0.000349 -0.005017 0.017071 0.000000 0.000063 0.000000
# 4 0.000000 0.000000 0.000000 0.001758 0.000000 0.011652
# 5 -0.007918 0.000075 0.000063 0.000000 0.026544 0.000000
# 6 0.000000 0.000000 0.000000 0.011652 0.000000 -0.018853
#
#
# Mechanical properties :
#
#
# Convention : Reuss Voigt Hill
#
# Bulk Modulus (GPa) = 37.76647 43.34092 40.55369
# Shear Modulus (GPa) = 54.61532 40.32674 47.47103
#
# Velocity S-wave (km/s) = 4.83087 4.15112 4.50384
# Velocity P-wave (km/s) = 6.87417 6.44169 6.66144
#
# Compressibility (1/GPa) = 0.02647852
#
# Stress axis : x y z
#
# Youngs Moduli (GPa) = 63.76080 58.40600 58.57746
#
# Poissons Ratio (x) = 0.36988 0.02043
# Poissons Ratio (y) = 0.40380 0.29389
# Poissons Ratio (z) = 0.02224 0.29303
#
# Static dielectric constant tensor:
#      x y z
#    x 1.860750 0.000000 -0.015540 
#    y 0.000000 1.874170 0.000000 
#    z -0.015540 0.000000 1.972400 
# 
# From -- ./inp_files/235230.got.cif
#   From: 2010.05.17/outbox.cif.g08.bks.cpg/sg12_118_cif.got.tgz:235230.got - 2010.06.03 13:09:07.
