data_PCOD9219175
_publ_section_title
;
Structure prediction by ZEFSAII (Michael W. Deem and Ramdas Pophale) SiO2 
 PCOD9219175
Probable space group: C 2/M
;
_chemical_formula_sum "Si O2"
_cell_formula_units_Z 48
_cell_length_a 11.306418
_cell_length_b 13.546762
_cell_length_c 14.210933
_cell_angle_alpha 90.000000
_cell_angle_beta 87.893108
_cell_angle_gamma 90.000000
_cell_volume 2175.151136
_symmetry_space_group_name_H-M "C 2/M"
_symmetry_group_IT_number 12
_symmetry_cell_setting 'monoclinic'
loop_
_space_group_symop_operation_xyz
x,y,z
-x,y,-z
-x,-y,-z
x,-y,z
1/2+x,1/2+y,z
1/2-x,1/2+y,-z
1/2-x,1/2-y,-z
1/2+x,1/2-y,z
loop_
_atom_site_type_symbol
_atom_site_label
_atom_site_fract_x
_atom_site_fract_y
_atom_site_fract_z
Si Si1 0.025582 0.117970 0.839960
Si Si2 0.106044 0.618337 0.880503
Si Si3 0.423575 0.110753 0.409394
Si Si4 0.815446 0.119152 0.988938
Si Si5 0.823048 0.248297 0.282814
Si Si6 0.607871 0.888299 0.230451
O O1 0.061968 0.181055 0.747941
O O2 0.905834 0.140766 0.900767
O O3 0.027730 0.000000 0.822351
O O4 0.127533 0.146339 0.913239
O O5 0.106253 0.500000 0.881301
O O6 0.182903 0.652074 0.967622
O O7 0.178277 0.661114 0.790525
O O8 0.970847 0.643725 0.857730
O O9 0.500000 0.129734 0.500000
O O10 0.336095 0.199271 0.383084
O O11 0.514735 0.106637 0.319017
O O12 0.370173 0.000000 0.419544
O O13 0.813484 0.000000 0.992835
O O14 0.711277 0.181173 0.263230
O O15 0.652628 0.000000 0.210734
#
# Coordination Sequence:
#
# PCOD9219175 Si02
#       6
#     8   8   8   8   8   8
#     4   9  18  32  52  81 111 148 188 230 282 320
#     4   9  19  34  52  74 107 148 191 229 264 316
#     4   9  20  40  61  81 109 145 182 218 268 337
#     4   8  16  33  53  72 108 153 195 233 262 315
#     4  11  20  30  58  83 110 139 178 228 282 329
#     4   9  19  35  53  79 113 144 174 222 282 329
#
# _framework density 22.067432
#
# number of rings (size 3 to 8) (size 9 to 14) (size 15 to 20)
#    0.000    2.833    0.000    3.000    4.667    1.333 
#    0.000    0.833    0.000    6.000    0.000    2.333 
#    0.000    0.000    0.000    0.000    0.000    0.000 
#
# Total GULP energy -133874.749024 kJ/mol
# GULP energy per Si atom -5578.114543 kJ/mol
# Density = 2.201721 g / cm^3
# Si number density = 22.067432 Si / 1000 Ang^3
#
#
#
# Elastic Constant Matrix: (Units=GPa)
#
#
# Indices 1 2 3 4 5 6 
#
# 1 81.9457 54.7804 49.5107 0.0000 35.9135 0.0000
# 2 54.7804 110.2855 19.4782 0.0000 25.8794 0.0000
# 3 49.5107 19.4782 73.9308 0.0000 28.8330 0.0000
# 4 0.0000 0.0000 0.0000 -2.8394 0.0000 -4.2600
# 5 35.9135 25.8794 28.8330 0.0000 30.3501 0.0000
# 6 0.0000 0.0000 0.0000 -4.2600 0.0000 26.0820
#
#
#
# Elastic Compliance Matrix: (Units=1/GPa)
#
#
# Indices 1 2 3 4 5 6 
#
# 1 0.037401 -0.011028 -0.013580 0.000000 -0.021952 0.000000
# 2 -0.011028 0.014660 0.005256 0.000000 -0.004444 0.000000
# 3 -0.013580 0.005256 0.026556 0.000000 -0.013640 0.000000
# 4 0.000000 0.000000 0.000000 -0.282874 0.000000 -0.046202
# 5 -0.021952 -0.004444 -0.013640 0.000000 0.075673 0.000000
# 6 0.000000 0.000000 0.000000 -0.046202 0.000000 0.030794
#
#
# Mechanical properties :
#
#
# Convention : Reuss Voigt Hill
#
# Bulk Modulus (GPa) = 25.05486 57.07784 41.06635
# Shear Modulus (GPa) = -109.21480 20.21141 -44.50169
#
# Velocity S-wave (km/s) = -7.04264 3.02966 -4.49555
# Velocity P-wave (km/s) = 7.39955 6.17736 2.88042
#
# Compressibility (1/GPa) = 0.03991241
#
# Stress axis : x y z
#
# Youngs Moduli (GPa) = 26.73712 68.21436 37.65665
#
# Poissons Ratio (x) = 0.75227 0.51139
# Poissons Ratio (y) = 0.29486 -0.19793
# Poissons Ratio (z) = 0.36310 -0.35855
#
# Static dielectric constant tensor:
#      x y z
#    x 1.875290 0.000000 0.020240 
#    y 0.000000 1.889420 0.000000 
#    z 0.020240 0.000000 1.811770 
# 
# From -- ./inp_files/204465.got.cif
#   From: 2010.05.17/outbox.cif.g08.bks.cpg/sg12_103_cif.got.tgz:204465.got - 2010.06.03 13:09:07.
