data_PCOD9219925
_publ_section_title
;
Structure prediction by ZEFSAII (Michael W. Deem and Ramdas Pophale) SiO2 
 PCOD9219925
Probable space group: C 2/M
;
_chemical_formula_sum "Si O2"
_cell_formula_units_Z 60
_cell_length_a 24.117797
_cell_length_b 22.489250
_cell_length_c 11.790991
_cell_angle_alpha 90.000000
_cell_angle_beta 29.482323
_cell_angle_gamma 90.000000
_cell_volume 3147.493403
_symmetry_space_group_name_H-M "C 2/M"
_symmetry_group_IT_number 12
_symmetry_cell_setting 'monoclinic'
loop_
_space_group_symop_operation_xyz
x,y,z
-x,y,-z
-x,-y,-z
x,-y,z
1/2+x,1/2+y,z
1/2-x,1/2+y,-z
1/2-x,1/2-y,-z
1/2+x,1/2-y,z
loop_
_atom_site_type_symbol
_atom_site_label
_atom_site_fract_x
_atom_site_fract_y
_atom_site_fract_z
Si Si1 0.930231 0.272497 0.828777
Si Si2 0.259523 0.643925 0.933567
Si Si3 0.000000 0.797456 0.500000
Si Si4 0.282336 0.931883 0.214056
Si Si5 0.619356 0.068913 0.351710
Si Si6 0.534233 0.108144 0.743703
Si Si7 0.381027 0.275422 0.148476
Si Si8 0.283428 0.849353 0.413140
O O1 0.009542 0.243550 0.593810
O O2 0.994850 0.325897 0.776357
O O3 0.822304 0.301928 0.959392
O O4 0.895257 0.226111 0.988075
O O5 0.386610 0.665473 0.719288
O O6 0.251624 0.596418 0.845477
O O7 0.207823 0.613283 0.136947
O O8 0.236460 0.891009 0.397521
O O9 0.248550 0.000000 0.284107
O O10 0.418783 0.926353 0.974516
O O11 0.500000 0.079447 0.500000
O O12 0.596683 0.080240 0.524269
O O13 0.650400 0.000000 0.277140
O O14 0.615788 0.116020 0.704439
O O15 0.328120 0.211254 0.275461
O O16 0.302749 0.326930 0.337993
O O17 0.500000 0.279130 0.000000
#
# Coordination Sequence:
#
# PCOD9219925 Si02
#       8
#     8   8   4   8   8   8   8   8
#     4  11  22  38  61  90 126 160 198 250 308 371
#     4  11  24  42  60  91 123 160 209 251 312 377
#     4  12  28  38  63  90 127 166 202 256 310 370
#     4  11  22  40  64  89 120 158 205 263 314 358
#     4  11  21  38  62  86 118 162 203 254 311 361
#     4  11  21  36  61  92 124 153 199 254 308 366
#     4  11  22  38  61  88 125 164 197 236 301 371
#     4  11  23  37  60  92 124 161 202 246 300 370
#
# _framework density 19.062788000000001
#
# number of rings (size 3 to 8) (size 9 to 14) (size 15 to 20)
#    0.000    0.933    6.667    2.400    5.600    1.600 
#    0.000    1.333    0.000    0.400    0.000    0.000 
#    0.000    0.000    0.000    0.000    0.000    0.000 
#
# Total GULP energy -167722.894073 kJ/mol
# GULP energy per Si atom -5590.763136 kJ/mol
# Density = 1.901940 g / cm^3
# Si number density = 19.062788 Si / 1000 Ang^3
#
#
#
# Elastic Constant Matrix: (Units=GPa)
#
#
# Indices 1 2 3 4 5 6 
#
# 1 29.7709 6.7483 8.2341 0.0000 19.8092 0.0000
# 2 6.7483 54.2348 25.2996 0.0000 3.2083 0.0000
# 3 8.2341 25.2996 79.7398 0.0000 17.9695 0.0000
# 4 0.0000 0.0000 0.0000 13.9806 0.0000 4.9649
# 5 19.8092 3.2083 17.9695 0.0000 35.2046 0.0001
# 6 0.0000 0.0000 0.0000 4.9649 0.0001 10.4867
#
#
#
# Elastic Compliance Matrix: (Units=1/GPa)
#
#
# Indices 1 2 3 4 5 6 
#
# 1 0.055867 -0.006766 0.003755 0.000000 -0.032736 0.000001
# 2 -0.006766 0.022555 -0.007743 0.000000 0.005704 0.000000
# 3 0.003755 -0.007743 0.016867 0.000000 -0.010017 0.000000
# 4 0.000000 0.000000 0.000000 0.085984 0.000000 -0.040709
# 5 -0.032736 0.005704 -0.010017 0.000000 0.051418 -0.000001
# 6 0.000001 0.000000 0.000000 -0.040709 -0.000001 0.114632
#
#
# Mechanical properties :
#
#
# Convention : Reuss Voigt Hill
#
# Bulk Modulus (GPa) = 13.55385 27.14550 20.34967
# Shear Modulus (GPa) = 12.70890 20.16529 16.43710
#
# Velocity S-wave (km/s) = 2.58483 3.25597 2.93961
# Velocity P-wave (km/s) = 4.00425 5.32973 4.71381
#
# Compressibility (1/GPa) = 0.07377979
#
# Stress axis : x y z
#
# Youngs Moduli (GPa) = 17.89971 44.33656 59.28761
#
# Poissons Ratio (x) = 0.30000 -0.22262
# Poissons Ratio (y) = 0.12112 0.45905
# Poissons Ratio (z) = -0.06721 0.34329
#
# Static dielectric constant tensor:
#      x y z
#    x 1.654250 0.000000 0.016720 
#    y 0.000000 1.660600 0.000000 
#    z 0.016720 0.000000 1.667070 
# 
# From -- ./inp_files/178007.got.cif
#   From: 2010.05.17/outbox.cif.g08.bks.cpg/sg12_90_cif.got.tgz:178007.got - 2010.06.03 13:09:07.
