data_PCOD9219215
_publ_section_title
;
Structure prediction by ZEFSAII (Michael W. Deem and Ramdas Pophale) SiO2 
 PCOD9219215
Probable space group: C 2/M
;
_chemical_formula_sum "Si O2"
_cell_formula_units_Z 40
_cell_length_a 19.214625
_cell_length_b 19.781124
_cell_length_c 13.573462
_cell_angle_alpha 90.000000
_cell_angle_beta 152.517388
_cell_angle_gamma 90.000000
_cell_volume 2380.816001
_symmetry_space_group_name_H-M "C 2/M"
_symmetry_group_IT_number 12
_symmetry_cell_setting 'monoclinic'
loop_
_space_group_symop_operation_xyz
x,y,z
-x,y,-z
-x,-y,-z
x,-y,z
1/2+x,1/2+y,z
1/2-x,1/2+y,-z
1/2-x,1/2-y,-z
1/2+x,1/2-y,z
loop_
_atom_site_type_symbol
_atom_site_label
_atom_site_fract_x
_atom_site_fract_y
_atom_site_fract_z
Si Si1 0.811863 0.684526 0.019771
Si Si2 0.620198 0.281057 0.065138
Si Si3 0.545298 0.421253 0.671089
Si Si4 0.118861 0.160588 0.377597
Si Si5 0.853573 0.685819 0.511465
O O1 0.837509 0.713872 0.941902
O O2 0.691113 0.625401 0.871045
O O3 0.750000 0.750000 0.000000
O O4 0.973218 0.664412 0.267721
O O5 0.763034 0.316383 0.295535
O O6 0.500000 0.264602 0.000000
O O7 0.529767 0.329304 0.876712
O O8 0.500000 0.413491 0.500000
O O9 0.573668 0.500000 0.726077
O O10 0.416321 0.393017 0.582307
O O11 0.145348 0.234084 0.459922
O O12 0.256869 0.149502 0.475788
#
# Coordination Sequence:
#
# PCOD9219215 Si02
#       5
#     8   8   8   8   8
#     4  11  20  32  53  86 110 143 181 234 273 313
#     4   9  17  30  54  83 110 136 175 233 284 319
#     4  11  23  38  54  76 115 154 181 217 277 339
#     4   9  17  34  51  79 105 141 181 223 271 323
#     4   9  17  30  56  80 107 131 178 236 275 310
#
# _framework density 16.800961999999998
#
# number of rings (size 3 to 8) (size 9 to 14) (size 15 to 20)
#    0.000    2.200    4.000    2.400    0.000    0.000 
#    0.000    1.000    0.000   10.800    0.000    0.000 
#    0.000    0.000    0.000    0.000    0.000    0.000 
#
# Total GULP energy -111474.793915 kJ/mol
# GULP energy per Si atom -5573.739696 kJ/mol
# Density = 1.676272 g / cm^3
# Si number density = 16.800962 Si / 1000 Ang^3
#
#
#
# Elastic Constant Matrix: (Units=GPa)
#
#
# Indices 1 2 3 4 5 6 
#
# 1 84.4671 44.4049 39.4976 0.0000 -1.3967 0.0000
# 2 44.4049 84.7445 37.3238 0.0000 4.9991 0.0000
# 3 39.4976 37.3238 100.9086 0.0000 13.1283 0.0000
# 4 0.0000 0.0000 0.0000 18.5551 0.0000 -2.2010
# 5 -1.3967 4.9991 13.1283 0.0000 28.9043 0.0000
# 6 0.0000 0.0000 0.0000 -2.2010 0.0000 18.5784
#
#
#
# Elastic Compliance Matrix: (Units=1/GPa)
#
#
# Indices 1 2 3 4 5 6 
#
# 1 0.018217 -0.007661 -0.004872 0.000000 0.004418 0.000000
# 2 -0.007661 0.017318 -0.003156 0.000000 -0.001932 0.000000
# 3 -0.004872 -0.003156 0.013757 0.000000 -0.005938 0.000000
# 4 0.000000 0.000000 0.000000 0.054662 0.000000 0.006476
# 5 0.004418 -0.001932 -0.005938 0.000000 0.037842 0.000000
# 6 0.000000 0.000000 0.000000 0.006476 0.000000 0.054593
#
#
# Mechanical properties :
#
#
# Convention : Reuss Voigt Hill
#
# Bulk Modulus (GPa) = 55.81703 56.95255 56.38479
# Shear Modulus (GPa) = 21.39159 23.13381 22.26270
#
# Velocity S-wave (km/s) = 3.57211 3.71473 3.64412
# Velocity P-wave (km/s) = 7.09281 7.23678 7.16516
#
# Compressibility (1/GPa) = 0.01791568
#
# Stress axis : x y z
#
# Youngs Moduli (GPa) = 54.89275 57.74334 72.69188
#
# Poissons Ratio (x) = 0.44234 0.35415
# Poissons Ratio (y) = 0.42051 0.22939
# Poissons Ratio (z) = 0.26744 0.18222
#
# Static dielectric constant tensor:
#      x y z
#    x 1.622540 0.000000 -0.004430 
#    y 0.000000 1.520550 0.000000 
#    z -0.004430 0.000000 1.604800 
# 
# From -- ./inp_files/106317.got.cif
#   From: 2010.05.17/outbox.cif.g08.bks.cpg/sg12_54_cif.got.tgz:106317.got - 2010.06.03 13:09:07.
