data_PCOD9219120
_publ_section_title
;
Structure prediction by ZEFSAII (Michael W. Deem and Ramdas Pophale) SiO2 
 PCOD9219120
Probable space group: C 2/M
;
_chemical_formula_sum "Si O2"
_cell_formula_units_Z 56
_cell_length_a 27.882058
_cell_length_b 7.868421
_cell_length_c 18.268212
_cell_angle_alpha 90.000000
_cell_angle_beta 125.642328
_cell_angle_gamma 90.000000
_cell_volume 3257.038910
_symmetry_space_group_name_H-M "C 2/M"
_symmetry_group_IT_number 12
_symmetry_cell_setting 'monoclinic'
loop_
_space_group_symop_operation_xyz
x,y,z
-x,y,-z
-x,-y,-z
x,-y,z
1/2+x,1/2+y,z
1/2-x,1/2+y,-z
1/2-x,1/2-y,-z
1/2+x,1/2-y,z
loop_
_atom_site_type_symbol
_atom_site_label
_atom_site_fract_x
_atom_site_fract_y
_atom_site_fract_z
Si Si1 0.766683 0.795003 0.898274
Si Si2 0.540681 0.304246 0.722103
Si Si3 0.211889 0.705217 0.536315
Si Si4 0.420198 0.798476 0.558733
Si Si5 0.910139 0.298778 0.388618
Si Si6 0.844094 0.794001 0.099647
Si Si7 0.730414 0.202094 0.712724
O O1 0.704885 0.754208 0.883497
O O2 0.764879 0.727715 0.813751
O O3 0.770747 0.000000 0.898628
O O4 0.818016 0.734195 0.998672
O O5 0.533893 0.500000 0.736075
O O6 0.475294 0.229552 0.660244
O O7 0.566329 0.289705 0.662643
O O8 0.591731 0.228600 0.819309
O O9 0.210349 0.500000 0.539362
O O10 0.250000 0.750000 0.500000
O O11 0.143652 0.766059 0.471865
O O12 0.238202 0.769472 0.637342
O O13 0.433290 0.733884 0.487782
O O14 0.413266 0.000000 0.542469
O O15 0.924701 0.500000 0.393453
O O16 0.839337 0.282437 0.331547
O O17 0.846423 0.000000 0.100533
O O18 0.743101 0.000000 0.721035
#
# Coordination Sequence:
#
# PCOD9219120 Si02
#       7
#     8   8   8   8   8   8   8
#     4   9  15  27  45  60  80 117 155 179 207 248
#     4  11  20  27  37  60  93 120 143 176 215 249
#     4   9  18  33  50  69  88 105 135 180 224 264
#     4   9  19  32  45  60  82 113 149 180 204 251
#     4   9  16  28  43  59  81 114 153 181 200 239
#     4   9  18  27  37  60  91 117 145 184 216 240
#     4   8  14  26  46  66  83 110 147 178 207 255
#
# _framework density 17.193529999999999
#
# number of rings (size 3 to 8) (size 9 to 14) (size 15 to 20)
#    0.000    2.857    1.429    2.571    0.000    3.429 
#    0.000    2.857    0.000    0.000    0.000    1.000 
#    0.000    8.000    0.000    0.000    0.000    0.000 
#
# Total GULP energy -155957.489200 kJ/mol
# GULP energy per Si atom -5569.910329 kJ/mol
# Density = 1.715440 g / cm^3
# Si number density = 17.193530 Si / 1000 Ang^3
#
#
#
# Elastic Constant Matrix: (Units=GPa)
#
#
# Indices 1 2 3 4 5 6 
#
# 1 65.6503 2.1972 63.4838 0.0000 -7.4928 0.0000
# 2 2.1972 15.1667 5.8731 0.0000 0.6556 0.0000
# 3 63.4838 5.8731 171.5186 0.0000 5.2963 0.0000
# 4 0.0000 0.0000 0.0000 13.5410 0.0000 -0.1108
# 5 -7.4928 0.6556 5.2963 0.0000 22.4993 0.0000
# 6 0.0000 0.0000 0.0000 -0.1108 0.0000 18.5592
#
#
#
# Elastic Compliance Matrix: (Units=1/GPa)
#
#
# Indices 1 2 3 4 5 6 
#
# 1 0.026213 -0.000393 -0.010032 0.000000 0.011102 0.000000
# 2 -0.000393 0.066871 -0.002095 0.000000 -0.001586 0.000000
# 3 -0.010032 -0.002095 0.009787 0.000000 -0.005584 0.000000
# 4 0.000000 0.000000 0.000000 0.073853 0.000000 0.000441
# 5 0.011102 -0.001586 -0.005584 0.000000 0.049504 0.000000
# 6 0.000000 0.000000 0.000000 0.000441 0.000000 0.053884
#
#
# Mechanical properties :
#
#
# Convention : Reuss Voigt Hill
#
# Bulk Modulus (GPa) = 12.84824 43.93818 28.39321
# Shear Modulus (GPa) = 15.10138 22.97202 19.03670
#
# Velocity S-wave (km/s) = 2.96686 3.65922 3.33107
# Velocity P-wave (km/s) = 4.38466 6.59270 5.59861
#
# Compressibility (1/GPa) = 0.07783168
#
# Stress axis : x y z
#
# Youngs Moduli (GPa) = 38.14900 14.95423 102.17228
#
# Poissons Ratio (x) = 0.00587 1.02495
# Poissons Ratio (y) = 0.01498 0.21409
# Poissons Ratio (z) = 0.38269 0.03134
#
# Static dielectric constant tensor:
#      x y z
#    x 1.553070 0.000000 0.014110 
#    y 0.000000 1.626820 0.000000 
#    z 0.014110 0.000000 1.653300 
# 
# From -- ./inp_files/291662.got.cif
#   From: 2010.05.17/outbox.cif.g08.bks.cpg/sg12_146_cif.got.tgz:291662.got - 2010.06.03 13:09:07.
