data_PCOD9219296
_publ_section_title
;
Structure prediction by ZEFSAII (Michael W. Deem and Ramdas Pophale) SiO2 
 PCOD9219296
Probable space group: C 2/M
;
_chemical_formula_sum "Si O2"
_cell_formula_units_Z 64
_cell_length_a 32.139587
_cell_length_b 13.481083
_cell_length_c 9.301321
_cell_angle_alpha 90.000000
_cell_angle_beta 133.708005
_cell_angle_gamma 90.000000
_cell_volume 2913.199835
_symmetry_space_group_name_H-M "C 2/M"
_symmetry_group_IT_number 12
_symmetry_cell_setting 'monoclinic'
loop_
_space_group_symop_operation_xyz
x,y,z
-x,y,-z
-x,-y,-z
x,-y,z
1/2+x,1/2+y,z
1/2-x,1/2+y,-z
1/2-x,1/2-y,-z
1/2+x,1/2-y,z
loop_
_atom_site_type_symbol
_atom_site_label
_atom_site_fract_x
_atom_site_fract_y
_atom_site_fract_z
Si Si1 0.794996 0.110443 0.748068
Si Si2 0.415981 0.383051 0.377261
Si Si3 0.335216 0.113596 0.619499
Si Si4 0.886459 0.615069 0.060558
Si Si5 0.536606 0.702043 0.774190
Si Si6 0.846663 0.199027 0.445090
Si Si7 0.411123 0.611751 0.844974
Si Si8 0.776544 0.710108 0.914063
O O1 0.733540 0.119357 0.522216
O O2 0.848494 0.121943 0.770557
O O3 0.794138 0.194452 0.864090
O O4 0.797107 0.000000 0.817620
O O5 0.412710 0.500000 0.402437
O O6 0.421962 0.370646 0.219912
O O7 0.473576 0.330662 0.576212
O O8 0.365282 0.318777 0.325501
O O9 0.364856 0.133156 0.843877
O O10 0.349332 0.192951 0.527852
O O11 0.348943 0.000000 0.609303
O O12 0.901808 0.500000 0.111240
O O13 0.832146 0.640028 0.034614
O O14 0.939921 0.689391 0.210183
O O15 0.546662 0.682000 0.965990
O O16 0.894890 0.136735 0.644542
O O17 0.780624 0.163779 0.298255
O O18 0.432169 0.500000 0.909949
O O19 0.750000 0.750000 0.000000
#
# Coordination Sequence:
#
# PCOD9219296 Si02
#       8
#     8   8   8   8   8   8   8   8
#     4   9  18  32  55  83 116 158 203 241 292 365
#     4  11  25  44  65  89 123 164 205 255 320 383
#     4   9  18  36  59  87 125 167 205 252 309 364
#     4  11  22  39  64  92 122 164 211 254 302 365
#     4  11  22  44  64  87 118 164 208 255 308 372
#     4  11  22  37  60  94 130 159 204 260 312 367
#     4  11  20  34  60  90 118 155 205 256 312 371
#     4  11  22  37  55  88 131 169 196 246 308 367
#
# _framework density 21.968969000000001
#
# number of rings (size 3 to 8) (size 9 to 14) (size 15 to 20)
#    0.000    1.500    2.500    3.375    0.000    5.000 
#    0.000    6.250    0.000    1.500    0.000    0.000 
#    0.000    0.000    0.000    0.000    0.000    0.000 
#
# Total GULP energy -178720.263429 kJ/mol
# GULP energy per Si atom -5585.008232 kJ/mol
# Density = 2.191897 g / cm^3
# Si number density = 21.968969 Si / 1000 Ang^3
#
#
#
# Elastic Constant Matrix: (Units=GPa)
#
#
# Indices 1 2 3 4 5 6 
#
# 1 89.1989 32.1399 7.1228 0.0000 1.3020 0.0000
# 2 32.1399 116.8015 11.7709 0.0000 6.1641 0.0000
# 3 7.1228 11.7709 62.5369 0.0000 4.4235 0.0000
# 4 0.0000 0.0000 0.0000 30.8347 0.0000 -0.5822
# 5 1.3020 6.1641 4.4235 0.0000 28.5897 0.0000
# 6 0.0000 0.0000 0.0000 -0.5822 0.0000 21.2561
#
#
#
# Elastic Compliance Matrix: (Units=1/GPa)
#
#
# Indices 1 2 3 4 5 6 
#
# 1 0.012485 -0.003369 -0.000808 0.000000 0.000283 0.000000
# 2 -0.003369 0.009713 -0.001322 0.000000 -0.001736 0.000000
# 3 -0.000808 -0.001322 0.016489 0.000000 -0.002229 0.000000
# 4 0.000000 0.000000 0.000000 0.032448 0.000000 0.000889
# 5 0.000283 -0.001736 -0.002229 0.000000 0.035684 0.000000
# 6 0.000000 0.000000 0.000000 0.000889 0.000000 0.047070
#
#
# Mechanical properties :
#
#
# Convention : Reuss Voigt Hill
#
# Bulk Modulus (GPa) = 36.11370 41.17827 38.64598
# Shear Modulus (GPa) = 28.71636 30.63633 29.67634
#
# Velocity S-wave (km/s) = 3.61935 3.73839 3.67935
# Velocity P-wave (km/s) = 5.82584 6.11707 5.97323
#
# Compressibility (1/GPa) = 0.02769033
#
# Stress axis : x y z
#
# Youngs Moduli (GPa) = 80.09483 102.95050 60.64627
#
# Poissons Ratio (x) = 0.34684 0.04900
# Poissons Ratio (y) = 0.26984 0.08016
# Poissons Ratio (z) = 0.06471 0.13607
#
# Static dielectric constant tensor:
#      x y z
#    x 1.820970 0.000000 -0.031610 
#    y 0.000000 1.798420 0.000000 
#    z -0.031610 0.000000 1.892170 
# 
# From -- ./inp_files/112035.got.cif
#   From: 2010.05.17/outbox.cif.g08.bks.cpg/sg12_57_cif.got.tgz:112035.got - 2010.06.03 13:09:07.
