data_PCOD9219608
_publ_section_title
;
Structure prediction by ZEFSAII (Michael W. Deem and Ramdas Pophale) SiO2 
 PCOD9219608
Probable space group: C 2/M
;
_chemical_formula_sum "Si O2"
_cell_formula_units_Z 56
_cell_length_a 24.216552
_cell_length_b 7.619336
_cell_length_c 19.755062
_cell_angle_alpha 90.000000
_cell_angle_beta 51.829130
_cell_angle_gamma 90.000000
_cell_volume 2865.661968
_symmetry_space_group_name_H-M "C 2/M"
_symmetry_group_IT_number 12
_symmetry_cell_setting 'monoclinic'
loop_
_space_group_symop_operation_xyz
x,y,z
-x,y,-z
-x,-y,-z
x,-y,z
1/2+x,1/2+y,z
1/2-x,1/2+y,-z
1/2-x,1/2-y,-z
1/2+x,1/2-y,z
loop_
_atom_site_type_symbol
_atom_site_label
_atom_site_fract_x
_atom_site_fract_y
_atom_site_fract_z
Si Si1 0.633256 0.792490 0.978452
Si Si2 0.558060 0.788101 0.751806
Si Si3 0.085748 0.297124 0.876736
Si Si4 0.252000 0.296610 0.711104
Si Si5 0.287228 0.211150 0.401558
Si Si6 0.210279 0.783815 0.174548
Si Si7 0.092575 0.206763 0.160768
O O1 0.585076 0.720689 0.953239
O O2 0.713505 0.727485 0.911615
O O3 0.636384 0.000000 0.961647
O O4 0.607241 0.772751 0.073982
O O5 0.552254 0.719427 0.833969
O O6 0.631893 0.727198 0.664669
O O7 0.488874 0.741669 0.763009
O O8 0.561112 0.000000 0.754116
O O9 0.060911 0.500000 0.898482
O O10 0.169399 0.297100 0.795102
O O11 0.274029 0.500000 0.688985
O O12 0.252991 0.219620 0.634984
O O13 0.292464 0.222593 0.745325
O O14 0.250000 0.250000 0.500000
O O15 0.289643 0.000000 0.392568
O O16 0.147656 0.722486 0.173848
O O17 0.209876 0.000000 0.175791
O O18 0.103801 0.000000 0.149921
#
# Coordination Sequence:
#
# PCOD9219608 Si02
#       7
#     8   8   8   8   8   8   8
#     4   9  16  29  48  65  82 114 158 198 227 255
#     4   9  18  33  48  64  88 120 152 178 212 268
#     4   7  12  25  46  65  80 107 154 195 215 245
#     4   7  11  24  46  69  87 109 144 184 218 252
#     4   9  17  30  53  78  94 108 135 178 226 272
#     4   8  15  28  46  65  87 117 157 194 218 246
#     4  11  21  29  40  64  95 123 149 186 227 259
#
# _framework density 19.541733000000001
#
# number of rings (size 3 to 8) (size 9 to 14) (size 15 to 20)
#    0.000    3.429    0.000    4.286    0.000    1.143 
#    0.000    4.286    0.000    7.714    0.000    6.000 
#    0.000    0.000    0.000    0.000    0.000    0.000 
#
# Total GULP energy -155961.489811 kJ/mol
# GULP energy per Si atom -5570.053208 kJ/mol
# Density = 1.949726 g / cm^3
# Si number density = 19.541733 Si / 1000 Ang^3
#
#
#
# Elastic Constant Matrix: (Units=GPa)
#
#
# Indices 1 2 3 4 5 6 
#
# 1 139.8898 -3.1742 55.8189 -0.0016 11.0503 0.0475
# 2 -3.1742 33.9244 -6.2651 -0.0012 0.7296 0.0218
# 3 55.8189 -6.2651 113.4634 0.0023 19.0306 0.0182
# 4 -0.0016 -0.0012 0.0023 15.2450 -0.0012 -0.6546
# 5 11.0503 0.7296 19.0306 -0.0012 18.5632 0.0028
# 6 0.0475 0.0218 0.0182 -0.6546 0.0028 12.6321
#
#
#
# Elastic Compliance Matrix: (Units=1/GPa)
#
#
# Indices 1 2 3 4 5 6 
#
# 1 0.008909 0.000077 -0.004213 0.000000 -0.000987 -0.000027
# 2 0.000077 0.029966 0.002200 -0.000001 -0.003479 -0.000055
# 3 -0.004213 0.002200 0.012803 -0.000003 -0.010704 -0.000004
# 4 0.000000 -0.000001 -0.000003 0.065742 0.000007 0.003407
# 5 -0.000987 -0.003479 -0.010704 0.000007 0.065568 0.000011
# 6 -0.000027 -0.000055 -0.000004 0.003407 0.000011 0.079340
#
#
# Mechanical properties :
#
#
# Convention : Reuss Voigt Hill
#
# Bulk Modulus (GPa) = 20.91788 42.22632 31.57210
# Shear Modulus (GPa) = 17.72204 25.34793 21.53498
#
# Velocity S-wave (km/s) = 3.01471 3.60546 3.32324
# Velocity P-wave (km/s) = 4.77969 6.24401 5.56026
#
# Compressibility (1/GPa) = 0.04780598
#
# Stress axis : x y z
#
# Youngs Moduli (GPa) = 112.24143 33.37151 78.10738
#
# Poissons Ratio (x) = -0.00256 0.32908
# Poissons Ratio (y) = -0.00862 -0.17187
# Poissons Ratio (z) = 0.47289 -0.07343
#
# Static dielectric constant tensor:
#      x y z
#    x 1.726360 0.000000 0.033280 
#    y 0.000000 1.765500 0.000000 
#    z 0.033280 0.000000 1.689240 
# 
# From -- ./inp_files/287315.got.cif
#   From: 2010.05.17/outbox.cif.g08.bks.cpg/sg12_144_cif.got.tgz:287315.got - 2010.06.03 13:09:07.
