data_PCOD9219392
_publ_section_title
;
Structure prediction by ZEFSAII (Michael W. Deem and Ramdas Pophale) SiO2 
 PCOD9219392
Probable space group: C 2/M
;
_chemical_formula_sum "Si O2"
_cell_formula_units_Z 58
_cell_length_a 27.997340
_cell_length_b 17.427071
_cell_length_c 10.872070
_cell_angle_alpha 90.000000
_cell_angle_beta 148.326698
_cell_angle_gamma 90.000000
_cell_volume 2785.318550
_symmetry_space_group_name_H-M "C 2/M"
_symmetry_group_IT_number 12
_symmetry_cell_setting 'monoclinic'
loop_
_space_group_symop_operation_xyz
x,y,z
-x,y,-z
-x,-y,-z
x,-y,z
1/2+x,1/2+y,z
1/2-x,1/2+y,-z
1/2-x,1/2-y,-z
1/2+x,1/2-y,z
loop_
_atom_site_type_symbol
_atom_site_label
_atom_site_fract_x
_atom_site_fract_y
_atom_site_fract_z
Si Si1 0.096094 0.741833 0.643431
Si Si2 0.142284 0.584276 0.633584
Si Si3 0.890450 0.810115 0.600379
Si Si4 0.234479 0.088479 0.538028
Si Si5 0.432007 0.589823 0.019866
Si Si6 0.600556 0.855256 0.269173
Si Si7 0.150247 0.878958 0.899672
Si Si8 0.500000 0.500000 0.500000
O O1 0.112982 0.652205 0.660110
O O2 0.099910 0.778753 0.516287
O O3 0.161659 0.794199 0.869522
O O4 0.000000 0.752276 0.500000
O O5 0.106935 0.500000 0.587836
O O6 0.114918 0.605588 0.433585
O O7 0.251339 0.584177 0.874917
O O8 0.798459 0.857675 0.423217
O O9 0.890942 0.736133 0.689775
O O10 0.976995 0.864855 0.812902
O O11 0.322643 0.117289 0.657894
O O12 0.246441 0.000000 0.600993
O O13 0.148312 0.092241 0.255534
O O14 0.454992 0.500000 0.094372
O O15 0.392097 0.624071 0.057384
O O16 0.500000 0.872466 0.000000
O O17 0.079913 0.932394 0.671117
#
# Coordination Sequence:
#
# PCOD9219392 Si02
#       8
#     8   8   8   8   8   8   8   2
#     4  11  24  43  66  98 137 181 229 279 336 400
#     4  11  24  44  69  97 133 179 232 279 337 402
#     4  11  23  41  64 100 139 173 221 278 345 407
#     4  11  23  40  64  96 135 174 220 276 344 407
#     4  11  20  36  65  97 134 170 213 275 351 420
#     4  11  24  43  68  97 133 184 233 277 325 400
#     4  12  21  41  66 103 132 173 218 279 346 410
#     4  12  20  32  72 100 128 164 220 272 336 418
#
# _framework density 20.823471999999999
#
# number of rings (size 3 to 8) (size 9 to 14) (size 15 to 20)
#    0.000    0.828    4.828    2.897    0.000    2.483 
#    1.241    1.379    0.000    0.000    0.000    0.000 
#    0.000    0.000    0.000    0.000    0.000    0.000 
#
# Total GULP energy -161893.955393 kJ/mol
# GULP energy per Si atom -5582.550186 kJ/mol
# Density = 2.077608 g / cm^3
# Si number density = 20.823472 Si / 1000 Ang^3
#
#
#
# Elastic Constant Matrix: (Units=GPa)
#
#
# Indices 1 2 3 4 5 6 
#
# 1 81.1364 71.9572 5.5677 0.0000 6.5849 0.0000
# 2 71.9572 158.3831 46.4106 0.0000 4.6473 0.0000
# 3 5.5677 46.4106 63.4467 0.0000 7.8834 0.0000
# 4 0.0000 0.0000 0.0000 13.2581 0.0000 20.0312
# 5 6.5849 4.6473 7.8834 0.0000 15.2119 0.0000
# 6 0.0000 0.0000 0.0000 20.0312 0.0000 26.1674
#
#
#
# Elastic Compliance Matrix: (Units=1/GPa)
#
#
# Indices 1 2 3 4 5 6 
#
# 1 0.024606 -0.013525 0.009132 0.000000 -0.011252 0.000000
# 2 -0.013525 0.015476 -0.010981 0.000000 0.006817 0.000000
# 3 0.009132 -0.010981 0.024654 0.000000 -0.013375 0.000000
# 4 0.000000 0.000000 0.000000 -0.481722 0.000000 0.368759
# 5 -0.011252 0.006817 -0.013375 0.000000 0.075458 0.000000
# 6 0.000000 0.000000 0.000000 0.368759 0.000000 -0.244071
#
#
# Mechanical properties :
#
#
# Convention : Reuss Voigt Hill
#
# Bulk Modulus (GPa) = 29.42090 61.20412 45.31251
# Shear Modulus (GPa) = -9.19929 22.86285 6.83178
#
# Velocity S-wave (km/s) = -2.10412 3.31711 1.81326
# Velocity P-wave (km/s) = 2.87337 6.64279 5.11776
#
# Compressibility (1/GPa) = 0.03398945
#
# Stress axis : x y z
#
# Youngs Moduli (GPa) = 40.63967 64.61498 40.56104
#
# Poissons Ratio (x) = 0.87393 -0.37042
# Poissons Ratio (y) = 0.54966 0.44540
# Poissons Ratio (z) = -0.37114 0.70953
#
# Static dielectric constant tensor:
#      x y z
#    x 1.730560 0.000000 -0.026170 
#    y 0.000000 1.762160 0.000000 
#    z -0.026170 0.000000 1.747040 
# 
# From -- ./inp_files/189959.got.cif
#   From: 2010.05.17/outbox.cif.g08.bks.cpg/sg12_95_cif.got.tgz:189959.got - 2010.06.03 13:09:07.
