data_PCOD9219490
_publ_section_title
;
Structure prediction by ZEFSAII (Michael W. Deem and Ramdas Pophale) SiO2 
 PCOD9219490
Probable space group: C 2/M
;
_chemical_formula_sum "Si O2"
_cell_formula_units_Z 56
_cell_length_a 16.235470
_cell_length_b 19.256837
_cell_length_c 22.477463
_cell_angle_alpha 90.000000
_cell_angle_beta 154.969043
_cell_angle_gamma 90.000000
_cell_volume 2973.364997
_symmetry_space_group_name_H-M "C 2/M"
_symmetry_group_IT_number 12
_symmetry_cell_setting 'monoclinic'
loop_
_space_group_symop_operation_xyz
x,y,z
-x,y,-z
-x,-y,-z
x,-y,z
1/2+x,1/2+y,z
1/2-x,1/2+y,-z
1/2-x,1/2-y,-z
1/2+x,1/2-y,z
loop_
_atom_site_type_symbol
_atom_site_label
_atom_site_fract_x
_atom_site_fract_y
_atom_site_fract_z
Si Si1 0.771897 0.182017 0.836554
Si Si2 0.177021 0.582022 0.872107
Si Si3 0.724061 0.836706 0.124955
Si Si4 0.278142 0.216092 0.333929
Si Si5 0.047871 0.078233 0.628160
Si Si6 0.859326 0.176264 0.085802
Si Si7 0.776979 0.375664 0.670276
O O1 0.667947 0.118796 0.801855
O O2 0.714163 0.256139 0.827279
O O3 0.738441 0.190401 0.744730
O O4 0.000000 0.173857 0.000000
O O5 0.211904 0.500000 0.891335
O O6 0.980858 0.599316 0.779317
O O7 0.333680 0.624563 0.013580
O O8 0.856667 0.883611 0.253876
O O9 0.755308 0.853449 0.076386
O O10 0.500000 0.842256 0.000000
O O11 0.500000 0.203298 0.500000
O O12 0.235340 0.298467 0.311018
O O13 0.091267 0.185624 0.246807
O O14 0.202868 0.077095 0.675659
O O15 0.870713 0.119346 0.481887
O O16 0.987023 0.000000 0.602754
O O17 0.750000 0.250000 0.000000
#
# Coordination Sequence:
#
# PCOD9219490 Si02
#       7
#     8   8   8   8   8   8   8
#     4  11  21  41  64  92 124 164 218 274 315 376
#     4  12  25  40  66  96 127 168 220 268 330 395
#     4  11  21  36  63  89 125 169 215 269 326 388
#     4  12  22  40  68  99 129 169 226 274 324 385
#     4  11  22  36  56  88 132 172 205 254 324 397
#     4  12  22  41  65  93 129 171 219 279 322 383
#     4  11  20  39  62  90 128 167 208 262 323 391
#
# _framework density 18.833880000000001
#
# number of rings (size 3 to 8) (size 9 to 14) (size 15 to 20)
#    0.000    0.571    7.143    3.429    0.000    2.286 
#    0.000    2.857    0.000    1.714    0.000    0.000 
#    0.000    0.000    0.000    0.000    0.000    0.000 
#
# Total GULP energy -156322.248470 kJ/mol
# GULP energy per Si atom -5582.937445 kJ/mol
# Density = 1.879101 g / cm^3
# Si number density = 18.833880 Si / 1000 Ang^3
#
#
#
# Elastic Constant Matrix: (Units=GPa)
#
#
# Indices 1 2 3 4 5 6 
#
# 1 81.0831 35.8324 28.9403 0.0061 -16.8772 0.0035
# 2 35.8324 87.8023 26.6746 0.0009 -8.5869 -0.0048
# 3 28.9403 26.6746 71.8601 0.0076 -5.5293 -0.0013
# 4 0.0061 0.0009 0.0076 13.3656 -0.0003 -2.2783
# 5 -16.8772 -8.5869 -5.5293 -0.0003 36.8364 0.0000
# 6 0.0035 -0.0048 -0.0013 -2.2783 0.0000 17.1539
#
#
#
# Elastic Compliance Matrix: (Units=1/GPa)
#
#
# Indices 1 2 3 4 5 6 
#
# 1 0.017557 -0.005139 -0.004690 -0.000006 0.006142 -0.000006
# 2 -0.005139 0.014537 -0.003285 0.000004 0.000541 0.000005
# 3 -0.004690 -0.003285 0.016996 -0.000007 -0.000363 0.000000
# 4 -0.000006 0.000004 -0.000007 0.076552 -0.000002 0.010167
# 5 0.006142 0.000541 -0.000363 -0.000002 0.030033 -0.000001
# 6 -0.000006 0.000005 0.000000 0.010167 -0.000001 0.059646
#
#
# Mechanical properties :
#
#
# Convention : Reuss Voigt Hill
#
# Bulk Modulus (GPa) = 43.74209 47.07111 45.40660
# Shear Modulus (GPa) = 20.06656 23.42440 21.74548
#
# Velocity S-wave (km/s) = 3.26766 3.53049 3.40162
# Velocity P-wave (km/s) = 6.12474 6.45494 6.29201
#
# Compressibility (1/GPa) = 0.02286128
#
# Stress axis : x y z
#
# Youngs Moduli (GPa) = 56.95835 68.78765 58.83643
#
# Poissons Ratio (x) = 0.35352 0.27596
# Poissons Ratio (y) = 0.29273 0.19327
# Poissons Ratio (z) = 0.26715 0.22596
#
# Static dielectric constant tensor:
#      x y z
#    x 1.663890 0.000000 0.018900 
#    y 0.000000 1.660230 -0.000010 
#    z 0.018900 -0.000010 1.690540 
# 
# From -- ./inp_files/311731.got.cif
#   From: 2010.05.17/outbox.cif.g08.bks.cpg/sg12_156_cif.got.tgz:311731.got - 2010.06.03 13:09:07.
