data_PCOD9219154
_publ_section_title
;
Structure prediction by ZEFSAII (Michael W. Deem and Ramdas Pophale) SiO2 
 PCOD9219154
Probable space group: C 2/M
;
_chemical_formula_sum "Si O2"
_cell_formula_units_Z 56
_cell_length_a 26.728016
_cell_length_b 7.744189
_cell_length_c 20.114479
_cell_angle_alpha 90.000000
_cell_angle_beta 47.918624
_cell_angle_gamma 90.000000
_cell_volume 3090.072947
_symmetry_space_group_name_H-M "C 2/M"
_symmetry_group_IT_number 12
_symmetry_cell_setting 'monoclinic'
loop_
_space_group_symop_operation_xyz
x,y,z
-x,y,-z
-x,-y,-z
x,-y,z
1/2+x,1/2+y,z
1/2-x,1/2+y,-z
1/2-x,1/2-y,-z
1/2+x,1/2-y,z
loop_
_atom_site_type_symbol
_atom_site_label
_atom_site_fract_x
_atom_site_fract_y
_atom_site_fract_z
Si Si1 0.305706 0.795933 0.895706
Si Si2 0.501167 0.210492 0.106016
Si Si3 0.508921 0.789066 0.599129
Si Si4 0.106545 0.293036 0.400636
Si Si5 0.042271 0.287824 0.214687
Si Si6 0.891293 0.711258 0.100565
Si Si7 0.258516 0.295968 0.789348
O O1 0.380357 0.726722 0.845753
O O2 0.281773 0.750597 0.843008
O O3 0.313013 0.000000 0.890791
O O4 0.250000 0.750000 0.000000
O O5 0.511806 0.269345 0.171680
O O6 0.433556 0.265890 0.127813
O O7 0.500545 0.000000 0.107402
O O8 0.564206 0.260974 0.003234
O O9 0.574162 0.732137 0.498954
O O10 0.443830 0.734570 0.613519
O O11 0.499301 0.732724 0.683235
O O12 0.508939 0.000000 0.599852
O O13 0.101822 0.500000 0.405314
O O14 0.182401 0.249306 0.314522
O O15 0.042620 0.500000 0.213828
O O16 0.890534 0.500000 0.101986
O O17 0.815174 0.776586 0.162531
O O18 0.251330 0.500000 0.794846
#
# Coordination Sequence:
#
# PCOD9219154 Si02
#       7
#     8   8   8   8   8   8   8
#     4  11  21  32  46  68  98 125 151 183 228 278
#     4   8  13  24  42  63  87 114 150 193 230 260
#     4   8  14  26  45  66  88 115 152 194 231 268
#     4   9  16  29  47  65  89 120 152 190 231 273
#     4   9  15  25  45  69  88 112 150 195 232 266
#     4   8  15  26  40  62  91 120 149 187 229 266
#     4  11  20  30  45  68  97 124 151 184 227 278
#
# _framework density 18.12255
#
# number of rings (size 3 to 8) (size 9 to 14) (size 15 to 20)
#    0.000    2.857    1.429    3.429    0.000    2.286 
#    0.000    1.429    0.000    0.857    0.000   21.000 
#    0.000    0.000    0.000    0.000    0.000    0.143 
#
# Total GULP energy -156092.664062 kJ/mol
# GULP energy per Si atom -5574.738002 kJ/mol
# Density = 1.808130 g / cm^3
# Si number density = 18.122550 Si / 1000 Ang^3
#
#
#
# Elastic Constant Matrix: (Units=GPa)
#
#
# Indices 1 2 3 4 5 6 
#
# 1 153.1124 1.1031 123.6114 0.0020 4.9234 0.0036
# 2 1.1031 25.8586 1.2910 -0.0056 4.4128 0.0123
# 3 123.6114 1.2910 191.7864 0.0072 4.5054 -0.0107
# 4 0.0020 -0.0056 0.0072 18.0735 -0.0027 -4.9449
# 5 4.9234 4.4128 4.5054 -0.0027 30.7900 0.0025
# 6 0.0036 0.0123 -0.0107 -4.9449 0.0025 9.5848
#
#
#
# Elastic Compliance Matrix: (Units=1/GPa)
#
#
# Indices 1 2 3 4 5 6 
#
# 1 0.013641 0.000009 -0.008771 -0.000002 -0.000899 -0.000016
# 2 0.000009 0.039645 -0.000140 -0.000002 -0.005663 -0.000051
# 3 -0.008771 -0.000140 0.010872 0.000001 -0.000168 0.000016
# 4 -0.000002 -0.000002 0.000001 0.064423 0.000004 0.033237
# 5 -0.000899 -0.005663 -0.000168 0.000004 0.033458 0.000001
# 6 -0.000016 -0.000051 0.000016 0.033237 0.000001 0.121479
#
#
# Mechanical properties :
#
#
# Convention : Reuss Voigt Hill
#
# Bulk Modulus (GPa) = 21.57263 69.19651 45.38457
# Shear Modulus (GPa) = 15.78419 28.00646 21.89532
#
# Velocity S-wave (km/s) = 2.95442 3.93541 3.47966
# Velocity P-wave (km/s) = 4.85466 7.67564 6.42196
#
# Compressibility (1/GPa) = 0.04635503
#
# Stress axis : x y z
#
# Youngs Moduli (GPa) = 73.30861 25.22402 91.97843
#
# Poissons Ratio (x) = -0.00024 0.80673
# Poissons Ratio (y) = -0.00069 0.01287
# Poissons Ratio (z) = 0.64298 0.00353
#
# Static dielectric constant tensor:
#      x y z
#    x 1.620230 -0.000010 -0.015330 
#    y -0.000010 1.677130 0.000000 
#    z -0.015330 0.000000 1.614900 
# 
# From -- ./inp_files/291856.got.cif
#   From: 2010.05.17/outbox.cif.g08.bks.cpg/sg12_146_cif.got.tgz:291856.got - 2010.06.03 13:09:07.
