data_PCOD9219354
_publ_section_title
;
Structure prediction by ZEFSAII (Michael W. Deem and Ramdas Pophale) SiO2 
 PCOD9219354
Probable space group: C 2/M
;
_chemical_formula_sum "Si O2"
_cell_formula_units_Z 48
_cell_length_a 8.560892
_cell_length_b 15.190597
_cell_length_c 18.065326
_cell_angle_alpha 90.000000
_cell_angle_beta 88.135154
_cell_angle_gamma 90.000000
_cell_volume 2348.062147
_symmetry_space_group_name_H-M "C 2/M"
_symmetry_group_IT_number 12
_symmetry_cell_setting 'monoclinic'
loop_
_space_group_symop_operation_xyz
x,y,z
-x,y,-z
-x,-y,-z
x,-y,z
1/2+x,1/2+y,z
1/2-x,1/2+y,-z
1/2-x,1/2-y,-z
1/2+x,1/2-y,z
loop_
_atom_site_type_symbol
_atom_site_label
_atom_site_fract_x
_atom_site_fract_y
_atom_site_fract_z
Si Si1 0.182168 0.345253 0.980239
Si Si2 0.811356 0.094242 0.123840
Si Si3 0.103617 0.707661 0.654425
Si Si4 0.134234 0.192658 0.449481
Si Si5 0.663700 0.601081 0.170106
Si Si6 0.669179 0.215203 0.245972
O O1 0.214027 0.373849 0.895961
O O2 0.250000 0.250000 0.000000
O O3 0.269161 0.404819 0.038852
O O4 0.000000 0.346730 0.000000
O O5 0.723363 0.169549 0.170331
O O6 0.995127 0.105428 0.132834
O O7 0.765721 0.000000 0.157641
O O8 0.237233 0.652236 0.609347
O O9 0.197701 0.787581 0.692846
O O10 0.977247 0.744550 0.598041
O O11 0.991036 0.673277 0.721347
O O12 0.250000 0.250000 0.500000
O O13 0.000000 0.143001 0.500000
O O14 0.686901 0.500000 0.195721
O O15 0.657105 0.679872 0.229753
#
# Coordination Sequence:
#
# PCOD9219354 Si02
#       6
#     8   8   8   8   8   8
#     4  12  25  40  61  84 108 148 203 255 303 350
#     4  11  24  41  60  82 113 154 198 250 304 353
#     4   9  18  29  52  81 120 156 187 233 284 333
#     4   8  14  28  50  83 122 152 187 235 274 323
#     4  11  24  41  60  82 113 154 199 249 303 355
#     4  11  20  36  54  83 118 155 191 238 292 351
#
# _framework density 20.442388999999999
#
# number of rings (size 3 to 8) (size 9 to 14) (size 15 to 20)
#    0.000    1.667    3.333    2.000    2.333    2.667 
#    0.000    0.000    0.000    0.000    0.000    0.000 
#    0.000  336.000    0.000    0.000    0.000    0.000 
#
# Total GULP energy -133606.986531 kJ/mol
# GULP energy per Si atom -5566.957772 kJ/mol
# Density = 2.039586 g / cm^3
# Si number density = 20.442389 Si / 1000 Ang^3
#
#
#
# Elastic Constant Matrix: (Units=GPa)
#
#
# Indices 1 2 3 4 5 6 
#
# 1 112.4388 18.0949 33.3019 0.0000 -20.0728 0.0000
# 2 18.0949 78.9819 9.9836 0.0000 -4.9742 0.0000
# 3 33.3019 9.9836 77.0583 0.0000 -11.9853 0.0000
# 4 0.0000 0.0000 0.0000 -1.1323 0.0000 1.6786
# 5 -20.0728 -4.9742 -11.9853 0.0000 56.3493 0.0000
# 6 0.0000 0.0000 0.0000 1.6786 0.0000 6.5460
#
#
#
# Elastic Compliance Matrix: (Units=1/GPa)
#
#
# Indices 1 2 3 4 5 6 
#
# 1 0.010888 -0.001805 -0.004026 0.000000 0.002863 0.000000
# 2 -0.001805 0.013207 -0.000879 0.000000 0.000336 0.000000
# 3 -0.004026 -0.000879 0.015095 0.000000 0.001699 0.000000
# 4 0.000000 0.000000 0.000000 -0.639891 0.000000 0.164086
# 5 0.002863 0.000336 0.001699 0.000000 0.019157 0.000000
# 6 0.000000 0.000000 0.000000 0.164086 0.000000 0.110688
#
#
# Mechanical properties :
#
#
# Convention : Reuss Voigt Hill
#
# Bulk Modulus (GPa) = 38.80506 43.47108 41.13807
# Shear Modulus (GPa) = -11.13970 26.15918 7.50974
#
# Velocity S-wave (km/s) = -2.33691 3.58111 1.91875
# Velocity P-wave (km/s) = 3.42671 6.19761 5.00763
#
# Compressibility (1/GPa) = 0.02576983
#
# Stress axis : x y z
#
# Youngs Moduli (GPa) = 91.84627 75.71782 66.24605
#
# Poissons Ratio (x) = 0.13668 0.26672
# Poissons Ratio (y) = 0.16580 0.05821
# Poissons Ratio (z) = 0.36979 0.06653
#
# Static dielectric constant tensor:
#      x y z
#    x 1.776780 0.000000 -0.036860 
#    y 0.000000 1.784930 0.000000 
#    z -0.036860 0.000000 1.811810 
# 
# From -- ./inp_files/255750.got.cif
#   From: 2010.05.17/outbox.cif.g08.bks.cpg/sg12_128_cif.got.tgz:255750.got - 2010.06.03 13:09:07.
