data_PCOD9219228
_publ_section_title
;
Structure prediction by ZEFSAII (Michael W. Deem and Ramdas Pophale) SiO2 
 PCOD9219228
Probable space group: C 2/M
;
_chemical_formula_sum "Si O2"
_cell_formula_units_Z 48
_cell_length_a 28.113241
_cell_length_b 7.506243
_cell_length_c 13.741545
_cell_angle_alpha 90.000000
_cell_angle_beta 76.296263
_cell_angle_gamma 90.000000
_cell_volume 2817.260177
_symmetry_space_group_name_H-M "C 2/M"
_symmetry_group_IT_number 12
_symmetry_cell_setting 'monoclinic'
loop_
_space_group_symop_operation_xyz
x,y,z
-x,y,-z
-x,-y,-z
x,-y,z
1/2+x,1/2+y,z
1/2-x,1/2+y,-z
1/2-x,1/2-y,-z
1/2+x,1/2-y,z
loop_
_atom_site_type_symbol
_atom_site_label
_atom_site_fract_x
_atom_site_fract_y
_atom_site_fract_z
Si Si1 0.791760 0.716422 0.774731
Si Si2 0.054526 0.500000 0.097556
Si Si3 0.767989 0.212794 0.383299
Si Si4 0.800941 0.792597 0.068589
Si Si5 0.373711 0.707516 0.869852
Si Si6 0.135967 0.793122 0.763793
Si Si7 0.561340 0.000000 0.860071
O O1 0.791639 0.500000 0.775821
O O2 0.770261 0.775654 0.680917
O O3 0.751355 0.781994 0.873431
O O4 0.845254 0.777658 0.781396
O O5 0.079226 0.328709 0.136335
O O6 0.996118 0.500000 0.134149
O O7 0.066541 0.500000 0.975609
O O8 0.750000 0.250000 0.500000
O O9 0.823226 0.275225 0.332750
O O10 0.770841 0.000000 0.368776
O O11 0.834154 0.786752 0.149059
O O12 0.792615 0.000000 0.048800
O O13 0.833442 0.717535 0.966353
O O14 0.383763 0.500000 0.886488
O O15 0.089236 0.669949 0.801629
O O16 0.123428 0.000000 0.750440
#
# Coordination Sequence:
#
# PCOD9219228 Si02
#       7
#     8   4   8   8   8   8   4
#     4   9  17  31  48  70 106 141 172 209 255 316
#     4  11  24  36  50  77 107 135 197 234 249 308
#     4   9  19  33  52  81 113 139 169 213 261 321
#     4   8  15  28  46  70 101 137 170 206 251 307
#     4  11  20  33  49  71 103 141 175 219 264 306
#     4   9  18  34  52  75 107 137 176 219 259 315
#     4  11  22  36  56  75  97 153 185 220 279 295
#
# _framework density 17.037828999999999
#
# number of rings (size 3 to 8) (size 9 to 14) (size 15 to 20)
#    0.000    2.500    2.500    2.500    1.167    1.333 
#    6.000    1.667    0.000    0.000    0.000    2.333 
#    0.000    4.000    0.000    0.000    0.000    0.000 
#
# Total GULP energy -133778.379395 kJ/mol
# GULP energy per Si atom -5574.099141 kJ/mol
# Density = 1.699905 g / cm^3
# Si number density = 17.037829 Si / 1000 Ang^3
#
#
#
# Elastic Constant Matrix: (Units=GPa)
#
#
# Indices 1 2 3 4 5 6 
#
# 1 132.9650 52.3470 48.4912 0.0000 -7.7671 0.0000
# 2 52.3470 90.8387 23.1606 0.0000 -6.5913 0.0000
# 3 48.4912 23.1606 79.6871 0.0000 -10.5441 0.0000
# 4 0.0000 0.0000 0.0000 18.7507 0.0000 -2.9383
# 5 -7.7671 -6.5913 -10.5441 0.0000 15.2704 0.0000
# 6 0.0000 0.0000 0.0000 -2.9383 0.0000 19.4761
#
#
#
# Elastic Compliance Matrix: (Units=1/GPa)
#
#
# Indices 1 2 3 4 5 6 
#
# 1 0.011621 -0.005294 -0.005561 0.000000 -0.000214 0.000000
# 2 -0.005294 0.014430 -0.000555 0.000000 0.003152 0.000000
# 3 -0.005561 -0.000555 0.017266 0.000000 0.008854 0.000000
# 4 0.000000 0.000000 0.000000 0.054623 0.000000 0.008241
# 5 -0.000214 0.003152 0.008854 0.000000 0.072851 0.000000
# 6 0.000000 0.000000 0.000000 0.008241 0.000000 0.052588
#
#
# Mechanical properties :
#
#
# Convention : Reuss Voigt Hill
#
# Bulk Modulus (GPa) = 48.79134 61.27651 55.03393
# Shear Modulus (GPa) = 19.76042 22.66556 21.21299
#
# Velocity S-wave (km/s) = 3.40927 3.65130 3.53236
# Velocity P-wave (km/s) = 6.64806 7.33614 7.00056
#
# Compressibility (1/GPa) = 0.02049544
#
# Stress axis : x y z
#
# Youngs Moduli (GPa) = 86.05419 69.30171 57.91752
#
# Poissons Ratio (x) = 0.36690 0.32208
# Poissons Ratio (y) = 0.45559 0.03215
# Poissons Ratio (z) = 0.47855 0.03847
#
# Static dielectric constant tensor:
#      x y z
#    x 1.572410 0.000000 0.008910 
#    y 0.000000 1.630670 0.000000 
#    z 0.008910 0.000000 1.594340 
# 
# From -- ./inp_files/242617.got.cif
#   From: 2010.05.17/outbox.cif.g08.bks.cpg/sg12_122_cif.got.tgz:242617.got - 2010.06.03 13:09:07.
