data_PCOD9219733
_publ_section_title
;
Structure prediction by ZEFSAII (Michael W. Deem and Ramdas Pophale) SiO2 
 PCOD9219733
Probable space group: C 2/M
;
_chemical_formula_sum "Si O2"
_cell_formula_units_Z 48
_cell_length_a 24.478832
_cell_length_b 21.292946
_cell_length_c 13.533837
_cell_angle_alpha 90.000000
_cell_angle_beta 160.185517
_cell_angle_gamma 90.000000
_cell_volume 2391.200570
_symmetry_space_group_name_H-M "C 2/M"
_symmetry_group_IT_number 12
_symmetry_cell_setting 'monoclinic'
loop_
_space_group_symop_operation_xyz
x,y,z
-x,y,-z
-x,-y,-z
x,-y,z
1/2+x,1/2+y,z
1/2-x,1/2+y,-z
1/2-x,1/2-y,-z
1/2+x,1/2-y,z
loop_
_atom_site_type_symbol
_atom_site_label
_atom_site_fract_x
_atom_site_fract_y
_atom_site_fract_z
Si Si1 0.116984 0.932200 0.795915
Si Si2 0.874193 0.929518 0.563945
Si Si3 0.944222 0.305425 0.097874
Si Si4 0.486641 0.068684 0.096374
Si Si5 0.299024 0.707394 0.490050
Si Si6 0.307268 0.309790 0.155970
O O1 0.225936 0.872466 0.963164
O O2 0.000000 0.934084 0.500000
O O3 0.012631 0.923178 0.717547
O O4 0.198458 0.000000 0.939691
O O5 0.706188 0.931975 0.217484
O O6 0.856876 0.865650 0.599451
O O7 0.888218 0.000000 0.634993
O O8 0.044745 0.370023 0.252950
O O9 0.856722 0.293971 0.844675
O O10 0.798839 0.313661 0.926461
O O11 0.057437 0.247081 0.316273
O O12 0.553559 0.000000 0.237004
O O13 0.500000 0.075241 0.000000
O O14 0.250000 0.750000 0.500000
O O15 0.500000 0.305389 0.500000
O O16 0.250000 0.250000 0.000000
#
# Coordination Sequence:
#
# PCOD9219733 Si02
#       6
#     8   8   8   8   8   8
#     4   9  16  28  48  73  99 128 167 213 254 297
#     4   9  17  30  48  70  97 131 171 212 252 297
#     4  11  21  34  53  76 105 138 170 209 257 306
#     4   9  16  27  45  71 100 128 161 204 255 304
#     4  11  21  35  54  78 105 136 175 215 258 307
#     4  11  21  34  52  77 106 135 170 211 257 308
#
# _framework density 20.073598
#
# number of rings (size 3 to 8) (size 9 to 14) (size 15 to 20)
#    0.000    2.000    0.000    8.500    0.000    2.000 
#    0.000    0.000    0.000    3.500    0.000    0.000 
#    0.000    0.000    0.000    0.000    0.000    0.000 
#
# Total GULP energy -133704.805554 kJ/mol
# GULP energy per Si atom -5571.033565 kJ/mol
# Density = 2.002791 g / cm^3
# Si number density = 20.073598 Si / 1000 Ang^3
#
#
#
# Elastic Constant Matrix: (Units=GPa)
#
#
# Indices 1 2 3 4 5 6 
#
# 1 72.5809 47.6816 5.9152 0.0000 18.8604 0.0000
# 2 47.6816 221.1568 26.8337 0.0000 8.0541 0.0000
# 3 5.9152 26.8337 32.6331 0.0000 16.1646 0.0000
# 4 0.0000 0.0000 0.0000 24.3343 0.0000 5.9002
# 5 18.8604 8.0541 16.1646 0.0000 21.0660 0.0000
# 6 0.0000 0.0000 0.0000 5.9002 0.0000 33.5273
#
#
#
# Elastic Compliance Matrix: (Units=1/GPa)
#
#
# Indices 1 2 3 4 5 6 
#
# 1 0.025136 -0.006279 0.017043 0.000000 -0.033181 0.000000
# 2 -0.006279 0.006645 -0.009440 0.000000 0.010325 0.000000
# 3 0.017043 -0.009440 0.066280 0.000000 -0.062508 0.000000
# 4 0.000000 0.000000 0.000000 0.042926 0.000000 -0.007554
# 5 -0.033181 0.010325 -0.062508 0.000000 0.121194 0.000000
# 6 0.000000 0.000000 0.000000 -0.007554 0.000000 0.031156
#
#
# Mechanical properties :
#
#
# Convention : Reuss Voigt Hill
#
# Bulk Modulus (GPa) = 9.92968 54.13688 32.03328
# Shear Modulus (GPa) = 15.41987 32.18153 23.80070
#
# Velocity S-wave (km/s) = 2.77459 4.00831 3.44709
# Velocity P-wave (km/s) = 3.90152 6.96059 5.64233
#
# Compressibility (1/GPa) = 0.10070813
#
# Stress axis : x y z
#
# Youngs Moduli (GPa) = 39.78391 150.49429 15.08760
#
# Poissons Ratio (x) = 0.94492 -0.25713
# Poissons Ratio (y) = 0.24979 0.14243
# Poissons Ratio (z) = -0.67802 1.42066
#
# Static dielectric constant tensor:
#      x y z
#    x 1.748970 0.000000 0.031650 
#    y 0.000000 1.814090 0.000000 
#    z 0.031650 0.000000 1.697750 
# 
# From -- ./inp_files/132421.got.cif
#   From: 2010.05.17/outbox.cif.g08.bks.cpg/sg12_67_cif.got.tgz:132421.got - 2010.06.03 13:09:07.
