data_PCOD9219246
_publ_section_title
;
Structure prediction by ZEFSAII (Michael W. Deem and Ramdas Pophale) SiO2 
 PCOD9219246
Probable space group: C 2/M
;
_chemical_formula_sum "Si O2"
_cell_formula_units_Z 56
_cell_length_a 21.312102
_cell_length_b 18.552570
_cell_length_c 16.702522
_cell_angle_alpha 90.000000
_cell_angle_beta 154.816905
_cell_angle_gamma 90.000000
_cell_volume 2810.117902
_symmetry_space_group_name_H-M "C 2/M"
_symmetry_group_IT_number 12
_symmetry_cell_setting 'monoclinic'
loop_
_space_group_symop_operation_xyz
x,y,z
-x,y,-z
-x,-y,-z
x,-y,z
1/2+x,1/2+y,z
1/2-x,1/2+y,-z
1/2-x,1/2-y,-z
1/2+x,1/2-y,z
loop_
_atom_site_type_symbol
_atom_site_label
_atom_site_fract_x
_atom_site_fract_y
_atom_site_fract_z
Si Si1 0.948992 0.500000 0.076464
Si Si2 0.402602 0.771682 0.718743
Si Si3 0.718218 0.000000 0.282400
Si Si4 0.313173 0.356667 0.442474
Si Si5 0.681004 0.851442 0.004386
Si Si6 0.413534 0.585192 0.150836
Si Si7 0.929653 0.145189 0.999324
Si Si8 0.166465 0.753644 0.679871
O O1 0.888590 0.427903 0.048713
O O2 0.123100 0.500000 0.255320
O O3 0.878386 0.500000 0.907389
O O4 0.250000 0.750000 0.500000
O O5 0.348208 0.839394 0.708955
O O6 0.541485 0.798503 0.826826
O O7 0.459934 0.707970 0.841322
O O8 0.812726 0.071369 0.390325
O O9 0.436154 0.373642 0.650162
O O10 0.340410 0.292212 0.413797
O O11 0.786134 0.871801 0.051662
O O12 0.773030 0.810323 0.181843
O O13 0.416237 0.500000 0.175772
O O14 0.402201 0.593173 0.042390
O O15 0.779638 0.188007 0.808520
O O16 0.000000 0.113420 0.000000
O O17 0.000000 0.729364 0.500000
#
# Coordination Sequence:
#
# PCOD9219246 Si02
#       8
#     4   8   4   8   8   8   8   8
#     4  11  20  33  55  93 131 170 202 248 303 391
#     4  11  23  40  65  93 127 162 215 266 318 377
#     4  11  22  31  59  93 133 168 209 244 308 390
#     4  12  21  37  61  98 127 169 208 257 317 384
#     4  11  23  37  62  94 132 168 204 254 323 382
#     4  12  26  42  65  94 130 170 215 266 321 380
#     4  11  25  44  66  91 123 170 218 272 322 372
#     4  11  23  38  64  96 133 165 206 258 324 388
#
# _framework density 19.927989
#
# number of rings (size 3 to 8) (size 9 to 14) (size 15 to 20)
#    0.000    0.714    8.571    0.000    0.000    3.714 
#    0.000    2.143    0.000    0.429    0.000    0.000 
#    0.000    0.000    0.000    0.000    0.000    0.000 
#
# Total GULP energy -156198.320765 kJ/mol
# GULP energy per Si atom -5578.511456 kJ/mol
# Density = 1.988263 g / cm^3
# Si number density = 19.927989 Si / 1000 Ang^3
#
#
#
# Elastic Constant Matrix: (Units=GPa)
#
#
# Indices 1 2 3 4 5 6 
#
# 1 102.6210 9.0446 19.5464 0.0000 8.9219 0.0000
# 2 9.0446 41.1060 10.4458 0.0000 -0.7641 0.0000
# 3 19.5464 10.4458 86.8592 0.0000 10.0926 0.0000
# 4 0.0000 0.0000 0.0000 24.8083 0.0000 1.8765
# 5 8.9219 -0.7641 10.0926 0.0000 28.2497 0.0000
# 6 0.0000 0.0000 0.0000 1.8765 0.0000 31.2534
#
#
#
# Elastic Compliance Matrix: (Units=1/GPa)
#
#
# Indices 1 2 3 4 5 6 
#
# 1 0.010494 -0.001898 -0.001818 0.000000 -0.002716 0.000000
# 2 -0.001898 0.025529 -0.002914 0.000000 0.002331 0.000000
# 3 -0.001818 -0.002914 0.012744 0.000000 -0.004058 0.000000
# 4 0.000000 0.000000 0.000000 0.040493 0.000000 -0.002431
# 5 -0.002716 0.002331 -0.004058 0.000000 0.037769 0.000000
# 6 0.000000 0.000000 0.000000 -0.002431 0.000000 0.032142
#
#
# Mechanical properties :
#
#
# Convention : Reuss Voigt Hill
#
# Bulk Modulus (GPa) = 28.16254 34.29555 31.22904
# Shear Modulus (GPa) = 27.13466 29.63222 28.38344
#
# Velocity S-wave (km/s) = 3.69404 3.86030 3.77808
# Velocity P-wave (km/s) = 5.68836 6.09232 5.89380
#
# Compressibility (1/GPa) = 0.03550817
#
# Stress axis : x y z
#
# Youngs Moduli (GPa) = 95.29050 39.17163 78.46921
#
# Poissons Ratio (x) = 0.07433 0.14264
# Poissons Ratio (y) = 0.18083 0.22865
# Poissons Ratio (z) = 0.17321 0.11414
#
# Static dielectric constant tensor:
#      x y z
#    x 1.774980 0.000000 0.009460 
#    y 0.000000 1.706780 0.000000 
#    z 0.009460 0.000000 1.723920 
# 
# From -- ./inp_files/227681.got.cif
#   From: 2010.05.17/outbox.cif.g08.bks.cpg/sg12_114_cif.got.tgz:227681.got - 2010.06.03 13:09:07.
