data_PCOD9219551
_publ_section_title
;
Structure prediction by ZEFSAII (Michael W. Deem and Ramdas Pophale) SiO2 
 PCOD9219551
Probable space group: C 2/M
;
_chemical_formula_sum "Si O2"
_cell_formula_units_Z 56
_cell_length_a 18.116600
_cell_length_b 13.977259
_cell_length_c 13.163670
_cell_angle_alpha 90.000000
_cell_angle_beta 122.952563
_cell_angle_gamma 90.000000
_cell_volume 2797.051035
_symmetry_space_group_name_H-M "C 2/M"
_symmetry_group_IT_number 12
_symmetry_cell_setting 'monoclinic'
loop_
_space_group_symop_operation_xyz
x,y,z
-x,y,-z
-x,-y,-z
x,-y,z
1/2+x,1/2+y,z
1/2-x,1/2+y,-z
1/2-x,1/2-y,-z
1/2+x,1/2-y,z
loop_
_atom_site_type_symbol
_atom_site_label
_atom_site_fract_x
_atom_site_fract_y
_atom_site_fract_z
Si Si1 0.468831 0.736090 0.693451
Si Si2 0.746658 0.701015 0.205940
Si Si3 0.173389 0.392359 0.070994
Si Si4 0.805924 0.793384 0.447727
Si Si5 0.436464 0.611202 0.856114
Si Si6 0.107110 0.608383 0.798647
Si Si7 0.639661 0.896926 0.271553
O O1 0.404701 0.691912 0.560150
O O2 0.482244 0.658235 0.791800
O O3 0.550858 0.800025 0.719234
O O4 0.411016 0.816899 0.706584
O O5 0.734269 0.798901 0.131467
O O6 0.802416 0.723198 0.348985
O O7 0.653040 0.665371 0.178900
O O8 0.795934 0.623795 0.174807
O O9 0.214567 0.500000 0.096385
O O10 0.120524 0.391559 0.137522
O O11 0.115275 0.382724 0.926844
O O12 0.750000 0.750000 0.500000
O O13 0.744431 0.880805 0.364753
O O14 0.416452 0.500000 0.820661
O O15 0.500000 0.617861 0.000000
O O16 0.077026 0.500000 0.751431
O O17 0.614328 0.000000 0.292002
#
# Coordination Sequence:
#
# PCOD9219551 Si02
#       7
#     8   8   8   8   8   8   8
#     4  11  21  38  56  85 120 154 201 247 295 347
#     4  11  20  41  61  85 124 155 193 244 306 350
#     4   9  18  34  58  87 113 150 198 239 295 356
#     4   9  18  36  57  83 112 151 198 236 286 343
#     4  11  23  38  60  87 116 156 203 246 292 350
#     4  11  24  37  57  90 124 159 192 239 307 367
#     4   9  17  32  58  86 111 145 197 252 294 342
#
# _framework density 20.021087000000001
#
# number of rings (size 3 to 8) (size 9 to 14) (size 15 to 20)
#    0.000    1.857    4.286    2.143    0.000    1.143 
#    0.000    7.143    0.000    0.000    0.000    5.000 
#    0.000    0.000    0.000    0.000    0.000    0.000 
#
# Total GULP energy -155975.436309 kJ/mol
# GULP energy per Si atom -5570.551297 kJ/mol
# Density = 1.997552 g / cm^3
# Si number density = 20.021087 Si / 1000 Ang^3
#
#
#
# Elastic Constant Matrix: (Units=GPa)
#
#
# Indices 1 2 3 4 5 6 
#
# 1 50.2113 13.5962 -1.8500 0.0000 2.2003 0.0000
# 2 13.5962 92.8537 8.4768 0.0000 0.0911 0.0000
# 3 -1.8500 8.4768 49.7638 0.0000 0.6741 0.0000
# 4 0.0000 0.0000 0.0000 0.4686 0.0000 2.7141
# 5 2.2003 0.0911 0.6741 0.0000 9.5222 0.0000
# 6 0.0000 0.0000 0.0000 2.7141 0.0000 22.1070
#
#
#
# Elastic Compliance Matrix: (Units=1/GPa)
#
#
# Indices 1 2 3 4 5 6 
#
# 1 0.021051 -0.003205 0.001395 0.000000 -0.004932 0.000000
# 2 -0.003205 0.011428 -0.002076 0.000000 0.000778 0.000000
# 3 0.001395 -0.002076 0.020524 0.000000 -0.001755 0.000000
# 4 0.000000 0.000000 0.000000 7.384064 0.000000 -0.906560
# 5 -0.004932 0.000778 -0.001755 0.000000 0.106274 0.000000
# 6 0.000000 0.000000 0.000000 -0.906560 0.000000 0.156535
#
#
# Mechanical properties :
#
#
# Convention : Reuss Voigt Hill
#
# Bulk Modulus (GPa) = 22.10858 25.91942 24.01400
# Shear Modulus (GPa) = 0.64744 17.92663 9.28704
#
# Velocity S-wave (km/s) = 0.56928 2.99555 2.15608
# Velocity P-wave (km/s) = 3.39098 4.99385 4.26833
#
# Compressibility (1/GPa) = 0.04523131
#
# Stress axis : x y z
#
# Youngs Moduli (GPa) = 47.50312 87.50655 48.72282
#
# Poissons Ratio (x) = 0.28046 -0.06798
# Poissons Ratio (y) = 0.15225 0.10116
# Poissons Ratio (z) = -0.06628 0.18169
#
# Static dielectric constant tensor:
#      x y z
#    x 1.752580 0.000000 0.029890 
#    y 0.000000 1.742010 0.000000 
#    z 0.029890 0.000000 1.723390 
# 
# From -- ./inp_files/156759.got.cif
#   From: 2010.05.17/outbox.cif.g08.bks.cpg/sg12_79_cif.got.tgz:156759.got - 2010.06.03 13:09:07.
