data_PCOD9219722
_publ_section_title
;
Structure prediction by ZEFSAII (Michael W. Deem and Ramdas Pophale) SiO2 
 PCOD9219722
Probable space group: C 2/M
;
_chemical_formula_sum "Si O2"
_cell_formula_units_Z 64
_cell_length_a 18.233335
_cell_length_b 13.272339
_cell_length_c 32.485439
_cell_angle_alpha 90.000000
_cell_angle_beta 149.658876
_cell_angle_gamma 90.000000
_cell_volume 3971.186315
_symmetry_space_group_name_H-M "C 2/M"
_symmetry_group_IT_number 12
_symmetry_cell_setting 'monoclinic'
loop_
_space_group_symop_operation_xyz
x,y,z
-x,y,-z
-x,-y,-z
x,-y,z
1/2+x,1/2+y,z
1/2-x,1/2+y,-z
1/2-x,1/2-y,-z
1/2+x,1/2-y,z
loop_
_atom_site_type_symbol
_atom_site_label
_atom_site_fract_x
_atom_site_fract_y
_atom_site_fract_z
Si Si1 0.866030 0.749283 0.021020
Si Si2 0.327730 0.614813 0.926894
Si Si3 0.651816 0.243350 0.780230
Si Si4 0.044414 0.111737 0.162009
Si Si5 0.931197 0.616413 0.922067
Si Si6 0.109035 0.383705 0.679984
Si Si7 0.891629 0.377914 0.411900
Si Si8 0.051577 0.122079 0.259438
O O1 0.993511 0.816985 0.101403
O O2 0.937232 0.643289 0.044594
O O3 0.750000 0.750000 0.000000
O O4 0.804420 0.804985 0.951515
O O5 0.296688 0.500000 0.923941
O O6 0.223948 0.649701 0.839761
O O7 0.500000 0.619770 0.000000
O O8 0.790060 0.318385 0.842781
O O9 0.589122 0.194965 0.707716
O O10 0.536071 0.307560 0.751274
O O11 0.217703 0.108635 0.243567
O O12 0.000093 0.139979 0.187152
O O13 0.986144 0.000000 0.125852
O O14 0.892756 0.500000 0.903612
O O15 0.000000 0.642564 0.000000
O O16 0.058889 0.500000 0.664098
O O17 0.058700 0.347413 0.610171
O O18 0.895330 0.500000 0.412548
O O19 0.724101 0.353213 0.341680
O O20 0.000000 0.342598 0.500000
O O21 0.035381 0.000000 0.259324
#
# Coordination Sequence:
#
# PCOD9219722 Si02
#       8
#     8   8   8   8   8   8   8   8
#     4  12  21  33  47  66  90 125 167 212 253 285
#     4  11  21  34  50  68  91 126 171 213 256 294
#     4  12  18  33  48  72  99 133 159 204 249 296
#     4   9  17  31  48  66  90 118 160 208 248 285
#     4  11  23  37  48  64  94 135 175 206 247 296
#     4   9  17  29  51  76  96 123 156 194 244 293
#     4   8  15  32  55  78 103 126 153 194 240 287
#     4   9  19  31  49  76  98 129 163 194 243 292
#
# _framework density 16.11609
#
# number of rings (size 3 to 8) (size 9 to 14) (size 15 to 20)
#    0.000    1.875    3.750    3.375    0.000    3.000 
#    0.000    0.625    0.000    0.000    0.000    0.000 
#    0.000    4.000    0.000    0.000    0.000    0.000 
#
# Total GULP energy -178198.031126 kJ/mol
# GULP energy per Si atom -5568.688473 kJ/mol
# Density = 1.607941 g / cm^3
# Si number density = 16.116090 Si / 1000 Ang^3
#
#
#
# Elastic Constant Matrix: (Units=GPa)
#
#
# Indices 1 2 3 4 5 6 
#
# 1 77.9828 19.4329 9.3703 0.0000 -8.1429 0.0000
# 2 19.4329 57.3366 8.7746 0.0000 -5.9551 0.0000
# 3 9.3703 8.7746 57.6247 -0.0001 -18.1051 0.0000
# 4 0.0000 0.0000 -0.0001 11.5403 0.0000 -5.7497
# 5 -8.1429 -5.9551 -18.1051 0.0000 23.6768 0.0000
# 6 0.0000 0.0000 0.0000 -5.7497 0.0000 22.4765
#
#
#
# Elastic Compliance Matrix: (Units=1/GPa)
#
#
# Indices 1 2 3 4 5 6 
#
# 1 0.014349 -0.004422 -0.000604 0.000000 0.003361 0.000000
# 2 -0.004422 0.019403 -0.001553 0.000000 0.002172 0.000000
# 3 -0.000604 -0.001553 0.023035 0.000000 0.017016 0.000000
# 4 0.000000 0.000000 0.000000 0.099310 0.000000 0.025405
# 5 0.003361 0.002172 0.017016 0.000000 0.056949 0.000000
# 6 0.000000 0.000000 0.000000 0.025405 0.000000 0.050990
#
#
# Mechanical properties :
#
#
# Convention : Reuss Voigt Hill
#
# Bulk Modulus (GPa) = 22.92085 29.78886 26.35485
# Shear Modulus (GPa) = 17.13881 21.89646 19.51763
#
# Velocity S-wave (km/s) = 3.26461 3.69001 3.48381
# Velocity P-wave (km/s) = 5.33512 6.05632 5.70712
#
# Compressibility (1/GPa) = 0.04362840
#
# Stress axis : x y z
#
# Youngs Moduli (GPa) = 69.69275 51.53913 43.41305
#
# Poissons Ratio (x) = 0.22789 0.02622
# Poissons Ratio (y) = 0.30816 0.06743
# Poissons Ratio (z) = 0.04210 0.08005
#
# Static dielectric constant tensor:
#      x y z
#    x 1.464720 0.000000 -0.139250 
#    y 0.000000 1.575510 0.000000 
#    z -0.139250 0.000000 1.437200 
# 
# From -- ./inp_files/361278.got.cif
#   From: 2010.05.17/outbox.cif.g08.bks.cpg/sg12_181_cif.got.tgz:361278.got - 2010.06.03 13:09:07.
