data_PCOD9219990
_publ_section_title
;
Structure prediction by ZEFSAII (Michael W. Deem and Ramdas Pophale) SiO2 
 PCOD9219990
Probable space group: C 2/M
;
_chemical_formula_sum "Si O2"
_cell_formula_units_Z 58
_cell_length_a 17.169707
_cell_length_b 20.586219
_cell_length_c 11.836709
_cell_angle_alpha 90.000000
_cell_angle_beta 44.765623
_cell_angle_gamma 90.000000
_cell_volume 2946.263677
_symmetry_space_group_name_H-M "C 2/M"
_symmetry_group_IT_number 12
_symmetry_cell_setting 'monoclinic'
loop_
_space_group_symop_operation_xyz
x,y,z
-x,y,-z
-x,-y,-z
x,-y,z
1/2+x,1/2+y,z
1/2-x,1/2+y,-z
1/2-x,1/2-y,-z
1/2+x,1/2-y,z
loop_
_atom_site_type_symbol
_atom_site_label
_atom_site_fract_x
_atom_site_fract_y
_atom_site_fract_z
Si Si1 0.853191 0.312162 0.424468
Si Si2 0.000942 0.427339 0.635213
Si Si3 0.132253 0.738115 0.346235
Si Si4 0.399717 0.374385 0.725194
Si Si5 0.734127 0.122156 0.107335
Si Si6 0.000000 0.000000 0.500000
Si Si7 0.875681 0.928400 0.172044
Si Si8 0.113665 0.172514 0.636989
O O1 0.818960 0.286232 0.585139
O O2 0.912145 0.248538 0.312413
O O3 0.742906 0.328480 0.469199
O O4 0.927053 0.374213 0.373989
O O5 0.043029 0.500000 0.610334
O O6 0.874736 0.419942 0.803654
O O7 0.000000 0.416110 0.500000
O O8 0.143820 0.813682 0.304200
O O9 0.185384 0.692742 0.194778
O O10 0.000000 0.727281 0.500000
O O11 0.421842 0.441769 0.638494
O O12 0.520096 0.352576 0.649402
O O13 0.317927 0.378939 0.916728
O O14 0.796335 0.093172 0.152498
O O15 0.883300 0.874907 0.260232
O O16 0.840991 0.000000 0.250196
O O17 0.000000 0.933609 0.000000
#
# Coordination Sequence:
#
# PCOD9219990 Si02
#       8
#     8   8   8   8   8   2   8   8
#     4  11  21  38  64  89 128 172 213 260 318 390
#     4  11  21  37  61  92 128 163 206 266 330 384
#     4  12  20  42  61  92 134 166 217 271 321 381
#     4  12  26  41  66  93 127 175 223 268 328 394
#     4  12  22  38  67  97 126 169 213 276 326 394
#     4  12  28  48  64  90 136 176 224 268 328 410
#     4  11  23  37  55  90 135 162 202 267 330 380
#     4  11  22  38  61  90 126 174 217 255 319 392
#
# _framework density 19.685949999999998
#
# number of rings (size 3 to 8) (size 9 to 14) (size 15 to 20)
#    0.000    0.552    7.586    0.828    2.897    1.655 
#    0.000    0.000    0.000    0.000    0.000    0.966 
#    0.000    0.000    0.000    0.000    0.000    0.000 
#
# Total GULP energy -161584.145769 kJ/mol
# GULP energy per Si atom -5571.867095 kJ/mol
# Density = 1.964114 g / cm^3
# Si number density = 19.685950 Si / 1000 Ang^3
#
#
#
# Elastic Constant Matrix: (Units=GPa)
#
#
# Indices 1 2 3 4 5 6 
#
# 1 72.4235 38.1852 15.2295 0.0000 -19.8920 0.0000
# 2 38.1852 203.0927 53.4501 0.0000 -1.1950 0.0000
# 3 15.2295 53.4501 87.5677 0.0000 5.3602 0.0000
# 4 0.0000 0.0000 0.0000 18.8818 0.0000 6.7360
# 5 -19.8920 -1.1950 5.3602 0.0000 27.8855 0.0000
# 6 0.0000 0.0000 0.0000 6.7360 0.0000 44.5923
#
#
#
# Elastic Compliance Matrix: (Units=1/GPa)
#
#
# Indices 1 2 3 4 5 6 
#
# 1 0.019919 -0.002994 -0.002528 0.000000 0.014567 0.000000
# 2 -0.002994 0.006341 -0.003274 0.000000 -0.001235 0.000000
# 3 -0.002528 -0.003274 0.014143 0.000000 -0.004663 0.000000
# 4 0.000000 0.000000 0.000000 0.055978 0.000000 -0.008456
# 5 0.014567 -0.001235 -0.004663 0.000000 0.047095 0.000000
# 6 0.000000 0.000000 0.000000 -0.008456 0.000000 0.023703
#
#
# Mechanical properties :
#
#
# Convention : Reuss Voigt Hill
#
# Bulk Modulus (GPa) = 43.84013 64.09040 53.96526
# Shear Modulus (GPa) = 25.99075 35.35319 30.67197
#
# Velocity S-wave (km/s) = 3.63749 4.24235 3.95151
# Velocity P-wave (km/s) = 6.32138 7.52488 6.94924
#
# Compressibility (1/GPa) = 0.02281015
#
# Stress axis : x y z
#
# Youngs Moduli (GPa) = 50.20373 157.69737 70.70391
#
# Poissons Ratio (x) = 0.47214 0.17877
# Poissons Ratio (y) = 0.15031 0.23151
# Poissons Ratio (z) = 0.12694 0.51635
#
# Static dielectric constant tensor:
#      x y z
#    x 1.715700 0.000000 -0.000520 
#    y 0.000000 1.762930 0.000000 
#    z -0.000520 0.000000 1.728590 
# 
# From -- ./inp_files/159767.got.cif
#   From: 2010.05.17/outbox.cif.g08.bks.cpg/sg12_80_cif.got.tgz:159767.got - 2010.06.03 13:09:07.
