data_PCOD9219377
_publ_section_title
;
Structure prediction by ZEFSAII (Michael W. Deem and Ramdas Pophale) SiO2 
 PCOD9219377
Probable space group: C 2/M
;
_chemical_formula_sum "Si O2"
_cell_formula_units_Z 64
_cell_length_a 13.901129
_cell_length_b 28.949751
_cell_length_c 9.093591
_cell_angle_alpha 90.000000
_cell_angle_beta 128.117712
_cell_angle_gamma 90.000000
_cell_volume 2879.147367
_symmetry_space_group_name_H-M "C 2/M"
_symmetry_group_IT_number 12
_symmetry_cell_setting 'monoclinic'
loop_
_space_group_symop_operation_xyz
x,y,z
-x,y,-z
-x,-y,-z
x,-y,z
1/2+x,1/2+y,z
1/2-x,1/2+y,-z
1/2-x,1/2-y,-z
1/2+x,1/2-y,z
loop_
_atom_site_type_symbol
_atom_site_label
_atom_site_fract_x
_atom_site_fract_y
_atom_site_fract_z
Si Si1 0.038770 0.772566 0.388588
Si Si2 0.288869 0.356823 0.921847
Si Si3 0.507674 0.621957 0.673124
Si Si4 0.885947 0.625871 0.003056
Si Si5 0.237285 0.387836 0.555396
Si Si6 0.293509 0.817430 0.687094
Si Si7 0.487234 0.945567 0.663351
Si Si8 0.638776 0.255389 0.009633
O O1 0.971369 0.822512 0.325939
O O2 0.177187 0.787700 0.525593
O O3 0.000000 0.747129 0.500000
O O4 0.985822 0.748645 0.197511
O O5 0.171066 0.346322 0.912644
O O6 0.250043 0.383659 0.741042
O O7 0.383104 0.387585 0.108747
O O8 0.350360 0.308593 0.927955
O O9 0.500000 0.602493 0.500000
O O10 0.375345 0.613740 0.622587
O O11 0.928391 0.580481 0.134808
O O12 0.779069 0.636880 0.780545
O O13 0.000000 0.636423 0.000000
O O14 0.165602 0.342467 0.423600
O O15 0.152021 0.430482 0.432116
O O16 0.351222 0.781951 0.855180
O O17 0.500000 0.932915 0.500000
O O18 0.507036 0.000000 0.693243
O O19 0.750000 0.250000 0.000000
#
# Coordination Sequence:
#
# PCOD9219377 Si02
#       8
#     8   8   8   8   8   8   8   8
#     4   9  16  32  57  84 121 174 222 287 354 394
#     4  11  22  39  65 100 135 188 243 281 362 434
#     4   9  19  36  67  96 128 175 231 289 339 418
#     4  12  23  41  70 101 140 181 236 298 362 433
#     4  11  22  42  68  96 136 179 234 293 361 432
#     4  11  22  40  60  93 134 180 238 296 350 414
#     4  11  25  47  74 106 141 182 232 292 370 454
#     4  11  20  36  62  92 133 182 238 301 353 411
#
# _framework density 22.228804
#
# number of rings (size 3 to 8) (size 9 to 14) (size 15 to 20)
#    0.000    1.375    5.000    2.625    0.000    0.750 
#    2.250    5.625    0.000    2.625    0.000    0.000 
#    0.000    0.125    0.000    0.000    0.000    0.000 
#
# Total GULP energy -178152.070630 kJ/mol
# GULP energy per Si atom -5567.252207 kJ/mol
# Density = 2.217821 g / cm^3
# Si number density = 22.228804 Si / 1000 Ang^3
#
#
#
# Elastic Constant Matrix: (Units=GPa)
#
#
# Indices 1 2 3 4 5 6 
#
# 1 114.2134 27.4464 30.7816 0.0000 -12.0613 0.0000
# 2 27.4464 58.1667 50.3787 0.0000 9.2513 0.0000
# 3 30.7816 50.3787 177.9270 0.0000 1.5393 0.0000
# 4 0.0000 0.0000 0.0000 25.3205 0.0000 -7.3989
# 5 -12.0613 9.2513 1.5393 0.0000 22.2217 0.0000
# 6 0.0000 0.0000 0.0000 -7.3989 0.0000 17.4640
#
#
#
# Elastic Compliance Matrix: (Units=1/GPa)
#
#
# Indices 1 2 3 4 5 6 
#
# 1 0.011334 -0.006627 -0.000162 0.000000 0.008922 0.000000
# 2 -0.006627 0.028625 -0.006828 0.000000 -0.015041 0.000000
# 3 -0.000162 -0.006828 0.007562 0.000000 0.002231 0.000000
# 4 0.000000 0.000000 0.000000 0.045074 0.000000 0.019096
# 5 0.008922 -0.015041 0.002231 0.000000 0.055951 0.000000
# 6 0.000000 0.000000 0.000000 0.019096 0.000000 0.065351
#
#
# Mechanical properties :
#
#
# Convention : Reuss Voigt Hill
#
# Bulk Modulus (GPa) = 49.29136 63.05782 56.17459
# Shear Modulus (GPa) = 20.16997 29.11462 24.64230
#
# Velocity S-wave (km/s) = 3.01554 3.62300 3.33314
# Velocity P-wave (km/s) = 5.86066 6.77722 6.33554
#
# Compressibility (1/GPa) = 0.02028753
#
# Stress axis : x y z
#
# Youngs Moduli (GPa) = 88.23201 34.93400 132.23385
#
# Poissons Ratio (x) = 0.23151 0.02136
# Poissons Ratio (y) = 0.58471 0.90295
# Poissons Ratio (z) = 0.01426 0.23855
#
# Static dielectric constant tensor:
#      x y z
#    x 1.899280 0.000000 0.025750 
#    y 0.000000 1.809700 0.000000 
#    z 0.025750 0.000000 1.956860 
# 
# From -- ./inp_files/68651.got.cif
#   From: 2010.05.17/outbox.cif.g08.bks.cpg/sg12_35_cif.got.tgz:68651.got - 2010.06.03 13:09:07.
