data_PCOD9219205
_publ_section_title
;
Structure prediction by ZEFSAII (Michael W. Deem and Ramdas Pophale) SiO2 
 PCOD9219205
Probable space group: C 2/M
;
_chemical_formula_sum "Si O2"
_cell_formula_units_Z 48
_cell_length_a 12.636830
_cell_length_b 23.425093
_cell_length_c 10.233510
_cell_angle_alpha 90.000000
_cell_angle_beta 121.175197
_cell_angle_gamma 90.000000
_cell_volume 2591.844777
_symmetry_space_group_name_H-M "C 2/M"
_symmetry_group_IT_number 12
_symmetry_cell_setting 'monoclinic'
loop_
_space_group_symop_operation_xyz
x,y,z
-x,y,-z
-x,-y,-z
x,-y,z
1/2+x,1/2+y,z
1/2-x,1/2+y,-z
1/2-x,1/2-y,-z
1/2+x,1/2-y,z
loop_
_atom_site_type_symbol
_atom_site_label
_atom_site_fract_x
_atom_site_fract_y
_atom_site_fract_z
Si Si1 0.838023 0.671817 0.054555
Si Si2 0.674182 0.319988 0.413641
Si Si3 0.358659 0.268826 0.890969
Si Si4 0.948108 0.293069 0.607425
Si Si5 0.304482 0.566174 0.966975
Si Si6 0.082713 0.933380 0.247266
O O1 0.719704 0.699422 0.049953
O O2 0.803139 0.605796 0.044211
O O3 0.954523 0.691658 0.216988
O O4 0.847809 0.701794 0.919702
O O5 0.685043 0.291134 0.275979
O O6 0.814177 0.319569 0.553884
O O7 0.581861 0.274762 0.421174
O O8 0.623250 0.383634 0.370503
O O9 0.500000 0.285627 0.000000
O O10 0.000000 0.312547 0.500000
O O11 0.271812 0.500000 0.959526
O O12 0.337153 0.576214 0.834508
O O13 0.437795 0.574840 0.121231
O O14 0.099729 0.000000 0.296201
#
# Coordination Sequence:
#
# PCOD9219205 Si02
#       6
#     8   8   8   8   8   8
#     4  11  21  31  53  77 105 133 170 204 260 307
#     4  11  21  34  52  73 109 133 169 208 251 305
#     4  11  20  32  51  79 100 134 167 211 252 300
#     4  11  22  34  48  76 106 138 164 206 257 304
#     4   9  17  29  48  75 103 128 166 215 250 293
#     4   9  17  30  50  73 100 132 166 209 254 293
#
# _framework density 18.519627
#
# number of rings (size 3 to 8) (size 9 to 14) (size 15 to 20)
#    0.000    1.667    5.000    2.000    2.333    0.000 
#    0.000    0.833    0.000    4.000    0.000    1.167 
#    0.000    0.000    0.000    0.000    0.000    0.000 
#
# Total GULP energy -133808.789914 kJ/mol
# GULP energy per Si atom -5575.366246 kJ/mol
# Density = 1.847748 g / cm^3
# Si number density = 18.519627 Si / 1000 Ang^3
#
#
#
# Elastic Constant Matrix: (Units=GPa)
#
#
# Indices 1 2 3 4 5 6 
#
# 1 48.7773 14.9101 26.4106 0.0000 14.7716 0.0000
# 2 14.9101 108.2889 35.4968 0.0000 24.4762 0.0000
# 3 26.4106 35.4968 51.8776 0.0000 22.5471 0.0000
# 4 0.0000 0.0000 0.0000 25.9222 0.0000 0.6438
# 5 14.7716 24.4762 22.5471 0.0000 28.9672 0.0000
# 6 0.0000 0.0000 0.0000 0.6438 0.0000 26.4793
#
#
#
# Elastic Compliance Matrix: (Units=1/GPa)
#
#
# Indices 1 2 3 4 5 6 
#
# 1 0.028996 0.001715 -0.013418 0.000000 -0.005791 0.000000
# 2 0.001715 0.012644 -0.006802 0.000000 -0.006264 0.000000
# 3 -0.013418 -0.006802 0.038219 0.000000 -0.017158 0.000000
# 4 0.000000 0.000000 0.000000 0.038600 0.000000 -0.000939
# 5 -0.005791 -0.006264 -0.017158 0.000000 0.056123 0.000000
# 6 0.000000 0.000000 0.000000 -0.000939 0.000000 0.037788
#
#
# Mechanical properties :
#
#
# Convention : Reuss Voigt Hill
#
# Bulk Modulus (GPa) = 23.33842 40.28656 31.81249
# Shear Modulus (GPa) = 18.96350 25.08215 22.02282
#
# Velocity S-wave (km/s) = 3.20342 3.68415 3.45216
# Velocity P-wave (km/s) = 5.12951 6.31648 5.75369
#
# Compressibility (1/GPa) = 0.04284780
#
# Stress axis : x y z
#
# Youngs Moduli (GPa) = 34.48717 79.08927 26.16498
#
# Poissons Ratio (x) = -0.13564 0.35109
# Poissons Ratio (y) = -0.05915 0.17798
# Poissons Ratio (z) = 0.46276 0.53799
#
# Static dielectric constant tensor:
#      x y z
#    x 1.665950 0.000000 -0.006190 
#    y 0.000000 1.697850 0.000000 
#    z -0.006190 0.000000 1.655360 
# 
# From -- ./inp_files/135551.got.cif
#   From: 2010.05.17/outbox.cif.g08.bks.cpg/sg12_68_cif.got.tgz:135551.got - 2010.06.03 13:09:07.
