data_PCOD9219735
_publ_section_title
;
Structure prediction by ZEFSAII (Michael W. Deem and Ramdas Pophale) SiO2 
 PCOD9219735
Probable space group: C 2/M
;
_chemical_formula_sum "Si O2"
_cell_formula_units_Z 40
_cell_length_a 14.683477
_cell_length_b 8.439313
_cell_length_c 18.756072
_cell_angle_alpha 90.000000
_cell_angle_beta 116.477396
_cell_angle_gamma 90.000000
_cell_volume 2080.436472
_symmetry_space_group_name_H-M "C 2/M"
_symmetry_group_IT_number 12
_symmetry_cell_setting 'monoclinic'
loop_
_space_group_symop_operation_xyz
x,y,z
-x,y,-z
-x,-y,-z
x,-y,z
1/2+x,1/2+y,z
1/2-x,1/2+y,-z
1/2-x,1/2-y,-z
1/2+x,1/2-y,z
loop_
_atom_site_type_symbol
_atom_site_label
_atom_site_fract_x
_atom_site_fract_y
_atom_site_fract_z
Si Si1 0.624098 0.687967 0.290423
Si Si2 0.030144 0.192006 0.398945
Si Si3 0.853924 0.812888 0.001837
Si Si4 0.334601 0.307797 0.423995
Si Si5 0.073589 0.685811 0.119082
O O1 0.611527 0.500000 0.275082
O O2 0.544755 0.745314 0.323241
O O3 0.732746 0.724370 0.363656
O O4 0.611813 0.772372 0.210907
O O5 0.121525 0.242524 0.483579
O O6 0.924508 0.232749 0.399633
O O7 0.034617 0.000000 0.399968
O O8 0.864129 0.774873 0.921238
O O9 0.860174 0.000000 0.015026
O O10 0.750000 0.750000 0.000000
O O11 0.955230 0.734755 0.070616
O O12 0.321598 0.500000 0.419472
O O13 0.083155 0.500000 0.108566
#
# Coordination Sequence:
#
# PCOD9219735 Si02
#       5
#     8   8   8   8   8
#     4  11  21  34  52  80 113 145 180 231 288 336
#     4   8  17  33  54  75 104 144 187 229 278 335
#     4  11  22  41  66  90 115 147 182 225 279 340
#     4   9  17  34  55  76 102 143 191 232 275 335
#     4  11  23  40  59  85 116 150 191 235 278 331
#
# _framework density 19.226735000000001
#
# number of rings (size 3 to 8) (size 9 to 14) (size 15 to 20)
#    0.000    2.000    0.000    7.200    0.000    1.600 
#    0.000   11.000    0.000    0.000    0.000    0.000 
#    0.000    0.000    0.000    0.000    0.000    0.000 
#
# Total GULP energy -111685.166270 kJ/mol
# GULP energy per Si atom -5584.258314 kJ/mol
# Density = 1.918297 g / cm^3
# Si number density = 19.226735 Si / 1000 Ang^3
#
#
#
# Elastic Constant Matrix: (Units=GPa)
#
#
# Indices 1 2 3 4 5 6 
#
# 1 79.3534 -14.5197 17.3797 0.0000 -10.6520 0.0000
# 2 -14.5197 27.2135 -12.7817 0.0000 5.0436 0.0000
# 3 17.3797 -12.7817 55.1085 0.0000 -19.2019 0.0000
# 4 0.0000 0.0000 0.0000 30.6338 0.0000 6.0727
# 5 -10.6520 5.0436 -19.2019 0.0000 15.2226 0.0000
# 6 0.0000 0.0000 0.0000 6.0727 0.0000 23.5223
#
#
#
# Elastic Compliance Matrix: (Units=1/GPa)
#
#
# Indices 1 2 3 4 5 6 
#
# 1 0.014898 0.006259 -0.000601 0.000000 0.007593 0.000000
# 2 0.006259 0.043938 0.008333 0.000000 0.000334 0.000000
# 3 -0.000601 0.008333 0.034185 0.000000 0.039939 0.000000
# 4 0.000000 0.000000 0.000000 0.034404 0.000000 -0.008882
# 5 0.007593 0.000334 0.039939 0.000000 0.121274 0.000000
# 6 0.000000 0.000000 0.000000 -0.008882 0.000000 0.044806
#
#
# Mechanical properties :
#
#
# Convention : Reuss Voigt Hill
#
# Bulk Modulus (GPa) = 8.26422 15.75912 12.01167
# Shear Modulus (GPa) = 16.34752 25.31556 20.83154
#
# Velocity S-wave (km/s) = 2.91907 3.63255 3.29518
# Velocity P-wave (km/s) = 3.95840 5.08017 4.55396
#
# Compressibility (1/GPa) = 0.12100363
#
# Stress axis : x y z
#
# Youngs Moduli (GPa) = 67.12302 22.75927 29.25289
#
# Poissons Ratio (x) = -0.14246 0.01758
# Poissons Ratio (y) = -0.42014 -0.24377
# Poissons Ratio (z) = 0.04034 -0.18966
#
# Static dielectric constant tensor:
#      x y z
#    x 1.679410 0.000000 -0.021920 
#    y 0.000000 1.660260 0.000000 
#    z -0.021920 0.000000 1.656040 
# 
# From -- ./inp_files/267377.got.cif
#   From: 2010.05.17/outbox.cif.g08.bks.cpg/sg12_134_cif.got.tgz:267377.got - 2010.06.03 13:09:07.
