data_PCOD9219855
_publ_section_title
;
Structure prediction by ZEFSAII (Michael W. Deem and Ramdas Pophale) SiO2 
 PCOD9219855
Probable space group: C 2/M
;
_chemical_formula_sum "Si O2"
_cell_formula_units_Z 48
_cell_length_a 9.017389
_cell_length_b 26.806911
_cell_length_c 9.247406
_cell_angle_alpha 90.000000
_cell_angle_beta 87.125286
_cell_angle_gamma 90.000000
_cell_volume 2232.547138
_symmetry_space_group_name_H-M "C 2/M"
_symmetry_group_IT_number 12
_symmetry_cell_setting 'monoclinic'
loop_
_space_group_symop_operation_xyz
x,y,z
-x,y,-z
-x,-y,-z
x,-y,z
1/2+x,1/2+y,z
1/2-x,1/2+y,-z
1/2-x,1/2-y,-z
1/2+x,1/2-y,z
loop_
_atom_site_type_symbol
_atom_site_label
_atom_site_fract_x
_atom_site_fract_y
_atom_site_fract_z
Si Si1 0.147009 0.000000 0.589013
Si Si2 0.611269 0.762590 0.607107
Si Si3 0.823920 0.400299 0.499602
Si Si4 0.810899 0.891786 0.813117
Si Si5 0.082194 0.000000 0.144224
Si Si6 0.834730 0.703202 0.072712
Si Si7 0.926525 0.150624 0.352667
O O1 0.246140 0.952062 0.549485
O O2 0.000000 0.000000 0.500000
O O3 0.061454 0.000000 0.743696
O O4 0.500000 0.788890 0.500000
O O5 0.750000 0.750000 0.500000
O O6 0.654078 0.786775 0.755660
O O7 0.542939 0.709246 0.656898
O O8 0.775209 0.388033 0.337142
O O9 0.745563 0.361467 0.614868
O O10 0.000000 0.403391 0.500000
O O11 0.744343 0.851223 0.927974
O O12 0.982455 0.876214 0.775880
O O13 0.818512 0.950252 0.846846
O O14 0.000000 0.000000 0.000000
O O15 0.750000 0.750000 0.000000
O O16 0.000000 0.700740 0.000000
O O17 0.000000 0.132732 0.500000
#
# Coordination Sequence:
#
# PCOD9219855 Si02
#       7
#     4   8   8   8   4   8   8
#     4  12  19  44  73  99 137 184 239 299 361 419
#     4  11  22  40  67  99 136 183 240 297 348 427
#     4  11  21  35  68 108 140 175 229 302 362 418
#     4  11  23  46  69  99 137 186 240 292 357 439
#     4  12  26  46  75 101 132 189 249 296 357 447
#     4  12  27  47  71 104 148 197 239 299 373 443
#     4   9  18  35  63  96 132 178 232 286 346 416
#
# _framework density 21.500105999999999
#
# number of rings (size 3 to 8) (size 9 to 14) (size 15 to 20)
#    0.000    1.000    3.333    5.750    0.000    6.000 
#    3.000    0.417    0.000    0.000    0.000    0.000 
#    0.000    0.000    0.000    0.000    0.000    0.000 
#
# Total GULP energy -134013.078256 kJ/mol
# GULP energy per Si atom -5583.878261 kJ/mol
# Density = 2.145117 g / cm^3
# Si number density = 21.500106 Si / 1000 Ang^3
#
#
#
# Elastic Constant Matrix: (Units=GPa)
#
#
# Indices 1 2 3 4 5 6 
#
# 1 163.3429 52.7568 44.9431 0.0000 -17.7799 0.0000
# 2 52.7568 180.3032 39.8007 0.0000 -13.8910 0.0000
# 3 44.9431 39.8007 108.0287 0.0000 -4.4709 0.0000
# 4 0.0000 0.0000 0.0000 24.0910 0.0000 -13.4505
# 5 -17.7799 -13.8910 -4.4709 0.0000 30.2220 0.0000
# 6 0.0000 0.0000 0.0000 -13.4505 0.0000 37.5212
#
#
#
# Elastic Compliance Matrix: (Units=1/GPa)
#
#
# Indices 1 2 3 4 5 6 
#
# 1 0.007650 -0.001415 -0.002518 0.000000 0.003478 0.000000
# 2 -0.001415 0.006486 -0.001723 0.000000 0.001894 0.000000
# 3 -0.002518 -0.001723 0.010912 0.000000 -0.000659 0.000000
# 4 0.000000 0.000000 0.000000 0.051896 0.000000 0.018604
# 5 0.003478 0.001894 -0.000659 0.000000 0.035908 0.000000
# 6 0.000000 0.000000 0.000000 0.018604 0.000000 0.033320
#
#
# Mechanical properties :
#
#
# Convention : Reuss Voigt Hill
#
# Bulk Modulus (GPa) = 72.79037 80.74180 76.76608
# Shear Modulus (GPa) = 30.85233 39.31179 35.08206
#
# Velocity S-wave (km/s) = 3.79223 4.28067 4.04383
# Velocity P-wave (km/s) = 7.28725 7.87832 7.58854
#
# Compressibility (1/GPa) = 0.01373808
#
# Stress axis : x y z
#
# Youngs Moduli (GPa) = 130.71336 154.16858 91.64529
#
# Poissons Ratio (x) = 0.21812 0.23072
# Poissons Ratio (y) = 0.18493 0.15788
# Poissons Ratio (z) = 0.32908 0.26560
#
# Static dielectric constant tensor:
#      x y z
#    x 1.803220 0.000000 -0.016770 
#    y 0.000000 1.813130 0.000000 
#    z -0.016770 0.000000 1.613720 
# 
# From -- ./inp_files/42280.got.cif
#   From: 2010.05.17/outbox.cif.g08.bks.cpg/sg12_22_cif.got.tgz:42280.got - 2010.06.03 13:09:07.
