data_PCOD9219134
_publ_section_title
;
Structure prediction by ZEFSAII (Michael W. Deem and Ramdas Pophale) SiO2 
 PCOD9219134
Probable space group: C 2/M
;
_chemical_formula_sum "Si O2"
_cell_formula_units_Z 56
_cell_length_a 29.024411
_cell_length_b 9.047327
_cell_length_c 18.284320
_cell_angle_alpha 90.000000
_cell_angle_beta 50.308404
_cell_angle_gamma 90.000000
_cell_volume 3694.599140
_symmetry_space_group_name_H-M "C 2/M"
_symmetry_group_IT_number 12
_symmetry_cell_setting 'monoclinic'
loop_
_space_group_symop_operation_xyz
x,y,z
-x,y,-z
-x,-y,-z
x,-y,z
1/2+x,1/2+y,z
1/2-x,1/2+y,-z
1/2-x,1/2-y,-z
1/2+x,1/2-y,z
loop_
_atom_site_type_symbol
_atom_site_label
_atom_site_fract_x
_atom_site_fract_y
_atom_site_fract_z
Si Si1 0.428498 0.830387 0.555646
Si Si2 0.037899 0.323459 0.795713
Si Si3 0.815112 0.678178 0.930661
Si Si4 0.098453 0.323557 0.022993
Si Si5 0.570375 0.328348 0.906375
Si Si6 0.903203 0.823768 0.726097
Si Si7 0.970188 0.678383 0.360171
O O1 0.500000 0.829216 0.500000
O O2 0.399026 0.726001 0.645579
O O3 0.426363 0.787997 0.472461
O O4 0.408109 0.000000 0.585999
O O5 0.042855 0.500000 0.799488
O O6 0.074703 0.246547 0.822817
O O7 0.053523 0.285266 0.696411
O O8 0.967512 0.284628 0.878586
O O9 0.812285 0.500000 0.927418
O O10 0.852154 0.714860 0.966964
O O11 0.852476 0.746060 0.825739
O O12 0.750000 0.750000 0.000000
O O13 0.098898 0.500000 0.012467
O O14 0.105264 0.247929 0.937461
O O15 0.585208 0.500000 0.887128
O O16 0.500000 0.314203 0.000000
O O17 0.967144 0.761211 0.689695
O O18 0.901074 0.000000 0.735275
O O19 0.981823 0.500000 0.350729
#
# Coordination Sequence:
#
# PCOD9219134 Si02
#       7
#     8   8   8   8   8   8   8
#     4   8  15  27  43  60  83 115 149 181 217 261
#     4   9  15  26  43  62  85 116 150 177 212 261
#     4  11  22  36  50  66  86 113 153 192 228 264
#     4   9  17  30  46  59  80 114 148 181 217 261
#     4   9  17  26  38  60  87 112 142 178 216 258
#     4  11  20  29  43  62  87 117 148 184 225 263
#     4   9  16  28  44  63  87 119 152 182 217 262
#
# _framework density 15.157259
#
# number of rings (size 3 to 8) (size 9 to 14) (size 15 to 20)
#    0.000    2.571    1.429    3.000    0.000    6.000 
#    0.000    0.000    0.000    0.000    0.000    0.000 
#    0.000    1.143    0.000    3.429    0.000    4.571 
#
# Total GULP energy -155978.323867 kJ/mol
# GULP energy per Si atom -5570.654424 kJ/mol
# Density = 1.512276 g / cm^3
# Si number density = 15.157259 Si / 1000 Ang^3
#
#
#
# Elastic Constant Matrix: (Units=GPa)
#
#
# Indices 1 2 3 4 5 6 
#
# 1 83.3707 45.9424 60.8688 0.0001 32.0209 -0.0001
# 2 45.9424 59.3556 50.0880 -0.0005 15.4223 0.0004
# 3 60.8688 50.0880 86.0340 -0.0001 31.1057 0.0002
# 4 0.0001 -0.0005 -0.0001 16.2347 0.0001 -1.2988
# 5 32.0209 15.4223 31.1057 0.0001 33.7892 -0.0001
# 6 -0.0001 0.0004 0.0002 -1.2988 -0.0001 13.3982
#
#
#
# Elastic Compliance Matrix: (Units=1/GPa)
#
#
# Indices 1 2 3 4 5 6 
#
# 1 0.031973 -0.012520 -0.009657 0.000000 -0.015695 0.000001
# 2 -0.012520 0.038376 -0.017149 0.000001 0.010136 -0.000001
# 3 -0.009657 -0.017149 0.033426 0.000000 -0.013793 0.000000
# 4 0.000000 0.000001 0.000000 0.062078 0.000000 0.006018
# 5 -0.015695 0.010136 -0.013793 0.000000 0.052540 0.000000
# 6 0.000001 -0.000001 0.000000 0.006018 0.000000 0.075220
#
#
# Mechanical properties :
#
#
# Convention : Reuss Voigt Hill
#
# Bulk Modulus (GPa) = 39.80415 60.28429 50.04422
# Shear Modulus (GPa) = 13.13580 17.47516 15.30548
#
# Velocity S-wave (km/s) = 2.94706 3.39916 3.18115
# Velocity P-wave (km/s) = 6.15614 7.43402 6.82505
#
# Compressibility (1/GPa) = 0.02512301
#
# Stress axis : x y z
#
# Youngs Moduli (GPa) = 31.27676 26.05776 29.91677
#
# Poissons Ratio (x) = 0.32625 0.28890
# Poissons Ratio (y) = 0.39160 0.51304
# Poissons Ratio (z) = 0.30203 0.44686
#
# Static dielectric constant tensor:
#      x y z
#    x 1.497690 0.000000 0.035940 
#    y 0.000000 1.502990 0.000000 
#    z 0.035940 0.000000 1.507310 
# 
# From -- ./inp_files/288165.got.cif
#   From: 2010.05.17/outbox.cif.g08.bks.cpg/sg12_145_cif.got.tgz:288165.got - 2010.06.03 13:09:07.
