data_PCOD9219853
_publ_section_title
;
Structure prediction by ZEFSAII (Michael W. Deem and Ramdas Pophale) SiO2 
 PCOD9219853
Probable space group: C 2/M
;
_chemical_formula_sum "Si O2"
_cell_formula_units_Z 44
_cell_length_a 9.334298
_cell_length_b 23.630499
_cell_length_c 12.943681
_cell_angle_alpha 90.000000
_cell_angle_beta 136.121127
_cell_angle_gamma 90.000000
_cell_volume 1978.931978
_symmetry_space_group_name_H-M "C 2/M"
_symmetry_group_IT_number 12
_symmetry_cell_setting 'monoclinic'
loop_
_space_group_symop_operation_xyz
x,y,z
-x,y,-z
-x,-y,-z
x,-y,z
1/2+x,1/2+y,z
1/2-x,1/2+y,-z
1/2-x,1/2-y,-z
1/2+x,1/2-y,z
loop_
_atom_site_type_symbol
_atom_site_label
_atom_site_fract_x
_atom_site_fract_y
_atom_site_fract_z
Si Si1 0.345594 0.000000 0.820360
Si Si2 0.792756 0.500000 0.137725
Si Si3 0.971795 0.098448 0.293521
Si Si4 0.952508 0.280120 0.157262
Si Si5 0.579545 0.717409 0.650904
Si Si6 0.241980 0.500000 0.636356
Si Si7 0.167408 0.122074 0.004252
O O1 0.205947 0.944002 0.758770
O O2 0.469644 0.000000 0.777135
O O3 0.500000 0.000000 0.000000
O O4 0.734172 0.500000 0.227194
O O5 0.701462 0.556179 0.040654
O O6 0.999033 0.152567 0.379955
O O7 0.907149 0.127082 0.151265
O O8 0.158194 0.055821 0.363025
O O9 0.996002 0.253025 0.290939
O O10 0.170064 0.279460 0.211629
O O11 0.750000 0.250000 0.000000
O O12 0.877882 0.344446 0.129731
O O13 0.500000 0.740129 0.500000
O O14 0.000000 0.500000 0.500000
O O15 0.000000 0.143425 0.000000
#
# Coordination Sequence:
#
# PCOD9219853 Si02
#       7
#     4   4   8   8   8   4   8
#     4  11  21  35  66 104 144 175 232 304 365 423
#     4  12  22  38  66 105 138 178 235 303 369 427
#     4  11  24  43  69 103 142 193 239 300 365 442
#     4  12  26  46  77 105 140 195 257 309 360 437
#     4  12  28  50  71 106 151 191 243 307 381 442
#     4  11  26  46  68 100 151 198 243 291 366 459
#     4  12  22  39  70 106 140 177 247 311 365 422
#
# _framework density 22.234214000000001
#
# number of rings (size 3 to 8) (size 9 to 14) (size 15 to 20)
#    0.000    0.364    5.455    4.091    0.000    2.909 
#    0.000    3.636    0.000    0.000    0.000    0.000 
#    0.000    0.000    0.000    0.000    0.000    0.000 
#
# Total GULP energy -123087.401702 kJ/mol
# GULP energy per Si atom -5594.881896 kJ/mol
# Density = 2.218361 g / cm^3
# Si number density = 22.234214 Si / 1000 Ang^3
#
#
#
# Elastic Constant Matrix: (Units=GPa)
#
#
# Indices 1 2 3 4 5 6 
#
# 1 132.5867 16.2662 7.1059 0.0000 13.0530 0.0000
# 2 16.2662 85.1288 22.8496 0.0000 -3.4469 0.0000
# 3 7.1059 22.8496 60.2296 0.0000 -8.7746 0.0000
# 4 0.0000 0.0000 0.0000 2.8653 0.0000 -30.7382
# 5 13.0530 -3.4469 -8.7746 0.0000 39.8839 0.0000
# 6 0.0000 0.0000 0.0000 -30.7382 0.0000 0.6168
#
#
#
# Elastic Compliance Matrix: (Units=1/GPa)
#
#
# Indices 1 2 3 4 5 6 
#
# 1 0.008053 -0.001434 -0.000835 0.000000 -0.002943 0.000000
# 2 -0.001434 0.013334 -0.004807 0.000000 0.000564 0.000000
# 3 -0.000835 -0.004807 0.019117 0.000000 0.004064 0.000000
# 4 0.000000 0.000000 0.000000 -0.000654 0.000000 -0.032594
# 5 -0.002943 0.000564 0.004064 0.000000 0.026979 0.000000
# 6 0.000000 0.000000 0.000000 -0.032594 0.000000 -0.003038
#
#
# Mechanical properties :
#
#
# Convention : Reuss Voigt Hill
#
# Bulk Modulus (GPa) = 37.94740 41.15425 39.55083
# Shear Modulus (GPa) = 57.65262 24.12143 40.88703
#
# Velocity S-wave (km/s) = 5.09764 3.29732 4.29292
# Velocity P-wave (km/s) = 7.19390 5.74857 6.51146
#
# Compressibility (1/GPa) = 0.02635227
#
# Stress axis : x y z
#
# Youngs Moduli (GPa) = 124.18328 74.99609 52.30832
#
# Poissons Ratio (x) = 0.10753 0.04367
# Poissons Ratio (y) = 0.17805 0.25146
# Poissons Ratio (z) = 0.10368 0.36053
#
# Static dielectric constant tensor:
#      x y z
#    x 1.840610 0.000000 -0.014000 
#    y 0.000000 1.815860 0.000000 
#    z -0.014000 0.000000 2.003680 
# 
# From -- ./inp_files/124509.got.cif
#   From: 2010.05.17/outbox.cif.g08.bks.cpg/sg12_63_cif.got.tgz:124509.got - 2010.06.03 13:09:07.
