data_PCOD9219493
_publ_section_title
;
Structure prediction by ZEFSAII (Michael W. Deem and Ramdas Pophale) SiO2 
 PCOD9219493
Probable space group: C 2/M
;
_chemical_formula_sum "Si O2"
_cell_formula_units_Z 58
_cell_length_a 22.655670
_cell_length_b 14.463584
_cell_length_c 27.762778
_cell_angle_alpha 90.000000
_cell_angle_beta 18.442388
_cell_angle_gamma 90.000000
_cell_volume 2877.960839
_symmetry_space_group_name_H-M "C 2/M"
_symmetry_group_IT_number 12
_symmetry_cell_setting 'monoclinic'
loop_
_space_group_symop_operation_xyz
x,y,z
-x,y,-z
-x,-y,-z
x,-y,z
1/2+x,1/2+y,z
1/2-x,1/2+y,-z
1/2-x,1/2-y,-z
1/2+x,1/2-y,z
loop_
_atom_site_type_symbol
_atom_site_label
_atom_site_fract_x
_atom_site_fract_y
_atom_site_fract_z
Si Si1 0.456661 0.270928 0.171198
Si Si2 0.834478 0.282103 0.366165
Si Si3 0.388900 0.393666 0.388075
Si Si4 0.818320 0.604569 0.673912
Si Si5 0.211245 0.604763 0.094359
Si Si6 0.708159 0.350180 0.859031
Si Si7 0.809199 0.652840 0.080958
Si Si8 0.500000 0.000000 0.000000
O O1 0.334562 0.234488 0.309462
O O2 0.328752 0.320863 0.230908
O O3 0.609999 0.347037 0.068809
O O4 0.573868 0.191038 0.054702
O O5 0.686234 0.353123 0.503068
O O6 0.816137 0.182333 0.406214
O O7 0.034418 0.328813 0.223607
O O8 0.329846 0.500000 0.426119
O O9 0.611696 0.386483 0.216770
O O10 0.744875 0.500000 0.724341
O O11 0.845824 0.620684 0.709506
O O12 0.000000 0.612639 0.500000
O O13 0.178685 0.500000 0.103083
O O14 0.253677 0.603945 0.118916
O O15 0.724726 0.241960 0.858558
O O16 0.500000 0.371107 0.000000
O O17 0.923480 0.579498 0.022218
#
# Coordination Sequence:
#
# PCOD9219493 Si02
#       8
#     8   8   8   8   8   8   8   2
#     4  11  23  43  61  94 130 170 211 266 329 380
#     4  11  25  44  66  93 136 170 212 270 329 391
#     4  11  24  44  66  96 126 172 219 264 327 389
#     4  11  24  38  59  94 129 166 208 262 324 388
#     4  11  22  38  66  96 124 168 218 263 320 389
#     4  11  20  39  63  89 125 163 209 263 322 386
#     4  11  22  40  67  93 123 169 215 266 320 377
#     4  12  20  40  68  98 122 164 232 270 302 396
#
# _framework density 20.153158000000001
#
# number of rings (size 3 to 8) (size 9 to 14) (size 15 to 20)
#    0.000    0.966    6.897    1.655    1.931    1.655 
#    2.483    1.379    0.000    0.828    0.000    0.000 
#    0.000    0.000    0.000    0.000    0.000    0.000 
#
# Total GULP energy -161790.277077 kJ/mol
# GULP energy per Si atom -5578.975072 kJ/mol
# Density = 2.010729 g / cm^3
# Si number density = 20.153158 Si / 1000 Ang^3
#
#
#
# Elastic Constant Matrix: (Units=GPa)
#
#
# Indices 1 2 3 4 5 6 
#
# 1 27.0266 -5.2568 -10.2379 0.0135 0.5843 -0.0568
# 2 -5.2568 132.1543 4.5546 -0.0397 -0.3781 -0.0134
# 3 -10.2379 4.5546 32.6716 -0.0464 14.5763 -0.0226
# 4 0.0135 -0.0397 -0.0464 12.4708 -0.0187 -0.2614
# 5 0.5843 -0.3781 14.5763 -0.0187 19.2455 -0.0729
# 6 -0.0568 -0.0134 -0.0226 -0.2614 -0.0729 86.1954
#
#
#
# Elastic Compliance Matrix: (Units=1/GPa)
#
#
# Indices 1 2 3 4 5 6 
#
# 1 0.046140 0.001005 0.022556 0.000010 -0.018465 0.000021
# 2 0.001005 0.007652 -0.001216 0.000020 0.001041 0.000002
# 3 0.022556 -0.001216 0.057638 0.000120 -0.044363 -0.000007
# 4 0.000010 0.000020 0.000120 0.080193 -0.000012 0.000243
# 5 -0.018465 0.001041 -0.044363 -0.000012 0.086141 0.000049
# 6 0.000021 0.000002 -0.000007 0.000243 0.000049 0.011602
#
#
# Mechanical properties :
#
#
# Convention : Reuss Voigt Hill
#
# Bulk Modulus (GPa) = 6.40533 18.88580 12.64557
# Shear Modulus (GPa) = 16.85120 37.10186 26.97653
#
# Velocity S-wave (km/s) = 2.89477 4.29534 3.66262
# Velocity P-wave (km/s) = 3.78922 5.83021 4.91679
#
# Compressibility (1/GPa) = 0.15611990
#
# Stress axis : x y z
#
# Youngs Moduli (GPa) = 21.67325 130.68836 17.34974
#
# Poissons Ratio (x) = -0.13136 -0.39134
# Poissons Ratio (y) = -0.02178 0.02110
# Poissons Ratio (z) = -0.48887 0.15893
#
# Static dielectric constant tensor:
#      x y z
#    x 1.698600 -0.000010 0.003790 
#    y -0.000010 1.708900 0.000030 
#    z 0.003790 0.000030 1.744420 
# 
# From -- ./inp_files/366522.got.cif
#   From: 2010.05.17/outbox.cif.g08.bks.cpg/sg12_184_cif.got.tgz:366522.got - 2010.06.03 13:09:07.
