data_PCOD9219609
_publ_section_title
;
Structure prediction by ZEFSAII (Michael W. Deem and Ramdas Pophale) SiO2 
 PCOD9219609
Probable space group: C 2/M
;
_chemical_formula_sum "Si O2"
_cell_formula_units_Z 56
_cell_length_a 19.939366
_cell_length_b 7.968765
_cell_length_c 17.887417
_cell_angle_alpha 90.000000
_cell_angle_beta 49.499356
_cell_angle_gamma 90.000000
_cell_volume 2161.182004
_symmetry_space_group_name_H-M "C 2/M"
_symmetry_group_IT_number 12
_symmetry_cell_setting 'monoclinic'
loop_
_space_group_symop_operation_xyz
x,y,z
-x,y,-z
-x,-y,-z
x,-y,z
1/2+x,1/2+y,z
1/2-x,1/2+y,-z
1/2-x,1/2-y,-z
1/2+x,1/2-y,z
loop_
_atom_site_type_symbol
_atom_site_label
_atom_site_fract_x
_atom_site_fract_y
_atom_site_fract_z
Si Si1 0.646769 0.689702 0.189546
Si Si2 0.954795 0.303865 0.319918
Si Si3 0.362961 0.706568 0.960740
Si Si4 0.226005 0.699792 0.602850
Si Si5 0.956687 0.802843 0.115234
Si Si6 0.091389 0.307991 0.470696
Si Si7 0.783625 0.800942 0.180015
O O1 0.677836 0.500000 0.167070
O O2 0.542247 0.695765 0.258962
O O3 0.672243 0.776217 0.092286
O O4 0.681051 0.763015 0.242724
O O5 0.973597 0.500000 0.289784
O O6 0.876183 0.238927 0.323073
O O7 0.925079 0.301828 0.428258
O O8 0.363838 0.500000 0.956848
O O9 0.464191 0.769870 0.893742
O O10 0.316949 0.748859 0.072132
O O11 0.222120 0.500000 0.608378
O O12 0.250000 0.750000 0.500000
O O13 0.304113 0.751286 0.603767
O O14 0.858788 0.725775 0.178747
O O15 0.949265 0.000000 0.139701
O O16 0.000000 0.799895 0.000000
O O17 0.093960 0.500000 0.442234
O O18 0.000000 0.232751 0.500000
O O19 0.791441 0.000000 0.181698
#
# Coordination Sequence:
#
# PCOD9219609 Si02
#       7
#     8   8   8   8   8   8   8
#     4  11  21  30  44  68  99 129 158 198 241 284
#     4   9  19  35  51  69  97 131 163 193 234 289
#     4   8  15  28  46  69  91 117 161 207 242 281
#     4   9  17  31  53  77 100 128 161 196 235 286
#     4   7  11  23  45  67  82 104 147 197 236 275
#     4   9  18  34  57  82 103 124 157 202 246 292
#     4   9  16  29  50  69  89 121 160 204 249 288
#
# _framework density 25.911747999999999
#
# number of rings (size 3 to 8) (size 9 to 14) (size 15 to 20)
#    0.000    3.143    0.000    3.857    0.000    3.143 
#    0.000    2.143    0.000   12.429    0.000    0.000 
#    0.000    0.000    0.000    0.000    0.000    0.000 
#
# Total GULP energy -156033.617552 kJ/mol
# GULP energy per Si atom -5572.629198 kJ/mol
# Density = 2.585277 g / cm^3
# Si number density = 25.911748 Si / 1000 Ang^3
#
#
#
# Elastic Constant Matrix: (Units=GPa)
#
#
# Indices 1 2 3 4 5 6 
#
# 1 257.4393 22.7033 13.8152 0.0001 -19.1535 -0.0002
# 2 22.7033 42.3718 0.7707 0.0000 -7.7943 -0.0003
# 3 13.8152 0.7707 26.5012 0.0000 -10.5535 -0.0001
# 4 0.0001 0.0000 0.0000 16.8012 0.0000 -3.2002
# 5 -19.1535 -7.7943 -10.5535 0.0000 53.5674 0.0001
# 6 -0.0002 -0.0003 -0.0001 -3.2002 0.0001 27.2285
#
#
#
# Elastic Compliance Matrix: (Units=1/GPa)
#
#
# Indices 1 2 3 4 5 6 
#
# 1 0.004228 -0.002075 -0.001803 0.000000 0.000854 0.000000
# 2 -0.002075 0.025282 0.001645 0.000000 0.003261 0.000000
# 3 -0.001803 0.001645 0.041740 0.000000 0.007818 0.000000
# 4 0.000000 0.000000 0.000000 0.060882 0.000000 0.007156
# 5 0.000854 0.003261 0.007818 0.000000 0.020988 0.000000
# 6 0.000000 0.000000 0.000000 0.007156 0.000000 0.037567
#
#
# Mechanical properties :
#
#
# Convention : Reuss Voigt Hill
#
# Bulk Modulus (GPa) = 14.97393 44.54341 29.75867
# Shear Modulus (GPa) = 22.99741 38.78764 30.89253
#
# Velocity S-wave (km/s) = 2.98237 3.87319 3.45660
# Velocity P-wave (km/s) = 4.20128 6.10163 5.23835
#
# Compressibility (1/GPa) = 0.06678275
#
# Stress axis : x y z
#
# Youngs Moduli (GPa) = 236.53109 39.55310 23.95806
#
# Poissons Ratio (x) = 0.08209 0.04320
# Poissons Ratio (y) = 0.49088 -0.03941
# Poissons Ratio (z) = 0.42655 -0.06507
#
# Static dielectric constant tensor:
#      x y z
#    x 2.133430 0.000000 -0.084310 
#    y 0.000000 1.948970 0.000000 
#    z -0.084310 0.000000 2.289760 
# 
# From -- ./inp_files/345445.got.cif
#   From: 2010.05.17/outbox.cif.g08.bks.cpg/sg12_173_cif.got.tgz:345445.got - 2010.06.03 13:09:07.
