data_PCOD9219635
_publ_section_title
;
Structure prediction by ZEFSAII (Michael W. Deem and Ramdas Pophale) SiO2 
 PCOD9219635
Probable space group: C 2/M
;
_chemical_formula_sum "Si O2"
_cell_formula_units_Z 64
_cell_length_a 20.777157
_cell_length_b 15.362052
_cell_length_c 9.195280
_cell_angle_alpha 90.000000
_cell_angle_beta 70.056812
_cell_angle_gamma 90.000000
_cell_volume 2758.942319
_symmetry_space_group_name_H-M "C 2/M"
_symmetry_group_IT_number 12
_symmetry_cell_setting 'monoclinic'
loop_
_space_group_symop_operation_xyz
x,y,z
-x,y,-z
-x,-y,-z
x,-y,z
1/2+x,1/2+y,z
1/2-x,1/2+y,-z
1/2-x,1/2-y,-z
1/2+x,1/2-y,z
loop_
_atom_site_type_symbol
_atom_site_label
_atom_site_fract_x
_atom_site_fract_y
_atom_site_fract_z
Si Si1 0.200857 0.103605 0.458996
Si Si2 0.228124 0.600935 0.320680
Si Si3 0.991589 0.907459 0.179049
Si Si4 0.341109 0.218487 0.868663
Si Si5 0.502102 0.255456 0.344506
Si Si6 0.589372 0.094578 0.617117
Si Si7 0.832294 0.397993 0.158372
Si Si8 0.359526 0.401806 0.783841
O O1 0.213142 0.137233 0.613535
O O2 0.265795 0.125046 0.306313
O O3 0.140658 0.120127 0.389238
O O4 0.202873 0.000000 0.480378
O O5 0.243112 0.500000 0.261112
O O6 0.204691 0.665572 0.211739
O O7 0.160956 0.595504 0.475518
O O8 0.963742 0.816986 0.257959
O O9 0.065894 0.907305 0.200287
O O10 0.956748 0.000000 0.243116
O O11 0.000000 0.904838 0.000000
O O12 0.421028 0.227146 0.757978
O O13 0.321391 0.321096 0.889909
O O14 0.340021 0.166683 0.019370
O O15 0.500000 0.303458 0.500000
O O16 0.457924 0.170229 0.398852
O O17 0.605943 0.106523 0.774370
O O18 0.557455 0.000000 0.619843
O O19 0.827099 0.500000 0.116814
O O20 0.330130 0.500000 0.821611
#
# Coordination Sequence:
#
# PCOD9219635 Si02
#       8
#     8   8   8   8   8   8   8   8
#     4   8  16  34  56  73 101 143 174 205 254 319
#     4   9  17  32  52  75 105 141 174 206 253 309
#     4   9  20  38  60  81 103 135 176 224 272 312
#     4  11  21  31  51  80 104 136 174 225 263 299
#     4  11  22  34  51  77 108 143 180 215 260 310
#     4   9  19  34  51  72 105 145 177 206 252 318
#     4   9  19  34  52  77 106 137 174 214 261 311
#     4   9  19  35  54  77 103 134 174 214 263 318
#
# _framework density 23.197293999999999
#
# number of rings (size 3 to 8) (size 9 to 14) (size 15 to 20)
#    0.000    2.625    1.250    1.875    3.500    2.500 
#    0.000    1.250    0.000    0.000    0.000   14.875 
#    0.000    0.000    0.000    0.000    0.000    0.000 
#
# Total GULP energy -178514.216592 kJ/mol
# GULP energy per Si atom -5578.569268 kJ/mol
# Density = 2.314450 g / cm^3
# Si number density = 23.197294 Si / 1000 Ang^3
#
#
#
# Elastic Constant Matrix: (Units=GPa)
#
#
# Indices 1 2 3 4 5 6 
#
# 1 61.2255 11.6044 16.0003 0.0000 8.4940 0.0000
# 2 11.6044 131.4626 44.8346 0.0000 12.3461 0.0000
# 3 16.0003 44.8346 84.9320 0.0000 12.4238 0.0000
# 4 0.0000 0.0000 0.0000 27.9351 0.0000 20.4895
# 5 8.4940 12.3461 12.4238 0.0000 27.6335 0.0000
# 6 0.0000 0.0000 0.0000 20.4895 0.0000 7.5957
#
#
#
# Elastic Compliance Matrix: (Units=1/GPa)
#
#
# Indices 1 2 3 4 5 6 
#
# 1 0.017632 -0.000294 -0.002561 0.000000 -0.004137 0.000000
# 2 -0.000294 0.009395 -0.004606 0.000000 -0.002036 0.000000
# 3 -0.002561 -0.004606 0.015277 0.000000 -0.004023 0.000000
# 4 0.000000 0.000000 0.000000 -0.036582 0.000000 0.098681
# 5 -0.004137 -0.002036 -0.004023 0.000000 0.040178 0.000000
# 6 0.000000 0.000000 0.000000 0.098681 0.000000 -0.134539
#
#
# Mechanical properties :
#
#
# Convention : Reuss Voigt Hill
#
# Bulk Modulus (GPa) = 36.52282 46.94428 41.73355
# Shear Modulus (GPa) = -77.41164 26.31159 -25.55003
#
# Velocity S-wave (km/s) = -5.78303 3.37152 -3.32237
# Velocity P-wave (km/s) = 5.36774 5.95291 1.81996
#
# Compressibility (1/GPa) = 0.02738014
#
# Stress axis : x y z
#
# Youngs Moduli (GPa) = 56.71477 106.44165 65.45952
#
# Poissons Ratio (x) = 0.03134 0.16765
# Poissons Ratio (y) = 0.01670 0.30151
# Poissons Ratio (z) = 0.14525 0.49028
#
# Static dielectric constant tensor:
#      x y z
#    x 1.942210 0.000000 0.015680 
#    y 0.000000 1.917150 0.000000 
#    z 0.015680 0.000000 1.871170 
# 
# From -- ./inp_files/96890.got.cif
#   From: 2010.05.17/outbox.cif.g08.bks.cpg/sg12_49_cif.got.tgz:96890.got - 2010.06.03 13:09:07.
