data_PCOD9219344
_publ_section_title
;
Structure prediction by ZEFSAII (Michael W. Deem and Ramdas Pophale) SiO2 
 PCOD9219344
Probable space group: C 2/M
;
_chemical_formula_sum "Si O2"
_cell_formula_units_Z 48
_cell_length_a 15.574112
_cell_length_b 22.407800
_cell_length_c 11.214452
_cell_angle_alpha 90.000000
_cell_angle_beta 40.155882
_cell_angle_gamma 90.000000
_cell_volume 2523.784792
_symmetry_space_group_name_H-M "C 2/M"
_symmetry_group_IT_number 12
_symmetry_cell_setting 'monoclinic'
loop_
_space_group_symop_operation_xyz
x,y,z
-x,y,-z
-x,-y,-z
x,-y,z
1/2+x,1/2+y,z
1/2-x,1/2+y,-z
1/2-x,1/2-y,-z
1/2+x,1/2-y,z
loop_
_atom_site_type_symbol
_atom_site_label
_atom_site_fract_x
_atom_site_fract_y
_atom_site_fract_z
Si Si1 0.120340 0.000000 0.205097
Si Si2 0.308536 0.500000 0.593850
Si Si3 0.655664 0.565485 0.818740
Si Si4 0.504046 0.166637 0.353907
Si Si5 0.525150 0.308890 0.610562
Si Si6 0.293796 0.625242 0.999522
Si Si7 0.240872 0.385609 0.534200
O O1 0.177699 0.940714 0.082865
O O2 0.164918 0.000000 0.294436
O O3 0.958344 0.000000 0.376604
O O4 0.231010 0.440578 0.636306
O O5 0.719698 0.500000 0.771248
O O6 0.680435 0.586225 0.659966
O O7 0.500000 0.558759 0.000000
O O8 0.695638 0.615722 0.869910
O O9 0.500000 0.147405 0.500000
O O10 0.478941 0.237535 0.381504
O O11 0.392602 0.137436 0.387173
O O12 0.646009 0.151019 0.143689
O O13 0.500000 0.328653 0.500000
O O14 0.406973 0.334194 0.819361
O O15 0.665726 0.335266 0.506023
#
# Coordination Sequence:
#
# PCOD9219344 Si02
#       7
#     4   4   8   8   8   8   8
#     4  11  22  40  69  96 124 167 211 260 315 376
#     4  11  22  40  69  96 124 167 211 260 315 376
#     4  11  20  35  63  99 123 157 207 266 316 365
#     4  11  26  43  62  93 133 172 208 258 323 372
#     4  11  24  44  67  90 124 174 220 258 304 375
#     4  12  22  41  66  95 127 162 213 263 316 375
#     4  12  22  41  66  95 127 162 213 263 316 375
#
# _framework density 19.019053
#
# number of rings (size 3 to 8) (size 9 to 14) (size 15 to 20)
#    0.000    0.667    6.667    2.000    0.000    0.667 
#    0.000    5.833    3.667    0.000    0.000    0.000 
#    0.000    0.000    0.000    0.000    0.000    0.000 
#
# Total GULP energy -133956.144234 kJ/mol
# GULP energy per Si atom -5581.506010 kJ/mol
# Density = 1.897577 g / cm^3
# Si number density = 19.019053 Si / 1000 Ang^3
#
#
#
# Elastic Constant Matrix: (Units=GPa)
#
#
# Indices 1 2 3 4 5 6 
#
# 1 130.5649 33.0197 15.7796 0.0001 -10.5549 -0.0002
# 2 33.0197 65.5444 0.0986 0.0000 -12.6067 -0.0001
# 3 15.7796 0.0986 20.5772 0.0001 -8.3684 -0.0001
# 4 0.0001 0.0000 0.0001 14.5945 -0.0001 8.8147
# 5 -10.5549 -12.6067 -8.3684 -0.0001 36.8340 0.0001
# 6 -0.0002 -0.0001 -0.0001 8.8147 0.0001 21.7389
#
#
#
# Elastic Compliance Matrix: (Units=1/GPa)
#
#
# Indices 1 2 3 4 5 6 
#
# 1 0.009828 -0.005072 -0.007793 0.000000 -0.000690 0.000000
# 2 -0.005072 0.019060 0.006456 0.000000 0.006537 0.000000
# 3 -0.007793 0.006456 0.060084 0.000000 0.013627 0.000000
# 4 0.000000 0.000000 0.000000 0.090741 0.000000 -0.036794
# 5 -0.000690 0.006537 0.013627 0.000000 0.032284 0.000000
# 6 0.000000 0.000000 0.000000 -0.036794 0.000000 0.060920
#
#
# Mechanical properties :
#
#
# Convention : Reuss Voigt Hill
#
# Bulk Modulus (GPa) = 13.13112 34.94250 24.03681
# Shear Modulus (GPa) = 16.07104 25.81939 20.94522
#
# Velocity S-wave (km/s) = 2.91004 3.68850 3.32215
# Velocity P-wave (km/s) = 4.26735 6.04585 5.23271
#
# Compressibility (1/GPa) = 0.07615498
#
# Stress axis : x y z
#
# Youngs Moduli (GPa) = 101.75272 52.46718 16.64326
#
# Poissons Ratio (x) = 0.26611 0.12970
# Poissons Ratio (y) = 0.51609 -0.10746
# Poissons Ratio (z) = 0.79294 -0.33875
#
# Static dielectric constant tensor:
#      x y z
#    x 1.677000 0.000000 -0.004760 
#    y 0.000000 1.675760 0.000000 
#    z -0.004760 0.000000 1.646470 
# 
# From -- ./inp_files/147970.got.cif
#   From: 2010.05.17/outbox.cif.g08.bks.cpg/sg12_74_cif.got.tgz:147970.got - 2010.06.03 13:09:07.
