data_PCOD9219882
_publ_section_title
;
Structure prediction by ZEFSAII (Michael W. Deem and Ramdas Pophale) SiO2 
 PCOD9219882
Probable space group: C 2/M
;
_chemical_formula_sum "Si O2"
_cell_formula_units_Z 40
_cell_length_a 15.023732
_cell_length_b 8.489883
_cell_length_c 17.417550
_cell_angle_alpha 90.000000
_cell_angle_beta 76.784085
_cell_angle_gamma 90.000000
_cell_volume 2162.765540
_symmetry_space_group_name_H-M "C 2/M"
_symmetry_group_IT_number 12
_symmetry_cell_setting 'monoclinic'
loop_
_space_group_symop_operation_xyz
x,y,z
-x,y,-z
-x,-y,-z
x,-y,z
1/2+x,1/2+y,z
1/2-x,1/2+y,-z
1/2-x,1/2-y,-z
1/2+x,1/2-y,z
loop_
_atom_site_type_symbol
_atom_site_label
_atom_site_fract_x
_atom_site_fract_y
_atom_site_fract_z
Si Si1 0.048377 0.191010 0.412313
Si Si2 0.468788 0.186981 0.116934
Si Si3 0.351681 0.311988 0.000058
Si Si4 0.570604 0.311773 0.706986
Si Si5 0.247718 0.689146 0.587755
O O1 0.154498 0.228337 0.395179
O O2 0.000000 0.249007 0.500000
O O3 0.000380 0.245173 0.344205
O O4 0.039433 0.000000 0.415050
O O5 0.568503 0.253706 0.073583
O O6 0.445748 0.232241 0.208280
O O7 0.470721 0.000000 0.106420
O O8 0.391854 0.255394 0.074305
O O9 0.349122 0.500000 0.999386
O O10 0.250000 0.250000 0.000000
O O11 0.561949 0.500000 0.717810
O O12 0.668222 0.269593 0.651658
O O13 0.236003 0.500000 0.589793
O O14 0.250000 0.750000 0.500000
#
# Coordination Sequence:
#
# PCOD9219882 Si02
#       5
#     8   8   8   8   8
#     4   9  18  35  57  79 108 152 197 240 297 360
#     4  11  23  41  62  92 128 162 203 252 305 364
#     4  11  22  41  68  96 125 162 202 245 303 366
#     4  11  22  39  60  84 118 158 202 252 304 361
#     4  11  21  36  57  82 111 150 199 250 304 363
#
# _framework density 18.494838999999999
#
# number of rings (size 3 to 8) (size 9 to 14) (size 15 to 20)
#    0.000    1.400    2.000    6.000    0.000    1.600 
#    0.000   11.000    0.000    0.000    0.000    0.000 
#    0.000    0.000    0.000    0.000    0.000    0.000 
#
# Total GULP energy -111731.760734 kJ/mol
# GULP energy per Si atom -5586.588037 kJ/mol
# Density = 1.845274 g / cm^3
# Si number density = 18.494839 Si / 1000 Ang^3
#
#
#
# Elastic Constant Matrix: (Units=GPa)
#
#
# Indices 1 2 3 4 5 6 
#
# 1 154.9675 50.4054 77.5687 0.0000 11.1906 0.0000
# 2 50.4054 115.7680 38.6607 0.0000 2.8354 0.0000
# 3 77.5687 38.6607 162.5883 0.0000 5.7101 0.0000
# 4 0.0000 0.0000 0.0000 29.5052 0.0000 -6.7079
# 5 11.1906 2.8354 5.7101 0.0000 16.7647 0.0000
# 6 0.0000 0.0000 0.0000 -6.7079 0.0000 29.8800
#
#
#
# Elastic Compliance Matrix: (Units=1/GPa)
#
#
# Indices 1 2 3 4 5 6 
#
# 1 0.009571 -0.002806 -0.003736 0.000000 -0.004642 0.000000
# 2 -0.002806 0.010217 -0.001109 0.000000 0.000523 0.000000
# 3 -0.003736 -0.001109 0.008201 0.000000 -0.000112 0.000000
# 4 0.000000 0.000000 0.000000 0.035715 0.000000 0.008018
# 5 -0.004642 0.000523 -0.000112 0.000000 0.062697 0.000000
# 6 0.000000 0.000000 0.000000 0.008018 0.000000 0.035267
#
#
# Mechanical properties :
#
#
# Convention : Reuss Voigt Hill
#
# Bulk Modulus (GPa) = 78.82296 85.17705 82.00001
# Shear Modulus (GPa) = 27.59398 33.00925 30.30162
#
# Velocity S-wave (km/s) = 3.86681 4.22925 4.05208
# Velocity P-wave (km/s) = 7.91503 8.36679 8.14404
#
# Compressibility (1/GPa) = 0.01268666
#
# Stress axis : x y z
#
# Youngs Moduli (GPa) = 104.48465 97.87376 121.94333
#
# Poissons Ratio (x) = 0.27462 0.45557
# Poissons Ratio (y) = 0.29317 0.13526
# Poissons Ratio (z) = 0.39034 0.10856
#
# Static dielectric constant tensor:
#      x y z
#    x 1.626580 0.000000 0.012040 
#    y 0.000000 1.636990 0.000000 
#    z 0.012040 0.000000 1.609870 
# 
# From -- ./inp_files/266685.got.cif
#   From: 2010.05.17/outbox.cif.g08.bks.cpg/sg12_134_cif.got.tgz:266685.got - 2010.06.03 13:09:07.
