data_PCOD9219832
_publ_section_title
;
Structure prediction by ZEFSAII (Michael W. Deem and Ramdas Pophale) SiO2 
 PCOD9219832
Probable space group: C 2/M
;
_chemical_formula_sum "Si O2"
_cell_formula_units_Z 40
_cell_length_a 20.346784
_cell_length_b 21.734254
_cell_length_c 11.896107
_cell_angle_alpha 90.000000
_cell_angle_beta 22.645193
_cell_angle_gamma 90.000000
_cell_volume 2025.501177
_symmetry_space_group_name_H-M "C 2/M"
_symmetry_group_IT_number 12
_symmetry_cell_setting 'monoclinic'
loop_
_space_group_symop_operation_xyz
x,y,z
-x,y,-z
-x,-y,-z
x,-y,z
1/2+x,1/2+y,z
1/2-x,1/2+y,-z
1/2-x,1/2-y,-z
1/2+x,1/2-y,z
loop_
_atom_site_type_symbol
_atom_site_label
_atom_site_fract_x
_atom_site_fract_y
_atom_site_fract_z
Si Si1 0.395775 0.200308 0.278928
Si Si2 0.311162 0.381811 0.255731
Si Si3 0.672735 0.274452 0.955182
Si Si4 0.485503 0.929266 0.654004
Si Si5 0.322290 0.659576 0.812965
O O1 0.250000 0.250000 0.500000
O O2 0.300787 0.138183 0.460634
O O3 0.500000 0.195156 0.000000
O O4 0.511965 0.229543 0.192634
O O5 0.327385 0.320837 0.150271
O O6 0.177745 0.424200 0.399576
O O7 0.500000 0.400898 0.000000
O O8 0.814359 0.221259 0.747656
O O9 0.673270 0.315110 0.066441
O O10 0.500000 0.911516 0.500000
O O11 0.428552 0.000000 0.751611
O O12 0.343357 0.884598 0.933866
O O13 0.500000 0.627416 0.500000
#
# Coordination Sequence:
#
# PCOD9219832 Si02
#       5
#     8   8   8   8   8
#     4  12  21  33  55  89 129 166 194 242 314 381
#     4  12  23  39  63  93 127 165 206 258 309 376
#     4  11  21  35  58  95 136 154 197 246 326 374
#     4  11  25  46  66  86 120 171 218 258 304 364
#     4  11  24  35  64  95 126 163 204 261 310 374
#
# _framework density 19.748199
#
# number of rings (size 3 to 8) (size 9 to 14) (size 15 to 20)
#    0.000    0.600    8.000    1.200    2.800    0.800 
#    0.000    0.000    0.000    0.600    0.000    0.000 
#    0.000    0.000    0.000    0.000    0.000    0.000 
#
# Total GULP energy -111458.347876 kJ/mol
# GULP energy per Si atom -5572.917394 kJ/mol
# Density = 1.970325 g / cm^3
# Si number density = 19.748199 Si / 1000 Ang^3
#
#
#
# Elastic Constant Matrix: (Units=GPa)
#
#
# Indices 1 2 3 4 5 6 
#
# 1 72.2155 11.5214 35.4856 -0.0043 -21.8642 0.0028
# 2 11.5214 52.5703 38.3789 -0.0135 0.6192 0.0089
# 3 35.4856 38.3789 113.5728 -0.0118 -19.2509 0.0114
# 4 -0.0043 -0.0135 -0.0118 19.5049 0.0010 -4.1846
# 5 -21.8642 0.6192 -19.2509 0.0010 37.2929 -0.0034
# 6 0.0028 0.0089 0.0114 -4.1846 -0.0034 10.4751
#
#
#
# Elastic Compliance Matrix: (Units=1/GPa)
#
#
# Indices 1 2 3 4 5 6 
#
# 1 0.018680 -0.001396 -0.003840 0.000001 0.008992 0.000004
# 2 -0.001396 0.026344 -0.009511 0.000010 -0.006166 -0.000009
# 3 -0.003840 -0.009511 0.014098 0.000000 0.005184 -0.000005
# 4 0.000001 0.000010 0.000000 0.056075 0.000001 0.022401
# 5 0.008992 -0.006166 0.005184 0.000001 0.034865 0.000009
# 6 0.000004 -0.000009 -0.000005 0.022401 0.000009 0.104413
#
#
# Mechanical properties :
#
#
# Convention : Reuss Voigt Hill
#
# Bulk Modulus (GPa) = 33.75395 45.45896 39.60645
# Shear Modulus (GPa) = 17.01568 23.65277 20.33423
#
# Velocity S-wave (km/s) = 2.93854 3.46456 3.21234
# Velocity P-wave (km/s) = 5.35188 6.25088 5.81877
#
# Compressibility (1/GPa) = 0.02962617
#
# Stress axis : x y z
#
# Youngs Moduli (GPa) = 53.53348 37.95863 70.93402
#
# Poissons Ratio (x) = 0.05299 0.27242
# Poissons Ratio (y) = 0.07474 0.67468
# Poissons Ratio (z) = 0.20559 0.36104
#
# Static dielectric constant tensor:
#      x y z
#    x 1.814560 0.000000 -0.095810 
#    y 0.000000 1.691640 0.000010 
#    z -0.095810 0.000010 1.813430 
# 
# From -- ./inp_files/79261.got.cif
#   From: 2010.05.17/outbox.cif.g08.bks.cpg/sg12_40_cif.got.tgz:79261.got - 2010.06.03 13:09:07.
