data_PCOD9219108
_publ_section_title
;
Structure prediction by ZEFSAII (Michael W. Deem and Ramdas Pophale) SiO2 
 PCOD9219108
Probable space group: C 2/M
;
_chemical_formula_sum "Si O2"
_cell_formula_units_Z 58
_cell_length_a 20.705469
_cell_length_b 17.051714
_cell_length_c 9.936608
_cell_angle_alpha 90.000000
_cell_angle_beta 123.301712
_cell_angle_gamma 90.000000
_cell_volume 2932.168587
_symmetry_space_group_name_H-M "C 2/M"
_symmetry_group_IT_number 12
_symmetry_cell_setting 'monoclinic'
loop_
_space_group_symop_operation_xyz
x,y,z
-x,y,-z
-x,-y,-z
x,-y,z
1/2+x,1/2+y,z
1/2-x,1/2+y,-z
1/2-x,1/2-y,-z
1/2+x,1/2-y,z
loop_
_atom_site_type_symbol
_atom_site_label
_atom_site_fract_x
_atom_site_fract_y
_atom_site_fract_z
Si Si1 0.187828 0.152903 0.542102
Si Si2 0.164736 0.259198 0.165068
Si Si3 0.500000 0.000000 0.500000
Si Si4 0.705390 0.412670 0.273936
Si Si5 0.103932 0.751256 0.818285
Si Si6 0.429112 0.785207 0.697672
Si Si7 0.413699 0.411052 0.340571
Si Si8 0.125751 0.372535 0.615118
O O1 0.257412 0.206324 0.679270
O O2 0.215255 0.102642 0.445457
O O3 0.121847 0.211525 0.411892
O O4 0.148371 0.100824 0.611400
O O5 0.160113 0.164620 0.173194
O O6 0.095773 0.295040 0.176238
O O7 0.160046 0.275560 0.001926
O O8 0.435062 0.067669 0.394478
O O9 0.672951 0.500000 0.215156
O O10 0.788317 0.405339 0.297425
O O11 0.104664 0.843476 0.787289
O O12 0.121909 0.705584 0.701094
O O13 0.018147 0.730679 0.771511
O O14 0.401840 0.854634 0.568654
O O15 0.500000 0.397216 0.500000
O O16 0.411278 0.500000 0.286207
#
# Coordination Sequence:
#
# PCOD9219108 Si02
#       8
#     8   8   2   8   8   8   8   8
#     4  11  20  40  64  89 116 164 215 254 292 373
#     4  11  24  38  63  94 127 161 208 251 313 379
#     4  12  24  36  68 106 118 152 220 260 296 356
#     4  11  22  38  62  91 124 162 205 257 305 358
#     4  12  23  39  62  95 128 164 200 259 317 365
#     4  11  19  41  65  85 118 169 212 247 293 369
#     4  11  22  38  63  91 122 163 211 257 304 367
#     4  12  21  38  69  90 119 163 214 251 299 370
#
# _framework density 19.780581999999999
#
# number of rings (size 3 to 8) (size 9 to 14) (size 15 to 20)
#    0.000    0.690    7.586    1.655    0.000    2.759 
#    0.000    0.000    3.034    3.310    0.000    0.000 
#    0.000    0.000    0.000    0.000    0.000    0.000 
#
# Total GULP energy -161668.083652 kJ/mol
# GULP energy per Si atom -5574.761505 kJ/mol
# Density = 1.973556 g / cm^3
# Si number density = 19.780582 Si / 1000 Ang^3
#
#
#
# Elastic Constant Matrix: (Units=GPa)
#
#
# Indices 1 2 3 4 5 6 
#
# 1 72.5145 -2.2719 6.4466 0.0000 -16.0262 0.0000
# 2 -2.2719 78.9374 6.2986 0.0000 -5.7993 0.0000
# 3 6.4466 6.2986 57.5972 0.0000 -14.6276 0.0000
# 4 0.0000 0.0000 0.0000 10.1841 0.0000 2.5115
# 5 -16.0262 -5.7993 -14.6276 0.0000 20.1898 0.0000
# 6 0.0000 0.0000 0.0000 2.5115 0.0000 17.4371
#
#
#
# Elastic Compliance Matrix: (Units=1/GPa)
#
#
# Indices 1 2 3 4 5 6 
#
# 1 0.017049 0.001468 0.001808 0.000000 0.015265 0.000000
# 2 0.001468 0.013083 -0.000422 0.000000 0.004617 0.000000
# 3 0.001808 -0.000422 0.021494 0.000000 0.016887 0.000000
# 4 0.000000 0.000000 0.000000 0.101808 0.000000 -0.014664
# 5 0.015265 0.004617 0.016887 0.000000 0.075207 0.000000
# 6 0.000000 0.000000 0.000000 -0.014664 0.000000 0.059461
#
#
# Mechanical properties :
#
#
# Convention : Reuss Voigt Hill
#
# Bulk Modulus (GPa) = 17.44174 25.55509 21.49841
# Shear Modulus (GPa) = 16.58332 22.80060 19.69196
#
# Velocity S-wave (km/s) = 2.89859 3.39879 3.15861
# Velocity P-wave (km/s) = 4.47652 5.32444 4.91879
#
# Compressibility (1/GPa) = 0.05733374
#
# Stress axis : x y z
#
# Youngs Moduli (GPa) = 58.65380 76.43257 46.52377
#
# Poissons Ratio (x) = -0.11219 -0.08411
# Poissons Ratio (y) = -0.08610 0.01965
# Poissons Ratio (z) = -0.10604 0.03229
#
# Static dielectric constant tensor:
#      x y z
#    x 1.708080 0.000000 -0.011230 
#    y 0.000000 1.690440 0.000000 
#    z -0.011230 0.000000 1.706540 
# 
# From -- ./inp_files/88040.got.cif
#   From: 2010.05.17/outbox.cif.g08.bks.cpg/sg12_45_cif.got.tgz:88040.got - 2010.06.03 13:09:07.
