data_PCOD9219067
_publ_section_title
;
Structure prediction by ZEFSAII (Michael W. Deem and Ramdas Pophale) SiO2 
 PCOD9219067
Probable space group: C 2/M
;
_chemical_formula_sum "Si O2"
_cell_formula_units_Z 56
_cell_length_a 13.206272
_cell_length_b 18.741507
_cell_length_c 11.390330
_cell_angle_alpha 90.000000
_cell_angle_beta 63.777457
_cell_angle_gamma 90.000000
_cell_volume 2529.032733
_symmetry_space_group_name_H-M "C 2/M"
_symmetry_group_IT_number 12
_symmetry_cell_setting 'monoclinic'
loop_
_space_group_symop_operation_xyz
x,y,z
-x,y,-z
-x,-y,-z
x,-y,z
1/2+x,1/2+y,z
1/2-x,1/2+y,-z
1/2-x,1/2-y,-z
1/2+x,1/2-y,z
loop_
_atom_site_type_symbol
_atom_site_label
_atom_site_fract_x
_atom_site_fract_y
_atom_site_fract_z
Si Si1 0.677707 0.203246 0.323093
Si Si2 0.116388 0.160960 0.509800
Si Si3 0.843014 0.207764 0.881401
Si Si4 0.338207 0.082927 0.481534
Si Si5 0.685146 0.079388 0.937503
Si Si6 0.574838 0.713343 0.795732
Si Si7 0.528899 0.880006 0.810503
O O1 0.668574 0.269806 0.418029
O O2 0.617626 0.236677 0.240652
O O3 0.644128 0.134608 0.415544
O O4 0.805577 0.190805 0.214578
O O5 0.219788 0.105791 0.477405
O O6 0.084516 0.185789 0.656762
O O7 0.000000 0.140119 0.500000
O O8 0.783316 0.136653 0.865922
O O9 0.952880 0.187461 0.899015
O O10 0.750000 0.250000 0.000000
O O11 0.437028 0.097423 0.337003
O O12 0.334551 0.000000 0.515248
O O13 0.607504 0.077935 0.861824
O O14 0.727054 0.000000 0.941851
O O15 0.599422 0.105340 0.084132
O O16 0.566267 0.798491 0.812326
#
# Coordination Sequence:
#
# PCOD9219067 Si02
#       7
#     8   8   8   8   8   8   8
#     4  11  22  41  62  88 124 165 207 265 309 374
#     4  11  20  36  63  91 124 163 211 264 309 360
#     4  12  24  38  63  93 119 164 213 259 307 380
#     4  11  22  38  62  93 128 170 207 251 322 383
#     4  11  23  38  59  94 132 160 201 267 323 364
#     4  11  20  36  63  91 120 160 213 252 309 366
#     4  11  19  37  63  92 125 164 203 257 316 374
#
# _framework density 22.142854
#
# number of rings (size 3 to 8) (size 9 to 14) (size 15 to 20)
#    0.000    0.857    7.143    2.571    0.000    0.857 
#    0.000    3.571    0.000    1.286    0.000    5.000 
#    0.000    0.000    0.000    0.000    0.000    0.000 
#
# Total GULP energy -156417.448701 kJ/mol
# GULP energy per Si atom -5586.337454 kJ/mol
# Density = 2.209246 g / cm^3
# Si number density = 22.142854 Si / 1000 Ang^3
#
#
#
# Elastic Constant Matrix: (Units=GPa)
#
#
# Indices 1 2 3 4 5 6 
#
# 1 104.7781 8.7698 20.3467 0.0000 -7.8384 0.0000
# 2 8.7698 138.4370 30.5781 0.0000 4.8408 0.0000
# 3 20.3467 30.5781 93.8057 0.0000 -6.7761 0.0000
# 4 0.0000 0.0000 0.0000 8.5164 0.0000 6.4318
# 5 -7.8384 4.8408 -6.7761 0.0000 29.5637 0.0000
# 6 0.0000 0.0000 0.0000 6.4318 0.0000 1.7259
#
#
#
# Elastic Compliance Matrix: (Units=1/GPa)
#
#
# Indices 1 2 3 4 5 6 
#
# 1 0.010115 -0.000294 -0.001933 0.000000 0.002287 0.000000
# 2 -0.000294 0.007897 -0.002654 0.000000 -0.001979 0.000000
# 3 -0.001933 -0.002654 0.012140 0.000000 0.002705 0.000000
# 4 0.000000 0.000000 0.000000 -0.064716 0.000000 0.241169
# 5 0.002287 -0.001979 0.002705 0.000000 0.035376 0.000000
# 6 0.000000 0.000000 0.000000 0.241169 0.000000 -0.319333
#
#
# Mechanical properties :
#
#
# Convention : Reuss Voigt Hill
#
# Bulk Modulus (GPa) = 49.03967 50.71222 49.87594
# Shear Modulus (GPa) = -16.55831 26.44962 4.94566
#
# Velocity S-wave (km/s) = -2.73755 3.45990 1.49612
# Velocity P-wave (km/s) = 3.49325 6.23805 5.05549
#
# Compressibility (1/GPa) = 0.02039165
#
# Stress axis : x y z
#
# Youngs Moduli (GPa) = 98.86291 126.62306 82.37255
#
# Poissons Ratio (x) = 0.03720 0.15923
# Poissons Ratio (y) = 0.02904 0.21858
# Poissons Ratio (z) = 0.19110 0.33601
#
# Static dielectric constant tensor:
#      x y z
#    x 1.914960 0.000000 0.021110 
#    y 0.000000 1.770110 0.000000 
#    z 0.021110 0.000000 1.863810 
# 
# From -- ./inp_files/146042.got.cif
#   From: 2010.05.17/outbox.cif.g08.bks.cpg/sg12_74_cif.got.tgz:146042.got - 2010.06.03 13:09:07.
