data_PCOD9219663
_publ_section_title
;
Structure prediction by ZEFSAII (Michael W. Deem and Ramdas Pophale) SiO2 
 PCOD9219663
Probable space group: C 2/M
;
_chemical_formula_sum "Si O2"
_cell_formula_units_Z 58
_cell_length_a 8.349477
_cell_length_b 29.864279
_cell_length_c 20.837548
_cell_angle_alpha 90.000000
_cell_angle_beta 146.303780
_cell_angle_gamma 90.000000
_cell_volume 2882.611959
_symmetry_space_group_name_H-M "C 2/M"
_symmetry_group_IT_number 12
_symmetry_cell_setting 'monoclinic'
loop_
_space_group_symop_operation_xyz
x,y,z
-x,y,-z
-x,-y,-z
x,-y,z
1/2+x,1/2+y,z
1/2-x,1/2+y,-z
1/2-x,1/2-y,-z
1/2+x,1/2-y,z
loop_
_atom_site_type_symbol
_atom_site_label
_atom_site_fract_x
_atom_site_fract_y
_atom_site_fract_z
Si Si1 0.204863 0.316162 0.386779
Si Si2 0.422754 0.427404 0.579729
Si Si3 0.190899 0.211154 0.929110
Si Si4 0.843980 0.870595 0.789253
Si Si5 0.039922 0.447238 0.328900
Si Si6 0.364595 0.257836 0.319687
Si Si7 0.668982 0.656942 0.365609
Si Si8 0.500000 0.000000 0.500000
O O1 0.500000 0.340326 0.500000
O O2 0.274562 0.282702 0.353252
O O3 0.954879 0.349106 0.286071
O O4 0.089069 0.282978 0.403345
O O5 0.205251 0.426895 0.446078
O O6 0.733295 0.442293 0.654426
O O7 0.453897 0.380757 0.627309
O O8 0.250042 0.461135 0.568939
O O9 0.083740 0.159823 0.904640
O O10 0.919131 0.233193 0.801638
O O11 0.500000 0.206234 0.000000
O O12 0.250000 0.250000 0.000000
O O13 0.770051 0.922311 0.778524
O O14 0.860338 0.860305 0.717844
O O15 0.003613 0.500000 0.330123
O O16 0.496116 0.296742 0.318402
O O17 0.000000 0.662314 0.500000
#
# Coordination Sequence:
#
# PCOD9219663 Si02
#       8
#     8   8   8   8   8   8   8   2
#     4  11  21  35  52  78 120 159 188 236 284 366
#     4  11  21  32  55  79 126 172 209 234 284 341
#     4  11  23  43  64  83 111 152 199 269 321 368
#     4  11  23  37  58  87 117 156 213 247 306 369
#     4  11  21  38  55  85 122 169 209 252 287 351
#     4  11  22  36  55  83 111 151 204 241 305 369
#     4  12  21  34  53  87 125 166 197 249 290 358
#     4  12  16  34  44  80 108 166 222 228 270 326
#
# _framework density 20.120639000000001
#
# number of rings (size 3 to 8) (size 9 to 14) (size 15 to 20)
#    0.000    0.828    3.448    7.034    1.931    0.000 
#    0.000    0.000    0.000    0.414    0.000    0.000 
#    0.000    6.897    0.000    0.000    0.000    0.000 
#
# Total GULP energy -161527.603443 kJ/mol
# GULP energy per Si atom -5569.917360 kJ/mol
# Density = 2.007484 g / cm^3
# Si number density = 20.120639 Si / 1000 Ang^3
#
#
#
# Elastic Constant Matrix: (Units=GPa)
#
#
# Indices 1 2 3 4 5 6 
#
# 1 67.1201 32.4955 13.8919 0.0004 9.2060 0.0000
# 2 32.4955 128.9607 29.8980 -0.0008 13.2913 -0.0021
# 3 13.8919 29.8980 56.6319 -0.0058 17.0490 -0.0136
# 4 0.0004 -0.0008 -0.0058 43.5466 0.0003 38.7679
# 5 9.2060 13.2913 17.0490 0.0003 25.1562 -0.0001
# 6 0.0000 -0.0021 -0.0136 38.7679 -0.0001 68.0774
#
#
#
# Elastic Compliance Matrix: (Units=1/GPa)
#
#
# Indices 1 2 3 4 5 6 
#
# 1 0.017457 -0.003745 -0.001228 0.000000 -0.003577 0.000000
# 2 -0.003745 0.009712 -0.003865 0.000000 -0.001141 -0.000001
# 3 -0.001228 -0.003865 0.024184 -0.000002 -0.013899 0.000006
# 4 0.000000 0.000000 -0.000002 0.046578 0.000000 -0.026525
# 5 -0.003577 -0.001141 -0.013899 0.000000 0.051083 -0.000003
# 6 0.000000 -0.000001 0.000006 -0.026525 -0.000003 0.029794
#
#
# Mechanical properties :
#
#
# Convention : Reuss Voigt Hill
#
# Bulk Modulus (GPa) = 29.69486 45.03149 37.36318
# Shear Modulus (GPa) = 24.07219 39.11785 31.59502
#
# Velocity S-wave (km/s) = 3.46264 4.41405 3.96697
# Velocity P-wave (km/s) = 5.54770 6.95757 6.29225
#
# Compressibility (1/GPa) = 0.03367586
#
# Stress axis : x y z
#
# Youngs Moduli (GPa) = 57.28440 102.96857 41.35027
#
# Poissons Ratio (x) = 0.38566 0.05077
# Poissons Ratio (y) = 0.21455 0.15981
# Poissons Ratio (z) = 0.07034 0.39796
#
# Static dielectric constant tensor:
#      x y z
#    x 1.803100 0.000000 -0.012030 
#    y 0.000000 1.799990 0.000000 
#    z -0.012030 0.000000 1.755610 
# 
# From -- ./inp_files/334325.got.cif
#   From: 2010.05.17/outbox.cif.g08.bks.cpg/sg12_168_cif.got.tgz:334325.got - 2010.06.03 13:09:07.
