data_PCOD9219874
_publ_section_title
;
Structure prediction by ZEFSAII (Michael W. Deem and Ramdas Pophale) SiO2 
 PCOD9219874
Probable space group: C 2/M
;
_chemical_formula_sum "Si O2"
_cell_formula_units_Z 56
_cell_length_a 8.478734
_cell_length_b 16.553756
_cell_length_c 21.227979
_cell_angle_alpha 90.000000
_cell_angle_beta 53.515850
_cell_angle_gamma 90.000000
_cell_volume 2395.542090
_symmetry_space_group_name_H-M "C 2/M"
_symmetry_group_IT_number 12
_symmetry_cell_setting 'monoclinic'
loop_
_space_group_symop_operation_xyz
x,y,z
-x,y,-z
-x,-y,-z
x,-y,z
1/2+x,1/2+y,z
1/2-x,1/2+y,-z
1/2-x,1/2-y,-z
1/2+x,1/2-y,z
loop_
_atom_site_type_symbol
_atom_site_label
_atom_site_fract_x
_atom_site_fract_y
_atom_site_fract_z
Si Si1 0.580328 0.901694 0.411898
Si Si2 0.274915 0.910778 0.804909
Si Si3 0.260025 0.162324 0.935230
Si Si4 0.833157 0.408737 0.141024
Si Si5 0.407565 0.671567 0.891515
Si Si6 0.030156 0.098980 0.321456
Si Si7 0.678959 0.904102 0.644161
O O1 0.500000 0.882618 0.500000
O O2 0.427148 0.872381 0.394364
O O3 0.808762 0.874793 0.357003
O O4 0.584874 0.000000 0.404201
O O5 0.236453 0.905849 0.888423
O O6 0.500838 0.896562 0.736560
O O7 0.126530 0.843264 0.815447
O O8 0.227236 0.000000 0.790752
O O9 0.472365 0.142238 0.913704
O O10 0.301045 0.248401 0.892756
O O11 0.112856 0.172942 0.028052
O O12 0.885366 0.500000 0.145063
O O13 0.713391 0.403956 0.105018
O O14 0.683771 0.378025 0.230256
O O15 0.125518 0.126065 0.366084
O O16 0.026430 0.000000 0.323987
O O17 0.714381 0.000000 0.624581
#
# Coordination Sequence:
#
# PCOD9219874 Si02
#       7
#     8   8   8   8   8   8   8
#     4   9  17  28  46  76 112 149 184 218 276 356
#     4  11  21  36  57  79 105 144 193 236 280 341
#     4  11  23  39  53  75 111 149 184 232 299 349
#     4  11  21  36  57  79 105 144 193 236 280 341
#     4  11  24  37  53  77 111 147 182 240 300 337
#     4   9  17  31  50  74 108 145 183 234 287 332
#     4   9  17  31  50  74 108 145 183 234 287 332
#
# _framework density 23.376754999999999
#
# number of rings (size 3 to 8) (size 9 to 14) (size 15 to 20)
#    0.000    1.857    1.429    3.429    0.000    8.571 
#    0.000    2.857    0.000    0.000    0.000    0.000 
#    0.000   18.286    0.000    0.000    0.000    0.000 
#
# Total GULP energy -156150.436103 kJ/mol
# GULP energy per Si atom -5576.801289 kJ/mol
# Density = 2.332355 g / cm^3
# Si number density = 23.376755 Si / 1000 Ang^3
#
#
#
# Elastic Constant Matrix: (Units=GPa)
#
#
# Indices 1 2 3 4 5 6 
#
# 1 95.6001 7.2465 19.1520 -0.0003 19.4572 0.0000
# 2 7.2465 25.8538 15.1130 -0.0013 -1.0469 -0.0003
# 3 19.1520 15.1130 55.7128 -0.0023 13.6391 -0.0006
# 4 -0.0003 -0.0013 -0.0023 -37.2686 0.0013 -20.5948
# 5 19.4572 -1.0469 13.6391 0.0013 26.9233 0.0003
# 6 0.0000 -0.0003 -0.0006 -20.5948 0.0003 16.7714
#
#
#
# Elastic Compliance Matrix: (Units=1/GPa)
#
#
# Indices 1 2 3 4 5 6 
#
# 1 0.012730 -0.003075 -0.001439 0.000000 -0.008590 0.000000
# 2 -0.003075 0.048822 -0.015064 0.000000 0.011752 0.000000
# 3 -0.001439 -0.015064 0.025593 -0.000001 -0.012511 -0.000001
# 4 0.000000 0.000000 -0.000001 -0.015985 0.000002 -0.019629
# 5 -0.008590 0.011752 -0.012511 0.000002 0.050146 0.000001
# 6 0.000000 0.000000 -0.000001 -0.019629 0.000001 0.035521
#
#
# Mechanical properties :
#
#
# Convention : Reuss Voigt Hill
#
# Bulk Modulus (GPa) = 20.83757 28.90995 24.87376
# Shear Modulus (GPa) = 23.58728 10.32889 16.95809
#
# Velocity S-wave (km/s) = 3.17993 2.10429 2.69629
# Velocity P-wave (km/s) = 4.73453 4.27760 4.51185
#
# Compressibility (1/GPa) = 0.04799025
#
# Stress axis : x y z
#
# Youngs Moduli (GPa) = 78.55481 20.48247 39.07324
#
# Poissons Ratio (x) = 0.06298 0.05623
# Poissons Ratio (y) = 0.24153 0.58859
# Poissons Ratio (z) = 0.11304 0.30854
#
# Static dielectric constant tensor:
#      x y z
#    x 1.961890 0.000000 0.023210 
#    y 0.000000 1.857660 0.000000 
#    z 0.023210 0.000000 1.850790 
# 
# From -- ./inp_files/301624.got.cif
#   From: 2010.05.17/outbox.cif.g08.bks.cpg/sg12_151_cif.got.tgz:301624.got - 2010.06.03 13:09:07.
