data_PCOD9219615
_publ_section_title
;
Structure prediction by ZEFSAII (Michael W. Deem and Ramdas Pophale) SiO2 
 PCOD9219615
Probable space group: C 2/M
;
_chemical_formula_sum "Si O2"
_cell_formula_units_Z 48
_cell_length_a 23.689534
_cell_length_b 7.496396
_cell_length_c 16.806764
_cell_angle_alpha 90.000000
_cell_angle_beta 122.104645
_cell_angle_gamma 90.000000
_cell_volume 2528.232279
_symmetry_space_group_name_H-M "C 2/M"
_symmetry_group_IT_number 12
_symmetry_cell_setting 'monoclinic'
loop_
_space_group_symop_operation_xyz
x,y,z
-x,y,-z
-x,-y,-z
x,-y,z
1/2+x,1/2+y,z
1/2-x,1/2+y,-z
1/2-x,1/2-y,-z
1/2+x,1/2-y,z
loop_
_atom_site_type_symbol
_atom_site_label
_atom_site_fract_x
_atom_site_fract_y
_atom_site_fract_z
Si Si1 0.379765 0.788713 0.283471
Si Si2 0.972648 0.282710 0.855394
Si Si3 0.575287 0.206451 0.520405
Si Si4 0.895657 0.282024 0.952248
Si Si5 0.480040 0.780820 0.682254
Si Si6 0.745267 0.211022 0.089867
O O1 0.381338 0.714609 0.375005
O O2 0.444313 0.723906 0.282848
O O3 0.311502 0.767696 0.185610
O O4 0.391283 0.000000 0.301288
O O5 0.972164 0.500000 0.854413
O O6 0.919381 0.226576 0.882073
O O7 0.961688 0.222913 0.757107
O O8 0.045539 0.229617 0.942826
O O9 0.500000 0.207946 0.500000
O O10 0.566960 0.281642 0.425515
O O11 0.595639 0.000000 0.524705
O O12 0.894959 0.500000 0.952198
O O13 0.823572 0.216308 0.925233
O O14 0.479099 0.000000 0.680923
O O15 0.741851 0.000000 0.096066
O O16 0.750000 0.250000 0.000000
#
# Coordination Sequence:
#
# PCOD9219615 Si02
#       6
#     8   8   8   8   8   8
#     4   9  16  27  43  64  89 112 134 166 207 246
#     4   8  12  21  38  59  82 104 131 172 213 239
#     4   7  11  20  36  60  86 108 133 168 206 239
#     4   8  15  25  37  57  83 107 132 168 210 244
#     4   8  12  20  40  67  87 105 136 176 210 238
#     4  11  21  31  43  61  85 111 138 166 202 249
#
# _framework density 18.985598
#
# number of rings (size 3 to 8) (size 9 to 14) (size 15 to 20)
#    0.000    3.500    0.000    4.500    0.000    2.667 
#    0.000    0.000    0.000    5.500    0.000   22.167 
#    0.000    0.000    0.000    0.000    0.000    0.167 
#
# Total GULP energy -133665.612457 kJ/mol
# GULP energy per Si atom -5569.400519 kJ/mol
# Density = 1.894239 g / cm^3
# Si number density = 18.985598 Si / 1000 Ang^3
#
#
#
# Elastic Constant Matrix: (Units=GPa)
#
#
# Indices 1 2 3 4 5 6 
#
# 1 108.2097 -0.4135 88.5095 0.0000 -18.2748 0.0000
# 2 -0.4135 47.5662 -2.1001 0.0000 -2.4825 0.0000
# 3 88.5095 -2.1001 182.5625 0.0000 -32.0247 0.0000
# 4 0.0000 0.0000 0.0000 6.5627 0.0000 8.6238
# 5 -18.2748 -2.4825 -32.0247 0.0000 36.1708 0.0000
# 6 0.0000 0.0000 0.0000 8.6238 0.0000 4.8933
#
#
#
# Elastic Compliance Matrix: (Units=1/GPa)
#
#
# Indices 1 2 3 4 5 6 
#
# 1 0.015373 -0.000113 -0.007214 0.000000 0.001372 0.000000
# 2 -0.000113 0.021153 0.000643 0.000000 0.001964 0.000000
# 3 -0.007214 0.000643 0.009886 0.000000 0.005152 0.000000
# 4 0.000000 0.000000 0.000000 -0.115798 0.000000 0.204079
# 5 0.001372 0.001964 0.005152 0.000000 0.033037 0.000000
# 6 0.000000 0.000000 0.000000 0.204079 0.000000 -0.155303
#
#
# Mechanical properties :
#
#
# Convention : Reuss Voigt Hill
#
# Bulk Modulus (GPa) = 30.26277 56.70337 43.48307
# Shear Modulus (GPa) = -29.89204 26.34820 -1.77192
#
# Velocity S-wave (km/s) = -3.97225 3.72936 -0.96712
# Velocity P-wave (km/s) = 2.25031 6.96244 4.65895
#
# Compressibility (1/GPa) = 0.03304390
#
# Stress axis : x y z
#
# Youngs Moduli (GPa) = 65.04894 47.27420 101.15209
#
# Poissons Ratio (x) = 0.00535 0.72968
# Poissons Ratio (y) = 0.00737 -0.06501
# Poissons Ratio (z) = 0.46924 -0.03038
#
# Static dielectric constant tensor:
#      x y z
#    x 1.643480 0.000000 -0.021650 
#    y 0.000000 1.739230 0.000000 
#    z -0.021650 0.000000 1.659090 
# 
# From -- ./inp_files/281836.got.cif
#   From: 2010.05.17/outbox.cif.g08.bks.cpg/sg12_141_cif.got.tgz:281836.got - 2010.06.03 13:09:07.
