data_PCOD9219150
_publ_section_title
;
Structure prediction by ZEFSAII (Michael W. Deem and Ramdas Pophale) SiO2 
 PCOD9219150
Probable space group: C 2/M
;
_chemical_formula_sum "Si O2"
_cell_formula_units_Z 56
_cell_length_a 20.474497
_cell_length_b 9.038146
_cell_length_c 18.514609
_cell_angle_alpha 90.000000
_cell_angle_beta 78.747071
_cell_angle_gamma 90.000000
_cell_volume 3360.289239
_symmetry_space_group_name_H-M "C 2/M"
_symmetry_group_IT_number 12
_symmetry_cell_setting 'monoclinic'
loop_
_space_group_symop_operation_xyz
x,y,z
-x,y,-z
-x,-y,-z
x,-y,z
1/2+x,1/2+y,z
1/2-x,1/2+y,-z
1/2-x,1/2-y,-z
1/2+x,1/2-y,z
loop_
_atom_site_type_symbol
_atom_site_label
_atom_site_fract_x
_atom_site_fract_y
_atom_site_fract_z
Si Si1 0.185124 0.828662 0.358819
Si Si2 0.358777 0.323938 0.186492
Si Si3 0.423325 0.173287 0.038705
Si Si4 0.214519 0.822702 0.197623
Si Si5 0.318028 0.676532 0.957216
Si Si6 0.152866 0.671706 0.664595
Si Si7 0.677623 0.176955 0.503799
O O1 0.173497 0.781262 0.278553
O O2 0.266120 0.820982 0.347565
O O3 0.154803 0.734886 0.430747
O O4 0.166332 0.000000 0.372206
O O5 0.359204 0.500000 0.181160
O O6 0.407879 0.251372 0.117984
O O7 0.284933 0.261846 0.183478
O O8 0.373700 0.271042 0.264855
O O9 0.404988 0.000000 0.047848
O O10 0.500000 0.185040 0.000000
O O11 0.377700 0.251491 0.988687
O O12 0.178690 0.796670 0.129490
O O13 0.228303 0.000000 0.200395
O O14 0.315944 0.500000 0.969753
O O15 0.250000 0.750000 0.000000
O O16 0.134529 0.500000 0.680206
O O17 0.136773 0.715043 0.585385
O O18 0.750000 0.250000 0.500000
O O19 0.684697 0.000000 0.501323
#
# Coordination Sequence:
#
# PCOD9219150 Si02
#       7
#     8   8   8   8   8   8   8
#     4   8  14  24  37  55  83 120 154 188 231 280
#     4  11  20  29  47  71  93 121 161 207 246 289
#     4  11  24  40  55  71  98 134 167 206 257 304
#     4   9  18  31  46  66  96 129 159 195 244 295
#     4  11  21  34  55  78 101 130 167 209 249 297
#     4   8  15  26  38  54  84 122 156 191 236 289
#     4   9  15  22  33  52  80 117 154 190 232 277
#
# _framework density 16.665230999999999
#
# number of rings (size 3 to 8) (size 9 to 14) (size 15 to 20)
#    0.000    2.429    1.429    4.286    0.000    7.429 
#    0.000    0.000    0.000    0.000    0.000    0.000 
#    0.000    1.143    0.000   12.857    0.000    7.857 
#
# Total GULP energy -155996.083500 kJ/mol
# GULP energy per Si atom -5571.288696 kJ/mol
# Density = 1.662730 g / cm^3
# Si number density = 16.665231 Si / 1000 Ang^3
#
#
#
# Elastic Constant Matrix: (Units=GPa)
#
#
# Indices 1 2 3 4 5 6 
#
# 1 27.6589 25.7307 28.4261 0.0000 2.7365 0.0000
# 2 25.7307 95.3373 81.6976 0.0000 -1.4495 0.0000
# 3 28.4261 81.6976 181.1284 0.0000 6.3679 0.0000
# 4 0.0000 0.0000 0.0000 32.2701 0.0000 2.1691
# 5 2.7365 -1.4495 6.3679 0.0000 9.6882 0.0000
# 6 0.0000 0.0000 0.0000 2.1691 0.0000 13.1610
#
#
#
# Elastic Compliance Matrix: (Units=1/GPa)
#
#
# Indices 1 2 3 4 5 6 
#
# 1 0.051134 -0.012398 -0.001904 0.000000 -0.015046 0.000000
# 2 -0.012398 0.020701 -0.007804 0.000000 0.011728 0.000000
# 3 -0.001904 -0.007804 0.009583 0.000000 -0.006929 0.000000
# 4 0.000000 0.000000 0.000000 0.031336 0.000000 -0.005164
# 5 -0.015046 0.011728 -0.006929 0.000000 0.113777 0.000000
# 6 0.000000 0.000000 0.000000 -0.005164 0.000000 0.076833
#
#
# Mechanical properties :
#
#
# Convention : Reuss Voigt Hill
#
# Bulk Modulus (GPa) = 26.87679 63.98150 45.42914
# Shear Modulus (GPa) = 13.88980 22.24186 18.06583
#
# Velocity S-wave (km/s) = 2.89010 3.65722 3.29605
# Velocity P-wave (km/s) = 5.22488 7.50395 6.46562
#
# Compressibility (1/GPa) = 0.03720682
#
# Stress axis : x y z
#
# Youngs Moduli (GPa) = 19.55661 48.30784 104.35018
#
# Poissons Ratio (x) = 0.59891 0.19867
# Poissons Ratio (y) = 0.24246 0.81430
# Poissons Ratio (z) = 0.03723 0.37697
#
# Static dielectric constant tensor:
#      x y z
#    x 1.519350 0.000000 0.017860 
#    y 0.000000 1.556600 0.000000 
#    z 0.017860 0.000000 1.629330 
# 
# From -- ./inp_files/287029.got.cif
#   From: 2010.05.17/outbox.cif.g08.bks.cpg/sg12_144_cif.got.tgz:287029.got - 2010.06.03 13:09:07.
