data_PCOD9219573
_publ_section_title
;
Structure prediction by ZEFSAII (Michael W. Deem and Ramdas Pophale) SiO2 
 PCOD9219573
Probable space group: C 2/M
;
_chemical_formula_sum "Si O2"
_cell_formula_units_Z 32
_cell_length_a 11.492444
_cell_length_b 17.869638
_cell_length_c 14.656342
_cell_angle_alpha 90.000000
_cell_angle_beta 148.246794
_cell_angle_gamma 90.000000
_cell_volume 1584.000610
_symmetry_space_group_name_H-M "C 2/M"
_symmetry_group_IT_number 12
_symmetry_cell_setting 'monoclinic'
loop_
_space_group_symop_operation_xyz
x,y,z
-x,y,-z
-x,-y,-z
x,-y,z
1/2+x,1/2+y,z
1/2-x,1/2+y,-z
1/2-x,1/2-y,-z
1/2+x,1/2-y,z
loop_
_atom_site_type_symbol
_atom_site_label
_atom_site_fract_x
_atom_site_fract_y
_atom_site_fract_z
Si Si1 0.333981 0.000000 0.805434
Si Si2 0.500000 0.741481 0.500000
Si Si3 0.254343 0.657586 0.815797
Si Si4 0.866379 0.000000 0.593941
Si Si5 0.357700 0.125622 0.668934
Si Si6 0.255446 0.000000 0.291491
O O1 0.365857 0.928056 0.762271
O O2 0.500000 0.000000 0.000000
O O3 0.087530 0.000000 0.681645
O O4 0.370372 0.792258 0.341567
O O5 0.679338 0.689600 0.568861
O O6 0.274455 0.573970 0.788092
O O7 0.097166 0.654735 0.799423
O O8 0.500000 0.685889 0.000000
O O9 0.728986 0.072905 0.471452
O O10 0.904791 0.000000 0.727359
O O11 0.500000 0.000000 0.500000
#
# Coordination Sequence:
#
# PCOD9219573 Si02
#       6
#     4   4   8   4   8   4
#     4  11  24  39  67 106 125 167 221 275 326 377
#     4  12  24  46  66  94 134 180 216 262 328 388
#     4  12  27  43  67 100 130 172 220 270 327 386
#     4  11  20  41  71  94 126 174 214 265 332 380
#     4  11  22  45  67  93 133 171 218 267 323 392
#     4  12  21  42  69  96 127 166 216 268 328 387
#
# _framework density 20.202013000000001
#
# number of rings (size 3 to 8) (size 9 to 14) (size 15 to 20)
#    0.000    0.500    6.250    2.625    3.500    2.000 
#    0.000    0.000    0.000    0.000    0.000    0.000 
#    0.000    0.000    0.000    0.000    0.000    0.000 
#
# Total GULP energy -89552.480571 kJ/mol
# GULP energy per Si atom -5597.030036 kJ/mol
# Density = 2.015603 g / cm^3
# Si number density = 20.202013 Si / 1000 Ang^3
#
#
#
# Elastic Constant Matrix: (Units=GPa)
#
#
# Indices 1 2 3 4 5 6 
#
# 1 151.7961 42.1491 50.2365 -0.0004 28.8589 0.0009
# 2 42.1491 112.8537 42.6307 -0.0010 0.6529 0.0018
# 3 50.2365 42.6307 128.0189 -0.0044 16.9878 0.0057
# 4 -0.0004 -0.0010 -0.0044 50.8330 -0.0011 11.0480
# 5 28.8589 0.6529 16.9878 -0.0011 38.2593 0.0016
# 6 0.0009 0.0018 0.0057 11.0480 0.0016 6.6623
#
#
#
# Elastic Compliance Matrix: (Units=1/GPa)
#
#
# Indices 1 2 3 4 5 6 
#
# 1 0.009082 -0.002643 -0.001892 -0.000001 -0.005965 0.000005
# 2 -0.002643 0.010977 -0.003037 0.000000 0.003154 -0.000001
# 3 -0.001892 -0.003037 0.009956 0.000003 -0.002941 -0.000012
# 4 -0.000001 0.000000 0.000003 0.030758 0.000002 -0.051005
# 5 -0.005965 0.003154 -0.002941 0.000002 0.031889 -0.000009
# 6 0.000005 -0.000001 -0.000012 -0.051005 -0.000009 0.234680
#
#
# Mechanical properties :
#
#
# Convention : Reuss Voigt Hill
#
# Bulk Modulus (GPa) = 67.24666 73.63349 70.44007
# Shear Modulus (GPa) = 14.39089 36.32774 25.35932
#
# Velocity S-wave (km/s) = 2.67188 4.24515 3.54685
# Velocity P-wave (km/s) = 6.54813 7.78178 7.19146
#
# Compressibility (1/GPa) = 0.01487063
#
# Stress axis : x y z
#
# Youngs Moduli (GPa) = 110.10930 91.09984 100.44672
#
# Poissons Ratio (x) = 0.24074 0.19008
# Poissons Ratio (y) = 0.29098 0.30505
# Poissons Ratio (z) = 0.20836 0.27667
#
# Static dielectric constant tensor:
#      x y z
#    x 1.733140 0.000000 0.024930 
#    y 0.000000 1.693440 0.000000 
#    z 0.024930 0.000000 1.702900 
# 
# From -- ./inp_files/46171.got.cif
#   From: 2010.05.17/outbox.cif.g08.bks.cpg/sg12_24_cif.got.tgz:46171.got - 2010.06.03 13:09:07.
