data_PCOD9219884
_publ_section_title
;
Structure prediction by ZEFSAII (Michael W. Deem and Ramdas Pophale) SiO2 
 PCOD9219884
Probable space group: C 2/M
;
_chemical_formula_sum "Si O2"
_cell_formula_units_Z 48
_cell_length_a 14.367686
_cell_length_b 27.197704
_cell_length_c 9.650830
_cell_angle_alpha 90.000000
_cell_angle_beta 146.801709
_cell_angle_gamma 90.000000
_cell_volume 2064.896136
_symmetry_space_group_name_H-M "C 2/M"
_symmetry_group_IT_number 12
_symmetry_cell_setting 'monoclinic'
loop_
_space_group_symop_operation_xyz
x,y,z
-x,y,-z
-x,-y,-z
x,-y,z
1/2+x,1/2+y,z
1/2-x,1/2+y,-z
1/2-x,1/2-y,-z
1/2+x,1/2-y,z
loop_
_atom_site_type_symbol
_atom_site_label
_atom_site_fract_x
_atom_site_fract_y
_atom_site_fract_z
Si Si1 0.308502 0.655071 0.131897
Si Si2 0.265386 0.945389 0.411345
Si Si3 0.689635 0.810651 0.246996
Si Si4 0.149625 0.199991 0.089174
Si Si5 0.600030 0.555226 0.901287
Si Si6 0.410812 0.157410 0.600070
O O1 0.323078 0.661852 0.315564
O O2 0.348586 0.600152 0.132001
O O3 0.393764 0.691704 0.125896
O O4 0.108251 0.668492 0.859893
O O5 0.387260 0.900482 0.594213
O O6 0.095552 0.940153 0.292468
O O7 0.336870 0.000000 0.522461
O O8 0.206268 0.942052 0.177273
O O9 0.677282 0.756167 0.168353
O O10 0.703530 0.813110 0.428991
O O11 0.500000 0.834038 0.000000
O O12 0.319991 0.171320 0.343832
O O13 0.000000 0.179156 0.000000
O O14 0.623988 0.500000 0.873453
#
# Coordination Sequence:
#
# PCOD9219884 Si02
#       6
#     8   8   8   8   8   8
#     4  11  21  36  57  83 111 142 182 227 270 319
#     4   9  18  34  56  81 110 142 177 220 270 323
#     4   9  22  39  54  77 114 150 180 220 272 323
#     4  11  21  37  58  79 108 147 186 225 268 319
#     4   9  18  34  56  81 110 142 177 220 270 323
#     4  11  21  36  57  83 111 142 182 227 270 319
#
# _framework density 23.245721
#
# number of rings (size 3 to 8) (size 9 to 14) (size 15 to 20)
#    0.000    2.000    1.667    3.500    0.000    0.667 
#    0.000   10.833    0.000    5.000    0.000    0.000 
#    0.000    0.000    0.000    0.000    0.000    0.000 
#
# Total GULP energy -134086.422452 kJ/mol
# GULP energy per Si atom -5586.934269 kJ/mol
# Density = 2.319281 g / cm^3
# Si number density = 23.245721 Si / 1000 Ang^3
#
#
#
# Elastic Constant Matrix: (Units=GPa)
#
#
# Indices 1 2 3 4 5 6 
#
# 1 120.1743 27.9383 2.3072 0.0000 -26.8061 0.0000
# 2 27.9383 118.4976 -10.1266 0.0000 -16.7727 0.0000
# 3 2.3072 -10.1266 33.8078 0.0000 -8.1141 0.0000
# 4 0.0000 0.0000 0.0000 7.2799 0.0000 -11.3680
# 5 -26.8061 -16.7727 -8.1141 0.0000 40.8673 0.0000
# 6 0.0000 0.0000 0.0000 -11.3680 0.0000 30.3391
#
#
#
# Elastic Compliance Matrix: (Units=1/GPa)
#
#
# Indices 1 2 3 4 5 6 
#
# 1 0.010001 -0.001479 0.000318 0.000000 0.006016 0.000000
# 2 -0.001479 0.009654 0.003896 0.000000 0.003765 0.000000
# 3 0.000318 0.003896 0.032717 0.000000 0.008304 0.000000
# 4 0.000000 0.000000 0.000000 0.331082 0.000000 0.124055
# 5 0.006016 0.003765 0.008304 0.000000 0.031610 0.000000
# 6 0.000000 0.000000 0.000000 0.124055 0.000000 0.079444
#
#
# Mechanical properties :
#
#
# Convention : Reuss Voigt Hill
#
# Bulk Modulus (GPa) = 17.28830 34.74640 26.01735
# Shear Modulus (GPa) = 9.83637 32.52131 21.17884
#
# Velocity S-wave (km/s) = 2.05929 3.74441 3.02169
# Velocity P-wave (km/s) = 3.62044 5.80293 4.83640
#
# Compressibility (1/GPa) = 0.05784260
#
# Stress axis : x y z
#
# Youngs Moduli (GPa) = 99.99041 103.58738 30.56492
#
# Poissons Ratio (x) = 0.15323 -0.00973
# Poissons Ratio (y) = 0.14791 -0.11909
# Poissons Ratio (z) = -0.03183 -0.40360
#
# Static dielectric constant tensor:
#      x y z
#    x 1.935840 0.000000 -0.029300 
#    y 0.000000 1.843540 0.000000 
#    z -0.029300 0.000000 1.909240 
# 
# From -- ./inp_files/67424.got.cif
#   From: 2010.05.17/outbox.cif.g08.bks.cpg/sg12_34_cif.got.tgz:67424.got - 2010.06.03 13:09:07.
