data_PCOD9219981
_publ_section_title
;
Structure prediction by ZEFSAII (Michael W. Deem and Ramdas Pophale) SiO2 
 PCOD9219981
Probable space group: C 2/M
;
_chemical_formula_sum "Si O2"
_cell_formula_units_Z 58
_cell_length_a 9.862772
_cell_length_b 23.594706
_cell_length_c 21.911335
_cell_angle_alpha 90.000000
_cell_angle_beta 142.942599
_cell_angle_gamma 90.000000
_cell_volume 3072.714521
_symmetry_space_group_name_H-M "C 2/M"
_symmetry_group_IT_number 12
_symmetry_cell_setting 'monoclinic'
loop_
_space_group_symop_operation_xyz
x,y,z
-x,y,-z
-x,-y,-z
x,-y,z
1/2+x,1/2+y,z
1/2-x,1/2+y,-z
1/2-x,1/2-y,-z
1/2+x,1/2-y,z
loop_
_atom_site_type_symbol
_atom_site_label
_atom_site_fract_x
_atom_site_fract_y
_atom_site_fract_z
Si Si1 0.413881 0.131091 0.795178
Si Si2 0.832584 0.933111 0.997806
Si Si3 0.442261 0.683699 0.247047
Si Si4 0.367780 0.098011 0.640496
Si Si5 0.217076 0.786334 0.119662
Si Si6 0.747294 0.227497 0.430906
Si Si7 0.856270 0.127222 0.797227
Si Si8 0.000000 0.000000 0.500000
O O1 0.190931 0.146098 0.752007
O O2 0.356948 0.102136 0.710330
O O3 0.560370 0.187185 0.831595
O O4 0.590885 0.092894 0.895439
O O5 0.943096 0.905759 0.097156
O O6 0.816100 0.000000 0.998731
O O7 0.000000 0.922042 0.000000
O O8 0.255797 0.720314 0.144106
O O9 0.590950 0.731380 0.334382
O O10 0.582720 0.648654 0.247982
O O11 0.316222 0.161301 0.597082
O O12 0.630077 0.089576 0.717888
O O13 0.193486 0.050212 0.558200
O O14 0.187009 0.819236 0.172961
O O15 0.000000 0.796018 0.000000
O O16 0.750000 0.250000 0.500000
O O17 0.000000 0.232574 0.500000
#
# Coordination Sequence:
#
# PCOD9219981 Si02
#       8
#     8   8   8   8   8   8   8   2
#     4  11  22  41  61  96 131 165 219 264 322 400
#     4  11  22  41  68  93 121 176 225 269 315 383
#     4  12  26  37  63  95 138 177 200 262 347 402
#     4  11  24  44  68  94 128 161 223 287 322 387
#     4  11  21  37  60  94 136 175 210 250 314 401
#     4  12  24  42  66  96 129 170 216 275 341 404
#     4  11  22  41  62  96 134 166 213 263 331 398
#     4  12  28  44  76 100 112 172 244 288 316 362
#
# _framework density 18.875817999999999
#
# number of rings (size 3 to 8) (size 9 to 14) (size 15 to 20)
#    0.000    0.690    7.586    2.483    3.862    1.103 
#    0.000    1.379    0.000    0.828    0.000    0.000 
#    0.000    0.000    0.000    0.000    0.000    0.000 
#
# Total GULP energy -161778.318631 kJ/mol
# GULP energy per Si atom -5578.562711 kJ/mol
# Density = 1.883286 g / cm^3
# Si number density = 18.875818 Si / 1000 Ang^3
#
#
#
# Elastic Constant Matrix: (Units=GPa)
#
#
# Indices 1 2 3 4 5 6 
#
# 1 72.2836 22.8945 21.3158 0.0001 -11.2310 -0.0001
# 2 22.8945 102.2520 43.8012 0.0001 -5.2251 0.0000
# 3 21.3158 43.8012 82.6334 -0.0002 -2.7993 -0.0007
# 4 0.0001 0.0001 -0.0002 11.0711 0.0000 -3.7955
# 5 -11.2310 -5.2251 -2.7993 0.0000 20.3036 -0.0004
# 6 -0.0001 0.0000 -0.0007 -3.7955 -0.0004 -3.3286
#
#
#
# Elastic Compliance Matrix: (Units=1/GPa)
#
#
# Indices 1 2 3 4 5 6 
#
# 1 0.016630 -0.002049 -0.002924 0.000000 0.008269 -0.000001
# 2 -0.002049 0.013017 -0.006326 0.000000 0.001345 0.000001
# 3 -0.002924 -0.006326 0.016175 -0.000001 -0.001015 -0.000003
# 4 0.000000 0.000000 -0.000001 0.064939 -0.000002 -0.074049
# 5 0.008269 0.001345 -0.001015 -0.000002 0.054032 -0.000005
# 6 -0.000001 0.000001 -0.000003 -0.074049 -0.000005 -0.215991
#
#
# Mechanical properties :
#
#
# Convention : Reuss Voigt Hill
#
# Bulk Modulus (GPa) = 43.05670 48.13246 45.59458
# Shear Modulus (GPa) = -239.70406 16.88638 -111.40884
#
# Velocity S-wave (km/s) = -11.28121 2.99424 -7.69091
# Velocity P-wave (km/s) = 12.11724 6.12445 7.39320
#
# Compressibility (1/GPa) = 0.02322519
#
# Stress axis : x y z
#
# Youngs Moduli (GPa) = 60.13145 76.82318 61.82526
#
# Poissons Ratio (x) = 0.15737 0.18077
# Poissons Ratio (y) = 0.12318 0.39110
# Poissons Ratio (z) = 0.17582 0.48597
#
# Static dielectric constant tensor:
#      x y z
#    x 1.643350 0.000000 0.010000 
#    y 0.000000 1.645180 0.000000 
#    z 0.010000 0.000000 1.685780 
# 
# From -- ./inp_files/302476.got.cif
#   From: 2010.05.17/outbox.cif.g08.bks.cpg/sg12_152_cif.got.tgz:302476.got - 2010.06.03 13:09:07.
