data_PCOD9219009
_publ_section_title
;
Structure prediction by ZEFSAII (Michael W. Deem and Ramdas Pophale) SiO2 
 PCOD9219009
Probable space group: C 2/M
;
_chemical_formula_sum "Si O2"
_cell_formula_units_Z 48
_cell_length_a 10.538557
_cell_length_b 28.339793
_cell_length_c 14.182613
_cell_angle_alpha 90.000000
_cell_angle_beta 149.924679
_cell_angle_gamma 90.000000
_cell_volume 2122.713827
_symmetry_space_group_name_H-M "C 2/M"
_symmetry_group_IT_number 12
_symmetry_cell_setting 'monoclinic'
loop_
_space_group_symop_operation_xyz
x,y,z
-x,y,-z
-x,-y,-z
x,-y,z
1/2+x,1/2+y,z
1/2-x,1/2+y,-z
1/2-x,1/2-y,-z
1/2+x,1/2-y,z
loop_
_atom_site_type_symbol
_atom_site_label
_atom_site_fract_x
_atom_site_fract_y
_atom_site_fract_z
Si Si1 0.302963 0.445521 0.579755
Si Si2 0.261312 0.896849 0.775268
Si Si3 0.012091 0.197152 0.121061
Si Si4 0.543209 0.200683 0.140486
Si Si5 0.037575 0.445933 0.804066
Si Si6 0.050905 0.906269 0.143598
O O1 0.370744 0.500000 0.601630
O O2 0.510225 0.409500 0.671025
O O3 0.048152 0.435450 0.357524
O O4 0.298096 0.439639 0.688859
O O5 0.280804 0.845358 0.738120
O O6 0.303074 0.935746 0.721358
O O7 0.500000 0.899720 0.000000
O O8 0.729239 0.194841 0.983636
O O9 0.139934 0.146849 0.222023
O O10 0.000000 0.197928 0.000000
O O11 0.133686 0.247005 0.230098
O O12 0.500000 0.203782 0.000000
O O13 0.121696 0.500000 0.864276
O O14 0.257305 0.412948 0.984193
O O15 0.000000 0.916200 0.000000
#
# Coordination Sequence:
#
# PCOD9219009 Si02
#       6
#     8   8   8   8   8   8
#     4  11  24  39  58  87 122 158 196 249 308 357
#     4  11  19  34  60  89 115 153 194 240 303 362
#     4   9  17  31  54  86 113 149 196 242 299 358
#     4   9  16  29  54  88 114 144 196 246 296 359
#     4  11  23  38  57  86 121 156 196 247 303 358
#     4  11  22  39  61  86 114 160 208 246 292 358
#
# _framework density 22.612563000000002
#
# number of rings (size 3 to 8) (size 9 to 14) (size 15 to 20)
#    0.000    1.667    3.333    2.500    0.000    4.000 
#    0.000    1.667    0.000    1.000   17.333    0.000 
#    0.000    0.000    0.000    0.000    0.000    0.000 
#
# Total GULP energy -133778.697560 kJ/mol
# GULP energy per Si atom -5574.112398 kJ/mol
# Density = 2.256110 g / cm^3
# Si number density = 22.612563 Si / 1000 Ang^3
#
#
#
# Elastic Constant Matrix: (Units=GPa)
#
#
# Indices 1 2 3 4 5 6 
#
# 1 119.7542 -4.9873 16.8735 0.0000 -14.1356 0.0000
# 2 -4.9873 113.4003 33.1097 0.0000 -4.1616 0.0000
# 3 16.8735 33.1097 76.1855 -0.0001 -10.2730 0.0000
# 4 0.0000 0.0000 -0.0001 -19.4275 0.0000 -11.4179
# 5 -14.1356 -4.1616 -10.2730 0.0000 27.0767 0.0000
# 6 0.0000 0.0000 0.0000 -11.4179 0.0000 32.2065
#
#
#
# Elastic Compliance Matrix: (Units=1/GPa)
#
#
# Indices 1 2 3 4 5 6 
#
# 1 0.009171 0.001128 -0.001952 0.000000 0.004220 0.000000
# 2 0.001128 0.010239 -0.004646 0.000000 0.000400 0.000000
# 3 -0.001952 -0.004646 0.016171 0.000000 0.004402 0.000000
# 4 0.000000 0.000000 0.000000 -0.042598 0.000000 -0.015102
# 5 0.004220 0.000400 0.004402 0.000000 0.040867 0.000000
# 6 0.000000 0.000000 0.000000 -0.015102 0.000000 0.025696
#
#
# Mechanical properties :
#
#
# Convention : Reuss Voigt Hill
#
# Bulk Modulus (GPa) = 40.58310 44.37022 42.47666
# Shear Modulus (GPa) = 63.53334 25.59407 44.56371
#
# Velocity S-wave (km/s) = 5.30636 3.36795 4.44413
# Velocity P-wave (km/s) = 7.45181 5.89819 6.72005
#
# Compressibility (1/GPa) = 0.02464080
#
# Stress axis : x y z
#
# Youngs Moduli (GPa) = 109.04328 97.66530 61.83960
#
# Poissons Ratio (x) = -0.11019 0.12073
# Poissons Ratio (y) = -0.12303 0.28729
# Poissons Ratio (z) = 0.21289 0.45373
#
# Static dielectric constant tensor:
#      x y z
#    x 1.938270 0.000000 -0.028090 
#    y 0.000000 1.885820 0.000000 
#    z -0.028090 0.000000 1.851790 
# 
# From -- ./inp_files/209921.got.cif
#   From: 2010.05.17/outbox.cif.g08.bks.cpg/sg12_105_cif.got.tgz:209921.got - 2010.06.03 13:09:07.
