data_PCOD9219303
_publ_section_title
;
Structure prediction by ZEFSAII (Michael W. Deem and Ramdas Pophale) SiO2 
 PCOD9219303
Probable space group: C 2/M
;
_chemical_formula_sum "Si O2"
_cell_formula_units_Z 48
_cell_length_a 9.967988
_cell_length_b 26.107207
_cell_length_c 16.932096
_cell_angle_alpha 90.000000
_cell_angle_beta 146.376468
_cell_angle_gamma 90.000000
_cell_volume 2439.942052
_symmetry_space_group_name_H-M "C 2/M"
_symmetry_group_IT_number 12
_symmetry_cell_setting 'monoclinic'
loop_
_space_group_symop_operation_xyz
x,y,z
-x,y,-z
-x,-y,-z
x,-y,z
1/2+x,1/2+y,z
1/2-x,1/2+y,-z
1/2-x,1/2-y,-z
1/2+x,1/2-y,z
loop_
_atom_site_type_symbol
_atom_site_label
_atom_site_fract_x
_atom_site_fract_y
_atom_site_fract_z
Si Si1 0.219980 0.091785 0.374292
Si Si2 0.840805 0.386095 0.165127
Si Si3 0.222526 0.057576 0.550592
Si Si4 0.748976 0.770164 0.839540
Si Si5 0.767982 0.212498 0.660668
Si Si6 0.541837 0.440611 0.905808
O O1 0.500000 0.074684 0.500000
O O2 0.152701 0.077046 0.429891
O O3 0.216724 0.152369 0.354009
O O4 0.041669 0.065945 0.224416
O O5 0.789153 0.326242 0.140799
O O6 0.665128 0.413468 0.142954
O O7 0.100335 0.401140 0.324178
O O8 0.781085 0.410955 0.051399
O O9 0.000000 0.053672 0.500000
O O10 0.334123 0.000000 0.598861
O O11 0.778329 0.778650 0.760028
O O12 0.503342 0.739107 0.737509
O O13 0.000000 0.748672 0.000000
O O14 0.500000 0.230423 0.500000
O O15 0.563804 0.500000 0.936519
#
# Coordination Sequence:
#
# PCOD9219303 Si02
#       6
#     8   8   8   8   8   8
#     4  11  21  40  62  91 122 157 213 260 294 363
#     4  11  20  38  60  89 124 157 203 251 302 365
#     4  11  24  40  60  90 129 164 197 248 315 376
#     4  12  23  42  64  91 127 164 208 264 314 369
#     4  11  24  42  63  92 125 165 211 260 312 375
#     4  11  20  34  63  93 118 152 203 256 303 349
#
# _framework density 19.672599000000002
#
# number of rings (size 3 to 8) (size 9 to 14) (size 15 to 20)
#    0.000    0.833    5.000    4.500    0.000    2.667 
#    0.000    0.833    0.000    3.000    0.000    0.000 
#    0.000    0.000    0.000    0.000    0.000    0.000 
#
# Total GULP energy -134041.572509 kJ/mol
# GULP energy per Si atom -5585.065521 kJ/mol
# Density = 1.962782 g / cm^3
# Si number density = 19.672599 Si / 1000 Ang^3
#
#
#
# Elastic Constant Matrix: (Units=GPa)
#
#
# Indices 1 2 3 4 5 6 
#
# 1 89.2367 16.8181 36.2652 0.0000 -17.0148 0.0001
# 2 16.8181 51.7192 4.0294 -0.0001 3.2624 -0.0001
# 3 36.2652 4.0294 120.3895 0.0002 -26.0223 0.0002
# 4 0.0000 -0.0001 0.0002 22.7639 0.0001 -4.3455
# 5 -17.0148 3.2624 -26.0223 0.0001 29.8343 0.0001
# 6 0.0001 -0.0001 0.0002 -4.3455 0.0001 10.3058
#
#
#
# Elastic Compliance Matrix: (Units=1/GPa)
#
#
# Indices 1 2 3 4 5 6 
#
# 1 0.014484 -0.004888 -0.002833 0.000000 0.006325 0.000000
# 2 -0.004888 0.021304 -0.000427 0.000000 -0.005490 0.000000
# 3 -0.002833 -0.000427 0.010887 0.000000 0.007928 0.000000
# 4 0.000000 0.000000 0.000000 0.047775 -0.000001 0.020145
# 5 0.006325 -0.005490 0.007928 -0.000001 0.044640 -0.000001
# 6 0.000000 0.000000 0.000000 0.020145 -0.000001 0.105527
#
#
# Mechanical properties :
#
#
# Convention : Reuss Voigt Hill
#
# Bulk Modulus (GPa) = 32.91619 41.73009 37.32314
# Shear Modulus (GPa) = 18.44737 26.19632 22.32184
#
# Velocity S-wave (km/s) = 3.06554 3.65309 3.37214
# Velocity P-wave (km/s) = 5.41280 6.24914 5.84594
#
# Compressibility (1/GPa) = 0.03038018
#
# Stress axis : x y z
#
# Youngs Moduli (GPa) = 69.03945 46.93866 91.84856
#
# Poissons Ratio (x) = 0.22945 0.26016
# Poissons Ratio (y) = 0.33749 0.03924
# Poissons Ratio (z) = 0.19555 0.02005
#
# Static dielectric constant tensor:
#      x y z
#    x 1.705530 0.000000 0.049700 
#    y 0.000000 1.694550 0.000000 
#    z 0.049700 0.000000 1.824960 
# 
# From -- ./inp_files/200233.got.cif
#   From: 2010.05.17/outbox.cif.g08.bks.cpg/sg12_101_cif.got.tgz:200233.got - 2010.06.03 13:09:07.
