data_PCOD9219614
_publ_section_title
;
Structure prediction by ZEFSAII (Michael W. Deem and Ramdas Pophale) SiO2 
 PCOD9219614
Probable space group: C 2/M
;
_chemical_formula_sum "Si O2"
_cell_formula_units_Z 52
_cell_length_a 29.240398
_cell_length_b 7.675176
_cell_length_c 9.612643
_cell_angle_alpha 90.000000
_cell_angle_beta 61.515672
_cell_angle_gamma 90.000000
_cell_volume 1896.170645
_symmetry_space_group_name_H-M "C 2/M"
_symmetry_group_IT_number 12
_symmetry_cell_setting 'monoclinic'
loop_
_space_group_symop_operation_xyz
x,y,z
-x,y,-z
-x,-y,-z
x,-y,z
1/2+x,1/2+y,z
1/2-x,1/2+y,-z
1/2-x,1/2-y,-z
1/2+x,1/2-y,z
loop_
_atom_site_type_symbol
_atom_site_label
_atom_site_fract_x
_atom_site_fract_y
_atom_site_fract_z
Si Si1 0.970304 0.289786 0.216352
Si Si2 0.378066 0.203408 0.556133
Si Si3 0.896545 0.700301 0.093700
Si Si4 0.190774 0.804067 0.572331
Si Si5 0.045985 0.205916 0.333466
Si Si6 0.322302 0.202979 0.964622
Si Si7 0.729656 0.500000 0.152304
O O1 0.969136 0.500000 0.209370
O O2 0.926748 0.231548 0.391814
O O3 0.946201 0.224944 0.105711
O O4 0.024647 0.243227 0.210510
O O5 0.328995 0.301080 0.560371
O O6 0.400578 0.224249 0.678908
O O7 0.369795 0.000000 0.541648
O O8 0.908351 0.500000 0.040974
O O9 0.851336 0.698723 0.277945
O O10 0.868036 0.771291 0.998708
O O11 0.250000 0.750000 0.500000
O O12 0.185598 0.000000 0.631361
O O13 0.000000 0.280928 0.500000
O O14 0.048046 0.000000 0.347857
O O15 0.303541 0.346827 0.884041
O O16 0.327702 0.000000 0.900060
O O17 0.272671 0.154192 0.136073
#
# Coordination Sequence:
#
# PCOD9219614 Si02
#       7
#     8   8   8   8   8   8   4
#     4   8  14  23  34  50  71  95 122 152 189 225
#     4   9  16  27  40  50  64  91 124 158 195 229
#     4   9  17  28  41  56  77 104 132 165 197 229
#     4  11  21  31  41  54  73  98 133 171 202 230
#     4   9  15  22  33  50  70  89 117 155 188 222
#     4   8  14  25  39  57  79 100 130 160 190 233
#     4   8  14  24  40  58  76 102 128 156 190 236
#
# _framework density 27.423691999999999
#
# number of rings (size 3 to 8) (size 9 to 14) (size 15 to 20)
#    0.462    2.615    0.000    3.231    1.077    5.538 
#    0.000    0.000    0.000    0.000    0.000    0.000 
#    0.000    0.000    0.000    0.000    0.000    9.231 
#
# Total GULP energy -144809.426939 kJ/mol
# GULP energy per Si atom -5569.593344 kJ/mol
# Density = 2.736127 g / cm^3
# Si number density = 27.423692 Si / 1000 Ang^3
#
#
#
# Elastic Constant Matrix: (Units=GPa)
#
#
# Indices 1 2 3 4 5 6 
#
# 1 248.7084 22.2003 32.0289 0.0000 45.2381 0.0000
# 2 22.2003 113.2476 -9.7235 0.0000 6.3051 0.0000
# 3 32.0289 -9.7235 131.3153 0.0000 36.4354 0.0000
# 4 0.0000 0.0000 0.0000 5.4680 0.0000 14.2359
# 5 45.2381 6.3051 36.4354 0.0000 61.4871 0.0000
# 6 0.0000 0.0000 0.0000 14.2359 0.0000 45.4551
#
#
#
# Elastic Compliance Matrix: (Units=1/GPa)
#
#
# Indices 1 2 3 4 5 6 
#
# 1 0.004713 -0.000773 -0.000319 0.000000 -0.003199 0.000000
# 2 -0.000773 0.009140 0.001158 0.000000 -0.001055 0.000000
# 3 -0.000319 0.001158 0.009271 0.000000 -0.005378 0.000000
# 4 0.000000 0.000000 0.000000 0.990603 0.000000 -0.310243
# 5 -0.003199 -0.001055 -0.005378 0.000000 0.021912 0.000000
# 6 0.000000 0.000000 0.000000 -0.310243 0.000000 0.119163
#
#
# Mechanical properties :
#
#
# Convention : Reuss Voigt Hill
#
# Bulk Modulus (GPa) = 43.00157 64.69808 53.84982
# Shear Modulus (GPa) = 4.30136 52.39975 28.35056
#
# Velocity S-wave (km/s) = 1.25375 4.37595 3.21876
# Velocity P-wave (km/s) = 4.22023 7.01250 5.78729
#
# Compressibility (1/GPa) = 0.02325497
#
# Stress axis : x y z
#
# Youngs Moduli (GPa) = 212.19054 109.41026 107.86383
#
# Poissons Ratio (x) = 0.08459 0.03442
# Poissons Ratio (y) = 0.16406 -0.12490
# Poissons Ratio (z) = 0.06772 -0.12669
#
# Static dielectric constant tensor:
#      x y z
#    x 2.278370 0.000000 -0.210270 
#    y 0.000000 1.824350 0.000000 
#    z -0.210270 0.000000 2.386080 
# 
# From -- ./inp_files/291353.got.cif
#   From: 2010.05.17/outbox.cif.g08.bks.cpg/sg12_146_cif.got.tgz:291353.got - 2010.06.03 13:09:07.
