data_PCOD9219872
_publ_section_title
;
Structure prediction by ZEFSAII (Michael W. Deem and Ramdas Pophale) SiO2 
 PCOD9219872
Probable space group: C 2/M
;
_chemical_formula_sum "Si O2"
_cell_formula_units_Z 56
_cell_length_a 20.304535
_cell_length_b 7.536694
_cell_length_c 25.224099
_cell_angle_alpha 90.000000
_cell_angle_beta 43.321861
_cell_angle_gamma 90.000000
_cell_volume 2648.344445
_symmetry_space_group_name_H-M "C 2/M"
_symmetry_group_IT_number 12
_symmetry_cell_setting 'monoclinic'
loop_
_space_group_symop_operation_xyz
x,y,z
-x,y,-z
-x,-y,-z
x,-y,z
1/2+x,1/2+y,z
1/2-x,1/2+y,-z
1/2-x,1/2-y,-z
1/2+x,1/2-y,z
loop_
_atom_site_type_symbol
_atom_site_label
_atom_site_fract_x
_atom_site_fract_y
_atom_site_fract_z
Si Si1 0.903320 0.296422 0.520425
Si Si2 0.428029 0.717439 0.190243
Si Si3 0.026637 0.796916 0.236904
Si Si4 0.029138 0.291680 0.356732
Si Si5 0.266273 0.788498 0.928318
Si Si6 0.439812 0.716828 0.984303
Si Si7 0.211737 0.282166 0.314388
O O1 0.872595 0.500000 0.528544
O O2 0.823597 0.220514 0.606683
O O3 0.000000 0.298893 0.500000
O O4 0.940829 0.215823 0.443299
O O5 0.430468 0.500000 0.189394
O O6 0.460979 0.781194 0.228752
O O7 0.504407 0.772918 0.101305
O O8 0.320137 0.772322 0.239664
O O9 0.021044 0.720597 0.298835
O O10 0.135313 0.789529 0.151313
O O11 0.997158 0.000000 0.260287
O O12 0.029347 0.500000 0.370369
O O13 0.131229 0.223206 0.319255
O O14 0.274008 0.000000 0.917189
O O15 0.250000 0.750000 0.000000
O O16 0.170684 0.726084 0.953819
O O17 0.438459 0.500000 0.985479
O O18 0.500000 0.774291 0.000000
O O19 0.211664 0.500000 0.314659
#
# Coordination Sequence:
#
# PCOD9219872 Si02
#       7
#     8   8   8   8   8   8   8
#     4   7  11  23  44  73 102 123 154 207 257 292
#     4   9  17  30  46  69 100 133 167 203 244 289
#     4  11  22  35  49  71 105 137 168 202 241 295
#     4   9  17  30  52  79 100 124 165 211 253 293
#     4  11  21  36  57  77  99 131 167 202 248 296
#     4   9  18  31  50  75 100 124 162 209 242 282
#     4   8  14  26  50  77  99 126 166 213 252 288
#
# _framework density 21.145285999999999
#
# number of rings (size 3 to 8) (size 9 to 14) (size 15 to 20)
#    0.000    2.857    1.429    2.571    2.000    0.000 
#    0.000    0.714    0.000    9.000    0.000    0.000 
#    0.000    0.000    0.000    0.000    0.000    0.000 
#
# Total GULP energy -156144.647379 kJ/mol
# GULP energy per Si atom -5576.594549 kJ/mol
# Density = 2.109716 g / cm^3
# Si number density = 21.145286 Si / 1000 Ang^3
#
#
#
# Elastic Constant Matrix: (Units=GPa)
#
#
# Indices 1 2 3 4 5 6 
#
# 1 79.7270 -0.3115 -6.3114 -0.0006 19.0127 0.0016
# 2 -0.3115 49.3950 -5.2672 0.0007 -1.2327 0.0063
# 3 -6.3114 -5.2672 32.5582 -0.0004 20.9937 -0.0005
# 4 -0.0006 0.0007 -0.0004 -25.1320 -0.0005 24.7493
# 5 19.0127 -1.2327 20.9937 -0.0005 36.8096 0.0000
# 6 0.0016 0.0063 -0.0005 24.7493 0.0000 2.1794
#
#
#
# Elastic Compliance Matrix: (Units=1/GPa)
#
#
# Indices 1 2 3 4 5 6 
#
# 1 0.018064 0.001300 0.015342 -0.000001 -0.018037 -0.000001
# 2 0.001300 0.020780 0.005691 -0.000005 -0.003221 -0.000005
# 3 0.015342 0.005691 0.062627 -0.000001 -0.043452 -0.000001
# 4 -0.000001 -0.000005 -0.000001 -0.003266 0.000001 0.037089
# 5 -0.018037 -0.003221 -0.043452 0.000001 0.061157 0.000001
# 6 -0.000001 -0.000005 -0.000001 0.037089 0.000001 0.037662
#
#
# Mechanical properties :
#
#
# Convention : Reuss Voigt Hill
#
# Bulk Modulus (GPa) = 6.84299 15.32223 11.08261
# Shear Modulus (GPa) = 24.86690 14.34274 19.60482
#
# Velocity S-wave (km/s) = 3.43301 2.60724 3.04821
# Velocity P-wave (km/s) = 4.35399 4.04048 4.20016
#
# Compressibility (1/GPa) = 0.14613487
#
# Stress axis : x y z
#
# Youngs Moduli (GPa) = 55.35986 48.12415 15.96757
#
# Poissons Ratio (x) = -0.06255 -0.24497
# Poissons Ratio (y) = -0.07196 -0.09086
# Poissons Ratio (z) = -0.84933 -0.27385
#
# Static dielectric constant tensor:
#      x y z
#    x 1.741300 0.000000 0.002890 
#    y 0.000000 1.847180 0.000000 
#    z 0.002890 0.000000 1.777850 
# 
# From -- ./inp_files/342278.got.cif
#   From: 2010.05.17/outbox.cif.g08.bks.cpg/sg12_172_cif.got.tgz:342278.got - 2010.06.03 13:09:07.
