data_PCOD9219800
_publ_section_title
;
Structure prediction by ZEFSAII (Michael W. Deem and Ramdas Pophale) SiO2 
 PCOD9219800
Probable space group: C 2/M
;
_chemical_formula_sum "Si O2"
_cell_formula_units_Z 50
_cell_length_a 30.986311
_cell_length_b 7.453596
_cell_length_c 10.873992
_cell_angle_alpha 90.000000
_cell_angle_beta 56.633663
_cell_angle_gamma 90.000000
_cell_volume 2097.491523
_symmetry_space_group_name_H-M "C 2/M"
_symmetry_group_IT_number 12
_symmetry_cell_setting 'monoclinic'
loop_
_space_group_symop_operation_xyz
x,y,z
-x,y,-z
-x,-y,-z
x,-y,z
1/2+x,1/2+y,z
1/2-x,1/2+y,-z
1/2-x,1/2-y,-z
1/2+x,1/2-y,z
loop_
_atom_site_type_symbol
_atom_site_label
_atom_site_fract_x
_atom_site_fract_y
_atom_site_fract_z
Si Si1 0.214772 0.781204 0.844976
Si Si2 0.109664 0.218342 0.119485
Si Si3 0.500000 0.000000 0.500000
Si Si4 0.430966 0.296189 0.553599
Si Si5 0.836382 0.216558 0.332807
Si Si6 0.823755 0.295726 0.623669
Si Si7 0.942943 0.218792 0.052298
O O1 0.194388 0.729793 0.741359
O O2 0.273299 0.717491 0.769696
O O3 0.216555 0.000000 0.844301
O O4 0.169132 0.724538 0.007626
O O5 0.086643 0.276349 0.284461
O O6 0.109665 0.000000 0.121661
O O7 0.076345 0.273754 0.053374
O O8 0.525225 0.841992 0.549885
O O9 0.448972 0.500000 0.529304
O O10 0.378400 0.295584 0.559016
O O11 0.813711 0.291673 0.493625
O O12 0.896266 0.270089 0.216965
O O13 0.834624 0.000000 0.342622
O O14 0.830379 0.500000 0.654246
O O15 0.943857 0.000000 0.050074
O O16 0.000000 0.279969 0.000000
#
# Coordination Sequence:
#
# PCOD9219800 Si02
#       7
#     8   8   2   8   8   8   8
#     4   8  16  32  57  87 122 164 203 256 318 367
#     4   8  16  33  57  86 117 156 206 250 306 375
#     4  12  26  48  64  90 126 160 206 260 310 362
#     4  11  24  43  67  90 121 165 208 252 312 372
#     4   9  17  31  54  83 119 160 204 251 312 376
#     4  11  21  35  55  85 127 165 208 260 306 367
#     4   8  14  27  51  83 111 143 196 256 305 363
#
# _framework density 23.837999
#
# number of rings (size 3 to 8) (size 9 to 14) (size 15 to 20)
#    0.000    2.720    0.800    3.120    0.000    1.920 
#    0.000    4.000   10.560    0.480    0.000    0.000 
#    0.000    0.000    0.000    0.000    0.000    0.000 
#
# Total GULP energy -139448.384099 kJ/mol
# GULP energy per Si atom -5577.935364 kJ/mol
# Density = 2.378374 g / cm^3
# Si number density = 23.837999 Si / 1000 Ang^3
#
#
#
# Elastic Constant Matrix: (Units=GPa)
#
#
# Indices 1 2 3 4 5 6 
#
# 1 72.3089 19.0551 -2.6003 0.0000 -29.3288 0.0000
# 2 19.0551 108.9160 -0.7402 0.0000 -11.3933 0.0000
# 3 -2.6003 -0.7402 51.1203 0.0000 -2.5889 0.0000
# 4 0.0000 0.0000 0.0000 -6.2766 0.0000 14.0199
# 5 -29.3288 -11.3933 -2.5889 0.0000 30.9052 0.0000
# 6 0.0000 0.0000 0.0000 14.0199 0.0000 -12.3407
#
#
#
# Elastic Compliance Matrix: (Units=1/GPa)
#
#
# Indices 1 2 3 4 5 6 
#
# 1 0.023068 -0.001780 0.002232 0.000000 0.021422 0.000000
# 2 -0.001780 0.009692 0.000146 0.000000 0.001896 0.000000
# 3 0.002232 0.000146 0.019872 0.000000 0.003837 0.000000
# 4 0.000000 0.000000 0.000000 0.103615 0.000000 0.117715
# 5 0.021422 0.001896 0.003837 0.000000 0.053707 0.000000
# 6 0.000000 0.000000 0.000000 0.117715 0.000000 0.052700
#
#
# Mechanical properties :
#
#
# Convention : Reuss Voigt Hill
#
# Bulk Modulus (GPa) = 18.57745 29.30826 23.94286
# Shear Modulus (GPa) = 17.89555 16.89962 17.39759
#
# Velocity S-wave (km/s) = 2.74289 2.66547 2.70446
# Velocity P-wave (km/s) = 4.22391 4.66845 4.45173
#
# Compressibility (1/GPa) = 0.05382870
#
# Stress axis : x y z
#
# Youngs Moduli (GPa) = 43.35075 103.17675 50.32283
#
# Poissons Ratio (x) = 0.18362 -0.11234
# Poissons Ratio (y) = 0.07715 -0.00734
# Poissons Ratio (z) = -0.09678 -0.01505
#
# Static dielectric constant tensor:
#      x y z
#    x 1.946360 0.000000 -0.057350 
#    y 0.000000 2.768270 0.000000 
#    z -0.057350 0.000000 1.941170 
# 
# From -- ./inp_files/186321.got.cif
#   From: 2010.05.17/outbox.cif.g08.bks.cpg/sg12_94_cif.got.tgz:186321.got - 2010.06.03 13:09:07.
