data_PCOD9219451
_publ_section_title
;
Structure prediction by ZEFSAII (Michael W. Deem and Ramdas Pophale) SiO2 
 PCOD9219451
Probable space group: C 2/M
;
_chemical_formula_sum "Si O2"
_cell_formula_units_Z 32
_cell_length_a 12.948996
_cell_length_b 20.441986
_cell_length_c 7.441053
_cell_angle_alpha 90.000000
_cell_angle_beta 52.960663
_cell_angle_gamma 90.000000
_cell_volume 1572.234603
_symmetry_space_group_name_H-M "C 2/M"
_symmetry_group_IT_number 12
_symmetry_cell_setting 'monoclinic'
loop_
_space_group_symop_operation_xyz
x,y,z
-x,y,-z
-x,-y,-z
x,-y,z
1/2+x,1/2+y,z
1/2-x,1/2+y,-z
1/2-x,1/2-y,-z
1/2+x,1/2-y,z
loop_
_atom_site_type_symbol
_atom_site_label
_atom_site_fract_x
_atom_site_fract_y
_atom_site_fract_z
Si Si1 0.154410 0.073363 0.851335
Si Si2 0.726654 0.173096 0.560753
Si Si3 0.184954 0.156464 0.136396
Si Si4 0.539986 0.216847 0.250888
O O1 0.224301 0.126947 0.651610
O O2 0.196366 0.000000 0.759062
O O3 0.178361 0.089762 0.034840
O O4 0.000000 0.077718 0.000000
O O5 0.750000 0.250000 0.500000
O O6 0.801322 0.153332 0.663796
O O7 0.570706 0.177796 0.740034
O O8 0.068508 0.205272 0.195968
O O9 0.320476 0.187437 0.932285
O O10 0.500000 0.209446 0.500000
#
# Coordination Sequence:
#
# PCOD9219451 Si02
#       4
#     8   8   8   8
#     4  11  26  44  63  93 132 172 214 262 319 389
#     4  12  22  39  67  97 127 165 217 267 320 373
#     4  11  23  39  64  92 133 167 205 262 329 380
#     4  11  20  38  62 100 128 160 208 270 324 371
#
# _framework density 20.353197000000002
#
# number of rings (size 3 to 8) (size 9 to 14) (size 15 to 20)
#    0.000    0.750    5.000    3.750    0.000    1.000 
#    0.000    5.000    0.000    3.000    0.000    0.000 
#    0.000    0.000    0.000    0.000    0.000    0.000 
#
# Total GULP energy -89269.630524 kJ/mol
# GULP energy per Si atom -5579.351908 kJ/mol
# Density = 2.030687 g / cm^3
# Si number density = 20.353197 Si / 1000 Ang^3
#
#
#
# Elastic Constant Matrix: (Units=GPa)
#
#
# Indices 1 2 3 4 5 6 
#
# 1 86.7827 50.4927 29.0653 0.0000 5.7348 0.0000
# 2 50.4927 114.7192 40.2753 0.0000 9.9206 0.0000
# 3 29.0653 40.2753 93.6361 0.0000 4.7760 0.0000
# 4 0.0000 0.0000 0.0000 31.1117 0.0000 7.9918
# 5 5.7348 9.9206 4.7760 0.0000 41.3959 0.0000
# 6 0.0000 0.0000 0.0000 7.9918 0.0000 8.7442
#
#
#
# Elastic Compliance Matrix: (Units=1/GPa)
#
#
# Indices 1 2 3 4 5 6 
#
# 1 0.015896 -0.006163 -0.002260 0.000000 -0.000464 0.000000
# 2 -0.006163 0.012818 -0.003508 0.000000 -0.001813 0.000000
# 3 -0.002260 -0.003508 0.012907 0.000000 -0.000335 0.000000
# 4 0.000000 0.000000 0.000000 0.042004 0.000000 -0.038390
# 5 -0.000464 -0.001813 -0.000335 0.000000 0.024695 0.000000
# 6 0.000000 0.000000 0.000000 -0.038390 0.000000 0.149448
#
#
# Mechanical properties :
#
#
# Convention : Reuss Voigt Hill
#
# Bulk Modulus (GPa) = 56.30620 59.42272 57.86446
# Shear Modulus (GPa) = 17.38833 27.93734 22.66284
#
# Velocity S-wave (km/s) = 2.92606 3.70892 3.34050
# Velocity P-wave (km/s) = 6.25623 6.89932 6.58563
#
# Compressibility (1/GPa) = 0.01776003
#
# Stress axis : x y z
#
# Youngs Moduli (GPa) = 62.90705 78.01594 77.47764
#
# Poissons Ratio (x) = 0.48083 0.17508
# Poissons Ratio (y) = 0.38771 0.27177
# Poissons Ratio (z) = 0.14215 0.27366
#
# Static dielectric constant tensor:
#      x y z
#    x 1.918820 0.000000 -0.024230 
#    y 0.000000 1.718360 0.000000 
#    z -0.024230 0.000000 1.761590 
# 
# From -- ./inp_files/62464.got.cif
#   From: 2010.05.17/outbox.cif.g08.bks.cpg/sg12_32_cif.got.tgz:62464.got - 2010.06.03 13:09:07.
