data_PCOD9219720
_publ_section_title
;
Structure prediction by ZEFSAII (Michael W. Deem and Ramdas Pophale) SiO2 
 PCOD9219720
Probable space group: C 2/M
;
_chemical_formula_sum "Si O2"
_cell_formula_units_Z 36
_cell_length_a 17.310049
_cell_length_b 20.051038
_cell_length_c 13.789520
_cell_angle_alpha 90.000000
_cell_angle_beta 23.252208
_cell_angle_gamma 90.000000
_cell_volume 1889.464074
_symmetry_space_group_name_H-M "C 2/M"
_symmetry_group_IT_number 12
_symmetry_cell_setting 'monoclinic'
loop_
_space_group_symop_operation_xyz
x,y,z
-x,y,-z
-x,-y,-z
x,-y,z
1/2+x,1/2+y,z
1/2-x,1/2+y,-z
1/2-x,1/2-y,-z
1/2+x,1/2-y,z
loop_
_atom_site_type_symbol
_atom_site_label
_atom_site_fract_x
_atom_site_fract_y
_atom_site_fract_z
Si Si1 0.806051 0.159688 0.374979
Si Si2 0.193730 0.307230 0.710427
Si Si3 0.244225 0.192740 0.925922
Si Si4 0.000000 0.216889 0.500000
Si Si5 0.470407 0.923874 0.417905
O O1 0.768715 0.230327 0.364890
O O2 0.688617 0.156139 0.612466
O O3 0.738676 0.102046 0.379850
O O4 0.032481 0.164930 0.143143
O O5 0.386267 0.325414 0.550499
O O6 0.000000 0.313762 0.000000
O O7 0.336469 0.233276 0.730248
O O8 0.380027 0.130664 0.796348
O O9 0.250000 0.250000 0.000000
O O10 0.500000 0.920407 0.500000
O O11 0.504439 0.000000 0.349146
#
# Coordination Sequence:
#
# PCOD9219720 Si02
#       5
#     8   8   8   4   8
#     4  11  22  36  59  89 120 165 209 248 316 377
#     4  11  21  33  57  91 125 154 194 261 317 365
#     4  12  21  37  63  95 126 157 210 265 312 368
#     4  12  20  32  55  92 127 152 192 256 324 360
#     4  11  25  43  60  87 130 173 211 255 314 382
#
# _framework density 19.053021999999999
#
# number of rings (size 3 to 8) (size 9 to 14) (size 15 to 20)
#    0.000    0.667    7.778    1.333    0.000    0.889 
#    0.000    2.222    0.000    0.667    0.000    3.111 
#    0.000    0.000    0.000    0.000    0.000    0.000 
#
# Total GULP energy -100460.485644 kJ/mol
# GULP energy per Si atom -5581.138091 kJ/mol
# Density = 1.900966 g / cm^3
# Si number density = 19.053022 Si / 1000 Ang^3
#
#
#
# Elastic Constant Matrix: (Units=GPa)
#
#
# Indices 1 2 3 4 5 6 
#
# 1 136.7189 34.2242 50.0622 -0.0166 -16.2599 0.0089
# 2 34.2242 94.0556 13.5532 -0.0238 -10.5823 0.0120
# 3 50.0622 13.5532 94.2048 -0.0156 2.7919 0.0079
# 4 -0.0166 -0.0238 -0.0156 13.0629 0.0011 3.6933
# 5 -16.2599 -10.5823 2.7919 0.0011 38.1057 -0.0034
# 6 0.0089 0.0120 0.0079 3.6933 -0.0034 17.7688
#
#
#
# Elastic Compliance Matrix: (Units=1/GPa)
#
#
# Indices 1 2 3 4 5 6 
#
# 1 0.010369 -0.002553 -0.005264 0.000002 0.004101 -0.000001
# 2 -0.002553 0.011873 -0.000418 0.000021 0.002239 -0.000010
# 3 -0.005264 -0.000418 0.013572 0.000011 -0.003357 -0.000006
# 4 0.000002 0.000021 0.000011 0.081332 0.000002 -0.016905
# 5 0.004101 0.002239 -0.003357 0.000002 0.028860 0.000003
# 6 -0.000001 -0.000010 -0.000006 -0.016905 0.000003 0.059792
#
#
# Mechanical properties :
#
#
# Convention : Reuss Voigt Hill
#
# Bulk Modulus (GPa) = 51.69600 57.85093 54.77346
# Shear Modulus (GPa) = 21.86108 28.93014 25.39561
#
# Velocity S-wave (km/s) = 3.39098 3.90089 3.65484
# Velocity P-wave (km/s) = 6.52098 7.12168 6.82794
#
# Compressibility (1/GPa) = 0.01934386
#
# Stress axis : x y z
#
# Youngs Moduli (GPa) = 96.44385 84.22466 73.67908
#
# Poissons Ratio (x) = 0.21501 0.38788
# Poissons Ratio (y) = 0.24621 0.03079
# Poissons Ratio (z) = 0.50772 0.03519
#
# Static dielectric constant tensor:
#      x y z
#    x 1.799600 0.000000 0.017680 
#    y 0.000000 1.609920 0.000010 
#    z 0.017680 0.000010 1.665690 
# 
# From -- ./inp_files/147419.got.cif
#   From: 2010.05.17/outbox.cif.g08.bks.cpg/sg12_74_cif.got.tgz:147419.got - 2010.06.03 13:09:07.
