data_PCOD9219165
_publ_section_title
;
Structure prediction by ZEFSAII (Michael W. Deem and Ramdas Pophale) SiO2 
 PCOD9219165
Probable space group: C 2/M
;
_chemical_formula_sum "Si O2"
_cell_formula_units_Z 56
_cell_length_a 8.879689
_cell_length_b 20.212992
_cell_length_c 24.425934
_cell_angle_alpha 90.000000
_cell_angle_beta 47.937453
_cell_angle_gamma 90.000000
_cell_volume 3254.810050
_symmetry_space_group_name_H-M "C 2/M"
_symmetry_group_IT_number 12
_symmetry_cell_setting 'monoclinic'
loop_
_space_group_symop_operation_xyz
x,y,z
-x,y,-z
-x,-y,-z
x,-y,z
1/2+x,1/2+y,z
1/2-x,1/2+y,-z
1/2-x,1/2-y,-z
1/2+x,1/2-y,z
loop_
_atom_site_type_symbol
_atom_site_label
_atom_site_fract_x
_atom_site_fract_y
_atom_site_fract_z
Si Si1 0.376820 0.800994 0.690545
Si Si2 0.527580 0.575851 0.558743
Si Si3 0.628205 0.818208 0.522728
Si Si4 0.053697 0.666764 0.849355
Si Si5 0.693425 0.823220 0.992848
Si Si6 0.939253 0.813227 0.835158
Si Si7 0.701023 0.840165 0.702293
O O1 0.487390 0.828684 0.609993
O O2 0.524483 0.812052 0.706006
O O3 0.335574 0.723276 0.688235
O O4 0.156872 0.832200 0.757486
O O5 0.500000 0.577769 0.500000
O O6 0.552485 0.500000 0.569784
O O7 0.720904 0.621216 0.522780
O O8 0.337594 0.609666 0.634901
O O9 0.500000 0.809183 0.500000
O O10 0.750000 0.750000 0.500000
O O11 0.258132 0.679444 0.835293
O O12 0.111322 0.628883 0.779984
O O13 0.969698 0.736554 0.845782
O O14 0.886807 0.640159 0.933103
O O15 0.870257 0.847788 0.909081
O O16 0.500000 0.816966 0.000000
O O17 0.750000 0.750000 0.000000
#
# Coordination Sequence:
#
# PCOD9219165 Si02
#       7
#     8   8   8   8   8   8   8
#     4  11  20  30  48  78 101 131 171 216 258 304
#     4  11  24  42  57  74 105 142 177 220 269 318
#     4  12  23  36  59  82 106 137 179 218 262 316
#     4   9  16  25  42  64  95 134 169 204 246 309
#     4   8  14  24  36  57  93 135 166 192 247 307
#     4   9  16  25  39  65 100 133 163 208 252 304
#     4  11  20  32  51  76 102 133 177 213 262 309
#
# _framework density 17.205304000000002
#
# number of rings (size 3 to 8) (size 9 to 14) (size 15 to 20)
#    0.000    1.857    2.857    4.714    2.000    1.429 
#    0.000    0.000    0.000    0.000    0.000    0.000 
#    0.000    8.571    0.000    0.000    0.000    0.000 
#
# Total GULP energy -155952.592815 kJ/mol
# GULP energy per Si atom -5569.735458 kJ/mol
# Density = 1.716614 g / cm^3
# Si number density = 17.205304 Si / 1000 Ang^3
#
#
#
# Elastic Constant Matrix: (Units=GPa)
#
#
# Indices 1 2 3 4 5 6 
#
# 1 91.7148 33.8541 44.9769 0.0005 12.2978 -0.0014
# 2 33.8541 55.8651 25.7059 0.0002 -7.0626 -0.0003
# 3 44.9769 25.7059 178.5860 -0.0003 7.7460 0.0001
# 4 0.0005 0.0002 -0.0003 4.5684 -0.0001 1.0919
# 5 12.2978 -7.0626 7.7460 -0.0001 29.4128 0.0006
# 6 -0.0014 -0.0003 0.0001 1.0919 0.0006 6.5917
#
#
#
# Elastic Compliance Matrix: (Units=1/GPa)
#
#
# Indices 1 2 3 4 5 6 
#
# 1 0.017151 -0.010418 -0.002428 -0.000003 -0.009033 0.000005
# 2 -0.010418 0.026382 -0.001656 0.000001 0.011127 -0.000002
# 3 -0.002428 -0.001656 0.006497 0.000001 -0.001094 -0.000001
# 4 -0.000003 0.000001 0.000001 0.227919 0.000003 -0.037753
# 5 -0.009033 0.011127 -0.001094 0.000003 0.040735 -0.000006
# 6 0.000005 -0.000002 -0.000001 -0.037753 -0.000006 0.157959
#
#
# Mechanical properties :
#
#
# Convention : Reuss Voigt Hill
#
# Bulk Modulus (GPa) = 47.56194 59.47106 53.51650
# Shear Modulus (GPa) = 9.75311 22.88985 16.32148
#
# Velocity S-wave (km/s) = 2.38348 3.65142 3.08333
# Velocity P-wave (km/s) = 5.93956 7.24001 6.62179
#
# Compressibility (1/GPa) = 0.02102522
#
# Stress axis : x y z
#
# Youngs Moduli (GPa) = 58.30602 37.90393 153.91969
#
# Poissons Ratio (x) = 0.39489 0.37372
# Poissons Ratio (y) = 0.60744 0.25494
# Poissons Ratio (z) = 0.14157 0.06278
#
# Static dielectric constant tensor:
#      x y z
#    x 1.578490 0.000000 -0.002420 
#    y 0.000000 1.540250 0.000000 
#    z -0.002420 0.000000 1.689990 
# 
# From -- ./inp_files/333564.got.cif
#   From: 2010.05.17/outbox.cif.g08.bks.cpg/sg12_167_cif.got.tgz:333564.got - 2010.06.03 13:09:07.
