data_PCOD9219779
_publ_section_title
;
Structure prediction by ZEFSAII (Michael W. Deem and Ramdas Pophale) SiO2 
 PCOD9219779
Probable space group: C 2/M
;
_chemical_formula_sum "Si O2"
_cell_formula_units_Z 56
_cell_length_a 9.270741
_cell_length_b 24.474409
_cell_length_c 17.679958
_cell_angle_alpha 90.000000
_cell_angle_beta 138.313258
_cell_angle_gamma 90.000000
_cell_volume 2667.885155
_symmetry_space_group_name_H-M "C 2/M"
_symmetry_group_IT_number 12
_symmetry_cell_setting 'monoclinic'
loop_
_space_group_symop_operation_xyz
x,y,z
-x,y,-z
-x,-y,-z
x,-y,z
1/2+x,1/2+y,z
1/2-x,1/2+y,-z
1/2-x,1/2-y,-z
1/2+x,1/2-y,z
loop_
_atom_site_type_symbol
_atom_site_label
_atom_site_fract_x
_atom_site_fract_y
_atom_site_fract_z
Si Si1 0.469246 0.905594 0.771358
Si Si2 0.082736 0.310029 0.610663
Si Si3 0.189116 0.602400 0.020801
Si Si4 0.250450 0.500000 0.619994
Si Si5 0.185521 0.910307 0.228229
Si Si6 0.109634 0.000000 0.626262
Si Si7 0.381198 0.213442 0.682061
Si Si8 0.263111 0.228716 0.921234
O O1 0.590517 0.899345 0.898560
O O2 0.644992 0.920792 0.774298
O O3 0.374904 0.845747 0.716939
O O4 0.272296 0.948386 0.697400
O O5 0.254624 0.348943 0.720724
O O6 0.189978 0.253026 0.630357
O O7 0.000000 0.335980 0.500000
O O8 0.898811 0.297933 0.599980
O O9 0.433842 0.580344 0.109852
O O10 0.229509 0.662962 0.072301
O O11 0.000000 0.576638 0.000000
O O12 0.279721 0.448137 0.685769
O O13 0.421683 0.500000 0.617282
O O14 0.000000 0.500000 0.500000
O O15 0.000000 0.000000 0.500000
O O16 0.594243 0.245242 0.796951
O O17 0.500000 0.250703 0.000000
O O18 0.250000 0.250000 0.000000
#
# Coordination Sequence:
#
# PCOD9219779 Si02
#       8
#     8   8   8   4   8   4   8   8
#     4  11  25  43  70 103 139 181 230 287 346 418
#     4  11  24  40  61  92 135 179 230 285 341 414
#     4  11  23  39  64 102 139 180 224 284 347 411
#     4  12  26  49  78  99 128 180 234 284 346 410
#     4  11  24  44  69  98 137 181 232 287 352 411
#     4  12  28  51  76 105 138 176 234 290 344 414
#     4  11  23  39  63  96 134 181 229 278 347 410
#     4  11  21  34  61  94 136 181 224 273 336 414
#
# _framework density 20.990407999999999
#
# number of rings (size 3 to 8) (size 9 to 14) (size 15 to 20)
#    0.000    0.857    2.857    4.286    4.000    3.429 
#    0.000    2.857    0.000    0.000    0.000    0.000 
#    0.000    0.000    0.000    0.000    0.000    0.000 
#
# Total GULP energy -156312.855166 kJ/mol
# GULP energy per Si atom -5582.601970 kJ/mol
# Density = 2.094263 g / cm^3
# Si number density = 20.990408 Si / 1000 Ang^3
#
#
#
# Elastic Constant Matrix: (Units=GPa)
#
#
# Indices 1 2 3 4 5 6 
#
# 1 173.0355 42.7043 41.5461 0.0000 -3.7223 0.0000
# 2 42.7043 91.8222 41.1974 0.0000 6.9546 0.0000
# 3 41.5461 41.1974 100.0146 0.0000 -2.9780 0.0000
# 4 0.0000 0.0000 0.0000 19.5345 0.0000 2.0546
# 5 -3.7223 6.9546 -2.9780 0.0000 42.2316 0.0000
# 6 0.0000 0.0000 0.0000 2.0546 0.0000 25.4622
#
#
#
# Elastic Compliance Matrix: (Units=1/GPa)
#
#
# Indices 1 2 3 4 5 6 
#
# 1 0.006833 -0.002432 -0.001811 0.000000 0.000875 0.000000
# 2 -0.002432 0.014515 -0.005057 0.000000 -0.002961 0.000000
# 3 -0.001811 -0.005057 0.012881 0.000000 0.001581 0.000000
# 4 0.000000 0.000000 0.000000 0.051630 0.000000 -0.004166
# 5 0.000875 -0.002961 0.001581 0.000000 0.024355 0.000000
# 6 0.000000 0.000000 0.000000 -0.004166 0.000000 0.039610
#
#
# Mechanical properties :
#
#
# Convention : Reuss Voigt Hill
#
# Bulk Modulus (GPa) = 63.98002 68.41866 66.19934
# Shear Modulus (GPa) = 28.79663 33.40731 31.10197
#
# Velocity S-wave (km/s) = 3.70793 3.99375 3.85349
# Velocity P-wave (km/s) = 6.99131 7.34389 7.16977
#
# Compressibility (1/GPa) = 0.01562988
#
# Stress axis : x y z
#
# Youngs Moduli (GPa) = 146.35171 68.89606 77.63519
#
# Poissons Ratio (x) = 0.16753 0.14057
# Poissons Ratio (y) = 0.35588 0.39259
# Poissons Ratio (z) = 0.26499 0.34839
#
# Static dielectric constant tensor:
#      x y z
#    x 1.734690 0.000000 0.023100 
#    y 0.000000 1.750160 0.000000 
#    z 0.023100 0.000000 1.770470 
# 
# From -- ./inp_files/259897.got.cif
#   From: 2010.05.17/outbox.cif.g08.bks.cpg/sg12_130_cif.got.tgz:259897.got - 2010.06.03 13:09:07.
