data_PCOD9219379
_publ_section_title
;
Structure prediction by ZEFSAII (Michael W. Deem and Ramdas Pophale) SiO2 
 PCOD9219379
Probable space group: C 2/M
;
_chemical_formula_sum "Si O2"
_cell_formula_units_Z 56
_cell_length_a 32.142623
_cell_length_b 21.683443
_cell_length_c 9.870931
_cell_angle_alpha 90.000000
_cell_angle_beta 154.476918
_cell_angle_gamma 90.000000
_cell_volume 2964.276026
_symmetry_space_group_name_H-M "C 2/M"
_symmetry_group_IT_number 12
_symmetry_cell_setting 'monoclinic'
loop_
_space_group_symop_operation_xyz
x,y,z
-x,y,-z
-x,-y,-z
x,-y,z
1/2+x,1/2+y,z
1/2-x,1/2+y,-z
1/2-x,1/2-y,-z
1/2+x,1/2-y,z
loop_
_atom_site_type_symbol
_atom_site_label
_atom_site_fract_x
_atom_site_fract_y
_atom_site_fract_z
Si Si1 0.769141 0.345699 0.309684
Si Si2 0.240554 0.075187 0.976685
Si Si3 0.235710 0.642221 0.235114
Si Si4 0.318375 0.427567 0.720266
Si Si5 0.597871 0.747481 0.872717
Si Si6 0.520561 0.574306 0.407110
Si Si7 0.097074 0.760468 0.198463
O O1 0.732258 0.399037 0.299280
O O2 0.855992 0.305904 0.626770
O O3 0.792374 0.381560 0.240126
O O4 0.678337 0.298201 0.044247
O O5 0.266511 0.104282 0.909320
O O6 0.126568 0.089336 0.667272
O O7 0.254240 0.000000 0.026566
O O8 0.256926 0.593431 0.413671
O O9 0.325626 0.689647 0.518844
O O10 0.142180 0.684177 0.984649
O O11 0.321021 0.500000 0.739028
O O12 0.430624 0.405941 0.050066
O O13 0.500000 0.741422 0.500000
O O14 0.588383 0.735712 0.008030
O O15 0.500000 0.596120 0.500000
O O16 0.518974 0.500000 0.407814
O O17 0.000000 0.768119 0.000000
#
# Coordination Sequence:
#
# PCOD9219379 Si02
#       7
#     8   8   8   8   8   8   8
#     4  11  22  40  65  90 126 163 209 249 304 374
#     4  11  24  38  60  96 132 164 204 252 304 373
#     4  11  24  42  61  91 130 161 205 254 312 370
#     4  11  20  36  63  88 122 170 201 245 311 374
#     4  11  25  43  66  92 121 163 211 261 312 359
#     4   9  18  31  50  84 122 159 197 234 286 357
#     4  11  25  43  65  93 122 160 212 264 307 360
#
# _framework density 18.891628999999998
#
# number of rings (size 3 to 8) (size 9 to 14) (size 15 to 20)
#    0.000    1.286    4.286    1.714    8.000    1.143 
#    0.000    2.143    0.000    5.143    0.000    0.000 
#    0.000    0.000    0.000    0.000    0.000    0.000 
#
# Total GULP energy -156214.360312 kJ/mol
# GULP energy per Si atom -5579.084297 kJ/mol
# Density = 1.884863 g / cm^3
# Si number density = 18.891629 Si / 1000 Ang^3
#
#
#
# Elastic Constant Matrix: (Units=GPa)
#
#
# Indices 1 2 3 4 5 6 
#
# 1 45.8136 14.7499 24.3384 0.0000 -14.4174 0.0000
# 2 14.7499 99.3500 34.1045 0.0000 -11.8202 0.0000
# 3 24.3384 34.1045 80.2366 0.0000 -15.1620 0.0000
# 4 0.0000 0.0000 0.0000 19.1599 0.0000 -4.4501
# 5 -14.4174 -11.8202 -15.1620 0.0000 34.2130 0.0000
# 6 0.0000 0.0000 0.0000 -4.4501 0.0000 32.0271
#
#
#
# Elastic Compliance Matrix: (Units=1/GPa)
#
#
# Indices 1 2 3 4 5 6 
#
# 1 0.028355 -0.000919 -0.006562 0.000000 0.008723 0.000000
# 2 -0.000919 0.011944 -0.004465 0.000000 0.001760 0.000000
# 3 -0.006562 -0.004465 0.016958 0.000000 0.003207 0.000000
# 4 0.000000 0.000000 0.000000 0.053933 0.000000 0.007494
# 5 0.008723 0.001760 0.003207 0.000000 0.034934 0.000000
# 6 0.000000 0.000000 0.000000 0.007494 0.000000 0.032265
#
#
# Mechanical properties :
#
#
# Convention : Reuss Voigt Hill
#
# Bulk Modulus (GPa) = 29.97287 41.30951 35.64119
# Shear Modulus (GPa) = 23.42992 27.22715 25.32853
#
# Velocity S-wave (km/s) = 3.52551 3.80047 3.66557
# Velocity P-wave (km/s) = 5.69846 6.41655 6.06814
#
# Compressibility (1/GPa) = 0.03336351
#
# Stress axis : x y z
#
# Youngs Moduli (GPa) = 35.26767 83.72262 58.97065
#
# Poissons Ratio (x) = 0.07697 0.38695
# Poissons Ratio (y) = 0.03242 0.26333
# Poissons Ratio (z) = 0.23142 0.37385
#
# Static dielectric constant tensor:
#      x y z
#    x 1.597640 0.000000 0.018200 
#    y 0.000000 1.676170 0.000000 
#    z 0.018200 0.000000 1.652620 
# 
# From -- ./inp_files/77626.got.cif
#   From: 2010.05.17/outbox.cif.g08.bks.cpg/sg12_39_cif.got.tgz:77626.got - 2010.06.03 13:09:07.
