data_PCOD9219530
_publ_section_title
;
Structure prediction by ZEFSAII (Michael W. Deem and Ramdas Pophale) SiO2 
 PCOD9219530
Probable space group: C 2/M
;
_chemical_formula_sum "Si O2"
_cell_formula_units_Z 42
_cell_length_a 13.395602
_cell_length_b 19.162187
_cell_length_c 9.274816
_cell_angle_alpha 90.000000
_cell_angle_beta 109.590086
_cell_angle_gamma 90.000000
_cell_volume 2242.935337
_symmetry_space_group_name_H-M "C 2/M"
_symmetry_group_IT_number 12
_symmetry_cell_setting 'monoclinic'
loop_
_space_group_symop_operation_xyz
x,y,z
-x,y,-z
-x,-y,-z
x,-y,z
1/2+x,1/2+y,z
1/2-x,1/2+y,-z
1/2-x,1/2-y,-z
1/2+x,1/2-y,z
loop_
_atom_site_type_symbol
_atom_site_label
_atom_site_fract_x
_atom_site_fract_y
_atom_site_fract_z
Si Si1 0.479178 0.370495 0.286923
Si Si2 0.679626 0.313056 0.230507
Si Si3 0.500000 0.500000 0.500000
Si Si4 0.208510 0.082664 0.004302
Si Si5 0.887970 0.311794 0.016366
Si Si6 0.599186 0.234559 0.642535
O O1 0.576738 0.324631 0.276557
O O2 0.516406 0.438505 0.386997
O O3 0.402137 0.395970 0.122593
O O4 0.409816 0.318169 0.351433
O O5 0.655028 0.254983 0.094738
O O6 0.786925 0.289279 0.359958
O O7 0.702877 0.386035 0.161822
O O8 0.302600 0.125977 0.972465
O O9 0.224000 0.000000 0.005058
O O10 0.903732 0.291419 0.192037
O O11 0.000000 0.331104 0.000000
O O12 0.500000 0.209137 0.500000
#
# Coordination Sequence:
#
# PCOD9219530 Si02
#       6
#     8   8   2   8   8   8
#     4  12  22  39  62  88 127 163 196 256 318 374
#     4  11  22  39  67  91 115 167 223 253 302 374
#     4  12  28  40  54  96 148 152 184 260 332 394
#     4  11  22  37  62  91 124 159 210 265 309 365
#     4  11  20  40  66  89 121 162 224 263 295 367
#     4  11  22  39  60  96 125 158 208 264 312 355
#
# _framework density 18.725462
#
# number of rings (size 3 to 8) (size 9 to 14) (size 15 to 20)
#    0.000    0.762    7.619    1.714    1.333    1.905 
#    3.429    0.000    0.000    9.143    0.000    0.000 
#    0.000    0.000    0.000    0.000    0.000    0.000 
#
# Total GULP energy -117007.673640 kJ/mol
# GULP energy per Si atom -5571.793983 kJ/mol
# Density = 1.868284 g / cm^3
# Si number density = 18.725462 Si / 1000 Ang^3
#
#
#
# Elastic Constant Matrix: (Units=GPa)
#
#
# Indices 1 2 3 4 5 6 
#
# 1 114.4217 55.4593 34.4919 0.0000 22.3033 0.0000
# 2 55.4593 132.9720 33.4177 0.0000 13.5314 0.0000
# 3 34.4919 33.4177 79.0408 0.0000 21.1719 0.0000
# 4 0.0000 0.0000 0.0000 20.2809 0.0000 -5.7883
# 5 22.3033 13.5314 21.1719 0.0000 24.4636 0.0000
# 6 0.0000 0.0000 0.0000 -5.7883 0.0000 15.8306
#
#
#
# Elastic Compliance Matrix: (Units=1/GPa)
#
#
# Indices 1 2 3 4 5 6 
#
# 1 0.012784 -0.004093 -0.001735 0.000000 -0.007890 0.000000
# 2 -0.004093 0.009805 -0.002481 0.000000 0.000456 0.000000
# 3 -0.001735 -0.002481 0.017791 0.000000 -0.012443 0.000000
# 4 0.000000 0.000000 0.000000 0.055053 0.000000 0.020130
# 5 -0.007890 0.000456 -0.012443 0.000000 0.058587 0.000000
# 6 0.000000 0.000000 0.000000 0.020130 0.000000 0.070529
#
#
# Mechanical properties :
#
#
# Convention : Reuss Voigt Hill
#
# Bulk Modulus (GPa) = 42.08549 63.68583 52.88566
# Shear Modulus (GPa) = 20.07330 25.65273 22.86301
#
# Velocity S-wave (km/s) = 3.27766 3.70528 3.49801
# Velocity P-wave (km/s) = 6.07025 7.23807 6.67973
#
# Compressibility (1/GPa) = 0.02376116
#
# Stress axis : x y z
#
# Youngs Moduli (GPa) = 78.22009 101.99168 56.20904
#
# Poissons Ratio (x) = 0.41747 0.09752
# Poissons Ratio (y) = 0.32017 0.13947
# Poissons Ratio (z) = 0.13571 0.25307
#
# Static dielectric constant tensor:
#      x y z
#    x 1.677050 0.000000 0.000530 
#    y 0.000000 1.619210 0.000000 
#    z 0.000530 0.000000 1.708330 
# 
# From -- ./inp_files/61826.got.cif
#   From: 2010.05.17/outbox.cif.g08.bks.cpg/sg12_31_cif.got.tgz:61826.got - 2010.06.03 13:09:07.
