data_PCOD9219591
_publ_section_title
;
Structure prediction by ZEFSAII (Michael W. Deem and Ramdas Pophale) SiO2 
 PCOD9219591
Probable space group: C 2/M
;
_chemical_formula_sum "Si O2"
_cell_formula_units_Z 48
_cell_length_a 14.669140
_cell_length_b 28.443810
_cell_length_c 10.789401
_cell_angle_alpha 90.000000
_cell_angle_beta 151.045094
_cell_angle_gamma 90.000000
_cell_volume 2179.434281
_symmetry_space_group_name_H-M "C 2/M"
_symmetry_group_IT_number 12
_symmetry_cell_setting 'monoclinic'
loop_
_space_group_symop_operation_xyz
x,y,z
-x,y,-z
-x,-y,-z
x,-y,z
1/2+x,1/2+y,z
1/2-x,1/2+y,-z
1/2-x,1/2-y,-z
1/2+x,1/2-y,z
loop_
_atom_site_type_symbol
_atom_site_label
_atom_site_fract_x
_atom_site_fract_y
_atom_site_fract_z
Si Si1 0.877646 0.361845 0.972905
Si Si2 0.734924 0.896546 0.522847
Si Si3 0.088609 0.099908 0.798185
Si Si4 0.178981 0.500000 0.549600
Si Si5 0.727678 0.157172 0.759980
Si Si6 0.714861 0.740170 0.809498
Si Si7 0.228802 0.000000 0.056675
O O1 0.028364 0.376089 0.256451
O O2 0.686966 0.388160 0.785614
O O3 0.828761 0.306805 0.913158
O O4 0.000000 0.375923 0.000000
O O5 0.797108 0.870294 0.721627
O O6 0.871857 0.888491 0.569277
O O7 0.730554 0.952057 0.542621
O O8 0.190842 0.132507 0.021845
O O9 0.134934 0.046414 0.889356
O O10 0.277052 0.500000 0.800974
O O11 0.952412 0.500000 0.294845
O O12 0.500000 0.154719 0.500000
O O13 0.780761 0.211916 0.822473
O O14 0.500000 0.733106 0.500000
O O15 0.750000 0.750000 0.000000
#
# Coordination Sequence:
#
# PCOD9219591 Si02
#       7
#     8   8   8   4   8   8   4
#     4  12  28  47  68  98 142 201 251 300 358 443
#     4  12  25  43  71 108 145 187 245 310 383 449
#     4  12  24  42  70 103 145 184 241 302 379 451
#     4  11  21  39  71 109 147 184 229 312 396 449
#     4  11  20  42  70 105 147 183 234 311 380 450
#     4  11  24  47  77 109 150 200 254 314 380 450
#     4  11  21  39  69 109 147 180 234 313 388 454
#
# _framework density 22.024063999999999
#
# number of rings (size 3 to 8) (size 9 to 14) (size 15 to 20)
#    0.000    0.500    6.667    2.000    2.333    2.000 
#    0.000    4.167    0.000    2.000    0.000    0.000 
#    0.000    0.000    0.000    0.000    0.000    0.000 
#
# Total GULP energy -134125.231105 kJ/mol
# GULP energy per Si atom -5588.551296 kJ/mol
# Density = 2.197394 g / cm^3
# Si number density = 22.024064 Si / 1000 Ang^3
#
#
#
# Elastic Constant Matrix: (Units=GPa)
#
#
# Indices 1 2 3 4 5 6 
#
# 1 132.6694 10.5003 57.9619 0.0000 27.0811 0.0000
# 2 10.5003 147.5195 48.4698 0.0000 16.9657 0.0000
# 3 57.9619 48.4698 102.1745 0.0000 12.3132 0.0000
# 4 0.0000 0.0000 0.0000 32.2562 0.0000 10.0009
# 5 27.0811 16.9657 12.3132 0.0000 34.6061 0.0000
# 6 0.0000 0.0000 0.0000 10.0009 0.0000 2.3374
#
#
#
# Elastic Compliance Matrix: (Units=1/GPa)
#
#
# Indices 1 2 3 4 5 6 
#
# 1 0.012059 0.002371 -0.006988 0.000000 -0.008112 0.000000
# 2 0.002371 0.008745 -0.004966 0.000000 -0.004375 0.000000
# 3 -0.006988 -0.004966 0.015833 0.000000 0.002269 0.000001
# 4 0.000000 0.000000 0.000000 -0.094931 0.000000 0.406174
# 5 -0.008112 -0.004375 0.002269 0.000000 0.036583 0.000001
# 6 0.000000 0.000000 0.000001 0.406174 0.000001 -1.310041
#
#
# Mechanical properties :
#
#
# Convention : Reuss Voigt Hill
#
# Bulk Modulus (GPa) = 57.23753 68.46971 62.85362
# Shear Modulus (GPa) = -3.82625 31.53537 13.85456
#
# Velocity S-wave (km/s) = -1.31950 3.78810 2.51084
# Velocity P-wave (km/s) = 4.87069 7.09147 6.08328
#
# Compressibility (1/GPa) = 0.01747105
#
# Stress axis : x y z
#
# Youngs Moduli (GPa) = 82.92798 114.35320 63.15768
#
# Poissons Ratio (x) = -0.27108 0.44132
# Poissons Ratio (y) = -0.19658 0.31363
# Poissons Ratio (z) = 0.57946 0.56786
#
# Static dielectric constant tensor:
#      x y z
#    x 1.814240 0.000000 0.005900 
#    y 0.000000 1.722570 0.000000 
#    z 0.005900 0.000000 1.815730 
# 
# From -- ./inp_files/149925.got.cif
#   From: 2010.05.17/outbox.cif.g08.bks.cpg/sg12_75_cif.got.tgz:149925.got - 2010.06.03 13:09:07.
