data_PCOD9219729
_publ_section_title
;
Structure prediction by ZEFSAII (Michael W. Deem and Ramdas Pophale) SiO2 
 PCOD9219729
Probable space group: C 2/M
;
_chemical_formula_sum "Si O2"
_cell_formula_units_Z 56
_cell_length_a 9.080051
_cell_length_b 28.194352
_cell_length_c 23.123676
_cell_angle_alpha 90.000000
_cell_angle_beta 30.851835
_cell_angle_gamma 90.000000
_cell_volume 3035.792073
_symmetry_space_group_name_H-M "C 2/M"
_symmetry_group_IT_number 12
_symmetry_cell_setting 'monoclinic'
loop_
_space_group_symop_operation_xyz
x,y,z
-x,y,-z
-x,-y,-z
x,-y,z
1/2+x,1/2+y,z
1/2-x,1/2+y,-z
1/2-x,1/2-y,-z
1/2+x,1/2-y,z
loop_
_atom_site_type_symbol
_atom_site_label
_atom_site_fract_x
_atom_site_fract_y
_atom_site_fract_z
Si Si1 0.191353 0.781688 0.575309
Si Si2 0.346866 0.269107 0.181622
Si Si3 0.336255 0.359689 0.870418
Si Si4 0.470447 0.943751 0.833607
Si Si5 0.637561 0.368929 0.277399
Si Si6 0.809660 0.310150 0.887021
Si Si7 0.531405 0.556990 0.086335
O O1 0.500000 0.780881 0.500000
O O2 0.250000 0.750000 0.500000
O O3 0.922856 0.755085 0.695605
O O4 0.091750 0.836903 0.611193
O O5 0.476189 0.315785 0.168334
O O6 0.223876 0.282334 0.161090
O O7 0.591490 0.228724 0.099813
O O8 0.383743 0.362853 0.784976
O O9 0.426221 0.407976 0.873686
O O10 0.000000 0.351267 0.000000
O O11 0.791433 0.922556 0.729548
O O12 0.263626 0.931597 0.848776
O O13 0.490861 0.000000 0.824506
O O14 0.290108 0.933269 0.953446
O O15 0.943440 0.347876 0.194643
O O16 0.500000 0.332287 0.000000
O O17 0.536228 0.500000 0.097876
#
# Coordination Sequence:
#
# PCOD9219729 Si02
#       7
#     8   8   8   8   8   8   8
#     4  11  23  42  59  75 103 140 188 248 291 332
#     4  11  22  36  53  78 102 143 189 227 282 336
#     4  12  21  32  51  82 121 153 185 226 269 331
#     4   9  18  35  55  80 115 153 193 227 262 324
#     4  11  22  34  55  84 108 148 193 226 281 340
#     4  11  21  34  51  75 114 146 177 219 267 336
#     4   9  19  33  52  79 118 163 191 216 261 321
#
# _framework density 18.446587000000001
#
# number of rings (size 3 to 8) (size 9 to 14) (size 15 to 20)
#    0.000    1.429    1.429    7.714    2.000    0.857 
#    0.000    0.000    0.000    0.429    0.000    1.000 
#    0.000   11.429    0.000    0.000    0.000    0.000 
#
# Total GULP energy -156088.368884 kJ/mol
# GULP energy per Si atom -5574.584603 kJ/mol
# Density = 1.840460 g / cm^3
# Si number density = 18.446587 Si / 1000 Ang^3
#
#
#
# Elastic Constant Matrix: (Units=GPa)
#
#
# Indices 1 2 3 4 5 6 
#
# 1 66.6912 21.7106 16.3931 0.0001 -16.6765 0.0011
# 2 21.7106 65.6426 11.3790 0.0002 -14.0470 -0.0004
# 3 16.3931 11.3790 48.5580 0.0053 -14.7298 0.0034
# 4 0.0001 0.0002 0.0053 40.3877 -0.0021 -3.8747
# 5 -16.6765 -14.0470 -14.7298 -0.0021 23.1135 -0.0024
# 6 0.0011 -0.0004 0.0034 -3.8747 -0.0024 38.3353
#
#
#
# Elastic Compliance Matrix: (Units=1/GPa)
#
#
# Indices 1 2 3 4 5 6 
#
# 1 0.019380 -0.003817 -0.002616 0.000001 0.009996 0.000000
# 2 -0.003817 0.018310 -0.000573 0.000001 0.008008 0.000001
# 3 -0.002616 -0.000573 0.025950 -0.000003 0.014302 -0.000002
# 4 0.000001 0.000001 -0.000003 0.025002 0.000002 0.002527
# 5 0.009996 0.008008 0.014302 0.000002 0.064458 0.000003
# 6 0.000000 0.000001 -0.000002 0.002527 0.000003 0.026341
#
#
# Mechanical properties :
#
#
# Convention : Reuss Voigt Hill
#
# Bulk Modulus (GPa) = 20.15020 31.09524 25.62272
# Shear Modulus (GPa) = 23.81019 29.12788 26.46903
#
# Velocity S-wave (km/s) = 3.59662 3.97802 3.79212
# Velocity P-wave (km/s) = 5.30988 6.16385 5.75273
#
# Compressibility (1/GPa) = 0.04962729
#
# Stress axis : x y z
#
# Youngs Moduli (GPa) = 51.60077 54.61643 38.53622
#
# Poissons Ratio (x) = 0.20848 0.10081
# Poissons Ratio (y) = 0.19697 0.02207
# Poissons Ratio (z) = 0.13498 0.03128
#
# Static dielectric constant tensor:
#      x y z
#    x 1.522470 0.000020 -0.679890 
#    y 0.000020 1.839470 0.000120 
#    z -0.679890 0.000120 -2.169900 
# 
# From -- ./inp_files/185141.got.cif
#   From: 2010.05.17/outbox.cif.g08.bks.cpg/sg12_93_cif.got.tgz:185141.got - 2010.06.03 13:09:07.
