data_PCOD9219096
_publ_section_title
;
Structure prediction by ZEFSAII (Michael W. Deem and Ramdas Pophale) SiO2 
 PCOD9219096
Probable space group: C 2/M
;
_chemical_formula_sum "Si O2"
_cell_formula_units_Z 56
_cell_length_a 17.961542
_cell_length_b 20.789240
_cell_length_c 14.354118
_cell_angle_alpha 90.000000
_cell_angle_beta 150.357346
_cell_angle_gamma 90.000000
_cell_volume 2650.960279
_symmetry_space_group_name_H-M "C 2/M"
_symmetry_group_IT_number 12
_symmetry_cell_setting 'monoclinic'
loop_
_space_group_symop_operation_xyz
x,y,z
-x,y,-z
-x,-y,-z
x,-y,z
1/2+x,1/2+y,z
1/2-x,1/2+y,-z
1/2-x,1/2-y,-z
1/2+x,1/2-y,z
loop_
_atom_site_type_symbol
_atom_site_label
_atom_site_fract_x
_atom_site_fract_y
_atom_site_fract_z
Si Si1 0.626169 0.097582 0.747440
Si Si2 0.127312 0.573126 0.955750
Si Si3 0.564573 0.314599 0.174793
Si Si4 0.100472 0.331284 0.204850
Si Si5 0.275465 0.929343 0.348049
Si Si6 0.677476 0.347708 0.696693
Si Si7 0.756185 0.776165 0.903281
O O1 0.684659 0.078770 0.912534
O O2 0.723546 0.076385 0.764102
O O3 0.454717 0.073612 0.560027
O O4 0.622910 0.174676 0.738262
O O5 0.080108 0.500000 0.923236
O O6 0.988755 0.623044 0.821387
O O7 0.256151 0.596083 0.166611
O O8 0.621696 0.242401 0.259144
O O9 0.685714 0.371917 0.301829
O O10 0.500000 0.312796 0.000000
O O11 0.410439 0.317298 0.065339
O O12 0.258584 0.355528 0.337946
O O13 0.000000 0.333154 0.000000
O O14 0.217559 0.000000 0.311815
O O15 0.500000 0.344303 0.500000
O O16 0.743320 0.281968 0.815931
O O17 0.750000 0.750000 0.000000
#
# Coordination Sequence:
#
# PCOD9219096 Si02
#       7
#     8   8   8   8   8   8   8
#     4  11  22  41  64  94 131 174 218 267 314 394
#     4  11  22  42  66  89 127 175 215 264 322 388
#     4  11  19  39  62  89 126 160 211 265 310 377
#     4   9  18  38  61  89 119 161 212 256 319 382
#     4  11  24  40  63  97 133 175 217 261 325 393
#     4  11  23  38  64  96 130 159 211 271 323 382
#     4  12  22  41  66  95 125 166 216 266 331 383
#
# _framework density 21.124420000000001
#
# number of rings (size 3 to 8) (size 9 to 14) (size 15 to 20)
#    0.000    1.143    7.143    1.714    4.000    3.143 
#    2.571    1.429    0.000    0.000    0.000    0.000 
#    0.000    0.000    0.000    0.000    0.000    0.000 
#
# Total GULP energy -156185.403830 kJ/mol
# GULP energy per Si atom -5578.050137 kJ/mol
# Density = 2.107634 g / cm^3
# Si number density = 21.124420 Si / 1000 Ang^3
#
#
#
# Elastic Constant Matrix: (Units=GPa)
#
#
# Indices 1 2 3 4 5 6 
#
# 1 90.1418 43.3228 33.3429 0.0000 21.0489 0.0000
# 2 43.3228 156.1533 22.9224 0.0000 10.1794 0.0000
# 3 33.3429 22.9224 43.8230 0.0000 21.4094 0.0000
# 4 0.0000 0.0000 0.0000 22.6652 0.0000 6.2062
# 5 21.0489 10.1794 21.4094 0.0000 30.2178 0.0000
# 6 0.0000 0.0000 0.0000 6.2062 0.0000 24.2933
#
#
#
# Elastic Compliance Matrix: (Units=1/GPa)
#
#
# Indices 1 2 3 4 5 6 
#
# 1 0.016981 -0.003079 -0.009234 0.000000 -0.004249 0.000000
# 2 -0.003079 0.007497 -0.002130 0.000000 0.001128 0.000000
# 3 -0.009234 -0.002130 0.042006 0.000000 -0.022611 0.000000
# 4 0.000000 0.000000 0.000000 0.047439 0.000000 -0.012119
# 5 -0.004249 0.001128 -0.022611 0.000000 0.051693 0.000000
# 6 0.000000 0.000000 0.000000 -0.012119 0.000000 0.044260
#
#
# Mechanical properties :
#
#
# Convention : Reuss Voigt Hill
#
# Bulk Modulus (GPa) = 26.59707 54.36604 40.48155
# Shear Modulus (GPa) = 19.89701 28.13727 24.01714
#
# Velocity S-wave (km/s) = 3.07236 3.65359 3.37551
# Velocity P-wave (km/s) = 5.02035 6.60229 5.86490
#
# Compressibility (1/GPa) = 0.03759813
#
# Stress axis : x y z
#
# Youngs Moduli (GPa) = 58.88922 133.38158 23.80636
#
# Poissons Ratio (x) = 0.41064 0.21982
# Poissons Ratio (y) = 0.18130 0.05072
# Poissons Ratio (z) = 0.54377 0.28415
#
# Static dielectric constant tensor:
#      x y z
#    x 1.810990 0.000000 0.024160 
#    y 0.000000 1.802020 0.000000 
#    z 0.024160 0.000000 1.793800 
# 
# From -- ./inp_files/227640.got.cif
#   From: 2010.05.17/outbox.cif.g08.bks.cpg/sg12_114_cif.got.tgz:227640.got - 2010.06.03 13:09:07.
