data_PCOD9219881
_publ_section_title
;
Structure prediction by ZEFSAII (Michael W. Deem and Ramdas Pophale) SiO2 
 PCOD9219881
Probable space group: C 2/M
;
_chemical_formula_sum "Si O2"
_cell_formula_units_Z 56
_cell_length_a 29.502942
_cell_length_b 8.345739
_cell_length_c 14.714583
_cell_angle_alpha 90.000000
_cell_angle_beta 59.942283
_cell_angle_gamma 90.000000
_cell_volume 3135.854023
_symmetry_space_group_name_H-M "C 2/M"
_symmetry_group_IT_number 12
_symmetry_cell_setting 'monoclinic'
loop_
_space_group_symop_operation_xyz
x,y,z
-x,y,-z
-x,-y,-z
x,-y,z
1/2+x,1/2+y,z
1/2-x,1/2+y,-z
1/2-x,1/2-y,-z
1/2+x,1/2-y,z
loop_
_atom_site_type_symbol
_atom_site_label
_atom_site_fract_x
_atom_site_fract_y
_atom_site_fract_z
Si Si1 0.913247 0.815985 0.822379
Si Si2 0.943612 0.694294 0.097175
Si Si3 0.547525 0.689041 0.519353
Si Si4 0.867306 0.685834 0.694631
Si Si5 0.024865 0.689618 0.739928
Si Si6 0.352090 0.192768 0.054021
Si Si7 0.756721 0.692486 0.888701
O O1 0.904507 0.703924 0.744932
O O2 0.970555 0.783861 0.803228
O O3 0.907481 0.000000 0.799664
O O4 0.872233 0.769611 0.940303
O O5 0.944122 0.500000 0.089688
O O6 0.940868 0.734875 0.206602
O O7 0.893352 0.746842 0.089528
O O8 0.000000 0.748528 0.000000
O O9 0.500000 0.744254 0.500000
O O10 0.539263 0.500000 0.542013
O O11 0.602458 0.721027 0.414434
O O12 0.546152 0.772419 0.618656
O O13 0.862333 0.500000 0.673662
O O14 0.811190 0.746192 0.787558
O O15 0.013901 0.500000 0.758101
O O16 0.292226 0.246604 0.121206
O O17 0.354313 0.000000 0.044451
O O18 0.757462 0.500000 0.890599
O O19 0.750000 0.750000 0.000000
#
# Coordination Sequence:
#
# PCOD9219881 Si02
#       7
#     8   8   8   8   8   8   8
#     4  12  22  32  51  82 118 149 184 229 276 327
#     4   9  18  34  56  83 112 146 188 231 272 327
#     4  11  23  37  55  83 117 146 180 231 284 331
#     4  11  23  38  57  80 109 151 192 226 273 333
#     4  11  21  36  58  81 112 151 191 228 273 334
#     4  11  21  36  57  81 113 152 190 227 277 334
#     4  11  23  37  56  83 115 147 187 232 279 331
#
# _framework density 17.857973999999999
#
# number of rings (size 3 to 8) (size 9 to 14) (size 15 to 20)
#    0.000    1.143    4.286    3.429    0.000    2.286 
#    0.000    3.571    0.000    0.857    0.000    0.000 
#    0.000    0.000    0.000    0.000    0.000    0.000 
#
# Total GULP energy -156321.502084 kJ/mol
# GULP energy per Si atom -5582.910789 kJ/mol
# Density = 1.781733 g / cm^3
# Si number density = 17.857974 Si / 1000 Ang^3
#
#
#
# Elastic Constant Matrix: (Units=GPa)
#
#
# Indices 1 2 3 4 5 6 
#
# 1 101.5023 9.1209 34.4533 0.0000 -0.8328 0.0000
# 2 9.1209 31.4514 11.5655 0.0000 -3.3866 0.0000
# 3 34.4533 11.5655 85.6509 0.0000 -1.4646 0.0000
# 4 0.0000 0.0000 0.0000 12.1654 0.0000 -9.0172
# 5 -0.8328 -3.3866 -1.4646 0.0000 30.2777 0.0000
# 6 0.0000 0.0000 0.0000 -9.0172 0.0000 18.2600
#
#
#
# Elastic Compliance Matrix: (Units=1/GPa)
#
#
# Indices 1 2 3 4 5 6 
#
# 1 0.011498 -0.001729 -0.004393 0.000000 -0.000090 0.000000
# 2 -0.001729 0.034097 -0.003848 0.000000 0.003580 0.000000
# 3 -0.004393 -0.003848 0.013964 0.000000 0.000124 0.000000
# 4 0.000000 0.000000 0.000000 0.129659 0.000000 0.064028
# 5 -0.000090 0.003580 0.000124 0.000000 0.033432 0.000000
# 6 0.000000 0.000000 0.000000 0.064028 0.000000 0.086383
#
#
# Mechanical properties :
#
#
# Convention : Reuss Voigt Hill
#
# Bulk Modulus (GPa) = 25.23970 36.54265 30.89117
# Shear Modulus (GPa) = 14.61231 23.03829 18.82530
#
# Velocity S-wave (km/s) = 2.86361 3.59567 3.25032
# Velocity P-wave (km/s) = 5.00979 6.14376 5.60552
#
# Compressibility (1/GPa) = 0.03962013
#
# Stress axis : x y z
#
# Youngs Moduli (GPa) = 86.97354 29.32836 71.61215
#
# Poissons Ratio (x) = 0.05069 0.31460
# Poissons Ratio (y) = 0.15033 0.27553
# Poissons Ratio (z) = 0.38209 0.11284
#
# Static dielectric constant tensor:
#      x y z
#    x 1.611750 0.000000 -0.006540 
#    y 0.000000 1.620710 0.000000 
#    z -0.006540 0.000000 1.624590 
# 
# From -- ./inp_files/248887.got.cif
#   From: 2010.05.17/outbox.cif.g08.bks.cpg/sg12_125_cif.got.tgz:248887.got - 2010.06.03 13:09:07.
