data_PCOD9219738
_publ_section_title
;
Structure prediction by ZEFSAII (Michael W. Deem and Ramdas Pophale) SiO2 
 PCOD9219738
Probable space group: C 2/M
;
_chemical_formula_sum "Si O2"
_cell_formula_units_Z 64
_cell_length_a 33.175520
_cell_length_b 19.136320
_cell_length_c 10.134592
_cell_angle_alpha 90.000000
_cell_angle_beta 145.101911
_cell_angle_gamma 90.000000
_cell_volume 3681.022214
_symmetry_space_group_name_H-M "C 2/M"
_symmetry_group_IT_number 12
_symmetry_cell_setting 'monoclinic'
loop_
_space_group_symop_operation_xyz
x,y,z
-x,y,-z
-x,-y,-z
x,-y,z
1/2+x,1/2+y,z
1/2-x,1/2+y,-z
1/2-x,1/2-y,-z
1/2+x,1/2-y,z
loop_
_atom_site_type_symbol
_atom_site_label
_atom_site_fract_x
_atom_site_fract_y
_atom_site_fract_z
Si Si1 0.128378 0.082677 0.342943
Si Si2 0.905269 0.147670 0.027304
Si Si3 0.169818 0.917295 0.931005
Si Si4 0.292558 0.920348 0.851792
Si Si5 0.678685 0.919427 0.756949
Si Si6 0.568627 0.349876 0.442749
Si Si7 0.595212 0.195663 0.884443
Si Si8 0.564254 0.192611 0.488532
O O1 0.211380 0.091813 0.597267
O O2 0.084515 0.111314 0.349086
O O3 0.115062 0.000000 0.289779
O O4 0.109554 0.124336 0.160844
O O5 0.860785 0.101382 0.009079
O O6 0.887821 0.228731 0.009483
O O7 0.988761 0.138005 0.276365
O O8 0.123309 0.877400 0.697949
O O9 0.165015 0.000000 0.891467
O O10 0.251716 0.897713 0.135752
O O11 0.311350 0.000000 0.862862
O O12 0.300146 0.916907 0.031145
O O13 0.345343 0.862690 0.935377
O O14 0.613590 0.867765 0.564738
O O15 0.661237 0.000000 0.679009
O O16 0.575891 0.266405 0.448530
O O17 0.584997 0.203886 0.698557
O O18 0.518453 0.174218 0.733460
#
# Coordination Sequence:
#
# PCOD9219738 Si02
#       8
#     8   8   8   8   8   8   8   8
#     4  11  23  38  54  77 108 143 182 220 260 312
#     4  11  23  36  52  78 109 140 178 222 264 310
#     4  11  21  34  53  78 106 139 179 221 265 313
#     4   9  18  34  55  78 107 142 176 215 263 316
#     4   9  18  33  54  81 109 137 175 218 262 317
#     4  11  21  36  55  77 105 141 180 219 264 314
#     4   9  18  34  54  80 110 136 174 220 264 317
#     4   9  18  33  55  81 108 138 172 219 268 313
#
# _framework density 17.386475000000001
#
# number of rings (size 3 to 8) (size 9 to 14) (size 15 to 20)
#    0.000    2.000    2.500    1.500    0.000    5.500 
#    0.000    2.500    0.000    0.000    0.000    0.000 
#    0.000    8.000    0.000    0.000    0.000    0.000 
#
# Total GULP energy -178598.524766 kJ/mol
# GULP energy per Si atom -5581.203899 kJ/mol
# Density = 1.734690 g / cm^3
# Si number density = 17.386475 Si / 1000 Ang^3
#
#
#
# Elastic Constant Matrix: (Units=GPa)
#
#
# Indices 1 2 3 4 5 6 
#
# 1 80.7671 45.9028 12.8144 0.0000 17.7888 0.0000
# 2 45.9028 76.0104 19.3179 0.0000 31.8501 0.0000
# 3 12.8144 19.3179 11.7572 0.0000 14.1281 0.0000
# 4 0.0000 0.0000 0.0000 20.9780 0.0000 7.1786
# 5 17.7888 31.8501 14.1281 0.0000 26.2111 0.0000
# 6 0.0000 0.0000 0.0000 7.1786 0.0000 34.1698
#
#
#
# Elastic Compliance Matrix: (Units=1/GPa)
#
#
# Indices 1 2 3 4 5 6 
#
# 1 0.019211 -0.012003 -0.008732 0.000000 0.006253 0.000000
# 2 -0.012003 0.035130 -0.008889 0.000000 -0.029750 0.000000
# 3 -0.008732 -0.008889 0.252845 0.000000 -0.119559 0.000000
# 4 0.000000 0.000000 0.000000 0.051362 0.000000 -0.010790
# 5 0.006253 -0.029750 -0.119559 0.000000 0.134502 0.000000
# 6 0.000000 0.000000 0.000000 -0.010790 0.000000 0.031533
#
#
# Mechanical properties :
#
#
# Convention : Reuss Voigt Hill
#
# Bulk Modulus (GPa) = 4.03325 36.06723 20.05024
# Shear Modulus (GPa) = 7.50217 22.30508 14.90362
#
# Velocity S-wave (km/s) = 2.07950 3.58564 2.93097
# Velocity P-wave (km/s) = 2.84439 6.15889 4.79700
#
# Compressibility (1/GPa) = 0.24793877
#
# Stress axis : x y z
#
# Youngs Moduli (GPa) = 52.05394 28.46595 3.95500
#
# Poissons Ratio (x) = 0.34167 0.03453
# Poissons Ratio (y) = 0.62479 0.03516
# Poissons Ratio (z) = 0.45451 0.25303
#
# Static dielectric constant tensor:
#      x y z
#    x 1.576960 0.000000 0.006220 
#    y 0.000000 1.580720 0.000000 
#    z 0.006220 0.000000 1.576720 
# 
# From -- ./inp_files/112847.got.cif
#   From: 2010.05.17/outbox.cif.g08.bks.cpg/sg12_57_cif.got.tgz:112847.got - 2010.06.03 13:09:07.
