data_PCOD9219264
_publ_section_title
;
Structure prediction by ZEFSAII (Michael W. Deem and Ramdas Pophale) SiO2 
 PCOD9219264
Probable space group: C 2/M
;
_chemical_formula_sum "Si O2"
_cell_formula_units_Z 56
_cell_length_a 15.078358
_cell_length_b 18.097902
_cell_length_c 18.932834
_cell_angle_alpha 90.000000
_cell_angle_beta 138.434759
_cell_angle_gamma 90.000000
_cell_volume 3427.841970
_symmetry_space_group_name_H-M "C 2/M"
_symmetry_group_IT_number 12
_symmetry_cell_setting 'monoclinic'
loop_
_space_group_symop_operation_xyz
x,y,z
-x,y,-z
-x,-y,-z
x,-y,z
1/2+x,1/2+y,z
1/2-x,1/2+y,-z
1/2-x,1/2-y,-z
1/2+x,1/2-y,z
loop_
_atom_site_type_symbol
_atom_site_label
_atom_site_fract_x
_atom_site_fract_y
_atom_site_fract_z
Si Si1 0.037511 0.683096 0.203027
Si Si2 0.158762 0.920289 0.108035
Si Si3 0.639467 0.738350 0.125602
Si Si4 0.876601 0.814927 0.181138
Si Si5 0.720918 0.587089 0.614987
Si Si6 0.471673 0.412871 0.366020
Si Si7 0.720336 0.913760 0.976811
O O1 0.111656 0.718211 0.180221
O O2 0.148158 0.636986 0.311512
O O3 0.967179 0.749633 0.203396
O O4 0.921790 0.627502 0.107457
O O5 0.184673 0.846013 0.166596
O O6 0.227154 0.911576 0.072381
O O7 0.199567 0.000000 0.162954
O O8 0.000000 0.923365 0.000000
O O9 0.748559 0.777516 0.141914
O O10 0.500000 0.735683 0.000000
O O11 0.949064 0.862884 0.284434
O O12 0.821752 0.868327 0.086697
O O13 0.755444 0.500000 0.633123
O O14 0.643380 0.599634 0.643277
O O15 0.611703 0.601662 0.489137
O O16 0.466893 0.500000 0.344947
O O17 0.710937 0.000000 0.992457
#
# Coordination Sequence:
#
# PCOD9219264 Si02
#       7
#     8   8   8   8   8   8   8
#     4  12  22  34  54  82 109 138 175 219 267 307
#     4   9  18  33  51  69 101 148 186 210 242 301
#     4  11  20  34  51  74 112 143 171 214 260 311
#     4  12  21  34  53  81 110 138 173 216 267 310
#     4   9  19  37  58  78 103 137 177 217 262 319
#     4   9  19  37  58  78 103 138 176 215 264 320
#     4  11  22  35  51  79 111 141 178 213 257 320
#
# _framework density 16.336808999999999
#
# number of rings (size 3 to 8) (size 9 to 14) (size 15 to 20)
#    0.000    1.571    4.286    3.857    0.000    0.571 
#    0.000    1.429    0.000    0.000    0.000    0.000 
#    0.000    3.429    0.000    0.000    0.000    0.000 
#
# Total GULP energy -156188.684511 kJ/mol
# GULP energy per Si atom -5578.167304 kJ/mol
# Density = 1.629963 g / cm^3
# Si number density = 16.336809 Si / 1000 Ang^3
#
#
#
# Elastic Constant Matrix: (Units=GPa)
#
#
# Indices 1 2 3 4 5 6 
#
# 1 53.1101 41.1815 16.6605 0.0000 15.1175 0.0000
# 2 41.1815 132.5879 63.4732 0.0000 15.5653 0.0000
# 3 16.6605 63.4732 81.9384 0.0000 13.2339 0.0000
# 4 0.0000 0.0000 0.0000 32.5712 0.0000 0.4713
# 5 15.1175 15.5653 13.2339 0.0000 8.8145 0.0000
# 6 0.0000 0.0000 0.0000 0.4713 0.0000 17.9945
#
#
#
# Elastic Compliance Matrix: (Units=1/GPa)
#
#
# Indices 1 2 3 4 5 6 
#
# 1 0.044790 -0.010399 0.011075 0.000000 -0.075082 0.000000
# 2 -0.010399 0.015042 -0.010730 0.000000 0.007383 0.000000
# 3 0.011075 -0.010730 0.024121 0.000000 -0.036261 0.000000
# 4 0.000000 0.000000 0.000000 0.030714 0.000000 -0.000804
# 5 -0.075082 0.007383 -0.036261 0.000000 0.283624 0.000000
# 6 0.000000 0.000000 0.000000 -0.000804 0.000000 0.055594
#
#
# Mechanical properties :
#
#
# Convention : Reuss Voigt Hill
#
# Bulk Modulus (GPa) = 15.66316 56.69630 36.17973
# Shear Modulus (GPa) = 10.09540 21.63079 15.86310
#
# Velocity S-wave (km/s) = 2.48857 3.64270 3.11947
# Velocity P-wave (km/s) = 4.22679 7.24378 5.93035
#
# Compressibility (1/GPa) = 0.06384408
#
# Stress axis : x y z
#
# Youngs Moduli (GPa) = 22.32658 66.47906 41.45743
#
# Poissons Ratio (x) = 0.69132 -0.45914
# Poissons Ratio (y) = 0.23218 0.44485
# Poissons Ratio (z) = -0.24727 0.71335
#
# Static dielectric constant tensor:
#      x y z
#    x 1.537210 0.000000 0.014870 
#    y 0.000000 1.576870 0.000000 
#    z 0.014870 0.000000 1.622950 
# 
# From -- ./inp_files/177160.got.cif
#   From: 2010.05.17/outbox.cif.g08.bks.cpg/sg12_89_cif.got.tgz:177160.got - 2010.06.03 13:09:07.
