data_PCOD9219054
_publ_section_title
;
Structure prediction by ZEFSAII (Michael W. Deem and Ramdas Pophale) SiO2 
 PCOD9219054
Probable space group: C 2/M
;
_chemical_formula_sum "Si O2"
_cell_formula_units_Z 40
_cell_length_a 8.964419
_cell_length_b 17.684168
_cell_length_c 12.100015
_cell_angle_alpha 90.000000
_cell_angle_beta 59.656651
_cell_angle_gamma 90.000000
_cell_volume 1655.428093
_symmetry_space_group_name_H-M "C 2/M"
_symmetry_group_IT_number 12
_symmetry_cell_setting 'monoclinic'
loop_
_space_group_symop_operation_xyz
x,y,z
-x,y,-z
-x,-y,-z
x,-y,z
1/2+x,1/2+y,z
1/2-x,1/2+y,-z
1/2-x,1/2-y,-z
1/2+x,1/2-y,z
loop_
_atom_site_type_symbol
_atom_site_label
_atom_site_fract_x
_atom_site_fract_y
_atom_site_fract_z
Si Si1 0.091555 0.307074 0.582900
Si Si2 0.846591 0.083540 0.151162
Si Si3 0.827505 0.412060 0.992979
Si Si4 0.184703 0.082522 0.371768
Si Si5 0.431503 0.316011 0.787597
O O1 0.250000 0.250000 0.500000
O O2 0.176646 0.382138 0.598510
O O3 0.000000 0.318100 0.500000
O O4 0.977645 0.264404 0.719056
O O5 0.897246 0.145837 0.222100
O O6 0.846726 0.000000 0.203408
O O7 0.677064 0.090916 0.138602
O O8 0.000000 0.084243 0.000000
O O9 0.762887 0.500000 0.039755
O O10 0.714458 0.338274 0.068861
O O11 0.000000 0.406065 0.000000
O O12 0.145489 0.137129 0.285588
O O13 0.000000 0.077572 0.500000
O O14 0.239229 0.000000 0.312250
#
# Coordination Sequence:
#
# PCOD9219054 Si02
#       5
#     8   8   8   8   8
#     4  12  23  45  66  97 133 179 216 282 347 395
#     4   8  15  30  56  91 129 171 218 269 326 391
#     4   9  18  35  59  96 142 176 220 281 332 387
#     4  11  23  42  69  99 130 172 230 280 332 409
#     4  11  19  36  67  93 129 178 216 262 338 407
#
# _framework density 24.162935999999998
#
# number of rings (size 3 to 8) (size 9 to 14) (size 15 to 20)
#    0.000    1.800    4.000    3.000    0.000    0.400 
#    3.600    0.000    0.000   15.600    0.000    0.000 
#    0.000    0.800    0.000    0.000    0.000    0.000 
#
# Total GULP energy -111656.128848 kJ/mol
# GULP energy per Si atom -5582.806442 kJ/mol
# Density = 2.410794 g / cm^3
# Si number density = 24.162936 Si / 1000 Ang^3
#
#
#
# Elastic Constant Matrix: (Units=GPa)
#
#
# Indices 1 2 3 4 5 6 
#
# 1 192.5452 52.2579 25.9441 0.0000 43.3154 0.0000
# 2 52.2579 117.4341 33.3623 0.0000 0.1136 0.0000
# 3 25.9441 33.3623 41.2222 0.0000 4.9246 0.0000
# 4 0.0000 0.0000 0.0000 14.4972 0.0000 33.0360
# 5 43.3154 0.1136 4.9246 0.0000 43.6748 0.0000
# 6 0.0000 0.0000 0.0000 33.0360 0.0000 79.0646
#
#
#
# Elastic Compliance Matrix: (Units=1/GPa)
#
#
# Indices 1 2 3 4 5 6 
#
# 1 0.007989 -0.003093 -0.001601 0.000000 -0.007734 0.000000
# 2 -0.003093 0.012298 -0.008483 0.000000 0.003992 0.000000
# 3 -0.001601 -0.008483 0.032376 0.000000 -0.002041 0.000000
# 4 0.000000 0.000000 0.000000 1.441809 0.000000 -0.602439
# 5 -0.007734 0.003992 -0.002041 0.000000 0.030787 0.000000
# 6 0.000000 0.000000 0.000000 -0.602439 0.000000 0.264369
#
#
# Mechanical properties :
#
#
# Convention : Reuss Voigt Hill
#
# Bulk Modulus (GPa) = 38.01048 63.81448 50.91248
# Shear Modulus (GPa) = 2.74010 43.42312 23.08161
#
# Velocity S-wave (km/s) = 1.06605 4.24382 3.09406
# Velocity P-wave (km/s) = 4.15696 7.10498 5.82070
#
# Compressibility (1/GPa) = 0.02630853
#
# Stress axis : x y z
#
# Youngs Moduli (GPa) = 125.17894 81.31490 30.88704
#
# Poissons Ratio (x) = 0.25148 0.04945
# Poissons Ratio (y) = 0.38713 0.26203
# Poissons Ratio (z) = 0.20040 0.68983
#
# Static dielectric constant tensor:
#      x y z
#    x 2.014790 0.000000 -0.232830 
#    y 0.000000 1.896630 0.000000 
#    z -0.232830 0.000000 2.575330 
# 
# From -- ./inp_files/194441.got.cif
#   From: 2010.05.17/outbox.cif.g08.bks.cpg/sg12_98_cif.got.tgz:194441.got - 2010.06.03 13:09:07.
