data_PCOD9219739
_publ_section_title
;
Structure prediction by ZEFSAII (Michael W. Deem and Ramdas Pophale) SiO2 
 PCOD9219739
Probable space group: C 2/M
;
_chemical_formula_sum "Si O2"
_cell_formula_units_Z 56
_cell_length_a 24.536053
_cell_length_b 7.793185
_cell_length_c 15.042503
_cell_angle_alpha 90.000000
_cell_angle_beta 111.121157
_cell_angle_gamma 90.000000
_cell_volume 2683.106391
_symmetry_space_group_name_H-M "C 2/M"
_symmetry_group_IT_number 12
_symmetry_cell_setting 'monoclinic'
loop_
_space_group_symop_operation_xyz
x,y,z
-x,y,-z
-x,-y,-z
x,-y,z
1/2+x,1/2+y,z
1/2-x,1/2+y,-z
1/2-x,1/2-y,-z
1/2+x,1/2-y,z
loop_
_atom_site_type_symbol
_atom_site_label
_atom_site_fract_x
_atom_site_fract_y
_atom_site_fract_z
Si Si1 0.184361 0.709196 0.311920
Si Si2 0.557424 0.790132 0.919705
Si Si3 0.614249 0.196905 0.777974
Si Si4 0.120851 0.698869 0.446509
Si Si5 0.187079 0.799687 0.657510
Si Si6 0.426424 0.209217 0.867461
Si Si7 0.505327 0.697570 0.603522
O O1 0.185599 0.500000 0.307376
O O2 0.169682 0.756926 0.404851
O O3 0.247416 0.769678 0.316134
O O4 0.129574 0.767766 0.220421
O O5 0.599477 0.727782 0.866034
O O6 0.489769 0.736305 0.867425
O O7 0.557762 0.000000 0.916406
O O8 0.575660 0.740752 0.030028
O O9 0.661397 0.280647 0.740854
O O10 0.552490 0.205402 0.689614
O O11 0.632116 0.000000 0.799411
O O12 0.108075 0.500000 0.420107
O O13 0.144386 0.715767 0.560092
O O14 0.060004 0.795064 0.397664
O O15 0.187406 0.000000 0.634507
O O16 0.426602 0.000000 0.865327
O O17 0.500000 0.766980 0.500000
O O18 0.525753 0.500000 0.609314
#
# Coordination Sequence:
#
# PCOD9219739 Si02
#       7
#     8   8   8   8   8   8   8
#     4   9  19  33  52  76 104 138 178 218 259 308
#     4   8  15  27  51  82 107 128 161 214 267 309
#     4  11  21  34  53  79 107 138 176 217 258 303
#     4  11  21  35  56  80 102 133 177 223 263 303
#     4  11  22  36  50  71 106 146 180 213 257 312
#     4   8  13  28  51  78 106 130 162 212 267 312
#     4  11  22  35  52  76 107 138 169 207 257 314
#
# _framework density 20.871331000000001
#
# number of rings (size 3 to 8) (size 9 to 14) (size 15 to 20)
#    0.000    2.143    1.429    3.857    0.000    2.857 
#    0.000    2.857    0.000    0.000    0.000   24.000 
#    0.000    0.000    0.000    0.000    0.000    0.000 
#
# Total GULP energy -156366.045709 kJ/mol
# GULP energy per Si atom -5584.501632 kJ/mol
# Density = 2.082383 g / cm^3
# Si number density = 20.871331 Si / 1000 Ang^3
#
#
#
# Elastic Constant Matrix: (Units=GPa)
#
#
# Indices 1 2 3 4 5 6 
#
# 1 117.0324 -3.2958 25.6199 0.0000 -24.4315 0.0000
# 2 -3.2958 29.8635 -4.0842 0.0000 0.8639 0.0000
# 3 25.6199 -4.0842 52.8504 0.0000 -20.8397 0.0000
# 4 0.0000 0.0000 0.0000 -6.2560 0.0000 0.2967
# 5 -24.4315 0.8639 -20.8397 0.0000 33.4888 0.0000
# 6 0.0000 0.0000 0.0000 0.2967 0.0000 14.5751
#
#
#
# Elastic Compliance Matrix: (Units=1/GPa)
#
#
# Indices 1 2 3 4 5 6 
#
# 1 0.010375 0.000611 -0.002655 0.000000 0.005901 0.000000
# 2 0.000611 0.033905 0.002855 0.000000 0.001348 0.000000
# 3 -0.002655 0.002855 0.026021 0.000000 0.014182 0.000000
# 4 0.000000 0.000000 0.000000 -0.159693 0.000000 0.003250
# 5 0.005901 0.001348 0.014182 0.000000 0.042956 0.000000
# 6 0.000000 0.000000 0.000000 0.003250 0.000000 0.068544
#
#
# Mechanical properties :
#
#
# Convention : Reuss Voigt Hill
#
# Bulk Modulus (GPa) = 13.90367 26.24733 20.07550
# Shear Modulus (GPa) = 112.46030 20.46203 66.46116
#
# Velocity S-wave (km/s) = 7.34844 3.13451 5.64911
# Velocity P-wave (km/s) = 8.86993 5.06984 7.22423
#
# Compressibility (1/GPa) = 0.07192347
#
# Stress axis : x y z
#
# Youngs Moduli (GPa) = 96.38563 29.49451 38.42991
#
# Poissons Ratio (x) = -0.01803 0.10205
# Poissons Ratio (y) = -0.05891 -0.10974
# Poissons Ratio (z) = 0.25594 -0.08422
#
# Static dielectric constant tensor:
#      x y z
#    x 1.753370 0.000000 -0.031930 
#    y 0.000000 1.758290 0.000000 
#    z -0.031930 0.000000 1.728570 
# 
# From -- ./inp_files/237805.got.cif
#   From: 2010.05.17/outbox.cif.g08.bks.cpg/sg12_119_cif.got.tgz:237805.got - 2010.06.03 13:09:07.
