data_PCOD9219792
_publ_section_title
;
Structure prediction by ZEFSAII (Michael W. Deem and Ramdas Pophale) SiO2 
 PCOD9219792
Probable space group: C 2/M
;
_chemical_formula_sum "Si O2"
_cell_formula_units_Z 48
_cell_length_a 14.583868
_cell_length_b 14.802816
_cell_length_c 22.340563
_cell_angle_alpha 90.000000
_cell_angle_beta 33.011871
_cell_angle_gamma 90.000000
_cell_volume 2627.595264
_symmetry_space_group_name_H-M "C 2/M"
_symmetry_group_IT_number 12
_symmetry_cell_setting 'monoclinic'
loop_
_space_group_symop_operation_xyz
x,y,z
-x,y,-z
-x,-y,-z
x,-y,z
1/2+x,1/2+y,z
1/2-x,1/2+y,-z
1/2-x,1/2-y,-z
1/2+x,1/2-y,z
loop_
_atom_site_type_symbol
_atom_site_label
_atom_site_fract_x
_atom_site_fract_y
_atom_site_fract_z
Si Si1 0.133143 0.894737 0.981538
Si Si2 0.497409 0.176845 0.256703
Si Si3 0.431306 0.500000 0.634178
Si Si4 0.847965 0.397841 0.034597
Si Si5 0.775514 0.500000 0.371357
Si Si6 0.037190 0.257336 0.853296
Si Si7 0.135275 0.819671 0.254309
O O1 0.052462 0.835135 0.078450
O O2 0.152126 0.000000 0.986142
O O3 0.310885 0.855036 0.862040
O O4 0.000000 0.886425 0.000000
O O5 0.383820 0.088630 0.325685
O O6 0.435997 0.229441 0.231255
O O7 0.500868 0.242879 0.311850
O O8 0.605225 0.500000 0.502930
O O9 0.280318 0.500000 0.668026
O O10 0.417072 0.409307 0.681378
O O11 0.810976 0.500000 0.036547
O O12 0.700943 0.352828 0.153323
O O13 0.000000 0.400995 0.000000
O O14 0.913285 0.336581 0.945108
O O15 0.210227 0.273758 0.794521
#
# Coordination Sequence:
#
# PCOD9219792 Si02
#       7
#     8   8   4   8   4   8   8
#     4  11  21  35  54  81 128 172 201 234 291 373
#     4  12  23  38  61  94 124 164 209 250 309 372
#     4  11  24  48  68  88 117 156 216 282 315 354
#     4   9  17  27  50  83 120 157 191 230 298 358
#     4  11  26  44  70  91 112 161 218 268 324 357
#     4  11  21  36  54  90 128 166 198 245 299 375
#     4  11  21  38  63  89 124 157 204 259 308 363
#
# _framework density 18.267654
#
# number of rings (size 3 to 8) (size 9 to 14) (size 15 to 20)
#    0.000    1.167    6.667    1.000    2.333    0.667 
#    1.500    0.000    0.000    0.000    0.000    1.167 
#    0.000    0.000    0.000    0.000    0.000    0.000 
#
# Total GULP energy -134116.729187 kJ/mol
# GULP energy per Si atom -5588.197049 kJ/mol
# Density = 1.822608 g / cm^3
# Si number density = 18.267654 Si / 1000 Ang^3
#
#
#
# Elastic Constant Matrix: (Units=GPa)
#
#
# Indices 1 2 3 4 5 6 
#
# 1 90.0710 47.6862 21.1155 -0.0001 -4.1939 0.0000
# 2 47.6862 145.2267 28.9447 -0.0005 -5.3776 0.0000
# 3 21.1155 28.9447 42.9698 -0.0016 -3.7828 0.0002
# 4 -0.0001 -0.0005 -0.0016 5.8426 0.0003 7.3621
# 5 -4.1939 -5.3776 -3.7828 0.0003 12.5457 -0.0001
# 6 0.0000 0.0000 0.0002 7.3621 -0.0001 22.8935
#
#
#
# Elastic Compliance Matrix: (Units=1/GPa)
#
#
# Indices 1 2 3 4 5 6 
#
# 1 0.014168 -0.003729 -0.004288 -0.000002 0.001845 0.000001
# 2 -0.003729 0.008977 -0.004094 -0.000001 0.001367 0.000000
# 3 -0.004288 -0.004094 0.028616 0.000013 0.005440 -0.000004
# 4 -0.000002 -0.000001 0.000013 0.287766 -0.000005 -0.092540
# 5 0.001845 0.001367 0.005440 -0.000005 0.082552 0.000002
# 6 0.000001 0.000000 -0.000004 -0.092540 0.000002 0.073440
#
#
# Mechanical properties :
#
#
# Convention : Reuss Voigt Hill
#
# Bulk Modulus (GPa) = 36.31255 52.64003 44.47629
# Shear Modulus (GPa) = 9.45324 20.29109 14.87216
#
# Velocity S-wave (km/s) = 2.27730 3.33643 2.85638
# Velocity P-wave (km/s) = 5.18035 6.61218 5.93957
#
# Compressibility (1/GPa) = 0.02753869
#
# Stress axis : x y z
#
# Youngs Moduli (GPa) = 70.58280 111.39736 34.94571
#
# Poissons Ratio (x) = 0.41542 0.14984
# Poissons Ratio (y) = 0.26322 0.14307
# Poissons Ratio (z) = 0.30264 0.45606
#
# Static dielectric constant tensor:
#      x y z
#    x 1.653490 0.000000 -0.014440 
#    y 0.000000 1.638810 0.000000 
#    z -0.014440 0.000000 1.596180 
# 
# From -- ./inp_files/142911.got.cif
#   From: 2010.05.17/outbox.cif.g08.bks.cpg/sg12_72_cif.got.tgz:142911.got - 2010.06.03 13:09:07.
