data_PCOD9219338
_publ_section_title
;
Structure prediction by ZEFSAII (Michael W. Deem and Ramdas Pophale) SiO2 
 PCOD9219338
Probable space group: C 2/M
;
_chemical_formula_sum "Si O2"
_cell_formula_units_Z 40
_cell_length_a 20.117718
_cell_length_b 10.305706
_cell_length_c 19.707548
_cell_angle_alpha 90.000000
_cell_angle_beta 146.851052
_cell_angle_gamma 90.000000
_cell_volume 2234.248143
_symmetry_space_group_name_H-M "C 2/M"
_symmetry_group_IT_number 12
_symmetry_cell_setting 'monoclinic'
loop_
_space_group_symop_operation_xyz
x,y,z
-x,y,-z
-x,-y,-z
x,-y,z
1/2+x,1/2+y,z
1/2-x,1/2+y,-z
1/2-x,1/2-y,-z
1/2+x,1/2-y,z
loop_
_atom_site_type_symbol
_atom_site_label
_atom_site_fract_x
_atom_site_fract_y
_atom_site_fract_z
Si Si1 0.208282 0.737487 0.263887
Si Si2 0.202382 0.000000 0.045073
Si Si3 0.738055 0.000000 0.060779
Si Si4 0.937093 0.349349 0.520999
Si Si5 0.469700 0.000000 0.893274
Si Si6 0.943295 0.000000 0.876576
Si Si7 0.822333 0.752397 0.213669
O O1 0.317797 0.761318 0.410210
O O2 0.111818 0.624714 0.194321
O O3 0.137802 0.873128 0.200123
O O4 0.267938 0.711865 0.241033
O O5 0.250520 0.872977 0.125059
O O6 0.056665 0.000000 0.922675
O O7 0.250675 0.000000 0.010165
O O8 0.800706 0.127529 0.145730
O O9 0.597734 0.000000 0.964342
O O10 0.909393 0.500000 0.514608
O O11 0.000000 0.352982 0.500000
O O12 0.038072 0.289342 0.656558
O O13 0.500000 0.000000 0.000000
O O14 0.000000 0.000000 0.000000
#
# Coordination Sequence:
#
# PCOD9219338 Si02
#       7
#     8   4   4   8   4   4   8
#     4  11  20  35  61  91 114 147 191 247 291 335
#     4  12  24  37  59  85 117 160 194 235 289 340
#     4  12  26  39  55  85 125 160 192 227 287 360
#     4   9  18  33  58  90 116 142 189 247 292 332
#     4  12  22  39  57  81 129 156 184 236 295 342
#     4  12  20  33  61  87 115 142 196 248 283 326
#     4  11  20  38  60  84 120 153 191 240 288 340
#
# _framework density 17.903113999999999
#
# number of rings (size 3 to 8) (size 9 to 14) (size 15 to 20)
#    0.000    1.000    6.000    2.400    0.000    0.800 
#    0.000    3.000    0.000    7.200    0.000    0.000 
#    0.000    0.000    0.000    0.000    0.000    0.000 
#
# Total GULP energy -111726.400159 kJ/mol
# GULP energy per Si atom -5586.320008 kJ/mol
# Density = 1.786237 g / cm^3
# Si number density = 17.903114 Si / 1000 Ang^3
#
#
#
# Elastic Constant Matrix: (Units=GPa)
#
#
# Indices 1 2 3 4 5 6 
#
# 1 59.7083 -17.2409 10.9252 0.0000 3.1213 0.0000
# 2 -17.2409 89.3145 20.6703 0.0000 6.2188 0.0000
# 3 10.9252 20.6703 86.4207 0.0000 21.8744 0.0000
# 4 0.0000 0.0000 0.0000 33.2117 0.0000 11.3208
# 5 3.1213 6.2188 21.8744 0.0000 18.8845 0.0000
# 6 0.0000 0.0000 0.0000 11.3208 0.0000 2.5779
#
#
#
# Elastic Compliance Matrix: (Units=1/GPa)
#
#
# Indices 1 2 3 4 5 6 
#
# 1 0.018647 0.004398 -0.003201 0.000000 -0.000822 0.000000
# 2 0.004398 0.012900 -0.003370 0.000000 -0.001071 0.000000
# 3 -0.003201 -0.003370 0.017497 0.000000 -0.018629 0.000000
# 4 0.000000 0.000000 0.000000 -0.060593 0.000000 0.266093
# 5 -0.000822 -0.001071 -0.018629 0.000000 0.075020 0.000000
# 6 0.000000 0.000000 0.000000 0.266093 0.000000 -0.780634
#
#
# Mechanical properties :
#
#
# Convention : Reuss Voigt Hill
#
# Bulk Modulus (GPa) = 22.37321 29.35030 25.86175
# Shear Modulus (GPa) = -7.16418 25.67408 9.25495
#
# Velocity S-wave (km/s) = -2.00258 3.79100 2.27611
# Velocity P-wave (km/s) = 2.67896 5.96589 4.62432
#
# Compressibility (1/GPa) = 0.04469632
#
# Stress axis : x y z
#
# Youngs Moduli (GPa) = 53.62920 77.52048 57.15186
#
# Poissons Ratio (x) = -0.34090 0.18294
# Poissons Ratio (y) = -0.23583 0.19262
# Poissons Ratio (z) = 0.17166 0.26126
#
# Static dielectric constant tensor:
#      x y z
#    x 1.600190 0.000000 0.014630 
#    y 0.000000 1.563170 0.000000 
#    z 0.014630 0.000000 1.612750 
# 
# From -- ./inp_files/283453.got.cif
#   From: 2010.05.17/outbox.cif.g08.bks.cpg/sg12_142_cif.got.tgz:283453.got - 2010.06.03 13:09:07.
