data_PCOD9219986
_publ_section_title
;
Structure prediction by ZEFSAII (Michael W. Deem and Ramdas Pophale) SiO2 
 PCOD9219986
Probable space group: C 2/M
;
_chemical_formula_sum "Si O2"
_cell_formula_units_Z 42
_cell_length_a 14.858614
_cell_length_b 17.808339
_cell_length_c 8.124610
_cell_angle_alpha 90.000000
_cell_angle_beta 54.394876
_cell_angle_gamma 90.000000
_cell_volume 1747.916962
_symmetry_space_group_name_H-M "C 2/M"
_symmetry_group_IT_number 12
_symmetry_cell_setting 'monoclinic'
loop_
_space_group_symop_operation_xyz
x,y,z
-x,y,-z
-x,-y,-z
x,-y,z
1/2+x,1/2+y,z
1/2-x,1/2+y,-z
1/2-x,1/2-y,-z
1/2+x,1/2-y,z
loop_
_atom_site_type_symbol
_atom_site_label
_atom_site_fract_x
_atom_site_fract_y
_atom_site_fract_z
Si Si1 0.161227 0.410772 0.915276
Si Si2 0.450825 0.701365 0.374783
Si Si3 0.000000 0.500000 0.500000
Si Si4 0.874322 0.085729 0.211418
Si Si5 0.187299 0.825944 0.023559
Si Si6 0.933463 0.629950 0.331922
O O1 0.150920 0.500000 0.947150
O O2 0.275389 0.381564 0.870138
O O3 0.138884 0.389531 0.751108
O O4 0.060900 0.374871 0.128496
O O5 0.500000 0.682654 0.500000
O O6 0.377474 0.637603 0.369508
O O7 0.561096 0.700053 0.147441
O O8 0.406352 0.786084 0.421521
O O9 0.932545 0.566214 0.469966
O O10 0.841148 0.000000 0.278978
O O11 0.797473 0.127542 0.159860
O O12 0.000000 0.081135 0.000000
O O13 0.250000 0.750000 0.000000
#
# Coordination Sequence:
#
# PCOD9219986 Si02
#       6
#     8   8   2   8   8   8
#     4  11  21  37  61  89 116 156 208 245 292 357
#     4  11  23  39  62  88 122 160 199 250 313 364
#     4  12  20  38  60  88 130 158 192 236 310 378
#     4   9  20  39  61  85 114 162 211 248 294 356
#     4  11  21  37  63  89 116 154 205 256 294 354
#     4  11  21  37  61  90 121 163 197 243 303 371
#
# _framework density 24.028601999999999
#
# number of rings (size 3 to 8) (size 9 to 14) (size 15 to 20)
#    0.000    1.333    4.762    2.286    5.333    1.143 
#    0.000    5.714    0.000    0.000    0.000    0.000 
#    0.000    0.000    0.000    0.000    0.000    0.000 
#
# Total GULP energy -117176.786052 kJ/mol
# GULP energy per Si atom -5579.846955 kJ/mol
# Density = 2.397391 g / cm^3
# Si number density = 24.028602 Si / 1000 Ang^3
#
#
#
# Elastic Constant Matrix: (Units=GPa)
#
#
# Indices 1 2 3 4 5 6 
#
# 1 95.0360 83.4909 35.1931 0.0000 37.6072 0.0000
# 2 83.4909 239.8976 58.4604 0.0000 48.7882 0.0000
# 3 35.1931 58.4604 43.8619 0.0000 19.2180 0.0000
# 4 0.0000 0.0000 0.0000 15.6662 0.0000 10.3961
# 5 37.6072 48.7882 19.2180 0.0000 67.9590 0.0000
# 6 0.0000 0.0000 0.0000 10.3961 0.0000 22.8548
#
#
#
# Elastic Compliance Matrix: (Units=1/GPa)
#
#
# Indices 1 2 3 4 5 6 
#
# 1 0.018718 -0.003420 -0.007987 0.000000 -0.005644 0.000000
# 2 -0.003420 0.007163 -0.006139 0.000000 -0.001513 0.000000
# 3 -0.007987 -0.006139 0.038263 0.000000 -0.001993 0.000000
# 4 0.000000 0.000000 0.000000 0.091430 0.000000 -0.041589
# 5 -0.005644 -0.001513 -0.001993 0.000000 0.019488 0.000000
# 6 0.000000 0.000000 0.000000 -0.041589 0.000000 0.062673
#
#
# Mechanical properties :
#
#
# Convention : Reuss Voigt Hill
#
# Bulk Modulus (GPa) = 34.42251 81.45381 57.93816
# Shear Modulus (GPa) = 17.69834 34.73940 26.21887
#
# Velocity S-wave (km/s) = 2.71690 3.80643 3.30684
# Velocity P-wave (km/s) = 4.91922 7.30006 6.22453
#
# Compressibility (1/GPa) = 0.02905076
#
# Stress axis : x y z
#
# Youngs Moduli (GPa) = 53.42345 139.61439 26.13471
#
# Poissons Ratio (x) = 0.47751 0.20875
# Poissons Ratio (y) = 0.18272 0.16045
# Poissons Ratio (z) = 0.42671 0.85712
#
# Static dielectric constant tensor:
#      x y z
#    x 1.923760 0.000000 -0.092490 
#    y 0.000000 1.811700 0.000000 
#    z -0.092490 0.000000 2.076880 
# 
# From -- ./inp_files/61007.got.cif
#   From: 2010.05.17/outbox.cif.g08.bks.cpg/sg12_31_cif.got.tgz:61007.got - 2010.06.03 13:09:07.
