data_PCOD9219408
_publ_section_title
;
Structure prediction by ZEFSAII (Michael W. Deem and Ramdas Pophale) SiO2 
 PCOD9219408
Probable space group: C 2/M
;
_chemical_formula_sum "Si O2"
_cell_formula_units_Z 42
_cell_length_a 21.157789
_cell_length_b 13.407521
_cell_length_c 16.038547
_cell_angle_alpha 90.000000
_cell_angle_beta 155.150513
_cell_angle_gamma 90.000000
_cell_volume 1911.952179
_symmetry_space_group_name_H-M "C 2/M"
_symmetry_group_IT_number 12
_symmetry_cell_setting 'monoclinic'
loop_
_space_group_symop_operation_xyz
x,y,z
-x,y,-z
-x,-y,-z
x,-y,z
1/2+x,1/2+y,z
1/2-x,1/2+y,-z
1/2-x,1/2-y,-z
1/2+x,1/2-y,z
loop_
_atom_site_type_symbol
_atom_site_label
_atom_site_fract_x
_atom_site_fract_y
_atom_site_fract_z
Si Si1 0.786349 0.319928 0.743298
Si Si2 0.500000 0.000000 0.000000
Si Si3 0.851396 0.000000 0.766115
Si Si4 0.326633 0.000000 0.273999
Si Si5 0.889532 0.796384 0.715113
Si Si6 0.961993 0.885272 0.354709
Si Si7 0.730711 0.713561 0.104795
O O1 0.888128 0.269295 0.796253
O O2 0.624373 0.354028 0.512325
O O3 0.758741 0.244147 0.785009
O O4 0.877007 0.415327 0.881168
O O5 0.736373 0.000000 0.705822
O O6 0.852984 0.905981 0.706121
O O7 0.000000 0.000000 0.000000
O O8 0.500000 0.000000 0.500000
O O9 0.283455 0.901083 0.169727
O O10 0.750000 0.750000 0.500000
O O11 0.053752 0.786548 0.870566
O O12 0.835228 0.799743 0.188160
O O13 0.000000 0.886390 0.500000
O O14 0.921440 0.000000 0.282943
#
# Coordination Sequence:
#
# PCOD9219408 Si02
#       7
#     8   2   4   4   8   8   8
#     4  11  20  37  60  93 121 168 209 261 319 388
#     4  12  20  30  64  92 124 148 208 256 306 374
#     4  12  22  47  73  91 130 180 222 280 329 384
#     4  12  22  38  74 102 119 162 239 286 317 386
#     4  12  25  41  63  94 131 170 217 267 327 393
#     4   9  19  33  57  90 127 157 204 265 324 379
#     4  11  21  38  63  92 124 162 216 270 325 385
#
# _framework density 21.967077
#
# number of rings (size 3 to 8) (size 9 to 14) (size 15 to 20)
#    0.000    0.952    6.667    1.714    1.333    0.762 
#    1.714    0.952    0.000    0.000    0.000    0.000 
#    0.000    0.000    0.000    0.000    0.000    0.000 
#
# Total GULP energy -116925.680441 kJ/mol
# GULP energy per Si atom -5567.889545 kJ/mol
# Density = 2.191708 g / cm^3
# Si number density = 21.967077 Si / 1000 Ang^3
#
#
#
# Elastic Constant Matrix: (Units=GPa)
#
#
# Indices 1 2 3 4 5 6 
#
# 1 47.1679 24.9127 28.9966 0.0000 23.2284 0.0000
# 2 24.9127 219.1637 77.7844 -0.0001 12.7132 0.0000
# 3 28.9966 77.7844 165.9485 -0.0003 33.9134 -0.0001
# 4 0.0000 -0.0001 -0.0003 34.6889 -0.0002 6.9693
# 5 23.2284 12.7132 33.9134 -0.0002 46.8410 0.0000
# 6 0.0000 0.0000 -0.0001 6.9693 0.0000 22.4780
#
#
#
# Elastic Compliance Matrix: (Units=1/GPa)
#
#
# Indices 1 2 3 4 5 6 
#
# 1 0.029660 -0.002065 -0.001553 0.000000 -0.013023 0.000000
# 2 -0.002065 0.005625 -0.002550 0.000000 0.001344 0.000000
# 3 -0.001553 -0.002550 0.008443 0.000000 -0.004650 0.000000
# 4 0.000000 0.000000 0.000000 0.030743 0.000000 -0.009532
# 5 -0.013023 0.001344 -0.004650 0.000000 0.030809 0.000000
# 6 0.000000 0.000000 0.000000 -0.009532 0.000000 0.047443
#
#
# Mechanical properties :
#
#
# Convention : Reuss Voigt Hill
#
# Bulk Modulus (GPa) = 31.85628 77.29641 54.57635
# Shear Modulus (GPa) = 28.48628 40.84066 34.66347
#
# Velocity S-wave (km/s) = 3.60498 4.31649 3.97668
# Velocity P-wave (km/s) = 5.64457 7.75284 6.78114
#
# Compressibility (1/GPa) = 0.03139098
#
# Stress axis : x y z
#
# Youngs Moduli (GPa) = 33.71575 177.78777 118.43955
#
# Poissons Ratio (x) = 0.36709 0.18397
# Poissons Ratio (y) = 0.06961 0.30205
# Poissons Ratio (z) = 0.05237 0.45341
#
# Static dielectric constant tensor:
#      x y z
#    x 1.761530 0.000000 -0.014350 
#    y 0.000000 1.812120 0.000000 
#    z -0.014350 0.000000 1.831570 
# 
# From -- ./inp_files/327921.got.cif
#   From: 2010.05.17/outbox.cif.g08.bks.cpg/sg12_164_cif.got.tgz:327921.got - 2010.06.03 13:09:07.
