data_PCOD9219828
_publ_section_title
;
Structure prediction by ZEFSAII (Michael W. Deem and Ramdas Pophale) SiO2 
 PCOD9219828
Probable space group: C 2/M
;
_chemical_formula_sum "Si O2"
_cell_formula_units_Z 32
_cell_length_a 20.441379
_cell_length_b 8.665473
_cell_length_c 10.446060
_cell_angle_alpha 90.000000
_cell_angle_beta 105.809725
_cell_angle_gamma 90.000000
_cell_volume 1780.359015
_symmetry_space_group_name_H-M "C 2/M"
_symmetry_group_IT_number 12
_symmetry_cell_setting 'monoclinic'
loop_
_space_group_symop_operation_xyz
x,y,z
-x,y,-z
-x,-y,-z
x,-y,z
1/2+x,1/2+y,z
1/2-x,1/2+y,-z
1/2-x,1/2-y,-z
1/2+x,1/2-y,z
loop_
_atom_site_type_symbol
_atom_site_label
_atom_site_fract_x
_atom_site_fract_y
_atom_site_fract_z
Si Si1 0.294905 0.315334 0.640389
Si Si2 0.287045 0.815198 0.144134
Si Si3 0.430731 0.184398 0.613280
Si Si4 0.576363 0.684308 0.677070
O O1 0.299657 0.500000 0.630061
O O2 0.250000 0.250000 0.500000
O O3 0.257677 0.279177 0.753583
O O4 0.369429 0.242281 0.668478
O O5 0.360781 0.740361 0.204914
O O6 0.293880 0.000000 0.139566
O O7 0.250000 0.750000 0.000000
O O8 0.415511 0.243856 0.460848
O O9 0.503753 0.254939 0.687834
O O10 0.434302 0.000000 0.613410
O O11 0.575202 0.500000 0.665856
#
# Coordination Sequence:
#
# PCOD9219828 Si02
#       4
#     8   8   8   8
#     4  11  22  37  60  89 120 154 198 246 294 348
#     4  11  24  41  61  87 121 159 198 242 296 356
#     4  11  21  35  58  88 121 153 195 247 296 348
#     4  11  21  36  59  86 119 156 197 243 296 352
#
# _framework density 17.973901999999999
#
# number of rings (size 3 to 8) (size 9 to 14) (size 15 to 20)
#    0.000    1.000    2.500    7.500    0.000    3.000 
#    0.000    1.250    0.000    7.500    0.000    0.000 
#    0.000    0.000    0.000    0.000    0.000    0.000 
#
# Total GULP energy -89475.675141 kJ/mol
# GULP energy per Si atom -5592.229696 kJ/mol
# Density = 1.793299 g / cm^3
# Si number density = 17.973902 Si / 1000 Ang^3
#
#
#
# Elastic Constant Matrix: (Units=GPa)
#
#
# Indices 1 2 3 4 5 6 
#
# 1 158.3808 69.7398 68.8797 0.0000 20.8376 0.0000
# 2 69.7398 130.6718 62.0674 0.0000 3.4837 0.0000
# 3 68.8797 62.0674 108.5215 0.0000 17.3510 0.0000
# 4 0.0000 0.0000 0.0000 28.3346 0.0000 3.7765
# 5 20.8376 3.4837 17.3510 0.0000 28.7089 0.0000
# 6 0.0000 0.0000 0.0000 3.7765 0.0000 36.3127
#
#
#
# Elastic Compliance Matrix: (Units=1/GPa)
#
#
# Indices 1 2 3 4 5 6 
#
# 1 0.010055 -0.003523 -0.003618 0.000000 -0.004684 0.000000
# 2 -0.003523 0.011921 -0.005269 0.000000 0.004295 0.000000
# 3 -0.003618 -0.005269 0.015500 0.000000 -0.006103 0.000000
# 4 0.000000 0.000000 0.000000 0.035789 0.000000 -0.003722
# 5 -0.004684 0.004295 -0.006103 0.000000 0.041399 0.000000
# 6 0.000000 0.000000 0.000000 -0.003722 0.000000 0.027926
#
#
# Mechanical properties :
#
#
# Convention : Reuss Voigt Hill
#
# Bulk Modulus (GPa) = 79.00971 88.77199 83.89085
# Shear Modulus (GPa) = 29.13276 31.79707 30.46491
#
# Velocity S-wave (km/s) = 4.03033 4.21059 4.12145
# Velocity P-wave (km/s) = 8.10626 8.55192 8.33207
#
# Compressibility (1/GPa) = 0.01265667
#
# Stress axis : x y z
#
# Youngs Moduli (GPa) = 99.45394 83.88565 64.51456
#
# Poissons Ratio (x) = 0.29552 0.23343
# Poissons Ratio (y) = 0.35036 0.33991
# Poissons Ratio (z) = 0.35985 0.44197
#
# Static dielectric constant tensor:
#      x y z
#    x 1.621770 0.000000 -0.002420 
#    y 0.000000 1.597820 0.000000 
#    z -0.002420 0.000000 1.583710 
# 
# From -- ./inp_files/81848.got.cif
#   From: 2010.05.17/outbox.cif.g08.bks.cpg/sg12_41_cif.got.tgz:81848.got - 2010.06.03 13:09:07.
