data_PCOD9219013
_publ_section_title
;
Structure prediction by ZEFSAII (Michael W. Deem and Ramdas Pophale) SiO2 
 PCOD9219013
Probable space group: C 2/M
;
_chemical_formula_sum "Si O2"
_cell_formula_units_Z 48
_cell_length_a 13.442806
_cell_length_b 22.802395
_cell_length_c 8.210115
_cell_angle_alpha 90.000000
_cell_angle_beta 112.165538
_cell_angle_gamma 90.000000
_cell_volume 2330.646634
_symmetry_space_group_name_H-M "C 2/M"
_symmetry_group_IT_number 12
_symmetry_cell_setting 'monoclinic'
loop_
_space_group_symop_operation_xyz
x,y,z
-x,y,-z
-x,-y,-z
x,-y,z
1/2+x,1/2+y,z
1/2-x,1/2+y,-z
1/2-x,1/2-y,-z
1/2+x,1/2-y,z
loop_
_atom_site_type_symbol
_atom_site_label
_atom_site_fract_x
_atom_site_fract_y
_atom_site_fract_z
Si Si1 0.830206 0.862016 0.692686
Si Si2 0.953181 0.787368 0.222469
Si Si3 0.192312 0.888945 0.987633
Si Si4 0.873189 0.931883 0.407286
Si Si5 0.606146 0.828463 0.999525
Si Si6 0.271854 0.252728 0.324190
O O1 0.812573 0.893021 0.507265
O O2 0.741602 0.817000 0.711181
O O3 0.935279 0.821001 0.729387
O O4 0.840088 0.908059 0.849312
O O5 0.872355 0.827840 0.070146
O O6 0.888462 0.778451 0.351328
O O7 0.946324 0.722891 0.142677
O O8 0.157284 0.922451 0.800856
O O9 0.316988 0.875079 0.037696
O O10 0.000000 0.917143 0.500000
O O11 0.859329 0.000000 0.439732
O O12 0.685012 0.792327 0.173117
O O13 0.500000 0.859332 0.000000
O O14 0.250000 0.250000 0.500000
#
# Coordination Sequence:
#
# PCOD9219013 Si02
#       6
#     8   8   8   8   8   8
#     4  12  21  38  61  84 124 169 196 241 309 363
#     4  11  19  35  51  85 120 159 195 230 282 373
#     4  11  21  38  62  83 118 165 205 244 306 362
#     4  11  26  42  60  89 119 155 214 268 304 352
#     4  11  19  36  55  84 125 157 199 245 286 370
#     4  11  22  31  51  83 122 163 203 231 289 368
#
# _framework density 20.595143
#
# number of rings (size 3 to 8) (size 9 to 14) (size 15 to 20)
#    0.000    0.833    6.667    3.500    0.000    0.667 
#    0.000    1.667    0.000    0.500    0.000    1.167 
#    0.000    0.000    0.000    0.000    0.000    0.000 
#
# Total GULP energy -133650.541782 kJ/mol
# GULP energy per Si atom -5568.772574 kJ/mol
# Density = 2.054827 g / cm^3
# Si number density = 20.595143 Si / 1000 Ang^3
#
#
#
# Elastic Constant Matrix: (Units=GPa)
#
#
# Indices 1 2 3 4 5 6 
#
# 1 115.1118 20.5567 35.7560 0.0000 -7.1073 0.0000
# 2 20.5567 39.6170 15.8716 0.0000 -2.7184 0.0000
# 3 35.7560 15.8716 108.9217 0.0000 -36.4981 0.0000
# 4 0.0000 0.0000 0.0000 12.5067 0.0000 -0.8888
# 5 -7.1073 -2.7184 -36.4981 0.0000 30.7071 0.0000
# 6 0.0000 0.0000 0.0000 -0.8888 0.0000 10.1211
#
#
#
# Elastic Compliance Matrix: (Units=1/GPa)
#
#
# Indices 1 2 3 4 5 6 
#
# 1 0.010387 -0.004123 -0.003533 0.000000 -0.002160 0.000000
# 2 -0.004123 0.028708 -0.003819 0.000000 -0.002952 0.000000
# 3 -0.003533 -0.003819 0.017466 0.000000 0.019605 0.000000
# 4 0.000000 0.000000 0.000000 0.080460 0.000000 0.007065
# 5 -0.002160 -0.002952 0.019605 0.000000 0.055106 0.000000
# 6 0.000000 0.000000 0.000000 0.007065 0.000000 0.099424
#
#
# Mechanical properties :
#
#
# Convention : Reuss Voigt Hill
#
# Bulk Modulus (GPa) = 29.75067 45.33543 37.54305
# Shear Modulus (GPa) = 15.35130 23.43139 19.39135
#
# Velocity S-wave (km/s) = 2.73314 3.37666 3.07180
# Velocity P-wave (km/s) = 4.94337 6.10434 5.55427
#
# Compressibility (1/GPa) = 0.03361269
#
# Stress axis : x y z
#
# Youngs Moduli (GPa) = 96.26963 34.83308 57.25286
#
# Poissons Ratio (x) = 0.14361 0.20227
# Poissons Ratio (y) = 0.39689 0.21865
# Poissons Ratio (z) = 0.34012 0.13303
#
# Static dielectric constant tensor:
#      x y z
#    x 1.799420 0.000000 -0.030250 
#    y 0.000000 1.820380 0.000000 
#    z -0.030250 0.000000 1.981100 
# 
# From -- ./inp_files/64859.got.cif
#   From: 2010.05.17/outbox.cif.g08.bks.cpg/sg12_33_cif.got.tgz:64859.got - 2010.06.03 13:09:07.
