data_PCOD9219586
_publ_section_title
;
Structure prediction by ZEFSAII (Michael W. Deem and Ramdas Pophale) SiO2 
 PCOD9219586
Probable space group: C 2/M
;
_chemical_formula_sum "Si O2"
_cell_formula_units_Z 56
_cell_length_a 11.211411
_cell_length_b 30.250377
_cell_length_c 9.680295
_cell_angle_alpha 90.000000
_cell_angle_beta 118.220251
_cell_angle_gamma 90.000000
_cell_volume 2892.829169
_symmetry_space_group_name_H-M "C 2/M"
_symmetry_group_IT_number 12
_symmetry_cell_setting 'monoclinic'
loop_
_space_group_symop_operation_xyz
x,y,z
-x,y,-z
-x,-y,-z
x,-y,z
1/2+x,1/2+y,z
1/2-x,1/2+y,-z
1/2-x,1/2-y,-z
1/2+x,1/2-y,z
loop_
_atom_site_type_symbol
_atom_site_label
_atom_site_fract_x
_atom_site_fract_y
_atom_site_fract_z
Si Si1 0.076839 0.188143 0.312857
Si Si2 0.152279 0.874486 0.841398
Si Si3 0.222049 0.656663 0.812832
Si Si4 0.983572 0.712435 0.657606
Si Si5 0.772783 0.637167 0.618536
Si Si6 0.350779 0.078280 0.416593
Si Si7 0.451000 0.549314 0.814220
O O1 0.156330 0.172949 0.218796
O O2 0.076735 0.240198 0.336399
O O3 0.144053 0.161015 0.475681
O O4 0.924779 0.171928 0.215534
O O5 0.244601 0.878009 0.757807
O O6 0.037046 0.912501 0.785628
O O7 0.230015 0.870292 0.028104
O O8 0.137677 0.622356 0.671986
O O9 0.130239 0.698953 0.796362
O O10 0.885812 0.674616 0.661884
O O11 0.000000 0.711247 0.500000
O O12 0.814354 0.595538 0.548690
O O13 0.500000 0.056527 0.500000
O O14 0.211638 0.055677 0.287218
O O15 0.484066 0.500000 0.780986
O O16 0.500000 0.552109 0.000000
#
# Coordination Sequence:
#
# PCOD9219586 Si02
#       7
#     8   8   8   8   8   8   8
#     4  11  23  37  61  82 119 167 213 261 301 364
#     4  12  23  40  60  91 124 160 203 261 320 368
#     4  11  22  40  59  84 124 168 207 259 306 364
#     4  12  22  39  59  87 121 168 220 257 299 366
#     4  11  22  37  61  89 120 168 207 253 315 366
#     4  11  20  42  67  92 124 163 208 251 314 374
#     4  11  23  42  72  99 122 159 207 256 316 385
#
# _framework density 19.358214
#
# number of rings (size 3 to 8) (size 9 to 14) (size 15 to 20)
#    0.000    0.714    8.571    2.143    2.000    1.429 
#    2.571    1.429    0.000    0.000    0.000    3.000 
#    0.000    0.000    0.000    0.000    0.000    0.000 
#
# Total GULP energy -156271.890143 kJ/mol
# GULP energy per Si atom -5581.138934 kJ/mol
# Density = 1.931415 g / cm^3
# Si number density = 19.358214 Si / 1000 Ang^3
#
#
#
# Elastic Constant Matrix: (Units=GPa)
#
#
# Indices 1 2 3 4 5 6 
#
# 1 90.9135 29.4713 64.9504 0.0000 -6.0858 0.0000
# 2 29.4713 77.9715 24.5512 0.0000 -6.4088 0.0000
# 3 64.9504 24.5512 90.9696 0.0000 -9.7575 0.0000
# 4 0.0000 0.0000 0.0000 8.9160 0.0000 4.2282
# 5 -6.0858 -6.4088 -9.7575 0.0000 24.6189 0.0000
# 6 0.0000 0.0000 0.0000 4.2282 0.0000 8.0634
#
#
#
# Elastic Compliance Matrix: (Units=1/GPa)
#
#
# Indices 1 2 3 4 5 6 
#
# 1 0.023561 -0.004024 -0.015899 0.000000 -0.001525 0.000000
# 2 -0.004024 0.014824 -0.000856 0.000000 0.002525 0.000000
# 3 -0.015899 -0.000856 0.023113 0.000000 0.005007 0.000000
# 4 0.000000 0.000000 0.000000 0.149277 0.000000 -0.078276
# 5 -0.001525 0.002525 0.005007 0.000000 0.042884 0.000000
# 6 0.000000 0.000000 0.000000 -0.078276 0.000000 0.165062
#
#
# Mechanical properties :
#
#
# Convention : Reuss Voigt Hill
#
# Bulk Modulus (GPa) = 50.15923 55.31115 52.73519
# Shear Modulus (GPa) = 10.70834 17.71178 14.21006
#
# Velocity S-wave (km/s) = 2.35450 3.02809 2.71229
# Velocity P-wave (km/s) = 5.77572 6.39220 6.09176
#
# Compressibility (1/GPa) = 0.01993651
#
# Stress axis : x y z
#
# Youngs Moduli (GPa) = 42.44344 67.46028 43.26631
#
# Poissons Ratio (x) = 0.27149 0.68790
# Poissons Ratio (y) = 0.17081 0.03706
# Poissons Ratio (z) = 0.67482 0.05778
#
# Static dielectric constant tensor:
#      x y z
#    x 1.716090 0.000000 0.033530 
#    y 0.000000 1.659120 0.000000 
#    z 0.033530 0.000000 1.703410 
# 
# From -- ./inp_files/54815.got.cif
#   From: 2010.05.17/outbox.cif.g08.bks.cpg/sg12_28_cif.got.tgz:54815.got - 2010.06.03 13:09:07.
