data_PCOD9219288
_publ_section_title
;
Structure prediction by ZEFSAII (Michael W. Deem and Ramdas Pophale) SiO2 
 PCOD9219288
Probable space group: C 2/M
;
_chemical_formula_sum "Si O2"
_cell_formula_units_Z 48
_cell_length_a 10.173620
_cell_length_b 29.169814
_cell_length_c 15.445765
_cell_angle_alpha 90.000000
_cell_angle_beta 35.690652
_cell_angle_gamma 90.000000
_cell_volume 2674.185336
_symmetry_space_group_name_H-M "C 2/M"
_symmetry_group_IT_number 12
_symmetry_cell_setting 'monoclinic'
loop_
_space_group_symop_operation_xyz
x,y,z
-x,y,-z
-x,-y,-z
x,-y,z
1/2+x,1/2+y,z
1/2-x,1/2+y,-z
1/2-x,1/2-y,-z
1/2+x,1/2-y,z
loop_
_atom_site_type_symbol
_atom_site_label
_atom_site_fract_x
_atom_site_fract_y
_atom_site_fract_z
Si Si1 0.639860 0.054277 0.219990
Si Si2 0.353248 0.210679 0.325603
Si Si3 0.246997 0.117075 0.162966
Si Si4 0.932908 0.785206 0.682687
Si Si5 0.552546 0.444842 0.114631
Si Si6 0.233550 0.609069 0.655787
O O1 0.395056 0.076529 0.341802
O O2 0.806298 0.068654 0.208715
O O3 0.616203 0.000000 0.240221
O O4 0.774598 0.063189 0.057892
O O5 0.254204 0.228044 0.287842
O O6 0.537229 0.245215 0.263639
O O7 0.397986 0.157380 0.283033
O O8 0.158416 0.210195 0.503585
O O9 0.119935 0.165178 0.248472
O O10 0.127465 0.085058 0.156347
O O11 0.274978 0.092252 0.240839
O O12 0.500000 0.128553 0.000000
O O13 0.553747 0.500000 0.131128
O O14 0.500000 0.616748 0.500000
#
# Coordination Sequence:
#
# PCOD9219288 Si02
#       6
#     8   8   8   8   8   8
#     4   9  19  36  57  80 111 149 184 224 275 331
#     4   9  17  34  54  73 104 144 180 214 266 329
#     4  11  20  34  57  86 111 139 184 235 271 319
#     4   9  18  33  53  76 103 141 181 219 264 323
#     4   9  19  36  57  81 110 147 188 224 271 332
#     4  11  20  36  56  83 115 145 181 227 279 326
#
# _framework density 17.949390999999999
#
# number of rings (size 3 to 8) (size 9 to 14) (size 15 to 20)
#    0.000    2.333    5.000    1.000    0.000    2.667 
#    0.000    4.167    3.667    2.000    0.000    0.000 
#    0.000    0.000    0.000    0.000    0.000    0.000 
#
# Total GULP energy -133616.349655 kJ/mol
# GULP energy per Si atom -5567.347902 kJ/mol
# Density = 1.790854 g / cm^3
# Si number density = 17.949391 Si / 1000 Ang^3
#
#
#
# Elastic Constant Matrix: (Units=GPa)
#
#
# Indices 1 2 3 4 5 6 
#
# 1 143.9532 85.2015 23.8306 0.0000 1.0761 0.0000
# 2 85.2015 70.2136 18.2164 0.0000 -5.0467 0.0000
# 3 23.8306 18.2164 20.5553 0.0000 -3.4406 0.0000
# 4 0.0000 0.0000 0.0000 18.2697 0.0000 1.4681
# 5 1.0761 -5.0467 -3.4406 0.0000 23.3432 0.0000
# 6 0.0000 0.0000 0.0000 1.4681 0.0000 38.3564
#
#
#
# Elastic Compliance Matrix: (Units=1/GPa)
#
#
# Indices 1 2 3 4 5 6 
#
# 1 0.026356 -0.031555 -0.004036 0.000000 -0.008632 0.000000
# 2 -0.031555 0.056335 -0.011339 0.000000 0.011963 0.000000
# 3 -0.004036 -0.011339 0.064591 0.000000 0.007255 0.000000
# 4 0.000000 0.000000 0.000000 0.054904 0.000000 -0.002101
# 5 -0.008632 0.011963 0.007255 0.000000 0.046893 0.000000
# 6 0.000000 0.000000 0.000000 -0.002101 0.000000 0.026152
#
#
# Mechanical properties :
#
#
# Convention : Reuss Voigt Hill
#
# Bulk Modulus (GPa) = 18.71887 54.35769 36.53828
# Shear Modulus (GPa) = 12.92326 23.15874 18.04100
#
# Velocity S-wave (km/s) = 2.68616 3.59587 3.17378
# Velocity P-wave (km/s) = 4.48017 6.89855 5.81644
#
# Compressibility (1/GPa) = 0.05342204
#
# Stress axis : x y z
#
# Youngs Moduli (GPa) = 37.94197 17.75085 15.48198
#
# Poissons Ratio (x) = 0.56014 0.06248
# Poissons Ratio (y) = 1.19728 0.17555
# Poissons Ratio (z) = 0.15312 0.20128
#
# Static dielectric constant tensor:
#      x y z
#    x 1.622270 0.000000 -0.003760 
#    y 0.000000 1.609640 0.000000 
#    z -0.003760 0.000000 1.653670 
# 
# From -- ./inp_files/200778.got.cif
#   From: 2010.05.17/outbox.cif.g08.bks.cpg/sg12_101_cif.got.tgz:200778.got - 2010.06.03 13:09:07.
