data_PCOD9219804
_publ_section_title
;
Structure prediction by ZEFSAII (Michael W. Deem and Ramdas Pophale) SiO2 
 PCOD9219804
Probable space group: C 2/M
;
_chemical_formula_sum "Si O2"
_cell_formula_units_Z 40
_cell_length_a 25.995858
_cell_length_b 9.008967
_cell_length_c 10.386332
_cell_angle_alpha 90.000000
_cell_angle_beta 76.722080
_cell_angle_gamma 90.000000
_cell_volume 2367.410415
_symmetry_space_group_name_H-M "C 2/M"
_symmetry_group_IT_number 12
_symmetry_cell_setting 'monoclinic'
loop_
_space_group_symop_operation_xyz
x,y,z
-x,y,-z
-x,-y,-z
x,-y,z
1/2+x,1/2+y,z
1/2-x,1/2+y,-z
1/2-x,1/2-y,-z
1/2+x,1/2-y,z
loop_
_atom_site_type_symbol
_atom_site_label
_atom_site_fract_x
_atom_site_fract_y
_atom_site_fract_z
Si Si1 0.003081 0.672451 0.842120
Si Si2 0.227562 0.179121 0.642401
Si Si3 0.610933 0.322504 0.798152
Si Si4 0.780902 0.820852 0.861753
Si Si5 0.895130 0.177269 0.897392
O O1 0.004032 0.500000 0.809149
O O2 0.941879 0.748697 0.226716
O O3 0.949477 0.747217 0.823064
O O4 0.000000 0.687148 0.000000
O O5 0.250000 0.250000 0.500000
O O6 0.165413 0.215341 0.696618
O O7 0.258135 0.248828 0.745978
O O8 0.232697 0.000000 0.639633
O O9 0.604417 0.500000 0.798155
O O10 0.615875 0.279965 0.946733
O O11 0.843036 0.787478 0.846040
O O12 0.774497 0.000000 0.865550
O O13 0.750000 0.750000 0.000000
O O14 0.902583 0.000000 0.891512
#
# Coordination Sequence:
#
# PCOD9219804 Si02
#       5
#     8   8   8   8   8
#     4   9  17  27  44  75 106 134 172 218 267 312
#     4  11  23  39  56  80 110 147 187 224 272 326
#     4   9  17  32  51  72 104 142 178 215 262 323
#     4  11  21  35  56  82 111 145 182 226 273 322
#     4   9  17  31  50  75 106 140 175 213 266 323
#
# _framework density 16.896099
#
# number of rings (size 3 to 8) (size 9 to 14) (size 15 to 20)
#    0.000    2.200    2.000    1.800    0.000    5.600 
#    0.000    0.000    0.000    1.200    0.000    8.400 
#    0.000    0.000    0.000    0.000    0.000    0.000 
#
# Total GULP energy -111548.997145 kJ/mol
# GULP energy per Si atom -5577.449857 kJ/mol
# Density = 1.685764 g / cm^3
# Si number density = 16.896099 Si / 1000 Ang^3
#
#
#
# Elastic Constant Matrix: (Units=GPa)
#
#
# Indices 1 2 3 4 5 6 
#
# 1 204.3682 87.0191 68.8763 0.0000 -1.2342 0.0000
# 2 87.0191 64.4167 43.6014 0.0000 -0.2706 0.0000
# 3 68.8763 43.6014 89.4091 0.0000 -2.9307 0.0000
# 4 0.0000 0.0000 0.0000 22.6863 0.0000 0.4096
# 5 -1.2342 -0.2706 -2.9307 0.0000 16.6009 0.0000
# 6 0.0000 0.0000 0.0000 0.4096 0.0000 35.7043
#
#
#
# Elastic Compliance Matrix: (Units=1/GPa)
#
#
# Indices 1 2 3 4 5 6 
#
# 1 0.011745 -0.014550 -0.001943 0.000000 0.000293 0.000000
# 2 -0.014550 0.041241 -0.008969 0.000000 -0.001993 0.000000
# 3 -0.001943 -0.008969 0.017144 0.000000 0.002736 0.000000
# 4 0.000000 0.000000 0.000000 0.044089 0.000000 -0.000506
# 5 0.000293 -0.001993 0.002736 0.000000 0.060710 0.000000
# 6 0.000000 0.000000 0.000000 -0.000506 0.000000 0.028014
#
#
# Mechanical properties :
#
#
# Convention : Reuss Voigt Hill
#
# Bulk Modulus (GPa) = 52.06110 84.13194 68.09652
# Shear Modulus (GPa) = 19.21106 25.57813 22.39459
#
# Velocity S-wave (km/s) = 3.37562 3.89504 3.64459
# Velocity P-wave (km/s) = 6.78767 8.37438 7.62242
#
# Compressibility (1/GPa) = 0.01920820
#
# Stress axis : x y z
#
# Youngs Moduli (GPa) = 85.14430 24.24785 58.32788
#
# Poissons Ratio (x) = 0.35280 0.11331
# Poissons Ratio (y) = 1.23881 0.52312
# Poissons Ratio (z) = 0.16541 0.21747
#
# Static dielectric constant tensor:
#      x y z
#    x 1.574320 0.000000 0.002010 
#    y 0.000000 1.563350 0.000000 
#    z 0.002010 0.000000 1.547840 
# 
# From -- ./inp_files/107526.got.cif
#   From: 2010.05.17/outbox.cif.g08.bks.cpg/sg12_54_cif.got.tgz:107526.got - 2010.06.03 13:09:07.
