data_PCOD9219329
_publ_section_title
;
Structure prediction by ZEFSAII (Michael W. Deem and Ramdas Pophale) SiO2 
 PCOD9219329
Probable space group: C 2/M
;
_chemical_formula_sum "Si O2"
_cell_formula_units_Z 36
_cell_length_a 7.397347
_cell_length_b 25.959217
_cell_length_c 11.290176
_cell_angle_alpha 90.000000
_cell_angle_beta 138.377433
_cell_angle_gamma 90.000000
_cell_volume 1440.060358
_symmetry_space_group_name_H-M "C 2/M"
_symmetry_group_IT_number 12
_symmetry_cell_setting 'monoclinic'
loop_
_space_group_symop_operation_xyz
x,y,z
-x,y,-z
-x,-y,-z
x,-y,z
1/2+x,1/2+y,z
1/2-x,1/2+y,-z
1/2-x,1/2-y,-z
1/2+x,1/2-y,z
loop_
_atom_site_type_symbol
_atom_site_label
_atom_site_fract_x
_atom_site_fract_y
_atom_site_fract_z
Si Si1 0.500000 0.813960 0.000000
Si Si2 0.981089 0.207772 0.628323
Si Si3 0.307983 0.881821 0.131594
Si Si4 0.605122 0.000000 0.882791
Si Si5 0.187479 0.104835 0.474461
Si Si6 0.025107 0.000000 0.702721
O O1 0.422484 0.851919 0.071815
O O2 0.741379 0.777707 0.169918
O O3 0.750000 0.250000 0.500000
O O4 0.922502 0.152130 0.657364
O O5 0.000000 0.193440 0.500000
O O6 0.521646 0.874026 0.341720
O O7 0.320947 0.944275 0.131613
O O8 0.000000 0.865511 0.000000
O O9 0.784950 0.000000 0.089464
O O10 0.274925 0.000000 0.730068
O O11 0.000000 0.095683 0.500000
O O12 0.157999 0.050840 0.393981
#
# Coordination Sequence:
#
# PCOD9219329 Si02
#       6
#     4   8   8   4   8   4
#     4  12  24  51  78 100 150 193 238 306 380 430
#     4  11  25  47  74 109 144 187 248 301 361 442
#     4  12  25  42  71 106 149 192 244 299 359 436
#     4  11  20  35  60 109 143 191 249 284 356 438
#     4  11  20  42  68 103 144 189 243 296 356 437
#     4  11  20  36  76  98 141 207 232 289 378 426
#
# _framework density 24.998951999999999
#
# number of rings (size 3 to 8) (size 9 to 14) (size 15 to 20)
#    0.000    0.667    6.667    4.000    0.000    2.667 
#    2.000    4.444    0.000    0.000    0.000    0.000 
#    0.000    0.000    0.000    0.000    0.000    0.000 
#
# Total GULP energy -100489.891688 kJ/mol
# GULP energy per Si atom -5582.771760 kJ/mol
# Density = 2.494205 g / cm^3
# Si number density = 24.998952 Si / 1000 Ang^3
#
#
#
# Elastic Constant Matrix: (Units=GPa)
#
#
# Indices 1 2 3 4 5 6 
#
# 1 40.0701 2.6577 14.8451 0.0000 17.4356 0.0000
# 2 2.6577 117.2410 34.4929 0.0000 4.7786 0.0000
# 3 14.8451 34.4929 224.6993 0.0000 14.9956 0.0000
# 4 0.0000 0.0000 0.0000 33.5668 0.0000 3.0670
# 5 17.4356 4.7786 14.9956 0.0000 31.1921 0.0000
# 6 0.0000 0.0000 0.0000 3.0670 0.0000 -17.1752
#
#
#
# Elastic Compliance Matrix: (Units=1/GPa)
#
#
# Indices 1 2 3 4 5 6 
#
# 1 0.033197 0.000288 -0.001029 0.000000 -0.018105 0.000000
# 2 0.000288 0.008952 -0.001334 0.000000 -0.000891 0.000000
# 3 -0.001029 -0.001334 0.004826 0.000000 -0.001540 0.000000
# 4 0.000000 0.000000 0.000000 0.029313 0.000000 0.005234
# 5 -0.018105 -0.000891 -0.001540 0.000000 0.043057 0.000000
# 6 0.000000 0.000000 0.000000 0.005234 0.000000 -0.057289
#
#
# Mechanical properties :
#
#
# Convention : Reuss Voigt Hill
#
# Bulk Modulus (GPa) = 23.35091 54.00020 38.67555
# Shear Modulus (GPa) = 62.12759 31.51774 46.82267
#
# Velocity S-wave (km/s) = 4.99059 3.55457 4.33250
# Velocity P-wave (km/s) = 6.52450 6.20440 6.36646
#
# Compressibility (1/GPa) = 0.04282489
#
# Stress axis : x y z
#
# Youngs Moduli (GPa) = 30.12357 111.71172 207.21442
#
# Poissons Ratio (x) = -0.03220 0.21325
# Poissons Ratio (y) = -0.00868 0.27636
# Poissons Ratio (z) = 0.03100 0.14899
#
# Static dielectric constant tensor:
#      x y z
#    x 2.671860 0.000000 0.110600 
#    y 0.000000 2.519410 0.000000 
#    z 0.110600 0.000000 2.032950 
# 
# From -- ./inp_files/200300.got.cif
#   From: 2010.05.17/outbox.cif.g08.bks.cpg/sg12_101_cif.got.tgz:200300.got - 2010.06.03 13:09:07.
