data_PCOD9219133
_publ_section_title
;
Structure prediction by ZEFSAII (Michael W. Deem and Ramdas Pophale) SiO2 
 PCOD9219133
Probable space group: C 2/M
;
_chemical_formula_sum "Si O2"
_cell_formula_units_Z 48
_cell_length_a 25.322048
_cell_length_b 8.428255
_cell_length_c 22.299337
_cell_angle_alpha 90.000000
_cell_angle_beta 141.703279
_cell_angle_gamma 90.000000
_cell_volume 2949.401194
_symmetry_space_group_name_H-M "C 2/M"
_symmetry_group_IT_number 12
_symmetry_cell_setting 'monoclinic'
loop_
_space_group_symop_operation_xyz
x,y,z
-x,y,-z
-x,-y,-z
x,-y,z
1/2+x,1/2+y,z
1/2-x,1/2+y,-z
1/2-x,1/2-y,-z
1/2+x,1/2-y,z
loop_
_atom_site_type_symbol
_atom_site_label
_atom_site_fract_x
_atom_site_fract_y
_atom_site_fract_z
Si Si1 0.108913 0.693273 0.655948
Si Si2 0.577752 0.193198 0.489834
Si Si3 0.532722 0.315493 0.960033
Si Si4 0.204599 0.808201 0.162638
Si Si5 0.360695 0.186886 0.767341
Si Si6 0.262340 0.809944 0.443953
O O1 0.109414 0.500000 0.657887
O O2 0.104095 0.737871 0.581228
O O3 0.199035 0.747261 0.762858
O O4 0.020038 0.745657 0.606356
O O5 0.648603 0.247946 0.506207
O O6 0.577521 0.000000 0.488486
O O7 0.533518 0.500000 0.942221
O O8 0.461365 0.225617 0.858785
O O9 0.500000 0.311274 0.000000
O O10 0.629121 0.251551 0.051356
O O11 0.179672 0.762861 0.208459
O O12 0.202601 0.000000 0.157884
O O13 0.312851 0.254608 0.667076
O O14 0.348006 0.000000 0.759062
O O15 0.250000 0.750000 0.500000
O O16 0.264069 0.000000 0.445666
#
# Coordination Sequence:
#
# PCOD9219133 Si02
#       6
#     8   8   8   8   8   8
#     4   8  12  22  43  70  91 114 145 180 220 266
#     4   8  14  24  43  67  90 114 147 184 220 262
#     4   8  15  26  41  62  88 119 149 180 221 269
#     4   9  15  26  45  67  92 120 149 180 221 270
#     4  11  20  29  42  62  90 122 153 187 224 263
#     4  11  21  34  49  66  89 120 155 190 223 262
#
# _framework density 16.274488999999999
#
# number of rings (size 3 to 8) (size 9 to 14) (size 15 to 20)
#    0.000    2.833    1.667    4.000    0.000    3.000 
#    0.000    0.000    0.000    3.000    0.000    1.167 
#    0.000    0.000    0.000    0.000    0.000    0.000 
#
# Total GULP energy -133619.015387 kJ/mol
# GULP energy per Si atom -5567.458974 kJ/mol
# Density = 1.623745 g / cm^3
# Si number density = 16.274489 Si / 1000 Ang^3
#
#
#
# Elastic Constant Matrix: (Units=GPa)
#
#
# Indices 1 2 3 4 5 6 
#
# 1 85.7933 9.9299 69.1639 0.0000 18.7992 0.0000
# 2 9.9299 11.5695 16.6845 0.0000 4.4061 0.0000
# 3 69.1639 16.6845 133.3374 0.0000 34.7746 0.0000
# 4 0.0000 0.0000 0.0000 12.2989 0.0000 -7.5700
# 5 18.7992 4.4061 34.7746 0.0000 29.6421 0.0000
# 6 0.0000 0.0000 0.0000 -7.5700 0.0000 8.5685
#
#
#
# Elastic Compliance Matrix: (Units=1/GPa)
#
#
# Indices 1 2 3 4 5 6 
#
# 1 0.020113 -0.002701 -0.009903 0.000000 -0.000737 0.000000
# 2 -0.002701 0.105830 -0.011794 0.000000 -0.000182 0.000000
# 3 -0.009903 -0.011794 0.017315 0.000000 -0.012279 0.000000
# 4 0.000000 0.000000 0.000000 0.178218 0.000000 0.157449
# 5 -0.000737 -0.000182 -0.012279 0.000000 0.048636 0.000000
# 6 0.000000 0.000000 0.000000 0.157449 0.000000 0.255806
#
#
# Mechanical properties :
#
#
# Convention : Reuss Voigt Hill
#
# Bulk Modulus (GPa) = 10.58626 46.91739 28.75183
# Shear Modulus (GPa) = 7.08014 19.09670 13.08842
#
# Velocity S-wave (km/s) = 2.08804 3.42923 2.83897
# Velocity P-wave (km/s) = 3.51171 6.67614 5.33399
#
# Compressibility (1/GPa) = 0.09446205
#
# Stress axis : x y z
#
# Youngs Moduli (GPa) = 49.71792 9.44914 57.75426
#
# Poissons Ratio (x) = 0.02552 0.57194
# Poissons Ratio (y) = 0.13430 0.68114
# Poissons Ratio (z) = 0.49235 0.11144
#
# Static dielectric constant tensor:
#      x y z
#    x 1.521050 0.000000 0.075170 
#    y 0.000000 1.551290 0.000000 
#    z 0.075170 0.000000 1.556630 
# 
# From -- ./inp_files/323857.got.cif
#   From: 2010.05.17/outbox.cif.g08.bks.cpg/sg12_162_cif.got.tgz:323857.got - 2010.06.03 13:09:07.
