data_PCOD9219737
_publ_section_title
;
Structure prediction by ZEFSAII (Michael W. Deem and Ramdas Pophale) SiO2 
 PCOD9219737
Probable space group: C 2/M
;
_chemical_formula_sum "Si O2"
_cell_formula_units_Z 56
_cell_length_a 16.240141
_cell_length_b 31.112648
_cell_length_c 7.231812
_cell_angle_alpha 90.000000
_cell_angle_beta 49.809423
_cell_angle_gamma 90.000000
_cell_volume 2791.332958
_symmetry_space_group_name_H-M "C 2/M"
_symmetry_group_IT_number 12
_symmetry_cell_setting 'monoclinic'
loop_
_space_group_symop_operation_xyz
x,y,z
-x,y,-z
-x,-y,-z
x,-y,z
1/2+x,1/2+y,z
1/2-x,1/2+y,-z
1/2-x,1/2-y,-z
1/2+x,1/2-y,z
loop_
_atom_site_type_symbol
_atom_site_label
_atom_site_fract_x
_atom_site_fract_y
_atom_site_fract_z
Si Si1 0.662360 0.124430 0.571628
Si Si2 0.484512 0.809308 0.722195
Si Si3 0.492922 0.048451 0.235297
Si Si4 0.113919 0.153745 0.337676
Si Si5 0.331780 0.887672 0.995107
Si Si6 0.151880 0.232348 0.016267
Si Si7 0.874921 0.832881 0.246224
O O1 0.590894 0.167157 0.639714
O O2 0.598477 0.083544 0.583484
O O3 0.659574 0.117698 0.795756
O O4 0.785244 0.130692 0.330259
O O5 0.500000 0.788644 0.500000
O O6 0.427376 0.771631 0.915452
O O7 0.400084 0.848162 0.814887
O O8 0.472701 0.000000 0.326615
O O9 0.500000 0.047386 0.000000
O O10 0.606222 0.068539 0.139361
O O11 0.208439 0.122377 0.134364
O O12 0.132233 0.170149 0.520924
O O13 0.000000 0.130340 0.500000
O O14 0.893682 0.194129 0.788647
O O15 0.250000 0.250000 0.000000
O O16 0.170896 0.208648 0.794569
O O17 0.000000 0.839549 0.000000
#
# Coordination Sequence:
#
# PCOD9219737 Si02
#       7
#     8   8   8   8   8   8   8
#     4   9  20  37  55  81 110 146 184 227 288 345
#     4  11  21  34  53  76 105 145 188 235 285 330
#     4   8  14  30  61  93 114 134 174 228 283 351
#     4  11  22  40  54  77 111 151 201 238 281 336
#     4   9  19  36  54  79 112 145 181 226 288 342
#     4  12  24  40  54  79 111 148 201 248 287 329
#     4  11  24  40  57  77 109 155 196 241 285 333
#
# _framework density 20.062100000000001
#
# number of rings (size 3 to 8) (size 9 to 14) (size 15 to 20)
#    0.000    1.857    2.857    2.571    0.000    1.714 
#    0.000    0.000    0.000    7.714    0.000    0.000 
#    0.000    0.000    0.000    0.000    0.000    0.000 
#
# Total GULP energy -156177.144442 kJ/mol
# GULP energy per Si atom -5577.755159 kJ/mol
# Density = 2.001644 g / cm^3
# Si number density = 20.062100 Si / 1000 Ang^3
#
#
#
# Elastic Constant Matrix: (Units=GPa)
#
#
# Indices 1 2 3 4 5 6 
#
# 1 87.5610 34.0136 36.7791 0.0000 -15.1829 0.0000
# 2 34.0136 114.3298 23.2088 0.0000 -20.7599 0.0000
# 3 36.7791 23.2088 43.0984 0.0000 -20.1931 0.0000
# 4 0.0000 0.0000 0.0000 5.5617 0.0000 -0.4163
# 5 -15.1829 -20.7599 -20.1931 0.0000 56.1101 0.0000
# 6 0.0000 0.0000 0.0000 -0.4163 0.0000 12.3362
#
#
#
# Elastic Compliance Matrix: (Units=1/GPa)
#
#
# Indices 1 2 3 4 5 6 
#
# 1 0.018541 -0.002722 -0.015008 0.000000 -0.001391 0.000000
# 2 -0.002722 0.010426 -0.002200 0.000000 0.002329 0.000000
# 3 -0.015008 -0.002200 0.041992 0.000000 0.010237 0.000000
# 4 0.000000 0.000000 0.000000 0.180257 0.000000 0.006083
# 5 -0.001391 0.002329 0.010237 0.000000 0.021991 0.000000
# 6 0.000000 0.000000 0.000000 0.006083 0.000000 0.081267
#
#
# Mechanical properties :
#
#
# Convention : Reuss Voigt Hill
#
# Bulk Modulus (GPa) = 32.15732 48.11022 40.13377
# Shear Modulus (GPa) = 12.35480 24.86746 18.61113
#
# Velocity S-wave (km/s) = 2.48428 3.52451 3.04908
# Velocity P-wave (km/s) = 4.92875 6.37147 5.69597
#
# Compressibility (1/GPa) = 0.03109712
#
# Stress axis : x y z
#
# Youngs Moduli (GPa) = 53.93506 95.91404 23.81422
#
# Poissons Ratio (x) = 0.26107 0.35741
# Poissons Ratio (y) = 0.14681 0.05240
# Poissons Ratio (z) = 0.80948 0.21105
#
# Static dielectric constant tensor:
#      x y z
#    x 1.822820 0.000000 0.056590 
#    y 0.000000 1.671990 0.000000 
#    z 0.056590 0.000000 1.869600 
# 
# From -- ./inp_files/80412.got.cif
#   From: 2010.05.17/outbox.cif.g08.bks.cpg/sg12_41_cif.got.tgz:80412.got - 2010.06.03 13:09:07.
