data_PCOD9219057
_publ_section_title
;
Structure prediction by ZEFSAII (Michael W. Deem and Ramdas Pophale) SiO2 
 PCOD9219057
Probable space group: C 2/M
;
_chemical_formula_sum "Si O2"
_cell_formula_units_Z 40
_cell_length_a 10.198237
_cell_length_b 25.251381
_cell_length_c 9.126098
_cell_angle_alpha 90.000000
_cell_angle_beta 55.804552
_cell_angle_gamma 90.000000
_cell_volume 1943.867373
_symmetry_space_group_name_H-M "C 2/M"
_symmetry_group_IT_number 12
_symmetry_cell_setting 'monoclinic'
loop_
_space_group_symop_operation_xyz
x,y,z
-x,y,-z
-x,-y,-z
x,-y,z
1/2+x,1/2+y,z
1/2-x,1/2+y,-z
1/2-x,1/2-y,-z
1/2+x,1/2-y,z
loop_
_atom_site_type_symbol
_atom_site_label
_atom_site_fract_x
_atom_site_fract_y
_atom_site_fract_z
Si Si1 0.751157 0.192367 0.846475
Si Si2 0.500000 0.754375 0.500000
Si Si3 0.500000 0.277502 0.000000
Si Si4 0.387941 0.842119 0.371849
Si Si5 0.264016 0.637386 0.134130
Si Si6 0.191583 0.441188 0.401197
O O1 0.662955 0.167482 0.761822
O O2 0.902855 0.220110 0.678184
O O3 0.626040 0.236002 0.988526
O O4 0.795792 0.150478 0.943739
O O5 0.379571 0.790630 0.480673
O O6 0.375609 0.319716 0.145780
O O7 0.576340 0.852602 0.264742
O O8 0.294652 0.892600 0.493960
O O9 0.278641 0.580265 0.199880
O O10 0.245080 0.500000 0.410299
O O11 0.000000 0.444661 0.500000
#
# Coordination Sequence:
#
# PCOD9219057 Si02
#       6
#     8   4   4   8   8   8
#     4  12  23  34  57  85 124 150 183 231 278 330
#     4  12  22  36  53  88 119 160 186 212 278 348
#     4  12  20  34  57  80 119 160 176 220 276 336
#     4  11  19  37  56  86 114 149 192 231 273 340
#     4  11  21  37  56  85 112 151 196 228 274 337
#     4   9  19  38  61  80 108 146 190 240 285 331
#
# _framework density 20.577535000000001
#
# number of rings (size 3 to 8) (size 9 to 14) (size 15 to 20)
#    0.000    1.000    7.000    2.400    0.000    1.600 
#    0.000    1.500    0.000    4.800    0.000    2.800 
#    0.000    0.000    0.000    0.000    0.000    0.000 
#
# Total GULP energy -111352.823820 kJ/mol
# GULP energy per Si atom -5567.641191 kJ/mol
# Density = 2.053070 g / cm^3
# Si number density = 20.577535 Si / 1000 Ang^3
#
#
#
# Elastic Constant Matrix: (Units=GPa)
#
#
# Indices 1 2 3 4 5 6 
#
# 1 83.9839 30.3177 31.4631 0.0000 8.7556 0.0000
# 2 30.3177 126.2178 59.0340 0.0000 2.6754 0.0000
# 3 31.4631 59.0340 121.3391 0.0000 4.4106 0.0000
# 4 0.0000 0.0000 0.0000 21.2378 0.0000 0.9290
# 5 8.7556 2.6754 4.4106 0.0000 23.5709 0.0000
# 6 0.0000 0.0000 0.0000 0.9290 0.0000 6.7650
#
#
#
# Elastic Compliance Matrix: (Units=1/GPa)
#
#
# Indices 1 2 3 4 5 6 
#
# 1 0.014066 -0.002141 -0.002441 0.000000 -0.004525 0.000000
# 2 -0.002141 0.010584 -0.004611 0.000000 0.000457 0.000000
# 3 -0.002441 -0.004611 0.011141 0.000000 -0.000655 0.000000
# 4 0.000000 0.000000 0.000000 0.047370 0.000000 -0.006505
# 5 -0.004525 0.000457 -0.000655 0.000000 0.044177 0.000000
# 6 0.000000 0.000000 0.000000 -0.006505 0.000000 0.148713
#
#
# Mechanical properties :
#
#
# Convention : Reuss Voigt Hill
#
# Bulk Modulus (GPa) = 57.45274 63.68561 60.56917
# Shear Modulus (GPa) = 16.65335 24.36314 20.50825
#
# Velocity S-wave (km/s) = 2.84790 3.44462 3.16037
# Velocity P-wave (km/s) = 6.22855 6.84374 6.54338
#
# Compressibility (1/GPa) = 0.01740561
#
# Stress axis : x y z
#
# Youngs Moduli (GPa) = 71.09207 94.48296 89.75546
#
# Poissons Ratio (x) = 0.20229 0.21911
# Poissons Ratio (y) = 0.15221 0.41384
# Poissons Ratio (z) = 0.17355 0.43564
#
# Static dielectric constant tensor:
#      x y z
#    x 1.798970 0.000000 0.012370 
#    y 0.000000 1.750420 0.000000 
#    z 0.012370 0.000000 1.797510 
# 
# From -- ./inp_files/52367.got.cif
#   From: 2010.05.17/outbox.cif.g08.bks.cpg/sg12_27_cif.got.tgz:52367.got - 2010.06.03 13:09:07.
