data_PCOD9219101
_publ_section_title
;
Structure prediction by ZEFSAII (Michael W. Deem and Ramdas Pophale) SiO2 
 PCOD9219101
Probable space group: C 2/M
;
_chemical_formula_sum "Si O2"
_cell_formula_units_Z 32
_cell_length_a 10.126813
_cell_length_b 21.275092
_cell_length_c 6.820090
_cell_angle_alpha 90.000000
_cell_angle_beta 85.603556
_cell_angle_gamma 90.000000
_cell_volume 1465.057105
_symmetry_space_group_name_H-M "C 2/M"
_symmetry_group_IT_number 12
_symmetry_cell_setting 'monoclinic'
loop_
_space_group_symop_operation_xyz
x,y,z
-x,y,-z
-x,-y,-z
x,-y,z
1/2+x,1/2+y,z
1/2-x,1/2+y,-z
1/2-x,1/2-y,-z
1/2+x,1/2-y,z
loop_
_atom_site_type_symbol
_atom_site_label
_atom_site_fract_x
_atom_site_fract_y
_atom_site_fract_z
Si Si1 0.593167 0.000000 0.215519
Si Si2 0.850668 0.875766 0.577275
Si Si3 0.611346 0.130998 0.318842
Si Si4 0.702818 0.000000 0.656221
Si Si5 0.884894 0.237338 0.870093
O O1 0.626857 0.927245 0.165766
O O2 0.656454 0.000000 0.432160
O O3 0.434423 0.000000 0.214003
O O4 0.752517 0.860444 0.408467
O O5 0.857392 0.814848 0.711236
O O6 0.000000 0.891519 0.500000
O O7 0.785809 0.937294 0.682792
O O8 0.500000 0.115996 0.500000
O O9 0.570141 0.196214 0.226446
O O10 0.750000 0.250000 0.000000
O O11 0.000000 0.214167 0.000000
#
# Coordination Sequence:
#
# PCOD9219101 Si02
#       5
#     4   8   8   4   8
#     4   9  16  34  64  95 108 137 202 256 286 330
#     4  11  21  38  62  90 115 153 199 240 294 350
#     4  11  19  39  66  87 114 152 201 246 286 343
#     4   9  17  34  62  92 114 140 194 255 290 333
#     4  12  26  40  55  86 127 162 193 237 291 349
#
# _framework density 21.84215
#
# number of rings (size 3 to 8) (size 9 to 14) (size 15 to 20)
#    0.000    1.250    5.000    4.875    0.000    0.000 
#    0.000    2.500    0.000    0.000    0.000    0.000 
#    0.000    0.000    0.000    0.000    0.000    0.000 
#
# Total GULP energy -89361.198889 kJ/mol
# GULP energy per Si atom -5585.074931 kJ/mol
# Density = 2.179244 g / cm^3
# Si number density = 21.842150 Si / 1000 Ang^3
#
#
#
# Elastic Constant Matrix: (Units=GPa)
#
#
# Indices 1 2 3 4 5 6 
#
# 1 138.7377 8.5481 24.8329 0.0000 9.7880 0.0000
# 2 8.5481 178.7866 30.3304 0.0000 11.4573 0.0000
# 3 24.8329 30.3304 33.8825 0.0000 6.0001 0.0000
# 4 0.0000 0.0000 0.0000 -7.1072 0.0000 -8.0930
# 5 9.7880 11.4573 6.0001 0.0000 29.5853 0.0000
# 6 0.0000 0.0000 0.0000 -8.0930 0.0000 33.8714
#
#
#
# Elastic Compliance Matrix: (Units=1/GPa)
#
#
# Indices 1 2 3 4 5 6 
#
# 1 0.008471 0.000836 -0.006641 0.000000 -0.001779 0.000000
# 2 0.000836 0.006734 -0.006358 0.000000 -0.001595 0.000000
# 3 -0.006641 -0.006358 0.040710 0.000000 -0.003597 0.000000
# 4 0.000000 0.000000 0.000000 -0.110608 0.000000 -0.026428
# 5 -0.001779 -0.001595 -0.003597 0.000000 0.035736 0.000000
# 6 0.000000 0.000000 0.000000 -0.026428 0.000000 0.023209
#
#
# Mechanical properties :
#
#
# Convention : Reuss Voigt Hill
#
# Bulk Modulus (GPa) = 31.65861 53.20330 42.43095
# Shear Modulus (GPa) = 127.85142 30.44960 79.15051
#
# Velocity S-wave (km/s) = 7.65907 3.73778 6.02629
# Velocity P-wave (km/s) = 9.63021 6.56041 8.23953
#
# Compressibility (1/GPa) = 0.03158699
#
# Stress axis : x y z
#
# Youngs Moduli (GPa) = 118.05540 148.49669 24.56414
#
# Poissons Ratio (x) = -0.12410 0.16314
# Poissons Ratio (y) = -0.09866 0.15618
# Poissons Ratio (z) = 0.78403 0.94418
#
# Static dielectric constant tensor:
#      x y z
#    x 1.741440 0.000000 -0.030410 
#    y 0.000000 1.850400 0.000000 
#    z -0.030410 0.000000 1.883750 
# 
# From -- ./inp_files/37692.got.cif
#   From: 2010.05.17/outbox.cif.g08.bks.cpg/sg12_19_cif.got.tgz:37692.got - 2010.06.03 13:09:07.
