data_PCOD9219892
_publ_section_title
;
Structure prediction by ZEFSAII (Michael W. Deem and Ramdas Pophale) SiO2 
 PCOD9219892
Probable space group: C 2/M
;
_chemical_formula_sum "Si O2"
_cell_formula_units_Z 56
_cell_length_a 12.409657
_cell_length_b 14.451526
_cell_length_c 14.741389
_cell_angle_alpha 90.000000
_cell_angle_beta 93.734970
_cell_angle_gamma 90.000000
_cell_volume 2638.083213
_symmetry_space_group_name_H-M "C 2/M"
_symmetry_group_IT_number 12
_symmetry_cell_setting 'monoclinic'
loop_
_space_group_symop_operation_xyz
x,y,z
-x,y,-z
-x,-y,-z
x,-y,z
1/2+x,1/2+y,z
1/2-x,1/2+y,-z
1/2-x,1/2-y,-z
1/2+x,1/2-y,z
loop_
_atom_site_type_symbol
_atom_site_label
_atom_site_fract_x
_atom_site_fract_y
_atom_site_fract_z
Si Si1 0.460445 0.103115 0.102484
Si Si2 0.239158 0.745749 0.295729
Si Si3 0.223061 0.850568 0.037687
Si Si4 0.673782 0.601316 0.835374
Si Si5 0.901227 0.605386 0.366722
Si Si6 0.449568 0.298581 0.822491
Si Si7 0.150570 0.605481 0.423077
O O1 0.330478 0.112095 0.092165
O O2 0.510247 0.193942 0.152254
O O3 0.491237 0.000000 0.139345
O O4 0.500000 0.107020 0.000000
O O5 0.254612 0.677502 0.211228
O O6 0.336591 0.817513 0.308744
O O7 0.127617 0.797519 0.268933
O O8 0.227307 0.681228 0.382816
O O9 0.122696 0.838971 0.099234
O O10 0.250000 0.750000 0.000000
O O11 0.196867 0.902797 0.943549
O O12 0.691742 0.500000 0.796883
O O13 0.552638 0.637136 0.816179
O O14 0.877182 0.500000 0.335876
O O15 0.863877 0.614206 0.469662
O O16 0.030352 0.617091 0.374327
O O17 0.185449 0.500000 0.406485
#
# Coordination Sequence:
#
# PCOD9219892 Si02
#       7
#     8   8   8   8   8   8   8
#     4  11  21  36  58  83 107 143 192 246 296 343
#     4  12  22  38  62  90 125 157 194 243 304 353
#     4  12  21  41  62  81 114 156 204 251 298 346
#     4  12  26  41  59  85 118 157 203 253 300 353
#     4   9  20  40  64  92 122 155 196 239 288 358
#     4  12  24  40  58  82 120 158 198 248 295 353
#     4   9  19  38  65  93 121 155 197 240 290 353
#
# _framework density 21.227533999999999
#
# number of rings (size 3 to 8) (size 9 to 14) (size 15 to 20)
#    0.000    1.000    4.286    3.429    0.000    4.571 
#    0.000    3.571    0.000    0.000    0.000    9.000 
#    0.000    0.000    0.000    0.000    0.000    0.000 
#
# Total GULP energy -156637.259908 kJ/mol
# GULP energy per Si atom -5594.187854 kJ/mol
# Density = 2.117922 g / cm^3
# Si number density = 21.227534 Si / 1000 Ang^3
#
#
#
# Elastic Constant Matrix: (Units=GPa)
#
#
# Indices 1 2 3 4 5 6 
#
# 1 74.1173 19.3263 1.5517 0.0000 6.3847 0.0000
# 2 19.3263 119.6425 21.8232 0.0000 15.1616 0.0000
# 3 1.5517 21.8232 55.1726 0.0000 -3.2874 0.0000
# 4 0.0000 0.0000 0.0000 10.8725 0.0000 -1.2173
# 5 6.3847 15.1616 -3.2874 0.0000 32.0668 0.0000
# 6 0.0000 0.0000 0.0000 -1.2173 0.0000 6.0835
#
#
#
# Elastic Compliance Matrix: (Units=1/GPa)
#
#
# Indices 1 2 3 4 5 6 
#
# 1 0.014194 -0.002128 0.000336 0.000000 -0.001786 0.000000
# 2 -0.002128 0.010074 -0.004209 0.000000 -0.004771 0.000000
# 3 0.000336 -0.004209 0.020017 0.000000 0.003975 0.000000
# 4 0.000000 0.000000 0.000000 0.094083 0.000000 0.018826
# 5 -0.001786 -0.004771 0.003975 0.000000 0.034204 0.000000
# 6 0.000000 0.000000 0.000000 0.018826 0.000000 0.168147
#
#
# Mechanical properties :
#
#
# Convention : Reuss Voigt Hill
#
# Bulk Modulus (GPa) = 30.97576 37.14834 34.06205
# Shear Modulus (GPa) = 13.75583 23.55331 18.65457
#
# Velocity S-wave (km/s) = 2.54838 3.33463 2.96766
# Velocity P-wave (km/s) = 4.82524 5.68897 5.27481
#
# Compressibility (1/GPa) = 0.03228331
#
# Stress axis : x y z
#
# Youngs Moduli (GPa) = 70.45364 99.26193 49.95673
#
# Poissons Ratio (x) = 0.21121 -0.01679
# Poissons Ratio (y) = 0.14991 0.21028
# Poissons Ratio (z) = -0.02368 0.41782
#
# Static dielectric constant tensor:
#      x y z
#    x 1.744250 0.000000 -0.000840 
#    y 0.000000 1.906220 0.000000 
#    z -0.000840 0.000000 1.792060 
# 
# From -- ./inp_files/205016.got.cif
#   From: 2010.05.17/outbox.cif.g08.bks.cpg/sg12_103_cif.got.tgz:205016.got - 2010.06.03 13:09:07.
