data_PCOD9219413
_publ_section_title
;
Structure prediction by ZEFSAII (Michael W. Deem and Ramdas Pophale) SiO2 
 PCOD9219413
Probable space group: C 2/M
;
_chemical_formula_sum "Si O2"
_cell_formula_units_Z 52
_cell_length_a 8.846688
_cell_length_b 20.464075
_cell_length_c 24.230983
_cell_angle_alpha 90.000000
_cell_angle_beta 37.047307
_cell_angle_gamma 90.000000
_cell_volume 2642.909744
_symmetry_space_group_name_H-M "C 2/M"
_symmetry_group_IT_number 12
_symmetry_cell_setting 'monoclinic'
loop_
_space_group_symop_operation_xyz
x,y,z
-x,y,-z
-x,-y,-z
x,-y,z
1/2+x,1/2+y,z
1/2-x,1/2+y,-z
1/2-x,1/2-y,-z
1/2+x,1/2-y,z
loop_
_atom_site_type_symbol
_atom_site_label
_atom_site_fract_x
_atom_site_fract_y
_atom_site_fract_z
Si Si1 0.732113 0.718025 0.565647
Si Si2 0.644153 0.928581 0.856724
Si Si3 0.500000 0.278205 0.000000
Si Si4 0.891954 0.808758 0.832812
Si Si5 0.298191 0.197369 0.315022
Si Si6 0.357568 0.378454 0.958744
Si Si7 0.594455 0.928214 0.195222
O O1 0.750000 0.750000 0.500000
O O2 0.714044 0.772657 0.619476
O O3 0.470297 0.679772 0.634581
O O4 0.000000 0.683447 0.500000
O O5 0.833754 0.869064 0.810029
O O6 0.534084 0.928195 0.827282
O O7 0.755128 0.000000 0.836129
O O8 0.401548 0.917224 0.966711
O O9 0.644871 0.234864 0.913974
O O10 0.320334 0.325048 0.017788
O O11 0.924585 0.841042 0.883108
O O12 0.096878 0.758219 0.751712
O O13 0.479069 0.134642 0.259585
O O14 0.606591 0.419293 0.899410
O O15 0.548349 0.000000 0.234200
#
# Coordination Sequence:
#
# PCOD9219413 Si02
#       7
#     8   8   4   8   8   8   8
#     4   9  20  38  64  92 114 138 170 230 298 358
#     4  11  23  38  51  73 114 166 210 247 285 329
#     4  12  22  34  54  78 118 152 206 250 282 328
#     4  12  24  34  57  84 114 155 199 250 293 331
#     4  11  20  37  61  89 119 142 189 237 292 346
#     4  12  21  36  54  74 109 160 212 252 286 323
#     4  11  23  36  55  81 116 157 197 238 287 338
#
# _framework density 19.675284000000001
#
# number of rings (size 3 to 8) (size 9 to 14) (size 15 to 20)
#    0.000    0.923    4.615    2.769    2.154    3.077 
#    0.000    0.000    0.000    4.615    0.000    4.308 
#    0.000    0.000    0.000    0.000    0.000    0.000 
#
# Total GULP energy -145093.718744 kJ/mol
# GULP energy per Si atom -5580.527644 kJ/mol
# Density = 1.963050 g / cm^3
# Si number density = 19.675284 Si / 1000 Ang^3
#
#
#
# Elastic Constant Matrix: (Units=GPa)
#
#
# Indices 1 2 3 4 5 6 
#
# 1 47.1063 0.8742 0.7183 0.0821 1.2412 -0.0561
# 2 0.8742 95.7288 13.1252 -0.0462 -0.4183 -0.0551
# 3 0.7183 13.1252 56.0987 0.0572 1.3959 -0.1216
# 4 0.0821 -0.0462 0.0572 1.5909 -0.0899 8.5552
# 5 1.2412 -0.4183 1.3959 -0.0899 43.0754 0.0577
# 6 -0.0561 -0.0551 -0.1216 8.5552 0.0577 12.5515
#
#
#
# Elastic Compliance Matrix: (Units=1/GPa)
#
#
# Indices 1 2 3 4 5 6 
#
# 1 0.021250 -0.000166 -0.000219 0.000614 -0.000605 -0.000324
# 2 -0.000166 0.010795 -0.002528 -0.000116 0.000191 0.000100
# 3 -0.000219 -0.002528 0.018434 0.000627 -0.000614 -0.000258
# 4 0.000614 -0.000116 0.000627 -0.235763 -0.000746 0.160710
# 5 -0.000605 0.000191 -0.000614 -0.000746 0.023252 0.000394
# 6 -0.000324 0.000100 -0.000258 0.160710 0.000394 -0.029875
#
#
# Mechanical properties :
#
#
# Convention : Reuss Voigt Hill
#
# Bulk Modulus (GPa) = 22.39593 25.37434 23.88514
# Shear Modulus (GPa) = -29.20642 23.72463 -2.74090
#
# Velocity S-wave (km/s) = -3.85700 3.47624 -1.18156
# Velocity P-wave (km/s) = 2.90306 5.38859 3.21007
#
# Compressibility (1/GPa) = 0.04465097
#
# Stress axis : x y z
#
# Youngs Moduli (GPa) = 47.05988 92.63422 54.24740
#
# Poissons Ratio (x) = 0.01542 0.01190
# Poissons Ratio (y) = 0.00784 0.13714
# Poissons Ratio (z) = 0.01032 0.23418
#
# Static dielectric constant tensor:
#      x y z
#    x 1.739250 -0.000020 -0.018720 
#    y -0.000020 1.717140 0.000030 
#    z -0.018720 0.000030 1.720650 
# 
# From -- ./inp_files/333663.got.cif
#   From: 2010.05.17/outbox.cif.g08.bks.cpg/sg12_167_cif.got.tgz:333663.got - 2010.06.03 13:09:07.
