data_PCOD9219845
_publ_section_title
;
Structure prediction by ZEFSAII (Michael W. Deem and Ramdas Pophale) SiO2 
 PCOD9219845
Probable space group: C 2/M
;
_chemical_formula_sum "Si O2"
_cell_formula_units_Z 40
_cell_length_a 11.513708
_cell_length_b 16.805131
_cell_length_c 20.593348
_cell_angle_alpha 90.000000
_cell_angle_beta 146.792039
_cell_angle_gamma 90.000000
_cell_volume 2182.280358
_symmetry_space_group_name_H-M "C 2/M"
_symmetry_group_IT_number 12
_symmetry_cell_setting 'monoclinic'
loop_
_space_group_symop_operation_xyz
x,y,z
-x,y,-z
-x,-y,-z
x,-y,z
1/2+x,1/2+y,z
1/2-x,1/2+y,-z
1/2-x,1/2-y,-z
1/2+x,1/2-y,z
loop_
_atom_site_type_symbol
_atom_site_label
_atom_site_fract_x
_atom_site_fract_y
_atom_site_fract_z
Si Si1 0.506555 0.596242 0.609988
Si Si2 0.259711 0.326567 0.896069
Si Si3 0.656718 0.909998 0.977458
Si Si4 0.657609 0.095411 0.344652
Si Si5 0.287340 0.356062 0.167954
O O1 0.510726 0.500000 0.618437
O O2 0.294475 0.619008 0.471696
O O3 0.702112 0.618170 0.653268
O O4 0.535976 0.633882 0.694391
O O5 0.204697 0.346003 0.944860
O O6 0.250113 0.234677 0.870669
O O7 0.076351 0.369981 0.769621
O O8 0.500000 0.355668 0.000000
O O9 0.423905 0.891823 0.897187
O O10 0.661057 0.000000 0.953065
O O11 0.813182 0.901997 0.112129
O O12 0.648323 0.000000 0.339995
#
# Coordination Sequence:
#
# PCOD9219845 Si02
#       5
#     8   8   8   8   8
#     4   9  17  35  61  85 108 145 197 248 279 324
#     4  12  24  36  56  85 127 154 185 230 297 349
#     4  11  22  38  58  84 114 155 200 234 278 342
#     4   9  19  35  58  84 113 149 195 237 281 338
#     4  11  21  35  61  85 115 150 192 246 289 326
#
# _framework density 18.329450999999999
#
# number of rings (size 3 to 8) (size 9 to 14) (size 15 to 20)
#    0.000    1.600    4.000    4.800    0.000    2.400 
#    0.000    0.000    0.000    1.200    0.000    4.200 
#    0.000    0.000    0.000    0.000    0.000    0.000 
#
# Total GULP energy -111558.180072 kJ/mol
# GULP energy per Si atom -5577.909004 kJ/mol
# Density = 1.828773 g / cm^3
# Si number density = 18.329451 Si / 1000 Ang^3
#
#
#
# Elastic Constant Matrix: (Units=GPa)
#
#
# Indices 1 2 3 4 5 6 
#
# 1 41.1600 19.3234 43.0110 0.0007 -15.8988 0.0000
# 2 19.3234 55.7104 39.9633 -0.0008 -5.2307 0.0007
# 3 43.0110 39.9633 156.0314 -0.0036 -17.7197 0.0014
# 4 0.0007 -0.0008 -0.0036 39.0294 0.0001 -7.0986
# 5 -15.8988 -5.2307 -17.7197 0.0001 39.5873 0.0005
# 6 0.0000 0.0007 0.0014 -7.0986 0.0005 21.7200
#
#
#
# Elastic Compliance Matrix: (Units=1/GPa)
#
#
# Indices 1 2 3 4 5 6 
#
# 1 0.040600 -0.007238 -0.008002 -0.000002 0.011768 0.000000
# 2 -0.007238 0.023287 -0.004161 0.000000 -0.001693 0.000000
# 3 -0.008002 -0.004161 0.009749 0.000001 0.000600 0.000000
# 4 -0.000002 0.000000 0.000001 0.027241 0.000000 0.008903
# 5 0.011768 -0.001693 0.000600 0.000000 0.030032 -0.000001
# 6 0.000000 0.000000 0.000000 0.008903 -0.000001 0.048950
#
#
# Mechanical properties :
#
#
# Convention : Reuss Voigt Hill
#
# Bulk Modulus (GPa) = 28.70735 50.83304 39.77019
# Shear Modulus (GPa) = 21.71358 30.10762 25.91060
#
# Velocity S-wave (km/s) = 3.44558 4.05727 3.76387
# Velocity P-wave (km/s) = 5.61473 7.05279 6.37444
#
# Compressibility (1/GPa) = 0.03483429
#
# Stress axis : x y z
#
# Youngs Moduli (GPa) = 24.63046 42.94324 102.57854
#
# Poissons Ratio (x) = 0.31081 0.82079
# Poissons Ratio (y) = 0.17827 0.42687
# Poissons Ratio (z) = 0.19708 0.17870
#
# Static dielectric constant tensor:
#      x y z
#    x 1.627490 0.000000 -0.021580 
#    y 0.000000 1.631200 0.000000 
#    z -0.021580 0.000000 1.690760 
# 
# From -- ./inp_files/306305.got.cif
#   From: 2010.05.17/outbox.cif.g08.bks.cpg/sg12_154_cif.got.tgz:306305.got - 2010.06.03 13:09:07.
