data_PCOD9219646
_publ_section_title
;
Structure prediction by ZEFSAII (Michael W. Deem and Ramdas Pophale) SiO2 
 PCOD9219646
Probable space group: C 2/M
;
_chemical_formula_sum "Si O2"
_cell_formula_units_Z 40
_cell_length_a 18.703832
_cell_length_b 14.479285
_cell_length_c 7.999755
_cell_angle_alpha 90.000000
_cell_angle_beta 139.053355
_cell_angle_gamma 90.000000
_cell_volume 1419.814603
_symmetry_space_group_name_H-M "C 2/M"
_symmetry_group_IT_number 12
_symmetry_cell_setting 'monoclinic'
loop_
_space_group_symop_operation_xyz
x,y,z
-x,y,-z
-x,-y,-z
x,-y,z
1/2+x,1/2+y,z
1/2-x,1/2+y,-z
1/2-x,1/2-y,-z
1/2+x,1/2-y,z
loop_
_atom_site_type_symbol
_atom_site_label
_atom_site_fract_x
_atom_site_fract_y
_atom_site_fract_z
Si Si1 0.376415 0.394350 0.900077
Si Si2 0.740624 0.858228 0.991922
Si Si3 0.561499 0.609460 0.446147
Si Si4 0.829865 0.385924 0.630943
Si Si5 0.966231 0.609518 0.193686
O O1 0.391929 0.500000 0.870751
O O2 0.291895 0.350987 0.619970
O O3 0.302828 0.397817 0.940691
O O4 0.492512 0.354383 0.165982
O O5 0.812186 0.886364 0.281472
O O6 0.613284 0.880125 0.789249
O O7 0.750000 0.750000 0.000000
O O8 0.500000 0.650911 0.500000
O O9 0.537167 0.500000 0.397705
O O10 0.823599 0.500000 0.623744
O O11 0.891426 0.355883 0.907038
O O12 0.911833 0.355565 0.625612
O O13 0.977006 0.500000 0.191277
#
# Coordination Sequence:
#
# PCOD9219646 Si02
#       5
#     8   8   8   8   8
#     4   9  17  34  56  77 101 136 183 225 264 318
#     4  11  21  32  47  79 109 143 178 219 267 325
#     4   8  15  31  53  71 100 140 176 216 263 311
#     4   8  16  32  56  82 104 135 178 224 271 319
#     4   9  17  33  55  79 110 141 175 220 272 324
#
# _framework density 28.172692999999999
#
# number of rings (size 3 to 8) (size 9 to 14) (size 15 to 20)
#    0.000    3.000    0.000    4.200    0.000    0.800 
#   10.800    5.000    0.000    4.800    0.000    0.000 
#    0.000    0.000    0.000    0.400    0.000    0.000 
#
# Total GULP energy -111823.821335 kJ/mol
# GULP energy per Si atom -5591.191067 kJ/mol
# Density = 2.810857 g / cm^3
# Si number density = 28.172693 Si / 1000 Ang^3
#
#
#
# Elastic Constant Matrix: (Units=GPa)
#
#
# Indices 1 2 3 4 5 6 
#
# 1 135.1962 -11.6052 21.3093 0.0000 28.9480 0.0000
# 2 -11.6052 73.1389 8.8160 0.0000 8.2628 0.0000
# 3 21.3093 8.8160 136.9801 0.0000 21.0546 0.0000
# 4 0.0000 0.0000 0.0000 18.6208 0.0000 -0.6785
# 5 28.9480 8.2628 21.0546 0.0000 74.1521 0.0000
# 6 0.0000 0.0000 0.0000 -0.6785 0.0000 -21.2889
#
#
#
# Elastic Compliance Matrix: (Units=1/GPa)
#
#
# Indices 1 2 3 4 5 6 
#
# 1 0.008385 0.001805 -0.000927 0.000000 -0.003211 0.000000
# 2 0.001805 0.014297 -0.000886 0.000000 -0.002046 0.000000
# 3 -0.000927 -0.000886 0.007770 0.000000 -0.001745 0.000000
# 4 0.000000 0.000000 0.000000 0.053641 0.000000 -0.001710
# 5 -0.003211 -0.002046 -0.001745 0.000000 0.015463 0.000000
# 6 0.000000 0.000000 0.000000 -0.001710 0.000000 -0.046918
#
#
# Mechanical properties :
#
#
# Convention : Reuss Voigt Hill
#
# Bulk Modulus (GPa) = 32.85640 42.48395 37.67018
# Shear Modulus (GPa) = 79.61757 36.08313 57.85035
#
# Velocity S-wave (km/s) = 5.32183 3.58269 4.53638
# Velocity P-wave (km/s) = 7.03209 5.67686 6.39051
#
# Compressibility (1/GPa) = 0.03043547
#
# Stress axis : x y z
#
# Youngs Moduli (GPa) = 119.25556 69.94451 128.70198
#
# Poissons Ratio (x) = -0.12626 0.11931
# Poissons Ratio (y) = -0.21527 0.11409
# Poissons Ratio (z) = 0.11055 0.06200
#
# Static dielectric constant tensor:
#      x y z
#    x 2.306030 0.000000 -0.056220 
#    y 0.000000 2.128210 0.000000 
#    z -0.056220 0.000000 2.222600 
# 
# From -- ./inp_files/88239.got.cif
#   From: 2010.05.17/outbox.cif.g08.bks.cpg/sg12_45_cif.got.tgz:88239.got - 2010.06.03 13:09:07.
