data_PCOD9219762
_publ_section_title
;
Structure prediction by ZEFSAII (Michael W. Deem and Ramdas Pophale) SiO2 
 PCOD9219762
Probable space group: C 2/M
;
_chemical_formula_sum "Si O2"
_cell_formula_units_Z 48
_cell_length_a 9.912373
_cell_length_b 23.037541
_cell_length_c 15.520597
_cell_angle_alpha 90.000000
_cell_angle_beta 38.984360
_cell_angle_gamma 90.000000
_cell_volume 2229.705713
_symmetry_space_group_name_H-M "C 2/M"
_symmetry_group_IT_number 12
_symmetry_cell_setting 'monoclinic'
loop_
_space_group_symop_operation_xyz
x,y,z
-x,y,-z
-x,-y,-z
x,-y,z
1/2+x,1/2+y,z
1/2-x,1/2+y,-z
1/2-x,1/2-y,-z
1/2+x,1/2-y,z
loop_
_atom_site_type_symbol
_atom_site_label
_atom_site_fract_x
_atom_site_fract_y
_atom_site_fract_z
Si Si1 0.045024 0.624668 0.575334
Si Si2 0.256320 0.567083 0.132836
Si Si3 0.937637 0.742709 0.701976
Si Si4 0.509883 0.228003 0.127599
Si Si5 0.464061 0.093215 0.115097
Si Si6 0.991179 0.873167 0.606124
O O1 0.874976 0.601525 0.729410
O O2 0.037161 0.694727 0.589938
O O3 0.000000 0.608916 0.500000
O O4 0.280556 0.601829 0.480547
O O5 0.271651 0.500000 0.152510
O O6 0.123251 0.569653 0.109388
O O7 0.500000 0.589216 0.000000
O O8 0.678041 0.736843 0.826666
O O9 0.033323 0.730096 0.748493
O O10 0.971383 0.809411 0.658947
O O11 0.505748 0.162447 0.096616
O O12 0.750000 0.250000 0.000000
O O13 0.214802 0.088881 0.265738
O O14 0.500000 0.071837 0.000000
O O15 0.000000 0.864747 0.500000
#
# Coordination Sequence:
#
# PCOD9219762 Si02
#       6
#     8   8   8   8   8   8
#     4  12  24  40  68  98 132 180 216 269 338 400
#     4  11  27  50  72  97 130 172 226 285 340 394
#     4  11  21  35  56  93 136 176 218 261 321 397
#     4  11  21  34  55  95 133 177 221 266 316 395
#     4  11  24  43  68  95 133 171 220 280 330 391
#     4  11  21  41  61  99 137 174 219 271 318 398
#
# _framework density 21.527504
#
# number of rings (size 3 to 8) (size 9 to 14) (size 15 to 20)
#    0.000    0.833    3.333    5.500    4.667    0.667 
#    0.000    1.667    0.000    0.000    0.000    0.000 
#    0.000    0.000    0.000    0.000    0.000    0.000 
#
# Total GULP energy -134228.371645 kJ/mol
# GULP energy per Si atom -5592.848819 kJ/mol
# Density = 2.147851 g / cm^3
# Si number density = 21.527504 Si / 1000 Ang^3
#
#
#
# Elastic Constant Matrix: (Units=GPa)
#
#
# Indices 1 2 3 4 5 6 
#
# 1 145.7354 12.2357 65.9017 -0.0001 9.9237 -0.0004
# 2 12.2357 28.2157 14.6812 0.0000 -1.1274 0.0001
# 3 65.9017 14.6812 147.9143 -0.0003 -13.6757 -0.0012
# 4 -0.0001 0.0000 -0.0003 9.6538 0.0001 -0.5337
# 5 9.9237 -1.1274 -13.6757 0.0001 61.2441 0.0005
# 6 -0.0004 0.0001 -0.0012 -0.5337 0.0005 -14.5625
#
#
#
# Elastic Compliance Matrix: (Units=1/GPa)
#
#
# Indices 1 2 3 4 5 6 
#
# 1 0.009016 -0.001898 -0.004051 0.000000 -0.002400 0.000000
# 2 -0.001898 0.037772 -0.002870 0.000000 0.000362 0.000000
# 3 -0.004051 -0.002870 0.009094 0.000000 0.002634 -0.000001
# 4 0.000000 0.000000 0.000000 0.103377 0.000000 -0.003789
# 5 -0.002400 0.000362 0.002634 0.000000 0.017312 0.000001
# 6 0.000000 0.000000 -0.000001 -0.003789 0.000001 -0.068531
#
#
# Mechanical properties :
#
#
# Convention : Reuss Voigt Hill
#
# Bulk Modulus (GPa) = 26.14733 56.38914 41.26824
# Shear Modulus (GPa) = 36.12044 26.53688 31.32866
#
# Velocity S-wave (km/s) = 4.10063 3.51479 3.81896
# Velocity P-wave (km/s) = 5.88155 6.53624 6.21752
#
# Compressibility (1/GPa) = 0.03824482
#
# Stress axis : x y z
#
# Youngs Moduli (GPa) = 110.91057 26.47456 109.96521
#
# Poissons Ratio (x) = 0.05025 0.44543
# Poissons Ratio (y) = 0.21053 0.31559
# Poissons Ratio (z) = 0.44926 0.07598
#
# Static dielectric constant tensor:
#      x y z
#    x 1.441060 0.000000 -0.155520 
#    y 0.000000 1.771200 0.000000 
#    z -0.155520 0.000000 1.768880 
# 
# From -- ./inp_files/200106.got.cif
#   From: 2010.05.17/outbox.cif.g08.bks.cpg/sg12_101_cif.got.tgz:200106.got - 2010.06.03 13:09:07.
