data_PCOD9219289
_publ_section_title
;
Structure prediction by ZEFSAII (Michael W. Deem and Ramdas Pophale) SiO2 
 PCOD9219289
Probable space group: C 2/M
;
_chemical_formula_sum "Si O2"
_cell_formula_units_Z 40
_cell_length_a 22.783539
_cell_length_b 10.294749
_cell_length_c 10.800697
_cell_angle_alpha 90.000000
_cell_angle_beta 113.230901
_cell_angle_gamma 90.000000
_cell_volume 2327.918277
_symmetry_space_group_name_H-M "C 2/M"
_symmetry_group_IT_number 12
_symmetry_cell_setting 'monoclinic'
loop_
_space_group_symop_operation_xyz
x,y,z
-x,y,-z
-x,-y,-z
x,-y,z
1/2+x,1/2+y,z
1/2-x,1/2+y,-z
1/2-x,1/2-y,-z
1/2+x,1/2-y,z
loop_
_atom_site_type_symbol
_atom_site_label
_atom_site_fract_x
_atom_site_fract_y
_atom_site_fract_z
Si Si1 0.493376 0.000000 0.207159
Si Si2 0.509294 0.500000 0.808272
Si Si3 0.824297 0.841378 0.181568
Si Si4 0.111607 0.000000 0.116819
Si Si5 0.814387 0.248962 0.886788
Si Si6 0.602447 0.000000 0.105100
Si Si7 0.036566 0.243936 0.659702
O O1 0.563290 0.000000 0.201246
O O2 0.478341 0.874756 0.277529
O O3 0.446728 0.000000 0.050263
O O4 0.442885 0.500000 0.825429
O O5 0.514216 0.625847 0.727565
O O6 0.568662 0.500000 0.954632
O O7 0.759853 0.785502 0.188855
O O8 0.888093 0.783965 0.295574
O O9 0.824000 0.000000 0.181588
O O10 0.824041 0.788223 0.039897
O O11 0.156818 0.874955 0.158726
O O12 0.854978 0.372747 0.878774
O O13 0.000000 0.244660 0.500000
#
# Coordination Sequence:
#
# PCOD9219289 Si02
#       7
#     4   4   8   4   8   4   8
#     4  11  23  37  55  90 116 147 190 227 295 330
#     4  11  21  37  59  88 114 153 192 229 287 334
#     4  11  21  35  56  85 118 147 192 230 287 338
#     4  11  20  36  60  87 123 140 184 249 284 338
#     4  11  20  34  57  87 116 147 180 239 291 334
#     4  11  20  36  60  83 121 148 176 237 290 350
#     4  12  23  39  59  82 117 153 194 233 272 340
#
# _framework density 17.182735000000001
#
# number of rings (size 3 to 8) (size 9 to 14) (size 15 to 20)
#    0.000    0.800    7.000    1.800    0.000    4.000 
#    0.000    0.000    0.000    7.200    0.000    0.000 
#    0.000    0.000    0.000    0.000    0.000    0.000 
#
# Total GULP energy -111659.290478 kJ/mol
# GULP energy per Si atom -5582.964524 kJ/mol
# Density = 1.714363 g / cm^3
# Si number density = 17.182735 Si / 1000 Ang^3
#
#
#
# Elastic Constant Matrix: (Units=GPa)
#
#
# Indices 1 2 3 4 5 6 
#
# 1 184.1787 98.3975 57.8041 0.0000 23.1631 0.0000
# 2 98.3975 194.5982 47.4517 0.0000 5.2767 0.0000
# 3 57.8041 47.4517 89.7259 0.0000 14.6589 0.0000
# 4 0.0000 0.0000 0.0000 30.1430 0.0000 14.5266
# 5 23.1631 5.2767 14.6589 0.0000 21.1055 0.0000
# 6 0.0000 0.0000 0.0000 14.5266 0.0000 30.3098
#
#
#
# Elastic Compliance Matrix: (Units=1/GPa)
#
#
# Indices 1 2 3 4 5 6 
#
# 1 0.009241 -0.003804 -0.002752 0.000000 -0.007279 0.000000
# 2 -0.003804 0.007477 -0.002121 0.000000 0.003779 0.000000
# 3 -0.002752 -0.002121 0.015182 0.000000 -0.006994 0.000000
# 4 0.000000 0.000000 0.000000 0.043139 0.000000 -0.020675
# 5 -0.007279 0.003779 -0.006994 0.000000 0.059283 0.000000
# 6 0.000000 0.000000 0.000000 -0.020675 0.000000 0.042902
#
#
# Mechanical properties :
#
#
# Convention : Reuss Voigt Hill
#
# Bulk Modulus (GPa) = 68.74747 97.31215 83.02981
# Shear Modulus (GPa) = 25.07165 33.96828 29.51997
#
# Velocity S-wave (km/s) = 3.82399 4.45104 4.14937
# Velocity P-wave (km/s) = 7.71969 9.11989 8.44884
#
# Compressibility (1/GPa) = 0.01454599
#
# Stress axis : x y z
#
# Youngs Moduli (GPa) = 108.21061 133.74217 65.86561
#
# Poissons Ratio (x) = 0.50879 0.18128
# Poissons Ratio (y) = 0.41166 0.13969
# Poissons Ratio (z) = 0.29783 0.28364
#
# Static dielectric constant tensor:
#      x y z
#    x 1.590320 0.000000 0.012290 
#    y 0.000000 1.574260 0.000000 
#    z 0.012290 0.000000 1.549340 
# 
# From -- ./inp_files/172624.got.cif
#   From: 2010.05.17/outbox.cif.g08.bks.cpg/sg12_87_cif.got.tgz:172624.got - 2010.06.03 13:09:07.
