data_PCOD9219111
_publ_section_title
;
Structure prediction by ZEFSAII (Michael W. Deem and Ramdas Pophale) SiO2 
 PCOD9219111
Probable space group: C 2/M
;
_chemical_formula_sum "Si O2"
_cell_formula_units_Z 64
_cell_length_a 17.228407
_cell_length_b 18.795049
_cell_length_c 20.143212
_cell_angle_alpha 90.000000
_cell_angle_beta 150.128039
_cell_angle_gamma 90.000000
_cell_volume 3248.642909
_symmetry_space_group_name_H-M "C 2/M"
_symmetry_group_IT_number 12
_symmetry_cell_setting 'monoclinic'
loop_
_space_group_symop_operation_xyz
x,y,z
-x,y,-z
-x,-y,-z
x,-y,z
1/2+x,1/2+y,z
1/2-x,1/2+y,-z
1/2-x,1/2-y,-z
1/2+x,1/2-y,z
loop_
_atom_site_type_symbol
_atom_site_label
_atom_site_fract_x
_atom_site_fract_y
_atom_site_fract_z
Si Si1 0.924883 0.190380 0.308532
Si Si2 0.080639 0.354466 0.247796
Si Si3 0.974132 0.664226 0.557004
Si Si4 0.382501 0.307499 0.673278
Si Si5 0.592132 0.194928 0.002131
Si Si6 0.389824 0.917254 0.216008
Si Si7 0.649129 0.313477 0.962892
Si Si8 0.833084 0.077816 0.344134
O O1 0.869142 0.120475 0.304583
O O2 0.958432 0.255791 0.382466
O O3 0.073740 0.183634 0.371342
O O4 0.773114 0.206107 0.151688
O O5 0.098558 0.276108 0.293105
O O6 0.232654 0.376344 0.320595
O O7 0.951203 0.354592 0.092354
O O8 0.034160 0.406962 0.272120
O O9 0.789658 0.667188 0.436531
O O10 0.000000 0.642256 0.500000
O O11 0.060637 0.616315 0.676612
O O12 0.523693 0.344635 0.818557
O O13 0.543632 0.272584 0.939515
O O14 0.500000 0.174297 0.000000
O O15 0.347914 0.000000 0.190738
O O16 0.258759 0.868950 0.082054
O O17 0.750000 0.250000 0.000000
O O18 0.000000 0.069468 0.500000
O O19 0.760678 0.000000 0.279499
#
# Coordination Sequence:
#
# PCOD9219111 Si02
#       8
#     8   8   8   8   8   8   8   8
#     4  12  20  39  63  96 131 169 219 267 324 387
#     4  11  20  41  63  94 127 175 219 266 321 394
#     4  12  26  42  65 100 126 168 226 287 332 385
#     4  11  22  38  72  98 126 162 227 282 318 377
#     4  11  20  34  66  97 127 157 209 269 318 369
#     4  12  25  43  68  93 130 177 218 269 344 407
#     4  11  19  41  66  94 125 163 216 273 317 381
#     4  11  25  39  55  86 136 179 213 259 323 405
#
# _framework density 19.700533
#
# number of rings (size 3 to 8) (size 9 to 14) (size 15 to 20)
#    0.000    0.625    7.500    2.625    3.500    0.250 
#    0.000    4.375    0.000    2.625    0.000    0.000 
#    0.000    0.000    0.000    0.000    0.000    0.000 
#
# Total GULP energy -178505.721644 kJ/mol
# GULP energy per Si atom -5578.303801 kJ/mol
# Density = 1.965569 g / cm^3
# Si number density = 19.700533 Si / 1000 Ang^3
#
#
#
# Elastic Constant Matrix: (Units=GPa)
#
#
# Indices 1 2 3 4 5 6 
#
# 1 117.0936 30.3418 14.3351 0.0029 -16.9242 -0.0010
# 2 30.3418 68.9642 17.9226 0.0064 -10.3325 0.0016
# 3 14.3351 17.9226 89.8262 0.0050 -6.9239 0.0001
# 4 0.0029 0.0064 0.0050 16.9852 0.0030 -2.6241
# 5 -16.9242 -10.3325 -6.9239 0.0030 37.7487 -0.0009
# 6 -0.0010 0.0016 0.0001 -2.6241 -0.0009 12.6376
#
#
#
# Elastic Compliance Matrix: (Units=1/GPa)
#
#
# Indices 1 2 3 4 5 6 
#
# 1 0.010079 -0.003774 -0.000595 0.000000 0.003377 0.000001
# 2 -0.003774 0.017227 -0.002639 -0.000006 0.002539 -0.000004
# 3 -0.000595 -0.002639 0.011845 -0.000003 0.001183 0.000000
# 4 0.000000 -0.000006 -0.000003 0.060826 -0.000007 0.012630
# 5 0.003377 0.002539 0.001183 -0.000007 0.028917 0.000000
# 6 0.000001 -0.000004 0.000000 0.012630 0.000000 0.081752
#
#
# Mechanical properties :
#
#
# Convention : Reuss Voigt Hill
#
# Bulk Modulus (GPa) = 39.78539 44.56474 42.17507
# Shear Modulus (GPa) = 21.45544 27.69326 24.57435
#
# Velocity S-wave (km/s) = 3.30370 3.75335 3.53568
# Velocity P-wave (km/s) = 5.89843 6.43845 6.17435
#
# Compressibility (1/GPa) = 0.02513485
#
# Stress axis : x y z
#
# Youngs Moduli (GPa) = 99.21644 58.04858 84.42086
#
# Poissons Ratio (x) = 0.21906 0.05025
# Poissons Ratio (y) = 0.37442 0.22281
# Poissons Ratio (z) = 0.05906 0.15320
#
# Static dielectric constant tensor:
#      x y z
#    x 1.554270 -0.000010 0.158780 
#    y -0.000010 1.745970 0.000010 
#    z 0.158780 0.000010 1.617900 
# 
# From -- ./inp_files/317390.got.cif
#   From: 2010.05.17/outbox.cif.g08.bks.cpg/sg12_159_cif.got.tgz:317390.got - 2010.06.03 13:09:07.
