data_PCOD9219008
_publ_section_title
;
Structure prediction by ZEFSAII (Michael W. Deem and Ramdas Pophale) SiO2 
 PCOD9219008
Probable space group: C 2/M
;
_chemical_formula_sum "Si O2"
_cell_formula_units_Z 56
_cell_length_a 11.317132
_cell_length_b 18.088914
_cell_length_c 14.511343
_cell_angle_alpha 90.000000
_cell_angle_beta 64.778506
_cell_angle_gamma 90.000000
_cell_volume 2687.480719
_symmetry_space_group_name_H-M "C 2/M"
_symmetry_group_IT_number 12
_symmetry_cell_setting 'monoclinic'
loop_
_space_group_symop_operation_xyz
x,y,z
-x,y,-z
-x,-y,-z
x,-y,z
1/2+x,1/2+y,z
1/2-x,1/2+y,-z
1/2-x,1/2-y,-z
1/2+x,1/2-y,z
loop_
_atom_site_type_symbol
_atom_site_label
_atom_site_fract_x
_atom_site_fract_y
_atom_site_fract_z
Si Si1 0.259156 0.081352 0.842078
Si Si2 0.393452 0.324589 0.778279
Si Si3 0.653822 0.411758 0.676834
Si Si4 0.143092 0.311944 0.502975
Si Si5 0.507655 0.166201 0.270297
Si Si6 0.894178 0.339549 0.104150
Si Si7 0.623278 0.314343 0.001073
O O1 0.173052 0.097682 0.780725
O O2 0.403928 0.093912 0.757989
O O3 0.245436 0.138572 0.929741
O O4 0.232105 0.000000 0.884622
O O5 0.514963 0.372653 0.701738
O O6 0.408460 0.241058 0.733438
O O7 0.252730 0.364829 0.821020
O O8 0.402673 0.310552 0.884280
O O9 0.654441 0.500000 0.657694
O O10 0.772345 0.368725 0.587222
O O11 0.250000 0.250000 0.500000
O O12 0.099769 0.342798 0.616296
O O13 0.000000 0.293850 0.500000
O O14 0.453765 0.174749 0.184869
O O15 0.869032 0.262986 0.055515
O O16 0.000000 0.378638 0.000000
O O17 0.500000 0.356844 0.000000
#
# Coordination Sequence:
#
# PCOD9219008 Si02
#       7
#     8   8   8   8   8   8   8
#     4  11  23  39  61  92 131 171 214 267 328 394
#     4  12  22  39  67  97 134 174 222 275 332 393
#     4  11  25  45  66  97 133 170 219 281 343 397
#     4  12  27  43  70 104 134 174 231 286 339 394
#     4  12  23  39  66  94 131 168 224 272 326 397
#     4  11  22  37  63 100 131 175 214 272 331 395
#     4  11  19  34  59  95 131 163 211 267 324 386
#
# _framework density 20.837358999999999
#
# number of rings (size 3 to 8) (size 9 to 14) (size 15 to 20)
#    0.000    0.571    8.571    1.286    2.000    1.714 
#    0.000    0.714    0.000    4.714    0.000    0.000 
#    0.000    0.000    0.000    0.000    0.000    0.000 
#
# Total GULP energy -155895.038621 kJ/mol
# GULP energy per Si atom -5567.679951 kJ/mol
# Density = 2.078993 g / cm^3
# Si number density = 20.837359 Si / 1000 Ang^3
#
#
#
# Elastic Constant Matrix: (Units=GPa)
#
#
# Indices 1 2 3 4 5 6 
#
# 1 108.8372 16.8760 21.5221 0.0000 -25.3242 0.0000
# 2 16.8760 60.9262 18.8227 0.0000 -4.3062 0.0000
# 3 21.5221 18.8227 110.5482 0.0000 -16.8936 0.0000
# 4 0.0000 0.0000 0.0000 16.2872 0.0000 -1.4692
# 5 -25.3242 -4.3062 -16.8936 0.0000 36.9827 0.0000
# 6 0.0000 0.0000 0.0000 -1.4692 0.0000 16.3371
#
#
#
# Elastic Compliance Matrix: (Units=1/GPa)
#
#
# Indices 1 2 3 4 5 6 
#
# 1 0.011375 -0.002426 -0.000704 0.000000 0.007185 0.000000
# 2 -0.002426 0.017860 -0.002693 0.000000 -0.000811 0.000000
# 3 -0.000704 -0.002693 0.010234 0.000000 0.003880 0.000000
# 4 0.000000 0.000000 0.000000 0.061900 0.000000 0.005567
# 5 0.007185 -0.000811 0.003880 0.000000 0.033638 0.000000
# 6 0.000000 0.000000 0.000000 0.005567 0.000000 0.061711
#
#
# Mechanical properties :
#
#
# Convention : Reuss Voigt Hill
#
# Bulk Modulus (GPa) = 35.93839 43.86147 39.89993
# Shear Modulus (GPa) = 22.97409 28.79413 25.88411
#
# Velocity S-wave (km/s) = 3.32406 3.72136 3.52831
# Velocity P-wave (km/s) = 5.65836 6.28966 5.98234
#
# Compressibility (1/GPa) = 0.02782540
#
# Stress axis : x y z
#
# Youngs Moduli (GPa) = 87.91077 55.99197 97.71216
#
# Poissons Ratio (x) = 0.13581 0.06874
# Poissons Ratio (y) = 0.21324 0.26311
# Poissons Ratio (z) = 0.06185 0.15077
#
# Static dielectric constant tensor:
#      x y z
#    x 1.905060 0.000000 -0.056140 
#    y 0.000000 1.744240 0.000000 
#    z -0.056140 0.000000 1.775170 
# 
# From -- ./inp_files/206596.got.cif
#   From: 2010.05.17/outbox.cif.g08.bks.cpg/sg12_104_cif.got.tgz:206596.got - 2010.06.03 13:09:07.
