data_PCOD9219044
_publ_section_title
;
Structure prediction by ZEFSAII (Michael W. Deem and Ramdas Pophale) SiO2 
 PCOD9219044
Probable space group: C 2/M
;
_chemical_formula_sum "Si O2"
_cell_formula_units_Z 58
_cell_length_a 11.957629
_cell_length_b 27.871362
_cell_length_c 18.456292
_cell_angle_alpha 90.000000
_cell_angle_beta 29.606905
_cell_angle_gamma 90.000000
_cell_volume 3038.894887
_symmetry_space_group_name_H-M "C 2/M"
_symmetry_group_IT_number 12
_symmetry_cell_setting 'monoclinic'
loop_
_space_group_symop_operation_xyz
x,y,z
-x,y,-z
-x,-y,-z
x,-y,z
1/2+x,1/2+y,z
1/2-x,1/2+y,-z
1/2-x,1/2-y,-z
1/2+x,1/2-y,z
loop_
_atom_site_type_symbol
_atom_site_label
_atom_site_fract_x
_atom_site_fract_y
_atom_site_fract_z
Si Si1 0.510077 0.213974 0.605705
Si Si2 0.708285 0.091536 0.194704
Si Si3 0.438267 0.646561 0.322223
Si Si4 0.500000 0.500000 0.000000
Si Si5 0.125026 0.182517 0.360660
Si Si6 0.085284 0.685600 0.180475
Si Si7 0.469220 0.666833 0.144125
Si Si8 0.348909 0.944878 0.512566
O O1 0.715693 0.180311 0.463632
O O2 0.510198 0.267685 0.576283
O O3 0.481260 0.214053 0.709237
O O4 0.271835 0.192611 0.714004
O O5 0.610987 0.130466 0.193427
O O6 0.897972 0.119848 0.136795
O O7 0.507171 0.076145 0.360944
O O8 0.807780 0.042802 0.107577
O O9 0.597646 0.654464 0.301296
O O10 0.542527 0.658179 0.185276
O O11 0.354676 0.591980 0.364539
O O12 0.383942 0.191093 0.236988
O O13 0.000000 0.158595 0.500000
O O14 0.334404 0.695608 0.008203
O O15 0.500000 0.943545 0.500000
O O16 0.284312 0.000000 0.535796
#
# Coordination Sequence:
#
# PCOD9219044 Si02
#       8
#     8   8   8   2   8   8   8   8
#     4  11  22  40  66  87 115 160 205 253 299 355
#     4  11  19  36  61  91 122 155 196 251 303 358
#     4  12  22  40  63  87 124 160 200 253 299 360
#     4  12  20  32  66  96 116 164 202 248 318 360
#     4  12  25  41  64  85 118 169 211 240 296 374
#     4  11  24  42  58  87 130 158 195 251 306 354
#     4  11  22  39  61  90 127 153 191 255 315 346
#     4  11  20  33  60  93 119 149 195 256 305 344
#
# _framework density 19.085885000000001
#
# number of rings (size 3 to 8) (size 9 to 14) (size 15 to 20)
#    0.000    0.690    7.586    2.897    1.931    1.103 
#    2.483    0.000    1.517    1.241    0.000    1.931 
#    0.000    0.000    0.000    0.000    0.000    0.000 
#
# Total GULP energy -161673.207342 kJ/mol
# GULP energy per Si atom -5574.938184 kJ/mol
# Density = 1.904244 g / cm^3
# Si number density = 19.085885 Si / 1000 Ang^3
#
#
#
# Elastic Constant Matrix: (Units=GPa)
#
#
# Indices 1 2 3 4 5 6 
#
# 1 111.2369 22.5803 12.7522 -0.0116 5.5037 0.0075
# 2 22.5803 65.8357 -2.0089 -0.0094 7.7548 0.0035
# 3 12.7522 -2.0089 55.1599 -0.0280 4.6372 0.0062
# 4 -0.0116 -0.0094 -0.0280 20.4131 0.0077 -0.8272
# 5 5.5037 7.7548 4.6372 0.0077 19.7574 -0.0012
# 6 0.0075 0.0035 0.0062 -0.8272 -0.0012 13.9012
#
#
#
# Elastic Compliance Matrix: (Units=1/GPa)
#
#
# Indices 1 2 3 4 5 6 
#
# 1 0.009994 -0.003394 -0.002358 0.000001 -0.000898 -0.000004
# 2 -0.003394 0.017147 0.001934 0.000011 -0.006239 -0.000003
# 3 -0.002358 0.001934 0.019131 0.000027 -0.004592 -0.000006
# 4 0.000001 0.000011 0.000027 0.049107 -0.000030 0.002922
# 5 -0.000898 -0.006239 -0.004592 -0.000030 0.054391 0.000007
# 6 -0.000004 -0.000003 -0.000006 0.002922 0.000007 0.072110
#
#
# Mechanical properties :
#
#
# Convention : Reuss Voigt Hill
#
# Bulk Modulus (GPa) = 25.88374 33.20883 29.54628
# Shear Modulus (GPa) = 20.62753 24.07492 22.35122
#
# Velocity S-wave (km/s) = 3.29108 3.55547 3.42583
# Velocity P-wave (km/s) = 5.29460 5.85599 5.58236
#
# Compressibility (1/GPa) = 0.03863430
#
# Stress axis : x y z
#
# Youngs Moduli (GPa) = 100.06459 58.31862 52.27169
#
# Poissons Ratio (x) = 0.19792 0.12328
# Poissons Ratio (y) = 0.33959 -0.10107
# Poissons Ratio (z) = 0.23600 -0.11276
#
# Static dielectric constant tensor:
#      x y z
#    x 1.689090 0.000000 0.031000 
#    y 0.000000 1.665360 -0.000010 
#    z 0.031000 -0.000010 1.664610 
# 
# From -- ./inp_files/266196.got.cif
#   From: 2010.05.17/outbox.cif.g08.bks.cpg/sg12_134_cif.got.tgz:266196.got - 2010.06.03 13:09:07.
