data_PCOD9219249
_publ_section_title
;
Structure prediction by ZEFSAII (Michael W. Deem and Ramdas Pophale) SiO2 
 PCOD9219249
Probable space group: C 2/M
;
_chemical_formula_sum "Si O2"
_cell_formula_units_Z 48
_cell_length_a 24.251413
_cell_length_b 8.513257
_cell_length_c 27.597118
_cell_angle_alpha 90.000000
_cell_angle_beta 28.521801
_cell_angle_gamma 90.000000
_cell_volume 2720.593375
_symmetry_space_group_name_H-M "C 2/M"
_symmetry_group_IT_number 12
_symmetry_cell_setting 'monoclinic'
loop_
_space_group_symop_operation_xyz
x,y,z
-x,y,-z
-x,-y,-z
x,-y,z
1/2+x,1/2+y,z
1/2-x,1/2+y,-z
1/2-x,1/2-y,-z
1/2+x,1/2-y,z
loop_
_atom_site_type_symbol
_atom_site_label
_atom_site_fract_x
_atom_site_fract_y
_atom_site_fract_z
Si Si1 0.552091 0.808517 0.884199
Si Si2 0.380043 0.821201 0.619964
Si Si3 0.931133 0.814313 0.684485
Si Si4 0.311952 0.186029 0.499889
Si Si5 0.679406 0.191478 0.884328
Si Si6 0.299880 0.814354 0.315696
O O1 0.639691 0.759774 0.860325
O O2 0.589555 0.757521 0.801377
O O3 0.555381 0.000000 0.881539
O O4 0.424755 0.760521 0.999927
O O5 0.500000 0.838508 0.500000
O O6 0.407224 0.725044 0.647001
O O7 0.298903 0.724747 0.646947
O O8 0.336951 0.000000 0.663003
O O9 0.807536 0.757557 0.801568
O O10 0.054119 0.740229 0.602541
O O11 0.941413 0.000000 0.684610
O O12 0.250000 0.250000 0.500000
O O13 0.241171 0.240137 0.602270
O O14 0.311400 0.000000 0.499851
O O15 0.681404 0.000000 0.881692
O O16 0.310515 0.000000 0.315555
#
# Coordination Sequence:
#
# PCOD9219249 Si02
#       6
#     8   8   8   8   8   8
#     4   8  14  26  47  79 115 146 177 213 255 308
#     4  11  21  31  46  75 113 149 178 215 265 320
#     4  11  20  33  56  82 108 143 181 221 266 321
#     4  12  26  43  58  77 104 138 178 228 276 324
#     4   8  14  26  47  79 115 146 177 213 255 308
#     4  11  20  33  56  82 108 143 181 221 266 321
#
# _framework density 17.643208999999999
#
# number of rings (size 3 to 8) (size 9 to 14) (size 15 to 20)
#    0.000    1.833    3.333    4.000    0.000    0.667 
#    0.000    0.000    0.000    6.000    0.000    0.000 
#    0.000    0.000    0.000    0.000    0.000    0.000 
#
# Total GULP energy -133678.766670 kJ/mol
# GULP energy per Si atom -5569.948611 kJ/mol
# Density = 1.760305 g / cm^3
# Si number density = 17.643209 Si / 1000 Ang^3
#
#
#
# Elastic Constant Matrix: (Units=GPa)
#
#
# Indices 1 2 3 4 5 6 
#
# 1 108.0496 24.0301 72.1763 0.0000 0.3384 -0.0005
# 2 24.0301 52.9120 38.9466 -0.0008 -0.4397 -0.0013
# 3 72.1763 38.9466 167.1513 -0.0005 -2.3001 -0.0003
# 4 0.0000 -0.0008 -0.0005 3.3155 -0.0001 1.2259
# 5 0.3384 -0.4397 -2.3001 -0.0001 3.9678 0.0000
# 6 -0.0005 -0.0013 -0.0003 1.2259 0.0000 52.6947
#
#
#
# Elastic Compliance Matrix: (Units=1/GPa)
#
#
# Indices 1 2 3 4 5 6 
#
# 1 0.013288 -0.002177 -0.005292 -0.000001 -0.004442 0.000000
# 2 -0.002177 0.023169 -0.004456 0.000005 0.000170 0.000000
# 3 -0.005292 -0.004456 0.009380 0.000000 0.005395 0.000000
# 4 -0.000001 0.000005 0.000000 0.304232 0.000011 -0.007078
# 5 -0.004442 0.000170 0.005395 0.000011 0.255551 0.000000
# 6 0.000000 0.000000 0.000000 -0.007078 0.000000 0.019142
#
#
# Mechanical properties :
#
#
# Convention : Reuss Voigt Hill
#
# Bulk Modulus (GPa) = 45.47910 66.49099 55.98504
# Shear Modulus (GPa) = 7.62264 24.85958 16.24111
#
# Velocity S-wave (km/s) = 2.08082 3.75776 3.03732
# Velocity P-wave (km/s) = 5.62194 7.52303 6.64086
#
# Compressibility (1/GPa) = 0.02198812
#
# Stress axis : x y z
#
# Youngs Moduli (GPa) = 75.25711 43.16044 106.60841
#
# Poissons Ratio (x) = 0.09394 0.56414
# Poissons Ratio (y) = 0.16380 0.47508
# Poissons Ratio (z) = 0.39824 0.19234
#
# Static dielectric constant tensor:
#      x y z
#    x 1.560750 0.000000 -0.003140 
#    y 0.000000 1.614600 0.000000 
#    z -0.003140 0.000000 1.693160 
# 
# From -- ./inp_files/365563.got.cif
#   From: 2010.05.17/outbox.cif.g08.bks.cpg/sg12_183_cif.got.tgz:365563.got - 2010.06.03 13:09:07.
