data_PCOD9219527
_publ_section_title
;
Structure prediction by ZEFSAII (Michael W. Deem and Ramdas Pophale) SiO2 
 PCOD9219527
Probable space group: C 2/M
;
_chemical_formula_sum "Si O2"
_cell_formula_units_Z 44
_cell_length_a 25.469411
_cell_length_b 16.420190
_cell_length_c 19.048805
_cell_angle_alpha 90.000000
_cell_angle_beta 16.588359
_cell_angle_gamma 90.000000
_cell_volume 2274.370833
_symmetry_space_group_name_H-M "C 2/M"
_symmetry_group_IT_number 12
_symmetry_cell_setting 'monoclinic'
loop_
_space_group_symop_operation_xyz
x,y,z
-x,y,-z
-x,-y,-z
x,-y,z
1/2+x,1/2+y,z
1/2-x,1/2+y,-z
1/2-x,1/2-y,-z
1/2+x,1/2-y,z
loop_
_atom_site_type_symbol
_atom_site_label
_atom_site_fract_x
_atom_site_fract_y
_atom_site_fract_z
Si Si1 0.347920 0.687519 0.590513
Si Si2 0.323501 0.591567 0.009784
Si Si3 0.742535 0.658901 0.044916
Si Si4 0.289715 0.319631 0.505788
Si Si5 0.582396 0.096441 0.039938
Si Si6 0.000000 0.677700 0.500000
O O1 0.536801 0.638666 0.335206
O O2 0.279603 0.709369 0.599965
O O3 0.203714 0.638057 0.822649
O O4 0.423682 0.764475 0.536284
O O5 0.375921 0.500000 0.958547
O O6 0.222428 0.599025 0.064128
O O7 0.507447 0.645281 0.768728
O O8 0.174512 0.625740 0.253852
O O9 0.868852 0.643897 0.950180
O O10 0.750000 0.750000 0.000000
O O11 0.250000 0.250000 0.500000
O O12 0.131572 0.387457 0.701146
O O13 0.621312 0.000000 0.995687
#
# Coordination Sequence:
#
# PCOD9219527 Si02
#       6
#     8   8   8   8   8   4
#     4  11  22  39  66  92 125 165 216 259 309 385
#     4  11  24  40  64  93 125 164 210 270 317 360
#     4  11  20  40  65  91 126 170 217 256 306 385
#     4  11  25  42  66  90 128 174 214 253 316 397
#     4  12  24  39  62  99 135 165 206 267 330 383
#     4  12  21  42  69  90 120 160 228 264 311 372
#
# _framework density 19.34601
#
# number of rings (size 3 to 8) (size 9 to 14) (size 15 to 20)
#    0.000    0.727    3.636    5.182    0.000    5.818 
#    0.000    0.000    0.000    1.091    0.000    0.000 
#    0.000    0.000    0.000    0.000    0.000    0.000 
#
# Total GULP energy -122831.519299 kJ/mol
# GULP energy per Si atom -5583.250877 kJ/mol
# Density = 1.930198 g / cm^3
# Si number density = 19.346010 Si / 1000 Ang^3
#
#
#
# Elastic Constant Matrix: (Units=GPa)
#
#
# Indices 1 2 3 4 5 6 
#
# 1 148.7246 50.4593 33.1872 -0.0098 0.5701 0.0028
# 2 50.4593 113.5782 30.6487 -0.0152 8.4945 0.0063
# 3 33.1872 30.6487 105.7265 -0.0233 4.8788 0.0053
# 4 -0.0098 -0.0152 -0.0233 25.6329 0.0107 -4.1485
# 5 0.5701 8.4945 4.8788 0.0107 26.6404 -0.0031
# 6 0.0028 0.0063 0.0053 -4.1485 -0.0031 16.5879
#
#
#
# Elastic Compliance Matrix: (Units=1/GPa)
#
#
# Indices 1 2 3 4 5 6 
#
# 1 0.008207 -0.003281 -0.001679 -0.000001 0.001178 0.000000
# 2 -0.003281 0.011040 -0.002028 0.000004 -0.003078 -0.000003
# 3 -0.001679 -0.002028 0.010632 0.000008 -0.001264 -0.000001
# 4 -0.000001 0.000004 0.000008 0.040658 -0.000018 0.010168
# 5 0.001178 -0.003078 -0.001264 -0.000018 0.038725 0.000004
# 6 0.000000 -0.000003 -0.000001 0.010168 0.000004 0.062828
#
#
# Mechanical properties :
#
#
# Convention : Reuss Voigt Hill
#
# Bulk Modulus (GPa) = 62.88846 66.29105 64.58976
# Shear Modulus (GPa) = 26.12767 30.68785 28.40776
#
# Velocity S-wave (km/s) = 3.67896 3.98711 3.83613
# Velocity P-wave (km/s) = 7.11506 7.45228 7.28562
#
# Compressibility (1/GPa) = 0.01590117
#
# Stress axis : x y z
#
# Youngs Moduli (GPa) = 121.84246 90.58138 94.05693
#
# Poissons Ratio (x) = 0.29721 0.15796
# Poissons Ratio (y) = 0.39979 0.19077
# Poissons Ratio (z) = 0.20463 0.18372
#
# Static dielectric constant tensor:
#      x y z
#    x 1.725840 0.000000 0.017100 
#    y 0.000000 1.693630 0.000000 
#    z 0.017100 0.000000 1.689880 
# 
# From -- ./inp_files/290007.got.cif
#   From: 2010.05.17/outbox.cif.g08.bks.cpg/sg12_146_cif.got.tgz:290007.got - 2010.06.03 13:09:07.
