data_PCOD9219802
_publ_section_title
;
Structure prediction by ZEFSAII (Michael W. Deem and Ramdas Pophale) SiO2 
 PCOD9219802
Probable space group: C 2/M
;
_chemical_formula_sum "Si O2"
_cell_formula_units_Z 58
_cell_length_a 13.955721
_cell_length_b 11.593847
_cell_length_c 16.063853
_cell_angle_alpha 90.000000
_cell_angle_beta 57.083525
_cell_angle_gamma 90.000000
_cell_volume 2181.882991
_symmetry_space_group_name_H-M "C 2/M"
_symmetry_group_IT_number 12
_symmetry_cell_setting 'monoclinic'
loop_
_space_group_symop_operation_xyz
x,y,z
-x,y,-z
-x,-y,-z
x,-y,z
1/2+x,1/2+y,z
1/2-x,1/2+y,-z
1/2-x,1/2-y,-z
1/2+x,1/2-y,z
loop_
_atom_site_type_symbol
_atom_site_label
_atom_site_fract_x
_atom_site_fract_y
_atom_site_fract_z
Si Si1 0.976764 0.124567 0.610588
Si Si2 0.244441 0.137136 0.940215
Si Si3 0.816548 0.624592 0.366236
Si Si4 0.097309 0.126452 0.849718
Si Si5 0.515520 0.836072 0.147418
Si Si6 0.704801 0.373890 0.618659
Si Si7 0.531241 0.125309 0.387235
Si Si8 0.000000 0.500000 0.000000
O O1 0.916909 0.247750 0.656270
O O2 0.000000 0.122527 0.500000
O O3 0.091058 0.126485 0.614342
O O4 0.920819 0.000000 0.658110
O O5 0.165518 0.165627 0.898541
O O6 0.377123 0.134057 0.847326
O O7 0.223202 0.000000 0.977373
O O8 0.250000 0.250000 0.000000
O O9 0.756637 0.500000 0.394496
O O10 0.747015 0.742976 0.411577
O O11 0.894771 0.633456 0.246877
O O12 0.913080 0.624071 0.391736
O O13 0.173154 0.122886 0.730774
O O14 0.991984 0.203163 0.871895
O O15 0.055716 0.000000 0.887214
O O16 0.527700 0.902641 0.056747
O O17 0.759065 0.500000 0.576033
O O18 0.500000 0.126686 0.500000
O O19 0.587321 0.000000 0.344060
#
# Coordination Sequence:
#
# PCOD9219802 Si02
#       8
#     8   8   8   8   8   8   8   2
#     4   8  12  18  31  53  84 117 152 194 235 280
#     4  11  23  40  56  79 105 137 179 226 272 326
#     4   9  15  26  42  66  93 123 161 206 249 296
#     4   9  20  36  56  76 105 139 172 216 275 326
#     4  11  21  35  56  77 103 135 177 221 267 315
#     4   8  14  25  40  62  90 125 159 195 247 302
#     4   8  13  20  33  55  88 122 151 190 243 294
#     4  12  20  32  50  76  94 130 164 218 262 300
#
# _framework density 26.582543999999999
#
# number of rings (size 3 to 8) (size 9 to 14) (size 15 to 20)
#    0.000    2.759    1.379    0.828    0.000    0.552 
#    0.000    1.724    0.000    0.000    0.000    0.000 
#    0.000   39.724    0.000  117.379    0.276   26.897 
#
# Total GULP energy -161613.328185 kJ/mol
# GULP energy per Si atom -5572.873386 kJ/mol
# Density = 2.652204 g / cm^3
# Si number density = 26.582544 Si / 1000 Ang^3
#
#
#
# Elastic Constant Matrix: (Units=GPa)
#
#
# Indices 1 2 3 4 5 6 
#
# 1 112.1980 41.5738 26.1097 0.0000 27.3805 0.0000
# 2 41.5738 287.9708 25.7705 0.0000 2.3187 0.0000
# 3 26.1097 25.7705 88.2314 0.0000 23.3492 0.0000
# 4 0.0000 0.0000 0.0000 29.5324 0.0000 13.6335
# 5 27.3805 2.3187 23.3492 0.0000 40.1439 0.0000
# 6 0.0000 0.0000 0.0000 13.6335 0.0000 27.2918
#
#
#
# Elastic Compliance Matrix: (Units=1/GPa)
#
#
# Indices 1 2 3 4 5 6 
#
# 1 0.011451 -0.001500 -0.001071 0.000000 -0.007100 0.000000
# 2 -0.001500 0.003770 -0.001029 0.000000 0.001404 0.000000
# 3 -0.001071 -0.001029 0.013878 0.000000 -0.007282 0.000000
# 4 0.000000 0.000000 0.000000 0.044011 0.000000 -0.021985
# 5 -0.007100 0.001404 -0.007282 0.000000 0.033908 0.000000
# 6 0.000000 0.000000 0.000000 -0.021985 0.000000 0.047624
#
#
# Mechanical properties :
#
#
# Convention : Reuss Voigt Hill
#
# Bulk Modulus (GPa) = 45.66472 75.03424 60.34948
# Shear Modulus (GPa) = 29.56115 45.72336 37.64226
#
# Velocity S-wave (km/s) = 3.33836 4.15185 3.76713
# Velocity P-wave (km/s) = 5.66351 7.16045 6.45551
#
# Compressibility (1/GPa) = 0.02189874
#
# Stress axis : x y z
#
# Youngs Moduli (GPa) = 87.33084 265.25982 72.05422
#
# Poissons Ratio (x) = 0.39791 0.07720
# Poissons Ratio (y) = 0.13100 0.07412
# Poissons Ratio (z) = 0.09357 0.27286
#
# Static dielectric constant tensor:
#      x y z
#    x 2.056670 0.000000 -0.045180 
#    y 0.000000 2.156040 0.000000 
#    z -0.045180 0.000000 2.083140 
# 
# From -- ./inp_files/268732.got.cif
#   From: 2010.05.17/outbox.cif.g08.bks.cpg/sg12_135_cif.got.tgz:268732.got - 2010.06.03 13:09:07.
