data_PCOD9219867
_publ_section_title
;
Structure prediction by ZEFSAII (Michael W. Deem and Ramdas Pophale) SiO2 
 PCOD9219867
Probable space group: C 2/M
;
_chemical_formula_sum "Si O2"
_cell_formula_units_Z 40
_cell_length_a 8.540260
_cell_length_b 34.428617
_cell_length_c 14.811584
_cell_angle_alpha 90.000000
_cell_angle_beta 30.129829
_cell_angle_gamma 90.000000
_cell_volume 2186.060718
_symmetry_space_group_name_H-M "C 2/M"
_symmetry_group_IT_number 12
_symmetry_cell_setting 'monoclinic'
loop_
_space_group_symop_operation_xyz
x,y,z
-x,y,-z
-x,-y,-z
x,-y,z
1/2+x,1/2+y,z
1/2-x,1/2+y,-z
1/2-x,1/2-y,-z
1/2+x,1/2-y,z
loop_
_atom_site_type_symbol
_atom_site_label
_atom_site_fract_x
_atom_site_fract_y
_atom_site_fract_z
Si Si1 0.134009 0.791926 0.202064
Si Si2 0.256785 0.000000 0.202752
Si Si3 0.809426 0.061483 0.500000
Si Si4 0.188398 0.849281 0.500000
Si Si5 0.740200 0.708074 0.797936
Si Si6 0.634961 0.000000 0.202752
O O1 0.100296 0.750000 0.266469
O O2 0.006721 0.825933 0.328286
O O3 0.947147 0.791039 0.201902
O O4 0.500000 0.797043 0.000000
O O5 0.454967 0.000000 0.196689
O O6 0.027023 0.962761 0.322849
O O7 0.500000 0.000000 0.000000
O O8 0.758122 0.105973 0.500000
O O9 0.000000 0.061326 0.500000
O O10 0.495569 0.037239 0.677151
O O11 0.508423 0.825933 0.328285
O O12 0.000000 0.848538 0.500000
O O13 0.500000 0.702957 0.000000
O O14 0.000000 0.000000 0.000000
#
# Coordination Sequence:
#
# PCOD9219867 Si02
#       6
#     8   4   8   8   8   4
#     4  11  22  38  57  80 108 144 185 228 271 322
#     4   9  17  35  58  80 104 139 177 215 262 316
#     4   8  18  35  55  77 108 142 176 213 262 322
#     4  11  21  36  56  81 111 146 181 224 273 321
#     4  11  22  38  57  80 108 144 185 228 271 322
#     4   9  17  35  58  80 104 139 177 215 262 316
#
# _framework density 18.297751999999999
#
# number of rings (size 3 to 8) (size 9 to 14) (size 15 to 20)
#    0.000    2.000    0.000    7.200    0.000    1.600 
#    0.000   10.000    0.000    0.000    0.000    0.000 
#    0.000    0.000    0.000    0.000    0.000    0.000 
#
# Total GULP energy -111688.463391 kJ/mol
# GULP energy per Si atom -5584.423170 kJ/mol
# Density = 1.825611 g / cm^3
# Si number density = 18.297752 Si / 1000 Ang^3
#
#
#
# Elastic Constant Matrix: (Units=GPa)
#
#
# Indices 1 2 3 4 5 6 
#
# 1 100.8636 52.3660 37.1281 0.0000 -0.2369 0.0000
# 2 52.3660 211.0848 110.2459 0.0000 -1.9256 0.0000
# 3 37.1281 110.2459 153.5285 0.0000 -1.5149 0.0000
# 4 0.0000 0.0000 0.0000 17.1651 0.0000 0.0391
# 5 -0.2369 -1.9256 -1.5149 0.0000 35.4713 0.0000
# 6 0.0000 0.0000 0.0000 0.0391 0.0000 18.3333
#
#
#
# Elastic Compliance Matrix: (Units=1/GPa)
#
#
# Indices 1 2 3 4 5 6 
#
# 1 0.011511 -0.002244 -0.001174 0.000000 -0.000095 0.000000
# 2 -0.002244 0.008019 -0.005214 0.000000 0.000198 0.000000
# 3 -0.001174 -0.005214 0.010543 0.000000 0.000159 0.000000
# 4 0.000000 0.000000 0.000000 0.058258 0.000000 -0.000124
# 5 -0.000095 0.000198 0.000159 0.000000 0.028209 0.000000
# 6 0.000000 0.000000 0.000000 -0.000124 0.000000 0.054546
#
#
# Mechanical properties :
#
#
# Convention : Reuss Voigt Hill
#
# Bulk Modulus (GPa) = 78.05899 96.10632 87.08266
# Shear Modulus (GPa) = 25.95827 31.90974 28.93400
#
# Velocity S-wave (km/s) = 3.77059 4.18055 3.98085
# Velocity P-wave (km/s) = 7.85554 8.71437 8.29608
#
# Compressibility (1/GPa) = 0.01281082
#
# Stress axis : x y z
#
# Youngs Moduli (GPa) = 86.87371 124.70673 94.85281
#
# Poissons Ratio (x) = 0.27979 0.11132
# Poissons Ratio (y) = 0.19491 0.49453
# Poissons Ratio (z) = 0.10195 0.65018
#
# Static dielectric constant tensor:
#      x y z
#    x 1.616970 0.000000 0.000330 
#    y 0.000000 1.619570 0.000000 
#    z 0.000330 0.000000 1.607070 
# 
# From -- ./inp_files/201139.got.cif
#   From: 2010.05.17/outbox.cif.g08.bks.cpg/sg12_101_cif.got.tgz:201139.got - 2010.06.03 13:09:07.
