data_PCOD9219204
_publ_section_title
;
Structure prediction by ZEFSAII (Michael W. Deem and Ramdas Pophale) SiO2 
 PCOD9219204
Probable space group: C 2/M
;
_chemical_formula_sum "Si O2"
_cell_formula_units_Z 40
_cell_length_a 26.628205
_cell_length_b 7.859783
_cell_length_c 26.449197
_cell_angle_alpha 90.000000
_cell_angle_beta 157.068360
_cell_angle_gamma 90.000000
_cell_volume 2156.851347
_symmetry_space_group_name_H-M "C 2/M"
_symmetry_group_IT_number 12
_symmetry_cell_setting 'monoclinic'
loop_
_space_group_symop_operation_xyz
x,y,z
-x,y,-z
-x,-y,-z
x,-y,z
1/2+x,1/2+y,z
1/2-x,1/2+y,-z
1/2-x,1/2-y,-z
1/2+x,1/2-y,z
loop_
_atom_site_type_symbol
_atom_site_label
_atom_site_fract_x
_atom_site_fract_y
_atom_site_fract_z
Si Si1 0.641436 0.796935 0.858404
Si Si2 0.587713 0.709038 0.201469
Si Si3 0.706760 0.708387 0.096767
Si Si4 0.653189 0.301185 0.155084
Si Si5 0.636365 0.699520 0.357282
O O1 0.689647 0.733882 0.848309
O O2 0.502743 0.734265 0.747398
O O3 0.635265 0.000000 0.850087
O O4 0.750000 0.750000 0.000000
O O5 0.591040 0.500000 0.203186
O O6 0.661555 0.770339 0.219475
O O7 0.638936 0.773088 0.302686
O O8 0.436548 0.754668 0.055631
O O9 0.708938 0.500000 0.100317
O O10 0.720627 0.770651 0.167418
O O11 0.690738 0.500000 0.192963
O O12 0.500000 0.297418 0.000000
O O13 0.648249 0.500000 0.361095
O O14 0.750000 0.750000 0.500000
#
# Coordination Sequence:
#
# PCOD9219204 Si02
#       5
#     8   8   8   8   8
#     4  11  20  32  51  76 104 134 165 203 248 294
#     4   8  13  24  43  68  97 125 156 200 245 286
#     4   8  13  23  42  71 100 122 152 198 247 290
#     4   7  10  18  37  66  96 121 148 193 249 286
#     4  11  22  36  51  72 101 134 171 206 247 297
#
# _framework density 18.545553999999999
#
# number of rings (size 3 to 8) (size 9 to 14) (size 15 to 20)
#    0.000    3.000    2.000    3.600    0.000    0.000 
#    0.000    0.000    0.000    1.200    0.000   15.400 
#    0.000    0.000    0.000    0.000    0.000    0.000 
#
# Total GULP energy -111360.500858 kJ/mol
# GULP energy per Si atom -5568.025043 kJ/mol
# Density = 1.850334 g / cm^3
# Si number density = 18.545554 Si / 1000 Ang^3
#
#
#
# Elastic Constant Matrix: (Units=GPa)
#
#
# Indices 1 2 3 4 5 6 
#
# 1 212.7907 1.6006 72.6658 0.0000 -34.9833 0.0000
# 2 1.6006 17.1126 2.0869 0.0000 -7.5525 0.0000
# 3 72.6658 2.0869 92.4067 0.0000 -16.7788 0.0000
# 4 0.0000 0.0000 0.0000 20.3086 0.0000 0.9331
# 5 -34.9833 -7.5525 -16.7788 0.0000 17.4323 0.0000
# 6 0.0000 0.0000 0.0000 0.9331 0.0000 15.1788
#
#
#
# Elastic Compliance Matrix: (Units=1/GPa)
#
#
# Indices 1 2 3 4 5 6 
#
# 1 0.008785 0.007103 -0.004010 0.000000 0.016848 0.000000
# 2 0.007103 0.079881 0.001797 0.000000 0.050592 0.000000
# 3 -0.004010 0.001797 0.015286 0.000000 0.007445 0.000000
# 4 0.000000 0.000000 0.000000 0.049380 0.000000 -0.003036
# 5 0.016848 0.050592 0.007445 0.000000 0.120260 0.000000
# 6 0.000000 0.000000 0.000000 -0.003036 0.000000 0.066068
#
#
# Mechanical properties :
#
#
# Convention : Reuss Voigt Hill
#
# Bulk Modulus (GPa) = 8.79255 52.77964 30.78610
# Shear Modulus (GPa) = 13.59468 26.98105 20.28787
#
# Velocity S-wave (km/s) = 2.71041 3.81839 3.31108
# Velocity P-wave (km/s) = 3.81398 6.92542 5.59052
#
# Compressibility (1/GPa) = 0.11373262
#
# Stress axis : x y z
#
# Youngs Moduli (GPa) = 113.82896 12.51858 65.41947
#
# Poissons Ratio (x) = -0.08892 0.26230
# Poissons Ratio (y) = -0.80853 -0.11754
# Poissons Ratio (z) = 0.45640 -0.02249
#
# Static dielectric constant tensor:
#      x y z
#    x 1.734660 0.000000 -0.037490 
#    y 0.000000 1.705260 0.000000 
#    z -0.037490 0.000000 1.586340 
# 
# From -- ./inp_files/93023.got.cif
#   From: 2010.05.17/outbox.cif.g08.bks.cpg/sg12_47_cif.got.tgz:93023.got - 2010.06.03 13:09:07.
