data_PCOD9219979
_publ_section_title
;
Structure prediction by ZEFSAII (Michael W. Deem and Ramdas Pophale) SiO2 
 PCOD9219979
Probable space group: C 2/M
;
_chemical_formula_sum "Si O2"
_cell_formula_units_Z 50
_cell_length_a 24.311156
_cell_length_b 7.676183
_cell_length_c 15.040728
_cell_angle_alpha 90.000000
_cell_angle_beta 126.836415
_cell_angle_gamma 90.000000
_cell_volume 2246.466797
_symmetry_space_group_name_H-M "C 2/M"
_symmetry_group_IT_number 12
_symmetry_cell_setting 'monoclinic'
loop_
_space_group_symop_operation_xyz
x,y,z
-x,y,-z
-x,-y,-z
x,-y,z
1/2+x,1/2+y,z
1/2-x,1/2+y,-z
1/2-x,1/2-y,-z
1/2+x,1/2-y,z
loop_
_atom_site_type_symbol
_atom_site_label
_atom_site_fract_x
_atom_site_fract_y
_atom_site_fract_z
Si Si1 0.424898 0.800942 0.705375
Si Si2 0.404845 0.701324 0.493638
Si Si3 0.925384 0.800061 0.202808
Si Si4 0.576418 0.297872 0.096047
Si Si5 0.500000 0.000000 0.500000
Si Si6 0.321792 0.799571 0.953826
Si Si7 0.175393 0.210365 0.750230
O O1 0.392449 0.715548 0.586583
O O2 0.507332 0.792636 0.768371
O O3 0.411518 0.715056 0.787406
O O4 0.402847 0.000000 0.689600
O O5 0.424873 0.500000 0.492523
O O6 0.339753 0.743620 0.367331
O O7 0.460785 0.845184 0.520904
O O8 0.890001 0.723901 0.256800
O O9 0.946157 0.000000 0.239770
O O10 0.865563 0.795562 0.071379
O O11 0.577105 0.500000 0.068622
O O12 0.633656 0.205459 0.092850
O O13 0.500000 0.228465 0.000000
O O14 0.246824 0.724615 0.859273
O O15 0.314683 0.000000 0.976474
O O16 0.176897 0.000000 0.763207
#
# Coordination Sequence:
#
# PCOD9219979 Si02
#       7
#     8   8   8   8   2   8   8
#     4  12  24  40  64  97 127 163 217 269 324 385
#     4  11  23  43  64  93 136 175 216 271 320 379
#     4  11  21  37  60  92 128 172 208 256 325 390
#     4  11  23  41  64  91 122 163 210 267 330 385
#     4  12  22  40  64 102 126 176 224 260 316 382
#     4  11  22  40  62  93 126 166 217 267 317 387
#     4   9  22  41  63  88 130 177 212 254 324 388
#
# _framework density 22.257172000000001
#
# number of rings (size 3 to 8) (size 9 to 14) (size 15 to 20)
#    0.000    1.120    2.400    4.560    0.000    1.920 
#    4.320    0.800    0.000    0.000    0.000    0.000 
#    0.000    0.000    0.000    0.000    0.000    0.000 
#
# Total GULP energy -139555.703369 kJ/mol
# GULP energy per Si atom -5582.228135 kJ/mol
# Density = 2.220651 g / cm^3
# Si number density = 22.257172 Si / 1000 Ang^3
#
#
#
# Elastic Constant Matrix: (Units=GPa)
#
#
# Indices 1 2 3 4 5 6 
#
# 1 37.1790 -12.5462 6.1137 0.0000 -7.8823 0.0000
# 2 -12.5462 92.8511 -16.2787 0.0000 3.1445 0.0000
# 3 6.1137 -16.2787 112.9900 0.0000 -13.7859 0.0000
# 4 0.0000 0.0000 0.0000 4.7375 0.0000 -8.9878
# 5 -7.8823 3.1445 -13.7859 0.0000 35.0404 0.0000
# 6 0.0000 0.0000 0.0000 -8.9878 0.0000 16.7544
#
#
#
# Elastic Compliance Matrix: (Units=1/GPa)
#
#
# Indices 1 2 3 4 5 6 
#
# 1 0.029515 0.003725 -0.000306 0.000000 0.006185 0.000000
# 2 0.003725 0.011524 0.001507 0.000000 0.000397 0.000000
# 3 -0.000306 0.001507 0.009516 0.000000 0.003540 0.000000
# 4 0.000000 0.000000 0.000000-11.904207 0.000000 -6.385989
# 5 0.006185 0.000397 0.003540 0.000000 0.031287 0.000000
# 6 0.000000 0.000000 0.000000 -6.385989 0.000000 -3.366065
#
#
# Mechanical properties :
#
#
# Convention : Reuss Voigt Hill
#
# Bulk Modulus (GPa) = 16.55395 21.95531 19.25463
# Shear Modulus (GPa) = -0.32942 29.02188 14.34623
#
# Velocity S-wave (km/s) = -0.38513 3.61492 2.54159
# Velocity P-wave (km/s) = 2.69369 5.22583 4.15724
#
# Compressibility (1/GPa) = 0.06040854
#
# Stress axis : x y z
#
# Youngs Moduli (GPa) = 33.88052 86.77495 105.08713
#
# Poissons Ratio (x) = -0.32325 0.03213
# Poissons Ratio (y) = -0.12621 -0.15838
# Poissons Ratio (z) = 0.01036 -0.13078
#
# Static dielectric constant tensor:
#      x y z
#    x 1.791470 0.000000 0.002140 
#    y 0.000000 1.792420 0.000000 
#    z 0.002140 0.000000 1.854550 
# 
# From -- ./inp_files/244399.got.cif
#   From: 2010.05.17/outbox.cif.g08.bks.cpg/sg12_123_cif.got.tgz:244399.got - 2010.06.03 13:09:07.
