data_PCOD9219273
_publ_section_title
;
Structure prediction by ZEFSAII (Michael W. Deem and Ramdas Pophale) SiO2 
 PCOD9219273
Probable space group: C 2/M
;
_chemical_formula_sum "Si O2"
_cell_formula_units_Z 64
_cell_length_a 21.890111
_cell_length_b 16.880284
_cell_length_c 24.895841
_cell_angle_alpha 90.000000
_cell_angle_beta 22.286150
_cell_angle_gamma 90.000000
_cell_volume 3488.671382
_symmetry_space_group_name_H-M "C 2/M"
_symmetry_group_IT_number 12
_symmetry_cell_setting 'monoclinic'
loop_
_space_group_symop_operation_xyz
x,y,z
-x,y,-z
-x,-y,-z
x,-y,z
1/2+x,1/2+y,z
1/2-x,1/2+y,-z
1/2-x,1/2-y,-z
1/2+x,1/2-y,z
loop_
_atom_site_type_symbol
_atom_site_label
_atom_site_fract_x
_atom_site_fract_y
_atom_site_fract_z
Si Si1 0.629384 0.818631 0.713387
Si Si2 0.812059 0.907351 0.473482
Si Si3 0.557323 0.295831 0.216692
Si Si4 0.673612 0.804694 0.384040
Si Si5 0.822297 0.589673 0.957452
Si Si6 0.056256 0.094104 0.892843
Si Si7 0.214265 0.639660 0.129714
Si Si8 0.929510 0.591196 0.430873
O O1 0.736512 0.877340 0.590328
O O2 0.556432 0.752809 0.731559
O O3 0.729719 0.773229 0.676614
O O4 0.476669 0.868476 0.857926
O O5 0.680001 0.898780 0.533260
O O6 0.953741 0.847649 0.341908
O O7 0.858200 0.000000 0.437860
O O8 0.668375 0.230526 0.155324
O O9 0.668961 0.355936 0.093349
O O10 0.500000 0.787401 0.500000
O O11 0.787454 0.857126 0.252681
O O12 0.637120 0.854230 0.467918
O O13 0.799382 0.500000 0.993761
O O14 0.847103 0.592699 0.872950
O O15 0.082000 0.000000 0.863860
O O16 0.000000 0.106633 0.000000
O O17 0.902000 0.122694 0.983946
O O18 0.110513 0.611652 0.265096
O O19 0.921448 0.500000 0.454531
#
# Coordination Sequence:
#
# PCOD9219273 Si02
#       8
#     8   8   8   8   8   8   8   8
#     4  11  21  38  57  83 118 153 193 238 287 345
#     4  11  21  35  57  87 120 156 190 232 292 346
#     4  11  20  34  54  83 118 148 186 237 286 342
#     4  12  25  40  59  84 115 156 200 240 284 336
#     4  11  21  34  55  82 113 148 188 235 291 345
#     4  11  24  41  58  81 116 157 199 238 278 338
#     4  11  21  35  57  81 113 153 189 233 284 343
#     4  11  21  35  57  85 118 155 192 232 282 343
#
# _framework density 18.345092000000001
#
# number of rings (size 3 to 8) (size 9 to 14) (size 15 to 20)
#    0.000    0.875    3.750    7.125    0.000    2.000 
#    0.000    0.000    0.000    1.500    0.000    0.000 
#    0.000    8.000    0.000    0.000    0.000    0.000 
#
# Total GULP energy -178879.354036 kJ/mol
# GULP energy per Si atom -5589.979814 kJ/mol
# Density = 1.830334 g / cm^3
# Si number density = 18.345092 Si / 1000 Ang^3
#
#
#
# Elastic Constant Matrix: (Units=GPa)
#
#
# Indices 1 2 3 4 5 6 
#
# 1 54.0558 20.2034 8.0934 -0.0069 -19.8037 0.0014
# 2 20.2034 88.1978 1.7726 -0.0279 -16.0418 0.0105
# 3 8.0934 1.7726 47.0915 -0.0434 -9.9645 0.0138
# 4 -0.0069 -0.0279 -0.0434 7.5159 0.0016 22.3199
# 5 -19.8037 -16.0418 -9.9645 0.0016 23.1390 0.0011
# 6 0.0014 0.0105 0.0138 22.3199 0.0011 9.3118
#
#
#
# Elastic Compliance Matrix: (Units=1/GPa)
#
#
# Indices 1 2 3 4 5 6 
#
# 1 0.027350 -0.002297 0.000002 -0.000004 0.021816 0.000005
# 2 -0.002297 0.013272 0.001569 -0.000018 0.007911 0.000024
# 3 0.000002 0.001569 0.023552 -0.000041 0.011232 0.000061
# 4 -0.000004 -0.000018 -0.000041 -0.021747 -0.000035 0.052126
# 5 0.021816 0.007911 0.011232 -0.000035 0.072210 0.000045
# 6 0.000005 0.000024 0.000061 0.052126 0.000045 -0.017552
#
#
# Mechanical properties :
#
#
# Convention : Reuss Voigt Hill
#
# Bulk Modulus (GPa) = 15.94317 27.72046 21.83182
# Shear Modulus (GPa) = 41.86031 18.61170 30.23601
#
# Velocity S-wave (km/s) = 4.78203 3.18863 4.06418
# Velocity P-wave (km/s) = 6.26099 5.35722 5.82665
#
# Compressibility (1/GPa) = 0.06272278
#
# Stress axis : x y z
#
# Youngs Moduli (GPa) = 36.56283 75.34869 42.45834
#
# Poissons Ratio (x) = 0.17308 -0.00009
# Poissons Ratio (y) = 0.08399 -0.06662
# Poissons Ratio (z) = -0.00008 -0.11823
#
# Static dielectric constant tensor:
#      x y z
#    x 1.627010 0.000000 -0.000240 
#    y 0.000000 1.622980 0.000010 
#    z -0.000240 0.000010 1.668740 
# 
# From -- ./inp_files/347865.got.cif
#   From: 2010.05.17/outbox.cif.g08.bks.cpg/sg12_174_cif.got.tgz:347865.got - 2010.06.03 13:09:07.
