data_PCOD9219168
_publ_section_title
;
Structure prediction by ZEFSAII (Michael W. Deem and Ramdas Pophale) SiO2 
 PCOD9219168
Probable space group: C 2/M
;
_chemical_formula_sum "Si O2"
_cell_formula_units_Z 64
_cell_length_a 31.032462
_cell_length_b 8.809710
_cell_length_c 18.590507
_cell_angle_alpha 90.000000
_cell_angle_beta 37.652634
_cell_angle_gamma 90.000000
_cell_volume 3104.701266
_symmetry_space_group_name_H-M "C 2/M"
_symmetry_group_IT_number 12
_symmetry_cell_setting 'monoclinic'
loop_
_space_group_symop_operation_xyz
x,y,z
-x,y,-z
-x,-y,-z
x,-y,z
1/2+x,1/2+y,z
1/2-x,1/2+y,-z
1/2-x,1/2-y,-z
1/2+x,1/2-y,z
loop_
_atom_site_type_symbol
_atom_site_label
_atom_site_fract_x
_atom_site_fract_y
_atom_site_fract_z
Si Si1 0.040600 0.175525 0.040685
Si Si2 0.435041 0.164839 0.855882
Si Si3 0.672968 0.818174 0.782145
Si Si4 0.227876 0.680487 0.232798
Si Si5 0.889107 0.683767 0.281320
Si Si6 0.931191 0.684165 0.544494
Si Si7 0.409597 0.172214 0.411340
Si Si8 0.787874 0.672202 0.014417
O O1 0.068720 0.198296 0.084152
O O2 0.963657 0.253690 0.150935
O O3 0.033553 0.000000 0.030720
O O4 0.099967 0.254609 0.913308
O O5 0.509149 0.162027 0.720007
O O6 0.426947 0.000000 0.905885
O O7 0.370605 0.172930 0.887688
O O8 0.739524 0.750940 0.737302
O O9 0.668648 0.779224 0.702967
O O10 0.673424 0.000000 0.788851
O O11 0.234081 0.500000 0.230598
O O12 0.146304 0.715338 0.320652
O O13 0.274417 0.743891 0.106639
O O14 0.895565 0.500000 0.277043
O O15 0.876511 0.738250 0.380574
O O16 0.939560 0.500000 0.527472
O O17 0.917304 0.742350 0.480664
O O18 0.000000 0.736242 0.500000
O O19 0.380390 0.000000 0.459292
O O20 0.764234 0.500000 0.054710
O O21 0.750000 0.750000 0.000000
#
# Coordination Sequence:
#
# PCOD9219168 Si02
#       8
#     8   8   8   8   8   8   8   8
#     4  11  20  30  50  80 116 151 186 234 284 336
#     4   9  18  33  55  79 109 152 190 227 278 342
#     4  11  21  35  54  76 110 156 197 233 283 347
#     4  11  23  38  58  87 118 148 190 241 290 344
#     4   9  19  34  54  79 110 152 198 236 280 345
#     4   9  19  35  60  88 112 142 185 240 293 342
#     4   8  15  32  56  81 108 141 191 242 280 329
#     4  11  23  37  57  84 117 155 190 231 286 347
#
# _framework density 20.613899
#
# number of rings (size 3 to 8) (size 9 to 14) (size 15 to 20)
#    0.000    2.125    1.250    3.375    1.750    3.000 
#    0.000    0.625    0.000    7.500    0.000    0.000 
#    0.000    0.000    0.000    0.000    0.000    0.000 
#
# Total GULP energy -178173.308686 kJ/mol
# GULP energy per Si atom -5567.915896 kJ/mol
# Density = 2.056698 g / cm^3
# Si number density = 20.613899 Si / 1000 Ang^3
#
#
#
# Elastic Constant Matrix: (Units=GPa)
#
#
# Indices 1 2 3 4 5 6 
#
# 1 120.8183 18.4211 8.7815 0.0044 -6.2090 0.0015
# 2 18.4211 47.3972 2.7683 0.0186 -1.2937 -0.0016
# 3 8.7815 2.7683 15.4252 0.0136 3.1031 -0.0018
# 4 0.0044 0.0186 0.0136 7.1041 -0.0020 -5.1066
# 5 -6.2090 -1.2937 3.1031 -0.0020 16.3687 -0.0016
# 6 0.0015 -0.0016 -0.0018 -5.1066 -0.0016 23.4456
#
#
#
# Elastic Compliance Matrix: (Units=1/GPa)
#
#
# Indices 1 2 3 4 5 6 
#
# 1 0.009402 -0.003204 -0.005660 0.000017 0.004386 0.000003
# 2 -0.003204 0.022513 -0.002422 -0.000060 0.001023 -0.000012
# 3 -0.005660 -0.002422 0.071691 -0.000153 -0.015929 -0.000029
# 4 0.000017 -0.000060 -0.000153 0.166892 0.000055 0.036350
# 5 0.004386 0.001023 -0.015929 0.000055 0.065856 0.000015
# 6 0.000003 -0.000012 -0.000029 0.036350 0.000015 0.050569
#
#
# Mechanical properties :
#
#
# Convention : Reuss Voigt Hill
#
# Bulk Modulus (GPa) = 12.34055 27.06472 19.70264
# Shear Modulus (GPa) = 11.45457 19.62834 15.54146
#
# Velocity S-wave (km/s) = 2.35983 3.08910 2.74876
# Velocity P-wave (km/s) = 3.66395 5.08736 4.43316
#
# Compressibility (1/GPa) = 0.08103367
#
# Stress axis : x y z
#
# Youngs Moduli (GPa) = 106.35813 44.41892 13.94881
#
# Poissons Ratio (x) = 0.14231 0.07895
# Poissons Ratio (y) = 0.34076 0.03379
# Poissons Ratio (z) = 0.60199 0.10759
#
# Static dielectric constant tensor:
#      x y z
#    x 1.790040 0.000000 0.014420 
#    y 0.000000 1.719470 0.000000 
#    z 0.014420 0.000000 1.741200 
# 
# From -- ./inp_files/295484.got.cif
#   From: 2010.05.17/outbox.cif.g08.bks.cpg/sg12_148_cif.got.tgz:295484.got - 2010.06.03 13:09:07.
