data_PCOD9219148
_publ_section_title
;
Structure prediction by ZEFSAII (Michael W. Deem and Ramdas Pophale) SiO2 
 PCOD9219148
Probable space group: C 2/M
;
_chemical_formula_sum "Si O2"
_cell_formula_units_Z 64
_cell_length_a 15.947607
_cell_length_b 26.074028
_cell_length_c 16.504122
_cell_angle_alpha 90.000000
_cell_angle_beta 33.370179
_cell_angle_gamma 90.000000
_cell_volume 3774.810945
_symmetry_space_group_name_H-M "C 2/M"
_symmetry_group_IT_number 12
_symmetry_cell_setting 'monoclinic'
loop_
_space_group_symop_operation_xyz
x,y,z
-x,y,-z
-x,-y,-z
x,-y,z
1/2+x,1/2+y,z
1/2-x,1/2+y,-z
1/2-x,1/2-y,-z
1/2+x,1/2-y,z
loop_
_atom_site_type_symbol
_atom_site_label
_atom_site_fract_x
_atom_site_fract_y
_atom_site_fract_z
Si Si1 0.528034 0.792183 0.270860
Si Si2 0.520881 0.718485 0.843254
Si Si3 0.782215 0.718327 0.131063
Si Si4 0.810703 0.558997 0.059536
Si Si5 0.177176 0.560584 0.762251
Si Si6 0.325025 0.662662 0.620909
Si Si7 0.357334 0.225561 0.554219
Si Si8 0.767180 0.146651 0.984719
O O1 0.483007 0.755580 0.232578
O O2 0.645269 0.758593 0.230342
O O3 0.391692 0.802728 0.442211
O O4 0.623688 0.839373 0.157601
O O5 0.696246 0.707712 0.720941
O O6 0.430985 0.750389 0.983675
O O7 0.418053 0.669294 0.904557
O O8 0.764256 0.687359 0.229183
O O9 0.759993 0.678833 0.075547
O O10 0.776165 0.500000 0.076352
O O11 0.731248 0.590394 0.052633
O O12 0.994171 0.565720 0.905857
O O13 0.772658 0.570526 0.184483
O O14 0.213312 0.500000 0.714102
O O15 0.247105 0.609301 0.658198
O O16 0.500000 0.650189 0.500000
O O17 0.338203 0.712938 0.553445
O O18 0.500000 0.218965 0.500000
#
# Coordination Sequence:
#
# PCOD9219148 Si02
#       8
#     8   8   8   8   8   8   8   8
#     4   9  17  33  44  66  98 125 163 200 246 290
#     4   9  20  30  49  66  94 129 163 208 237 298
#     4   9  16  32  43  68  89 128 170 200 232 289
#     4   9  17  31  51  72  94 125 166 217 251 282
#     4   9  19  31  45  69  98 129 176 215 244 274
#     4  11  20  29  47  64  98 135 176 205 240 279
#     4  11  21  32  44  70 102 132 161 201 244 295
#     4   9  17  31  51  66  93 126 166 198 249 291
#
# _framework density 16.954491999999998
#
# number of rings (size 3 to 8) (size 9 to 14) (size 15 to 20)
#    0.000    2.500    3.750    2.625    3.500    0.750 
#    0.000    0.000    0.000    0.000    0.000    0.000 
#    0.000    3.000    0.000    0.000    0.000    0.000 
#
# Total GULP energy -178171.350360 kJ/mol
# GULP energy per Si atom -5567.854699 kJ/mol
# Density = 1.691590 g / cm^3
# Si number density = 16.954492 Si / 1000 Ang^3
#
#
#
# Elastic Constant Matrix: (Units=GPa)
#
#
# Indices 1 2 3 4 5 6 
#
# 1 59.5050 20.8703 21.7513 0.0000 -7.4383 0.0007
# 2 20.8703 51.7390 9.0485 0.0031 -7.8326 0.0013
# 3 21.7513 9.0485 80.7219 -0.0059 -4.7012 0.0029
# 4 0.0000 0.0031 -0.0059 16.2898 0.0015 -1.8142
# 5 -7.4383 -7.8326 -4.7012 0.0015 23.7133 -0.0004
# 6 0.0007 0.0013 0.0029 -1.8142 -0.0004 16.0509
#
#
#
# Elastic Compliance Matrix: (Units=1/GPa)
#
#
# Indices 1 2 3 4 5 6 
#
# 1 0.021555 -0.007345 -0.004788 -0.000001 0.003386 0.000001
# 2 -0.007345 0.023144 -0.000308 -0.000005 0.005279 -0.000002
# 3 -0.004788 -0.000308 0.013778 0.000005 0.001128 -0.000002
# 4 -0.000001 -0.000005 0.000005 0.062171 -0.000005 0.007027
# 5 0.003386 0.005279 0.001128 -0.000005 0.045200 0.000000
# 6 0.000001 -0.000002 -0.000002 0.007027 0.000000 0.063096
#
#
# Mechanical properties :
#
#
# Convention : Reuss Voigt Hill
#
# Bulk Modulus (GPa) = 29.76495 32.81182 31.28838
# Shear Modulus (GPa) = 18.86632 20.56384 19.71508
#
# Velocity S-wave (km/s) = 3.33943 3.48643 3.41372
# Velocity P-wave (km/s) = 5.69763 5.96672 5.83373
#
# Compressibility (1/GPa) = 0.03359656
#
# Stress axis : x y z
#
# Youngs Moduli (GPa) = 46.39363 43.20863 72.57692
#
# Poissons Ratio (x) = 0.31736 0.34747
# Poissons Ratio (y) = 0.34075 0.02233
# Poissons Ratio (z) = 0.22212 0.01329
#
# Static dielectric constant tensor:
#      x y z
#    x 1.609930 0.000000 -0.020810 
#    y 0.000000 1.579540 0.000000 
#    z -0.020810 0.000000 1.653100 
# 
# From -- ./inp_files/279375.got.cif
#   From: 2010.05.17/outbox.cif.g08.bks.cpg/sg12_140_cif.got.tgz:279375.got - 2010.06.03 13:09:07.
