data_PCOD9219188
_publ_section_title
;
Structure prediction by ZEFSAII (Michael W. Deem and Ramdas Pophale) SiO2 
 PCOD9219188
Probable space group: C 2/M
;
_chemical_formula_sum "Si O2"
_cell_formula_units_Z 40
_cell_length_a 29.137566
_cell_length_b 8.799854
_cell_length_c 10.427478
_cell_angle_alpha 90.000000
_cell_angle_beta 59.878288
_cell_angle_gamma 90.000000
_cell_volume 2312.622265
_symmetry_space_group_name_H-M "C 2/M"
_symmetry_group_IT_number 12
_symmetry_cell_setting 'monoclinic'
loop_
_space_group_symop_operation_xyz
x,y,z
-x,y,-z
-x,-y,-z
x,-y,z
1/2+x,1/2+y,z
1/2-x,1/2+y,-z
1/2-x,1/2-y,-z
1/2+x,1/2-y,z
loop_
_atom_site_type_symbol
_atom_site_label
_atom_site_fract_x
_atom_site_fract_y
_atom_site_fract_z
Si Si1 0.507826 0.675207 0.143835
Si Si2 0.280504 0.318136 0.579658
Si Si3 0.608346 0.317416 0.693889
Si Si4 0.274991 0.681370 0.093036
Si Si5 0.617352 0.179755 0.965040
O O1 0.517728 0.500000 0.166885
O O2 0.450128 0.725733 0.274801
O O3 0.500000 0.677735 0.000000
O O4 0.559446 0.773935 0.099141
O O5 0.272487 0.500000 0.595314
O O6 0.250000 0.250000 0.500000
O O7 0.342868 0.288096 0.468767
O O8 0.257510 0.242986 0.739085
O O9 0.606586 0.500000 0.721482
O O10 0.618861 0.236061 0.814805
O O11 0.273370 0.500000 0.092430
O O12 0.335252 0.737512 0.027830
O O13 0.250000 0.750000 0.000000
O O14 0.624880 0.000000 0.958795
#
# Coordination Sequence:
#
# PCOD9219188 Si02
#       5
#     8   8   8   8   8
#     4   8  15  29  48  73 106 144 180 219 269 323
#     4  11  21  35  57  85 114 148 185 227 276 327
#     4   9  18  32  52  78 111 146 181 221 271 326
#     4  12  25  41  58  79 110 148 188 231 279 335
#     4  11  20  31  51  79 110 143 182 227 275 326
#
# _framework density 17.296384
#
# number of rings (size 3 to 8) (size 9 to 14) (size 15 to 20)
#    0.000    1.800    2.000    5.400    0.000    4.400 
#    0.000    0.000    0.000    1.200    0.000    8.400 
#    0.000    0.000    0.000    0.000    0.000    0.000 
#
# Total GULP energy -111624.818511 kJ/mol
# GULP energy per Si atom -5581.240926 kJ/mol
# Density = 1.725702 g / cm^3
# Si number density = 17.296384 Si / 1000 Ang^3
#
#
#
# Elastic Constant Matrix: (Units=GPa)
#
#
# Indices 1 2 3 4 5 6 
#
# 1 135.6842 73.3689 76.7135 0.0000 -22.6618 0.0000
# 2 73.3689 117.5632 52.5675 0.0000 -8.7273 0.0000
# 3 76.7135 52.5675 89.5710 0.0000 -10.2797 0.0000
# 4 0.0000 0.0000 0.0000 25.1938 0.0000 -2.3402
# 5 -22.6618 -8.7273 -10.2797 0.0000 32.4007 0.0000
# 6 0.0000 0.0000 0.0000 -2.3402 0.0000 29.8857
#
#
#
# Elastic Compliance Matrix: (Units=1/GPa)
#
#
# Indices 1 2 3 4 5 6 
#
# 1 0.018081 -0.005677 -0.011289 0.000000 0.007535 0.000000
# 2 -0.005677 0.013346 -0.003127 0.000000 -0.001368 0.000000
# 3 -0.011289 -0.003127 0.022484 0.000000 -0.001605 0.000000
# 4 0.000000 0.000000 0.000000 0.039983 0.000000 0.003131
# 5 0.007535 -0.001368 -0.001605 0.000000 0.035256 0.000000
# 6 0.000000 0.000000 0.000000 0.003131 0.000000 0.033706
#
#
# Mechanical properties :
#
#
# Convention : Reuss Voigt Hill
#
# Bulk Modulus (GPa) = 72.86385 83.12425 77.99405
# Shear Modulus (GPa) = 24.08276 26.84059 25.46167
#
# Velocity S-wave (km/s) = 3.73548 3.94357 3.84093
# Velocity P-wave (km/s) = 7.79892 8.30052 8.05363
#
# Compressibility (1/GPa) = 0.01372423
#
# Stress axis : x y z
#
# Youngs Moduli (GPa) = 55.30722 74.93080 44.47567
#
# Poissons Ratio (x) = 0.42536 0.50209
# Poissons Ratio (y) = 0.31396 0.13910
# Poissons Ratio (z) = 0.62437 0.23434
#
# Static dielectric constant tensor:
#      x y z
#    x 1.598450 0.000000 -0.044600 
#    y 0.000000 1.577500 0.000000 
#    z -0.044600 0.000000 1.579280 
# 
# From -- ./inp_files/107783.got.cif
#   From: 2010.05.17/outbox.cif.g08.bks.cpg/sg12_54_cif.got.tgz:107783.got - 2010.06.03 13:09:07.
