data_PCOD9219547
_publ_section_title
;
Structure prediction by ZEFSAII (Michael W. Deem and Ramdas Pophale) SiO2 
 PCOD9219547
Probable space group: C 2/M
;
_chemical_formula_sum "Si O2"
_cell_formula_units_Z 64
_cell_length_a 9.221891
_cell_length_b 15.258731
_cell_length_c 30.583942
_cell_angle_alpha 90.000000
_cell_angle_beta 136.242292
_cell_angle_gamma 90.000000
_cell_volume 2976.413536
_symmetry_space_group_name_H-M "C 2/M"
_symmetry_group_IT_number 12
_symmetry_cell_setting 'monoclinic'
loop_
_space_group_symop_operation_xyz
x,y,z
-x,y,-z
-x,-y,-z
x,-y,z
1/2+x,1/2+y,z
1/2-x,1/2+y,-z
1/2-x,1/2-y,-z
1/2+x,1/2-y,z
loop_
_atom_site_type_symbol
_atom_site_label
_atom_site_fract_x
_atom_site_fract_y
_atom_site_fract_z
Si Si1 0.365645 0.399718 0.063102
Si Si2 0.682077 0.156130 0.838780
Si Si3 0.261820 0.350042 0.131106
Si Si4 0.091253 0.603108 0.298403
Si Si5 0.821475 0.098638 0.731749
Si Si6 0.230337 0.780003 0.546112
Si Si7 0.192728 0.719237 0.631959
Si Si8 0.677339 0.098389 0.934387
O O1 0.286922 0.500000 0.047602
O O2 0.611871 0.399231 0.126418
O O3 0.264782 0.343406 0.079358
O O4 0.322949 0.365423 0.004926
O O5 0.738510 0.257288 0.844325
O O6 0.487438 0.124080 0.767787
O O7 0.652801 0.147311 0.883852
O O8 0.473813 0.395330 0.193591
O O9 0.055127 0.402526 0.097108
O O10 0.152052 0.500000 0.315882
O O11 0.262550 0.676937 0.349157
O O12 0.882152 0.618037 0.282406
O O13 0.846377 0.164644 0.696399
O O14 0.796835 0.000000 0.709521
O O15 0.250000 0.750000 0.500000
O O16 0.216376 0.712541 0.584410
O O17 0.466978 0.816255 0.600154
O O18 0.000000 0.826242 0.500000
O O19 0.751574 0.000000 0.940380
#
# Coordination Sequence:
#
# PCOD9219547 Si02
#       8
#     8   8   8   8   8   8   8   8
#     4  11  23  42  61  78 111 165 211 253 323 402
#     4  12  24  39  61  87 121 155 206 266 322 383
#     4  12  24  39  61  87 121 156 205 266 324 383
#     4  11  23  40  64  94 129 170 211 258 318 382
#     4  11  23  40  64  94 130 170 210 260 320 377
#     4   9  20  38  68 102 135 177 210 250 307 353
#     4  11  20  40  70  98 132 169 219 252 300 371
#     4  11  25  40  57  84 115 153 210 271 323 382
#
# _framework density 21.502388
#
# number of rings (size 3 to 8) (size 9 to 14) (size 15 to 20)
#    0.000    1.000    3.750    3.750    0.000    6.000 
#    0.000    1.875    0.000   15.000    0.000    0.000 
#    0.000    0.000    0.000    0.000    0.000    0.000 
#
# Total GULP energy -178378.893387 kJ/mol
# GULP energy per Si atom -5574.340418 kJ/mol
# Density = 2.145345 g / cm^3
# Si number density = 21.502388 Si / 1000 Ang^3
#
#
#
# Elastic Constant Matrix: (Units=GPa)
#
#
# Indices 1 2 3 4 5 6 
#
# 1 80.4786 3.1983 23.1006 0.0000 -9.2995 0.0000
# 2 3.1983 87.9327 11.8271 0.0000 -11.4406 0.0000
# 3 23.1006 11.8271 106.6208 0.0000 -16.8037 0.0000
# 4 0.0000 0.0000 0.0000 1.2838 0.0000 10.2431
# 5 -9.2995 -11.4406 -16.8037 0.0000 38.7207 0.0000
# 6 0.0000 0.0000 0.0000 10.2431 0.0000 31.5097
#
#
#
# Elastic Compliance Matrix: (Units=1/GPa)
#
#
# Indices 1 2 3 4 5 6 
#
# 1 0.013409 0.000138 -0.002583 0.000000 0.002140 0.000000
# 2 0.000138 0.011895 -0.000848 0.000000 0.003180 0.000000
# 3 -0.002583 -0.000848 0.010622 0.000000 0.003739 0.000000
# 4 0.000000 0.000000 0.000000 -0.488775 0.000000 0.158889
# 5 0.002140 0.003180 0.003739 0.000000 0.028902 0.000000
# 6 0.000000 0.000000 0.000000 0.158889 0.000000 -0.019915
#
#
# Mechanical properties :
#
#
# Convention : Reuss Voigt Hill
#
# Bulk Modulus (GPa) = 34.08388 39.03158 36.55773
# Shear Modulus (GPa) = -11.69603 30.09659 9.20028
#
# Velocity S-wave (km/s) = -2.33478 3.74530 2.07075
# Velocity P-wave (km/s) = 2.93553 6.07409 4.77032
#
# Compressibility (1/GPa) = 0.02933939
#
# Stress axis : x y z
#
# Youngs Moduli (GPa) = 74.57700 84.06827 94.14393
#
# Poissons Ratio (x) = -0.01162 0.24320
# Poissons Ratio (y) = -0.01031 0.07986
# Poissons Ratio (z) = 0.19265 0.07132
#
# Static dielectric constant tensor:
#      x y z
#    x 1.822930 0.000000 0.005370 
#    y 0.000000 1.743570 0.000000 
#    z 0.005370 0.000000 1.842560 
# 
# From -- ./inp_files/372594.got.cif
#   From: 2010.05.17/outbox.cif.g08.bks.cpg/sg12_187_cif.got.tgz:372594.got - 2010.06.03 13:09:07.
