data_PCOD9219454
_publ_section_title
;
Structure prediction by ZEFSAII (Michael W. Deem and Ramdas Pophale) SiO2 
 PCOD9219454
Probable space group: C 2/M
;
_chemical_formula_sum "Si O2"
_cell_formula_units_Z 40
_cell_length_a 10.768711
_cell_length_b 15.217251
_cell_length_c 13.044919
_cell_angle_alpha 90.000000
_cell_angle_beta 66.965929
_cell_angle_gamma 90.000000
_cell_volume 1967.241524
_symmetry_space_group_name_H-M "C 2/M"
_symmetry_group_IT_number 12
_symmetry_cell_setting 'monoclinic'
loop_
_space_group_symop_operation_xyz
x,y,z
-x,y,-z
-x,-y,-z
x,-y,z
1/2+x,1/2+y,z
1/2-x,1/2+y,-z
1/2-x,1/2-y,-z
1/2+x,1/2-y,z
loop_
_atom_site_type_symbol
_atom_site_label
_atom_site_fract_x
_atom_site_fract_y
_atom_site_fract_z
Si Si1 0.025090 0.000000 0.317303
Si Si2 0.410067 0.321975 0.809292
Si Si3 0.202445 0.785023 0.753915
Si Si4 0.161497 0.900690 0.963270
Si Si5 0.215358 0.000000 0.436556
Si Si6 0.847764 0.602092 0.543031
O O1 0.025218 0.085656 0.247591
O O2 0.159549 0.000000 0.342253
O O3 0.906002 0.000000 0.439813
O O4 0.309874 0.288200 0.753772
O O5 0.542969 0.263394 0.792053
O O6 0.323905 0.343244 0.938859
O O7 0.214864 0.853491 0.844921
O O8 0.253719 0.833292 0.635497
O O9 0.213209 0.000000 0.958917
O O10 0.000000 0.905627 0.000000
O O11 0.300890 0.085373 0.441550
O O12 0.844788 0.500000 0.585847
O O13 0.000000 0.633615 0.500000
#
# Coordination Sequence:
#
# PCOD9219454 Si02
#       6
#     4   8   8   8   4   8
#     4  11  20  38  62  80 115 162 196 238 284 354
#     4  11  22  39  60  90 122 151 196 237 297 347
#     4  11  22  37  60  91 120 152 191 251 286 343
#     4   9  18  34  64  90 113 153 198 234 287 351
#     4   9  19  36  61  81 109 156 202 240 279 340
#     4   9  18  37  60  83 114 153 200 237 288 352
#
# _framework density 20.33304
#
# number of rings (size 3 to 8) (size 9 to 14) (size 15 to 20)
#    0.600    1.400    3.000    1.200    1.400    1.600 
#    3.600    2.000    2.200    1.200    0.000    0.000 
#    0.000    0.000    0.000    0.000    0.000    0.000 
#
# Total GULP energy -111457.325938 kJ/mol
# GULP energy per Si atom -5572.866297 kJ/mol
# Density = 2.028676 g / cm^3
# Si number density = 20.333040 Si / 1000 Ang^3
#
#
#
# Elastic Constant Matrix: (Units=GPa)
#
#
# Indices 1 2 3 4 5 6 
#
# 1 92.6600 9.9818 3.8018 0.0000 10.8498 0.0000
# 2 9.9818 41.1546 -10.1668 0.0000 -6.1717 0.0000
# 3 3.8018 -10.1668 27.0804 0.0000 8.6789 0.0000
# 4 0.0000 0.0000 0.0000 10.4178 0.0000 -3.5471
# 5 10.8498 -6.1717 8.6789 0.0000 25.7780 0.0000
# 6 0.0000 0.0000 0.0000 -3.5471 0.0000 -3.6085
#
#
#
# Elastic Compliance Matrix: (Units=1/GPa)
#
#
# Indices 1 2 3 4 5 6 
#
# 1 0.011936 -0.004078 -0.001439 0.000000 -0.005516 0.000000
# 2 -0.004078 0.028443 0.009549 0.000000 0.005311 0.000000
# 3 -0.001439 0.009549 0.044599 0.000000 -0.012124 0.000000
# 4 0.000000 0.000000 0.000000 0.071920 0.000000 -0.070695
# 5 -0.005516 0.005311 -0.012124 0.000000 0.046468 0.000000
# 6 0.000000 0.000000 0.000000 -0.070695 0.000000 -0.207632
#
#
# Mechanical properties :
#
#
# Convention : Reuss Voigt Hill
#
# Bulk Modulus (GPa) = 10.74776 18.68097 14.71436
# Shear Modulus (GPa) = 267.60004 17.00266 142.30135
#
# Velocity S-wave (km/s) = 11.48452 2.89486 8.37480
# Velocity P-wave (km/s) = 13.45943 4.51454 10.03836
#
# Compressibility (1/GPa) = 0.09304267
#
# Stress axis : x y z
#
# Youngs Moduli (GPa) = 83.77793 35.15801 22.42185
#
# Poissons Ratio (x) = 0.14336 0.03226
# Poissons Ratio (y) = 0.34162 -0.21410
# Poissons Ratio (z) = 0.12055 -0.33571
#
# Static dielectric constant tensor:
#      x y z
#    x 1.755820 0.000000 0.007000 
#    y 0.000000 1.764050 0.000000 
#    z 0.007000 0.000000 1.712610 
# 
# From -- ./inp_files/203856.got.cif
#   From: 2010.05.17/outbox.cif.g08.bks.cpg/sg12_102_cif.got.tgz:203856.got - 2010.06.03 13:09:07.
