data_PCOD9219696
_publ_section_title
;
Structure prediction by ZEFSAII (Michael W. Deem and Ramdas Pophale) SiO2 
 PCOD9219696
Probable space group: C 2/M
;
_chemical_formula_sum "Si O2"
_cell_formula_units_Z 40
_cell_length_a 5.046632
_cell_length_b 25.316387
_cell_length_c 14.730620
_cell_angle_alpha 90.000000
_cell_angle_beta 109.770604
_cell_angle_gamma 90.000000
_cell_volume 1771.083904
_symmetry_space_group_name_H-M "C 2/M"
_symmetry_group_IT_number 12
_symmetry_cell_setting 'monoclinic'
loop_
_space_group_symop_operation_xyz
x,y,z
-x,y,-z
-x,-y,-z
x,-y,z
1/2+x,1/2+y,z
1/2-x,1/2+y,-z
1/2-x,1/2-y,-z
1/2+x,1/2-y,z
loop_
_atom_site_type_symbol
_atom_site_label
_atom_site_fract_x
_atom_site_fract_y
_atom_site_fract_z
Si Si1 0.552323 0.938231 0.903737
Si Si2 0.967414 0.104321 0.807005
Si Si3 0.793829 0.777546 0.184909
Si Si4 0.044101 0.378680 0.602021
Si Si5 0.960969 0.805418 0.397652
O O1 0.799070 0.908999 0.878994
O O2 0.245788 0.930266 0.823395
O O3 0.626391 0.000000 0.915923
O O4 0.500000 0.918547 0.000000
O O5 0.734378 0.095059 0.701594
O O6 0.086512 0.164383 0.822135
O O7 0.463964 0.764987 0.145191
O O8 0.853565 0.772521 0.300260
O O9 0.243399 0.330196 0.595905
O O10 0.000000 0.407769 0.500000
O O11 0.759580 0.353932 0.610770
O O12 0.000000 0.779427 0.500000
#
# Coordination Sequence:
#
# PCOD9219696 Si02
#       5
#     8   8   8   8   8
#     4  11  24  43  69  96 114 136 186 256 320 367
#     4  11  21  39  64  88 123 162 191 238 302 349
#     4  11  21  33  52  82 120 163 204 235 275 340
#     4   9  17  31  53  82 117 160 202 234 277 341
#     4   9  17  29  45  72 113 159 208 253 282 313
#
# _framework density 22.585038999999998
#
# number of rings (size 3 to 8) (size 9 to 14) (size 15 to 20)
#    0.000    1.800    0.000    7.200    0.000    2.400 
#    0.000    1.000    0.000   15.600    0.000    0.000 
#    0.000    0.000    0.000    0.000    0.000    0.000 
#
# Total GULP energy -111657.731655 kJ/mol
# GULP energy per Si atom -5582.886583 kJ/mol
# Density = 2.253363 g / cm^3
# Si number density = 22.585039 Si / 1000 Ang^3
#
#
#
# Elastic Constant Matrix: (Units=GPa)
#
#
# Indices 1 2 3 4 5 6 
#
# 1 99.8498 20.6927 18.0865 0.0000 -19.7278 0.0000
# 2 20.6927 33.6284 22.0015 0.0000 -19.2581 0.0000
# 3 18.0865 22.0015 53.8553 0.0000 -11.1448 0.0000
# 4 0.0000 0.0000 0.0000 23.0926 0.0000 -19.3263
# 5 -19.7278 -19.2581 -11.1448 0.0000 39.4719 0.0000
# 6 0.0000 0.0000 0.0000 -19.3263 0.0000 58.5487
#
#
#
# Elastic Compliance Matrix: (Units=1/GPa)
#
#
# Indices 1 2 3 4 5 6 
#
# 1 0.011861 -0.004398 -0.001491 0.000000 0.003361 0.000000
# 2 -0.004398 0.054760 -0.016802 0.000000 0.019775 0.000000
# 3 -0.001491 -0.016802 0.025577 0.000000 -0.001721 0.000000
# 4 0.000000 0.000000 0.000000 0.059833 0.000000 0.019750
# 5 0.003361 0.019775 -0.001721 0.000000 0.036177 0.000000
# 6 0.000000 0.000000 0.000000 0.019750 0.000000 0.023599
#
#
# Mechanical properties :
#
#
# Convention : Reuss Voigt Hill
#
# Bulk Modulus (GPa) = 21.36017 34.32166 27.84091
# Shear Modulus (GPa) = 18.32883 32.65949 25.49416
#
# Velocity S-wave (km/s) = 2.85186 3.80684 3.36342
# Velocity P-wave (km/s) = 4.50803 5.87813 5.23807
#
# Compressibility (1/GPa) = 0.04681611
#
# Stress axis : x y z
#
# Youngs Moduli (GPa) = 84.31269 18.26135 39.09771
#
# Poissons Ratio (x) = 0.08031 0.05829
# Poissons Ratio (y) = 0.37080 0.65692
# Poissons Ratio (z) = 0.12571 0.30683
#
# Static dielectric constant tensor:
#      x y z
#    x 1.827570 0.000000 0.040150 
#    y 0.000000 1.802090 0.000000 
#    z 0.040150 0.000000 1.954030 
# 
# From -- ./inp_files/191467.got.cif
#   From: 2010.05.17/outbox.cif.g08.bks.cpg/sg12_96_cif.got.tgz:191467.got - 2010.06.03 13:09:07.
