data_PCOD9219235
_publ_section_title
;
Structure prediction by ZEFSAII (Michael W. Deem and Ramdas Pophale) SiO2 
 PCOD9219235
Probable space group: C 2/M
;
_chemical_formula_sum "Si O2"
_cell_formula_units_Z 52
_cell_length_a 17.927045
_cell_length_b 22.304975
_cell_length_c 9.864242
_cell_angle_alpha 90.000000
_cell_angle_beta 45.274834
_cell_angle_gamma 90.000000
_cell_volume 2802.414779
_symmetry_space_group_name_H-M "C 2/M"
_symmetry_group_IT_number 12
_symmetry_cell_setting 'monoclinic'
loop_
_space_group_symop_operation_xyz
x,y,z
-x,y,-z
-x,-y,-z
x,-y,z
1/2+x,1/2+y,z
1/2-x,1/2+y,-z
1/2-x,1/2-y,-z
1/2+x,1/2-y,z
loop_
_atom_site_type_symbol
_atom_site_label
_atom_site_fract_x
_atom_site_fract_y
_atom_site_fract_z
Si Si1 0.773555 0.782625 0.756440
Si Si2 0.975234 0.233636 0.344238
Si Si3 0.011510 0.434113 0.820822
Si Si4 0.101403 0.684379 0.773084
Si Si5 0.663359 0.929743 0.185159
Si Si6 0.500000 0.842762 0.500000
Si Si7 0.689328 0.671202 0.000681
O O1 0.893985 0.790824 0.558926
O O2 0.701384 0.814869 0.740300
O O3 0.757590 0.808742 0.925646
O O4 0.738787 0.713059 0.819171
O O5 0.902562 0.257459 0.315778
O O6 0.018257 0.296042 0.353426
O O7 0.068062 0.191221 0.173587
O O8 0.051153 0.500000 0.727440
O O9 0.086526 0.376923 0.708365
O O10 0.903844 0.424733 0.871595
O O11 0.000000 0.436584 0.000000
O O12 0.000000 0.689413 0.000000
O O13 0.596206 0.888806 0.373957
O O14 0.666170 0.000000 0.213593
O O15 0.777047 0.898001 0.046777
#
# Coordination Sequence:
#
# PCOD9219235 Si02
#       7
#     8   8   8   8   8   4   8
#     4  11  21  34  55  83 115 147 184 236 288 337
#     4  12  21  35  57  82 116 150 182 240 294 333
#     4   9  18  31  49  75 107 143 182 224 276 338
#     4  11  20  33  53  81 113 147 185 231 290 348
#     4  11  22  36  57  81 114 154 191 234 278 335
#     4  12  19  36  54  84 115 142 190 234 292 338
#     4  11  20  36  56  81 114 151 186 230 285 340
#
# _framework density 18.555426000000001
#
# number of rings (size 3 to 8) (size 9 to 14) (size 15 to 20)
#    0.000    1.077    6.154    3.462    0.000    0.000 
#    0.000    0.000    0.000    2.769    0.000    2.154 
#    0.000    0.000    0.000    0.000    0.000    0.000 
#
# Total GULP energy -144794.915186 kJ/mol
# GULP energy per Si atom -5569.035199 kJ/mol
# Density = 1.851319 g / cm^3
# Si number density = 18.555426 Si / 1000 Ang^3
#
#
#
# Elastic Constant Matrix: (Units=GPa)
#
#
# Indices 1 2 3 4 5 6 
#
# 1 57.1608 17.2557 11.8716 0.0000 -11.4663 0.0000
# 2 17.2557 90.2309 28.9729 0.0000 -18.7720 0.0000
# 3 11.8716 28.9729 81.9512 0.0000 -19.0378 0.0000
# 4 0.0000 0.0000 0.0000 14.1104 0.0000 -5.0547
# 5 -11.4663 -18.7720 -19.0378 0.0000 26.1253 0.0000
# 6 0.0000 0.0000 0.0000 -5.0547 0.0000 27.6168
#
#
#
# Elastic Compliance Matrix: (Units=1/GPa)
#
#
# Indices 1 2 3 4 5 6 
#
# 1 0.019599 -0.002199 -0.000518 0.000000 0.006644 0.000000
# 2 -0.002199 0.013888 -0.003006 0.000000 0.006823 0.000000
# 3 -0.000518 -0.003006 0.015391 0.000000 0.008828 0.000000
# 4 0.000000 0.000000 0.000000 0.075843 0.000000 0.013882
# 5 0.006644 0.006823 0.008828 0.000000 0.052529 0.000000
# 6 0.000000 0.000000 0.000000 0.013882 0.000000 0.038751
#
#
# Mechanical properties :
#
#
# Convention : Reuss Voigt Hill
#
# Bulk Modulus (GPa) = 26.71633 38.39369 32.55501
# Shear Modulus (GPa) = 20.83987 24.98668 22.91327
#
# Velocity S-wave (km/s) = 3.35493 3.67358 3.51786
# Velocity P-wave (km/s) = 5.42556 6.22333 5.83809
#
# Compressibility (1/GPa) = 0.03743029
#
# Stress axis : x y z
#
# Youngs Moduli (GPa) = 51.02347 72.00397 64.97250
#
# Poissons Ratio (x) = 0.15837 0.03366
# Poissons Ratio (y) = 0.11223 0.19533
# Poissons Ratio (z) = 0.02643 0.21647
#
# Static dielectric constant tensor:
#      x y z
#    x 1.772100 0.000000 0.079080 
#    y 0.000000 1.672930 0.000000 
#    z 0.079080 0.000000 1.731820 
# 
# From -- ./inp_files/159456.got.cif
#   From: 2010.05.17/outbox.cif.g08.bks.cpg/sg12_80_cif.got.tgz:159456.got - 2010.06.03 13:09:07.
