data_PCOD9219483
_publ_section_title
;
Structure prediction by ZEFSAII (Michael W. Deem and Ramdas Pophale) SiO2 
 PCOD9219483
Probable space group: C 2/M
;
_chemical_formula_sum "Si O2"
_cell_formula_units_Z 40
_cell_length_a 13.082037
_cell_length_b 17.574276
_cell_length_c 7.826679
_cell_angle_alpha 90.000000
_cell_angle_beta 95.416734
_cell_angle_gamma 90.000000
_cell_volume 1791.375480
_symmetry_space_group_name_H-M "C 2/M"
_symmetry_group_IT_number 12
_symmetry_cell_setting 'monoclinic'
loop_
_space_group_symop_operation_xyz
x,y,z
-x,y,-z
-x,-y,-z
x,-y,z
1/2+x,1/2+y,z
1/2-x,1/2+y,-z
1/2-x,1/2-y,-z
1/2+x,1/2-y,z
loop_
_atom_site_type_symbol
_atom_site_label
_atom_site_fract_x
_atom_site_fract_y
_atom_site_fract_z
Si Si1 0.219918 0.858601 0.163857
Si Si2 0.426259 0.780595 0.848553
Si Si3 0.910419 0.281703 0.379490
Si Si4 0.719288 0.916616 0.197680
Si Si5 0.619380 0.620323 0.491234
O O1 0.151363 0.784705 0.105231
O O2 0.324593 0.829873 0.272096
O O3 0.159077 0.899941 0.308153
O O4 0.243941 0.901053 0.991365
O O5 0.515072 0.742451 0.748143
O O6 0.356478 0.847875 0.765242
O O7 0.500000 0.818405 0.000000
O O8 0.865187 0.212484 0.482561
O O9 0.000000 0.324878 0.500000
O O10 0.812066 0.913652 0.347037
O O11 0.670648 0.000000 0.198423
O O12 0.500000 0.602617 0.500000
#
# Coordination Sequence:
#
# PCOD9219483 Si02
#       5
#     8   8   8   8   8
#     4  12  23  43  72  99 132 173 228 278 328 390
#     4  12  22  40  71 100 130 168 223 283 330 382
#     4  11  20  38  68 106 125 161 217 286 338 378
#     4  12  28  45  64  98 141 183 220 263 331 409
#     4  11  23  42  72 100 131 168 221 287 336 380
#
# _framework density 22.32921
#
# number of rings (size 3 to 8) (size 9 to 14) (size 15 to 20)
#    0.000    0.400    8.000    3.600    0.000    1.600 
#    0.000    1.000    0.000    2.400    0.000    0.000 
#    0.000    0.000    0.000    0.000    0.000    0.000 
#
# Total GULP energy -111599.020861 kJ/mol
# GULP energy per Si atom -5579.951043 kJ/mol
# Density = 2.227839 g / cm^3
# Si number density = 22.329210 Si / 1000 Ang^3
#
#
#
# Elastic Constant Matrix: (Units=GPa)
#
#
# Indices 1 2 3 4 5 6 
#
# 1 104.3900 6.5283 39.9013 0.0000 14.0906 0.0000
# 2 6.5283 67.7061 7.7435 0.0000 7.2978 0.0000
# 3 39.9013 7.7435 105.2299 0.0000 6.0085 0.0000
# 4 0.0000 0.0000 0.0000 -17.8701 0.0000 10.9697
# 5 14.0906 7.2978 6.0085 0.0000 59.2686 0.0000
# 6 0.0000 0.0000 0.0000 10.9697 0.0000 -4.6475
#
#
#
# Elastic Compliance Matrix: (Units=1/GPa)
#
#
# Indices 1 2 3 4 5 6 
#
# 1 0.011518 -0.000385 -0.004210 0.000000 -0.002264 0.000000
# 2 -0.000385 0.015087 -0.000868 0.000000 -0.001678 0.000000
# 3 -0.004210 -0.000868 0.011165 0.000000 -0.000024 0.000000
# 4 0.000000 0.000000 0.000000 0.124653 0.000000 0.294225
# 5 -0.002264 -0.001678 -0.000024 0.000000 0.017620 0.000000
# 6 0.000000 0.000000 0.000000 0.294225 0.000000 0.479306
#
#
# Mechanical properties :
#
#
# Convention : Reuss Voigt Hill
#
# Bulk Modulus (GPa) = 37.25335 42.85247 40.05291
# Shear Modulus (GPa) = 7.36135 22.22707 14.79421
#
# Velocity S-wave (km/s) = 1.81766 3.15846 2.57680
# Velocity P-wave (km/s) = 4.59620 5.70386 5.17973
#
# Compressibility (1/GPa) = 0.02684322
#
# Stress axis : x y z
#
# Youngs Moduli (GPa) = 86.81812 66.28207 89.56883
#
# Poissons Ratio (x) = 0.02552 0.37708
# Poissons Ratio (y) = 0.03343 0.07778
# Poissons Ratio (z) = 0.36550 0.05756
#
# Static dielectric constant tensor:
#      x y z
#    x 1.801300 0.000000 -0.042090 
#    y 0.000000 1.802500 0.000000 
#    z -0.042090 0.000000 2.008700 
# 
# From -- ./inp_files/47122.got.cif
#   From: 2010.05.17/outbox.cif.g08.bks.cpg/sg12_24_cif.got.tgz:47122.got - 2010.06.03 13:09:07.
