data_PCOD9219136
_publ_section_title
;
Structure prediction by ZEFSAII (Michael W. Deem and Ramdas Pophale) SiO2 
 PCOD9219136
Probable space group: C 2/M
;
_chemical_formula_sum "Si O2"
_cell_formula_units_Z 48
_cell_length_a 34.080204
_cell_length_b 7.997501
_cell_length_c 23.151176
_cell_angle_alpha 90.000000
_cell_angle_beta 155.326559
_cell_angle_gamma 90.000000
_cell_volume 2634.084740
_symmetry_space_group_name_H-M "C 2/M"
_symmetry_group_IT_number 12
_symmetry_cell_setting 'monoclinic'
loop_
_space_group_symop_operation_xyz
x,y,z
-x,y,-z
-x,-y,-z
x,-y,z
1/2+x,1/2+y,z
1/2-x,1/2+y,-z
1/2-x,1/2-y,-z
1/2+x,1/2-y,z
loop_
_atom_site_type_symbol
_atom_site_label
_atom_site_fract_x
_atom_site_fract_y
_atom_site_fract_z
Si Si1 0.811891 0.807787 0.404539
Si Si2 0.785751 0.800052 0.610511
Si Si3 0.185702 0.804169 0.131304
Si Si4 0.852763 0.702901 0.283657
Si Si5 0.007248 0.204761 0.076711
Si Si6 0.016625 0.700458 0.429683
O O1 0.779067 0.769227 0.424978
O O2 0.747963 0.706284 0.273292
O O3 0.921770 0.771290 0.539965
O O4 0.793701 0.000000 0.366504
O O5 0.750000 0.750000 0.500000
O O6 0.892785 0.742000 0.764407
O O7 0.785241 0.000000 0.614883
O O8 0.250586 0.732782 0.166432
O O9 0.172496 0.000000 0.100431
O O10 0.083492 0.733314 0.009343
O O11 0.847273 0.500000 0.271840
O O12 0.918762 0.736694 0.427573
O O13 0.912342 0.761553 0.307797
O O14 0.004470 0.000000 0.073486
O O15 0.000000 0.255472 0.000000
O O16 0.013017 0.500000 0.418419
#
# Coordination Sequence:
#
# PCOD9219136 Si02
#       6
#     8   8   8   8   8   8
#     4  11  20  29  43  68  96 127 162 198 240 282
#     4  11  22  37  53  71  97 128 163 201 241 286
#     4   9  15  28  48  69  94 126 161 196 235 284
#     4   7  11  20  39  64  89 118 155 193 231 279
#     4   9  16  29  52  76  94 123 163 199 237 285
#     4   8  13  24  40  60  88 124 158 191 233 283
#
# _framework density 18.222650000000002
#
# number of rings (size 3 to 8) (size 9 to 14) (size 15 to 20)
#    0.000    2.833    1.667    4.000    0.000    0.000 
#    0.000    9.167    0.000    0.000    0.000    1.167 
#    0.000    0.000    0.000    0.000    0.000    0.000 
#
# Total GULP energy -133603.805483 kJ/mol
# GULP energy per Si atom -5566.825228 kJ/mol
# Density = 1.818117 g / cm^3
# Si number density = 18.222650 Si / 1000 Ang^3
#
#
#
# Elastic Constant Matrix: (Units=GPa)
#
#
# Indices 1 2 3 4 5 6 
#
# 1 151.9002 3.8391 77.9850 0.0000 58.2592 0.0000
# 2 3.8391 18.5321 3.8755 0.0000 10.2066 0.0000
# 3 77.9850 3.8755 87.0786 0.0000 26.4713 0.0000
# 4 0.0000 0.0000 0.0000 0.5980 0.0000 -8.3130
# 5 58.2592 10.2066 26.4713 0.0000 38.0003 0.0000
# 6 0.0000 0.0000 0.0000 -8.3130 0.0000 8.2799
#
#
#
# Elastic Compliance Matrix: (Units=1/GPa)
#
#
# Indices 1 2 3 4 5 6 
#
# 1 0.027974 0.017971 -0.014396 0.000000 -0.037686 0.000000
# 2 0.017971 0.075491 -0.006235 0.000000 -0.043485 0.000000
# 3 -0.014396 -0.006235 0.022120 0.000000 0.008337 0.000000
# 4 0.000000 0.000000 0.000000 -0.129062 0.000000 -0.129577
# 5 -0.037686 -0.043485 0.008337 0.000000 0.089965 0.000000
# 6 0.000000 0.000000 0.000000 -0.129577 0.000000 -0.009321
#
#
# Mechanical properties :
#
#
# Convention : Reuss Voigt Hill
#
# Bulk Modulus (GPa) = 8.31499 47.65667 27.98583
# Shear Modulus (GPa) = 40.79112 20.82972 30.81042
#
# Velocity S-wave (km/s) = 4.73640 3.38460 4.11637
# Velocity P-wave (km/s) = 5.87232 6.44075 6.16309
#
# Compressibility (1/GPa) = 0.12026475
#
# Stress axis : x y z
#
# Youngs Moduli (GPa) = 35.74750 13.24661 45.20848
#
# Poissons Ratio (x) = -0.23806 0.65083
# Poissons Ratio (y) = -0.64243 0.28188
# Poissons Ratio (z) = 0.51463 0.08259
#
# Static dielectric constant tensor:
#      x y z
#    x 1.672040 0.000000 0.072130 
#    y 0.000000 1.641570 0.000000 
#    z 0.072130 0.000000 1.599250 
# 
# From -- ./inp_files/229266.got.cif
#   From: 2010.05.17/outbox.cif.g08.bks.cpg/sg12_115_cif.got.tgz:229266.got - 2010.06.03 13:09:07.
