data_PCOD9219626
_publ_section_title
;
Structure prediction by ZEFSAII (Michael W. Deem and Ramdas Pophale) SiO2 
 PCOD9219626
Probable space group: C 2/M
;
_chemical_formula_sum "Si O2"
_cell_formula_units_Z 56
_cell_length_a 9.278146
_cell_length_b 27.421340
_cell_length_c 14.056062
_cell_angle_alpha 90.000000
_cell_angle_beta 55.633762
_cell_angle_gamma 90.000000
_cell_volume 2951.904802
_symmetry_space_group_name_H-M "C 2/M"
_symmetry_group_IT_number 12
_symmetry_cell_setting 'monoclinic'
loop_
_space_group_symop_operation_xyz
x,y,z
-x,y,-z
-x,-y,-z
x,-y,z
1/2+x,1/2+y,z
1/2-x,1/2+y,-z
1/2-x,1/2-y,-z
1/2+x,1/2-y,z
loop_
_atom_site_type_symbol
_atom_site_label
_atom_site_fract_x
_atom_site_fract_y
_atom_site_fract_z
Si Si1 0.771936 0.257055 0.772583
Si Si2 0.272309 0.442979 0.193854
Si Si3 0.890370 0.788300 0.911962
Si Si4 0.167396 0.055867 0.058277
Si Si5 0.012266 0.644028 0.288872
Si Si6 0.793537 0.208357 0.563457
Si Si7 0.885076 0.638638 0.964483
O O1 0.868873 0.219162 0.806236
O O2 0.581312 0.275316 0.874014
O O3 0.882068 0.306676 0.726008
O O4 0.742699 0.232337 0.682652
O O5 0.234006 0.500000 0.231899
O O6 0.467688 0.430067 0.157224
O O7 0.123822 0.403848 0.278182
O O8 0.299033 0.441519 0.068858
O O9 0.750000 0.750000 0.000000
O O10 0.805987 0.837887 0.979564
O O11 0.186375 0.000000 0.079857
O O12 0.322165 0.089154 0.038612
O O13 0.014954 0.638825 0.172441
O O14 0.822359 0.658805 0.401241
O O15 0.750000 0.250000 0.500000
O O16 0.000000 0.199153 0.500000
O O17 0.000000 0.666399 0.000000
#
# Coordination Sequence:
#
# PCOD9219626 Si02
#       7
#     8   8   8   8   8   8   8
#     4  12  22  36  52  77 103 143 183 222 263 335
#     4   8  15  30  53  79 106 137 182 224 263 323
#     4  12  21  32  49  74 113 145 172 208 259 321
#     4   8  15  29  48  74 107 145 182 219 257 308
#     4  11  21  35  55  78 106 143 187 221 281 322
#     4  12  23  40  57  75 104 137 184 240 283 323
#     4  11  21  31  47  74 113 150 182 213 263 325
#
# _framework density 18.970800000000001
#
# number of rings (size 3 to 8) (size 9 to 14) (size 15 to 20)
#    0.000    1.429    4.286    3.857    0.000    1.429 
#    0.000    0.000    0.000    0.429    0.000    2.000 
#    0.000    2.286    0.000    0.000    0.000    0.571 
#
# Total GULP energy -155907.318784 kJ/mol
# GULP energy per Si atom -5568.118528 kJ/mol
# Density = 1.892762 g / cm^3
# Si number density = 18.970800 Si / 1000 Ang^3
#
#
#
# Elastic Constant Matrix: (Units=GPa)
#
#
# Indices 1 2 3 4 5 6 
#
# 1 74.3572 24.7512 21.9498 0.0000 -29.0356 0.0000
# 2 24.7512 79.3517 25.9519 0.0000 -23.5404 0.0000
# 3 21.9498 25.9519 51.6328 0.0000 -26.1339 0.0000
# 4 0.0000 0.0000 0.0000 22.5150 0.0000 -11.8758
# 5 -29.0356 -23.5404 -26.1339 0.0000 47.5069 0.0000
# 6 0.0000 0.0000 0.0000 -11.8758 0.0000 23.5304
#
#
#
# Elastic Compliance Matrix: (Units=1/GPa)
#
#
# Indices 1 2 3 4 5 6 
#
# 1 0.018326 -0.002402 -0.002102 0.000000 0.008854 0.000000
# 2 -0.002402 0.016150 -0.005251 0.000000 0.003646 0.000000
# 3 -0.002102 -0.005251 0.029011 0.000000 0.012073 0.000000
# 4 0.000000 0.000000 0.000000 0.060528 0.000000 0.030549
# 5 0.008854 0.003646 0.012073 0.000000 0.034909 0.000000
# 6 0.000000 0.000000 0.000000 0.030549 0.000000 0.057916
#
#
# Mechanical properties :
#
#
# Convention : Reuss Voigt Hill
#
# Bulk Modulus (GPa) = 22.73894 38.96083 30.84988
# Shear Modulus (GPa) = 19.91956 27.55636 23.73796
#
# Velocity S-wave (km/s) = 3.24390 3.81539 3.54119
# Velocity P-wave (km/s) = 5.10322 6.32388 5.74606
#
# Compressibility (1/GPa) = 0.04397743
#
# Stress axis : x y z
#
# Youngs Moduli (GPa) = 54.56701 61.91818 34.46999
#
# Poissons Ratio (x) = 0.14874 0.07245
# Poissons Ratio (y) = 0.13108 0.18100
# Poissons Ratio (z) = 0.11469 0.32513
#
# Static dielectric constant tensor:
#      x y z
#    x 1.712470 0.000000 0.038340 
#    y 0.000000 2.216200 0.000000 
#    z 0.038340 0.000000 1.575150 
# 
# From -- ./inp_files/200845.got.cif
#   From: 2010.05.17/outbox.cif.g08.bks.cpg/sg12_101_cif.got.tgz:200845.got - 2010.06.03 13:09:07.
