data_PCOD9219274
_publ_section_title
;
Structure prediction by ZEFSAII (Michael W. Deem and Ramdas Pophale) SiO2 
 PCOD9219274
Probable space group: C 2/M
;
_chemical_formula_sum "Si O2"
_cell_formula_units_Z 56
_cell_length_a 13.212115
_cell_length_b 29.940332
_cell_length_c 8.691778
_cell_angle_alpha 90.000000
_cell_angle_beta 70.594653
_cell_angle_gamma 90.000000
_cell_volume 3242.929686
_symmetry_space_group_name_H-M "C 2/M"
_symmetry_group_IT_number 12
_symmetry_cell_setting 'monoclinic'
loop_
_space_group_symop_operation_xyz
x,y,z
-x,y,-z
-x,-y,-z
x,-y,z
1/2+x,1/2+y,z
1/2-x,1/2+y,-z
1/2-x,1/2-y,-z
1/2+x,1/2-y,z
loop_
_atom_site_type_symbol
_atom_site_label
_atom_site_fract_x
_atom_site_fract_y
_atom_site_fract_z
Si Si1 0.652384 0.302829 0.588360
Si Si2 0.006960 0.270931 0.814650
Si Si3 0.181549 0.869299 0.035464
Si Si4 0.231430 0.716081 0.175068
Si Si5 0.380409 0.450015 0.134493
Si Si6 0.284717 0.186708 0.219930
Si Si7 0.530883 0.606909 0.662135
O O1 0.558310 0.268221 0.683706
O O2 0.750588 0.290336 0.650416
O O3 0.693930 0.306634 0.394069
O O4 0.609221 0.351645 0.642075
O O5 0.096837 0.309682 0.771121
O O6 0.893040 0.286843 0.808043
O O7 0.000000 0.256862 0.000000
O O8 0.266510 0.856989 0.126731
O O9 0.072149 0.878588 0.183976
O O10 0.192615 0.823200 0.932645
O O11 0.188104 0.912001 0.919789
O O12 0.269613 0.767273 0.130411
O O13 0.335925 0.500000 0.145628
O O14 0.407816 0.434745 0.293498
O O15 0.500000 0.450413 0.000000
O O16 0.500000 0.600698 0.500000
#
# Coordination Sequence:
#
# PCOD9219274 Si02
#       7
#     8   8   8   8   8   8   8
#     4  11  24  35  51  75 112 146 188 223 265 318
#     4  11  23  33  52  75 106 150 193 231 258 302
#     4  11  20  34  55  76 110 139 180 223 264 325
#     4  11  22  35  53  74 105 149 189 221 263 307
#     4   9  20  37  57  82 106 136 178 223 276 334
#     4  11  23  37  49  78 112 147 188 228 263 317
#     4  11  21  33  55  80 109 145 176 219 275 326
#
# _framework density 17.268336999999999
#
# number of rings (size 3 to 8) (size 9 to 14) (size 15 to 20)
#    0.000    1.286    4.286    3.000    6.000    2.000 
#    0.000    0.000    0.000    0.000    0.000    2.000 
#    0.000    1.143    0.000    0.000    0.000    0.000 
#
# Total GULP energy -155944.046408 kJ/mol
# GULP energy per Si atom -5569.430229 kJ/mol
# Density = 1.722903 g / cm^3
# Si number density = 17.268337 Si / 1000 Ang^3
#
#
#
# Elastic Constant Matrix: (Units=GPa)
#
#
# Indices 1 2 3 4 5 6 
#
# 1 74.9219 45.6557 27.2139 0.0000 10.1991 0.0000
# 2 45.6557 113.2415 26.9345 0.0000 15.7382 0.0000
# 3 27.2139 26.9345 68.2710 0.0000 7.2816 0.0000
# 4 0.0000 0.0000 0.0000 13.4293 0.0000 3.6033
# 5 10.1991 15.7382 7.2816 0.0000 26.5140 0.0000
# 6 0.0000 0.0000 0.0000 3.6033 0.0000 22.8118
#
#
#
# Elastic Compliance Matrix: (Units=1/GPa)
#
#
# Indices 1 2 3 4 5 6 
#
# 1 0.019291 -0.006272 -0.004966 0.000000 -0.002334 0.000000
# 2 -0.006272 0.012436 -0.001933 0.000000 -0.004438 0.000000
# 3 -0.004966 -0.001933 0.017578 0.000000 -0.001770 0.000000
# 4 0.000000 0.000000 0.000000 0.077760 0.000000 -0.012283
# 5 -0.002334 -0.004438 -0.001770 0.000000 0.041734 0.000000
# 6 0.000000 0.000000 0.000000 -0.012283 0.000000 0.045777
#
#
# Mechanical properties :
#
#
# Convention : Reuss Voigt Hill
#
# Bulk Modulus (GPa) = 43.54801 50.67139 47.10970
# Shear Modulus (GPa) = 20.11485 22.99305 21.55395
#
# Velocity S-wave (km/s) = 3.41668 3.65295 3.53679
# Velocity P-wave (km/s) = 6.39047 6.87017 6.63466
#
# Compressibility (1/GPa) = 0.02296316
#
# Stress axis : x y z
#
# Youngs Moduli (GPa) = 51.83825 80.41253 56.88788
#
# Poissons Ratio (x) = 0.50434 0.28252
# Poissons Ratio (y) = 0.32512 0.10995
# Poissons Ratio (z) = 0.25744 0.15542
#
# Static dielectric constant tensor:
#      x y z
#    x 1.625970 0.000000 0.046840 
#    y 0.000000 1.575550 0.000000 
#    z 0.046840 0.000000 1.713940 
# 
# From -- ./inp_files/66505.got.cif
#   From: 2010.05.17/outbox.cif.g08.bks.cpg/sg12_34_cif.got.tgz:66505.got - 2010.06.03 13:09:07.
