data_PCOD9219124
_publ_section_title
;
Structure prediction by ZEFSAII (Michael W. Deem and Ramdas Pophale) SiO2 
 PCOD9219124
Probable space group: C 2/M
;
_chemical_formula_sum "Si O2"
_cell_formula_units_Z 64
_cell_length_a 27.473586
_cell_length_b 9.373318
_cell_length_c 20.052856
_cell_angle_alpha 90.000000
_cell_angle_beta 58.874422
_cell_angle_gamma 90.000000
_cell_volume 4420.558804
_symmetry_space_group_name_H-M "C 2/M"
_symmetry_group_IT_number 12
_symmetry_cell_setting 'monoclinic'
loop_
_space_group_symop_operation_xyz
x,y,z
-x,y,-z
-x,-y,-z
x,-y,z
1/2+x,1/2+y,z
1/2-x,1/2+y,-z
1/2-x,1/2-y,-z
1/2+x,1/2-y,z
loop_
_atom_site_type_symbol
_atom_site_label
_atom_site_fract_x
_atom_site_fract_y
_atom_site_fract_z
Si Si1 0.287988 0.827523 0.027581
Si Si2 0.781112 0.665724 0.183885
Si Si3 0.696218 0.829111 0.504620
Si Si4 0.027564 0.169505 0.824005
Si Si5 0.420960 0.169609 0.935898
Si Si6 0.417876 0.164668 0.093291
Si Si7 0.867381 0.829369 0.344032
Si Si8 0.757526 0.169044 0.330640
O O1 0.270462 0.785566 0.115549
O O2 0.283122 0.000000 0.026805
O O3 0.250000 0.750000 0.000000
O O4 0.354950 0.792935 0.971173
O O5 0.764863 0.500000 0.200184
O O6 0.849468 0.673149 0.144750
O O7 0.753667 0.751939 0.263474
O O8 0.750000 0.750000 0.500000
O O9 0.643802 0.759100 0.580773
O O10 0.706332 0.802862 0.418942
O O11 0.698799 0.000000 0.513414
O O12 0.055454 0.231734 0.871639
O O13 0.072627 0.200507 0.733401
O O14 0.966612 0.244422 0.860976
O O15 0.021326 0.000000 0.833337
O O16 0.426958 0.000000 0.921296
O O17 0.433371 0.196712 0.005733
O O18 0.434417 0.000000 0.095876
O O19 0.816477 0.792059 0.327691
O O20 0.862414 0.000000 0.359974
O O21 0.760408 0.000000 0.317167
#
# Coordination Sequence:
#
# PCOD9219124 Si02
#       8
#     8   8   8   8   8   8   8   8
#     4   9  19  35  51  67  87 110 141 181 221 263
#     4   9  17  28  44  65  85 111 147 179 212 259
#     4   9  17  27  39  56  80 112 149 184 215 251
#     4  11  20  28  40  61  88 114 147 186 214 246
#     4   9  19  33  45  60  84 112 144 179 214 259
#     4   9  17  29  42  57  82 116 148 177 211 251
#     4   9  18  29  38  55  85 117 149 184 215 247
#     4   9  16  27  40  58  85 112 143 184 218 246
#
# _framework density 14.477808
#
# number of rings (size 3 to 8) (size 9 to 14) (size 15 to 20)
#    0.000    2.750    1.250    3.375    0.000    6.500 
#    0.000    2.500    0.000    0.000    0.000    0.000 
#    0.000    1.000    0.000   11.000    0.000    8.000 
#
# Total GULP energy -178233.378678 kJ/mol
# GULP energy per Si atom -5569.793084 kJ/mol
# Density = 1.444486 g / cm^3
# Si number density = 14.477808 Si / 1000 Ang^3
#
#
#
# Elastic Constant Matrix: (Units=GPa)
#
#
# Indices 1 2 3 4 5 6 
#
# 1 52.2651 30.7268 50.5551 0.0000 5.9825 0.0000
# 2 30.7268 47.3519 69.4156 0.0000 0.1436 0.0000
# 3 50.5551 69.4156 138.7782 0.0000 -1.1622 0.0000
# 4 0.0000 0.0000 0.0000 29.6984 0.0000 0.6455
# 5 5.9825 0.1436 -1.1622 0.0000 14.9141 0.0000
# 6 0.0000 0.0000 0.0000 0.6455 0.0000 20.7428
#
#
#
# Elastic Compliance Matrix: (Units=1/GPa)
#
#
# Indices 1 2 3 4 5 6 
#
# 1 0.034474 -0.014035 -0.005656 0.000000 -0.014134 0.000000
# 2 -0.014035 0.085107 -0.037441 0.000000 0.001893 0.000000
# 3 -0.005656 -0.037441 0.028034 0.000000 0.004814 0.000000
# 4 0.000000 0.000000 0.000000 0.033695 0.000000 -0.001049
# 5 -0.014134 0.001893 0.004814 0.000000 0.073077 0.000000
# 6 0.000000 0.000000 0.000000 -0.001049 0.000000 0.048242
#
#
# Mechanical properties :
#
#
# Convention : Reuss Voigt Hill
#
# Bulk Modulus (GPa) = 29.98533 59.97669 44.98101
# Shear Modulus (GPa) = 11.68193 18.91757 15.29975
#
# Velocity S-wave (km/s) = 2.84365 3.61870 3.25433
# Velocity P-wave (km/s) = 5.61587 7.67962 6.72735
#
# Compressibility (1/GPa) = 0.03334964
#
# Stress axis : x y z
#
# Youngs Moduli (GPa) = 29.00751 11.74990 35.67064
#
# Poissons Ratio (x) = 0.16491 0.20177
# Poissons Ratio (y) = 0.40713 1.33555
# Poissons Ratio (z) = 0.16408 0.43993
#
# Static dielectric constant tensor:
#      x y z
#    x 1.454950 0.000000 -0.016180 
#    y 0.000000 1.481860 0.000000 
#    z -0.016180 0.000000 1.508550 
# 
# From -- ./inp_files/323687.got.cif
#   From: 2010.05.17/outbox.cif.g08.bks.cpg/sg12_162_cif.got.tgz:323687.got - 2010.06.03 13:09:07.
