data_PCOD9219600
_publ_section_title
;
Structure prediction by ZEFSAII (Michael W. Deem and Ramdas Pophale) SiO2 
 PCOD9219600
Probable space group: C 2/M
;
_chemical_formula_sum "Si O2"
_cell_formula_units_Z 40
_cell_length_a 10.775484
_cell_length_b 23.653917
_cell_length_c 9.432115
_cell_angle_alpha 90.000000
_cell_angle_beta 135.271509
_cell_angle_gamma 90.000000
_cell_volume 1691.866762
_symmetry_space_group_name_H-M "C 2/M"
_symmetry_group_IT_number 12
_symmetry_cell_setting 'monoclinic'
loop_
_space_group_symop_operation_xyz
x,y,z
-x,y,-z
-x,-y,-z
x,-y,z
1/2+x,1/2+y,z
1/2-x,1/2+y,-z
1/2-x,1/2-y,-z
1/2+x,1/2-y,z
loop_
_atom_site_type_symbol
_atom_site_label
_atom_site_fract_x
_atom_site_fract_y
_atom_site_fract_z
Si Si1 0.284342 0.286464 0.759567
Si Si2 0.575977 0.433370 0.405177
Si Si3 0.999534 0.720423 0.271921
Si Si4 0.981910 0.403999 0.658492
Si Si5 0.146422 0.905779 0.026322
O O1 0.150628 0.285722 0.516153
O O2 0.448346 0.256910 0.819419
O O3 0.317977 0.348409 0.852289
O O4 0.170981 0.255301 0.787486
O O5 0.500000 0.421528 0.500000
O O6 0.544036 0.500000 0.352192
O O7 0.785531 0.423322 0.543740
O O8 0.455784 0.396303 0.202764
O O9 0.982649 0.654202 0.226271
O O10 0.000000 0.398953 0.500000
O O11 0.165489 0.435580 0.841810
O O12 0.000000 0.937708 0.000000
#
# Coordination Sequence:
#
# PCOD9219600 Si02
#       5
#     8   8   8   8   8
#     4   9  17  32  61  93 139 185 233 279 337 399
#     4  11  27  49  74 105 136 179 240 306 373 424
#     4   9  16  34  58  98 140 186 228 282 333 408
#     4  11  20  43  71 103 146 186 233 292 353 421
#     4  11  21  42  73 102 144 185 234 291 348 430
#
# _framework density 23.642524000000002
#
# number of rings (size 3 to 8) (size 9 to 14) (size 15 to 20)
#    0.000    1.800    6.000    0.000    0.000    2.400 
#   10.800    6.000    0.000    0.000    0.000    0.000 
#    0.000    0.000    0.000    0.000    0.000    0.000 
#
# Total GULP energy -111404.045841 kJ/mol
# GULP energy per Si atom -5570.202292 kJ/mol
# Density = 2.358871 g / cm^3
# Si number density = 23.642524 Si / 1000 Ang^3
#
#
#
# Elastic Constant Matrix: (Units=GPa)
#
#
# Indices 1 2 3 4 5 6 
#
# 1 224.7617 65.8987 98.2050 0.0000 15.7894 0.0000
# 2 65.8987 93.1757 24.9051 0.0000 -16.9952 0.0000
# 3 98.2050 24.9051 134.1823 0.0000 12.1862 0.0000
# 4 0.0000 0.0000 0.0000 56.4667 0.0000 -33.2462
# 5 15.7894 -16.9952 12.1862 0.0000 56.0260 0.0000
# 6 0.0000 0.0000 0.0000 -33.2462 0.0000 31.9470
#
#
#
# Elastic Compliance Matrix: (Units=1/GPa)
#
#
# Indices 1 2 3 4 5 6 
#
# 1 0.008239 -0.005044 -0.004840 0.000000 -0.002800 0.000000
# 2 -0.005044 0.015313 0.000305 0.000000 0.006000 0.000000
# 3 -0.004840 0.000305 0.011024 0.000000 -0.000941 0.000000
# 4 0.000000 0.000000 0.000000 0.045728 0.000000 0.047587
# 5 -0.002800 0.006000 -0.000941 0.000000 0.020663 0.000000
# 6 0.000000 0.000000 0.000000 0.047587 0.000000 0.080824
#
#
# Mechanical properties :
#
#
# Convention : Reuss Voigt Hill
#
# Bulk Modulus (GPa) = 64.86225 92.23747 78.54986
# Shear Modulus (GPa) = 24.26140 46.42868 35.34504
#
# Velocity S-wave (km/s) = 3.20687 4.43626 3.87069
# Velocity P-wave (km/s) = 6.41920 8.08323 7.29879
#
# Compressibility (1/GPa) = 0.01541729
#
# Stress axis : x y z
#
# Youngs Moduli (GPa) = 121.36787 65.30362 90.71472
#
# Poissons Ratio (x) = 0.32941 0.43903
# Poissons Ratio (y) = 0.61222 -0.02764
# Poissons Ratio (z) = 0.58739 -0.01990
#
# Static dielectric constant tensor:
#      x y z
#    x 2.006680 0.000000 0.098950 
#    y 0.000000 1.915070 0.000000 
#    z 0.098950 0.000000 2.018730 
# 
# From -- ./inp_files/41911.got.cif
#   From: 2010.05.17/outbox.cif.g08.bks.cpg/sg12_21_cif.got.tgz:41911.got - 2010.06.03 13:09:07.
