data_PCOD9219767
_publ_section_title
;
Structure prediction by ZEFSAII (Michael W. Deem and Ramdas Pophale) SiO2 
 PCOD9219767
Probable space group: C 2/M
;
_chemical_formula_sum "Si O2"
_cell_formula_units_Z 64
_cell_length_a 14.481992
_cell_length_b 29.497138
_cell_length_c 9.493208
_cell_angle_alpha 90.000000
_cell_angle_beta 121.070460
_cell_angle_gamma 90.000000
_cell_volume 3473.484951
_symmetry_space_group_name_H-M "C 2/M"
_symmetry_group_IT_number 12
_symmetry_cell_setting 'monoclinic'
loop_
_space_group_symop_operation_xyz
x,y,z
-x,y,-z
-x,-y,-z
x,-y,z
1/2+x,1/2+y,z
1/2-x,1/2+y,-z
1/2-x,1/2-y,-z
1/2+x,1/2-y,z
loop_
_atom_site_type_symbol
_atom_site_label
_atom_site_fract_x
_atom_site_fract_y
_atom_site_fract_z
Si Si1 0.591038 0.448698 0.784197
Si Si2 0.907128 0.873320 0.019852
Si Si3 0.413445 0.668942 0.320598
Si Si4 0.246531 0.353490 0.406499
Si Si5 0.329365 0.701333 0.732319
Si Si6 0.596828 0.223774 0.672905
Si Si7 0.346208 0.447622 0.496140
Si Si8 0.460899 0.796609 0.815261
O O1 0.604413 0.500000 0.842271
O O2 0.647311 0.414888 0.939117
O O3 0.461874 0.439822 0.663979
O O4 0.633414 0.445573 0.656969
O O5 0.940900 0.845065 0.184536
O O6 0.862883 0.836216 0.875072
O O7 0.000000 0.895830 0.000000
O O8 0.500000 0.650207 0.500000
O O9 0.299117 0.653322 0.293347
O O10 0.414608 0.722537 0.326150
O O11 0.314025 0.322116 0.568545
O O12 0.266124 0.405830 0.465567
O O13 0.127379 0.332472 0.309444
O O14 0.211153 0.715232 0.693748
O O15 0.403371 0.746438 0.777238
O O16 0.500000 0.206041 0.500000
O O17 0.567340 0.205133 0.802492
O O18 0.313291 0.500000 0.501605
O O19 0.500000 0.808704 0.000000
#
# Coordination Sequence:
#
# PCOD9219767 Si02
#       8
#     8   8   8   8   8   8   8   8
#     4   9  18  34  54  84 120 153 187 235 298 359
#     4  12  23  34  52  86 119 155 193 238 283 350
#     4  11  21  34  57  79 110 155 195 232 279 344
#     4  12  22  39  61  84 114 156 204 237 291 358
#     4  12  24  40  57  86 121 158 197 239 294 353
#     4  11  22  39  57  79 117 157 191 241 293 332
#     4   9  18  34  60  86 114 150 198 248 292 350
#     4  12  26  40  57  87 119 157 204 245 286 346
#
# _framework density 18.4253
#
# number of rings (size 3 to 8) (size 9 to 14) (size 15 to 20)
#    0.000    1.000    3.750    6.750    1.750    1.250 
#    0.000    0.625    0.000    0.375    0.000    2.625 
#    0.000    0.000    0.000    0.000    0.000    0.000 
#
# Total GULP energy -178410.298785 kJ/mol
# GULP energy per Si atom -5575.321837 kJ/mol
# Density = 1.838336 g / cm^3
# Si number density = 18.425300 Si / 1000 Ang^3
#
#
#
# Elastic Constant Matrix: (Units=GPa)
#
#
# Indices 1 2 3 4 5 6 
#
# 1 56.9755 7.8170 0.3170 0.0000 -12.3103 0.0000
# 2 7.8170 106.8844 17.8636 0.0000 5.9293 0.0000
# 3 0.3170 17.8636 63.7060 0.0000 -16.5769 0.0000
# 4 0.0000 0.0000 0.0000 23.8175 0.0000 1.9562
# 5 -12.3103 5.9293 -16.5769 0.0000 26.3081 0.0000
# 6 0.0000 0.0000 0.0000 1.9562 0.0000 14.9377
#
#
#
# Elastic Compliance Matrix: (Units=1/GPa)
#
#
# Indices 1 2 3 4 5 6 
#
# 1 0.020720 -0.002913 0.004076 0.000000 0.012920 0.000000
# 2 -0.002913 0.010741 -0.004763 0.000000 -0.006785 0.000000
# 3 0.004076 -0.004763 0.021277 0.000000 0.016387 0.000000
# 4 0.000000 0.000000 0.000000 0.042442 0.000000 -0.005558
# 5 0.012920 -0.006785 0.016387 0.000000 0.055912 0.000000
# 6 0.000000 0.000000 0.000000 -0.005558 0.000000 0.067673
#
#
# Mechanical properties :
#
#
# Convention : Reuss Voigt Hill
#
# Bulk Modulus (GPa) = 21.96024 31.06233 26.51129
# Shear Modulus (GPa) = 20.73441 26.45054 23.59248
#
# Velocity S-wave (km/s) = 3.35822 3.79298 3.58220
# Velocity P-wave (km/s) = 5.19435 6.00645 5.61510
#
# Compressibility (1/GPa) = 0.04553684
#
# Stress axis : x y z
#
# Youngs Moduli (GPa) = 48.26253 93.09748 47.00009
#
# Poissons Ratio (x) = 0.27122 -0.19156
# Poissons Ratio (y) = 0.14060 0.22387
# Poissons Ratio (z) = -0.19671 0.44343
#
# Static dielectric constant tensor:
#      x y z
#    x 1.667740 0.000000 0.009400 
#    y 0.000000 1.686020 0.000000 
#    z 0.009400 0.000000 1.665160 
# 
# From -- ./inp_files/68275.got.cif
#   From: 2010.05.17/outbox.cif.g08.bks.cpg/sg12_35_cif.got.tgz:68275.got - 2010.06.03 13:09:07.
