data_PCOD9219279
_publ_section_title
;
Structure prediction by ZEFSAII (Michael W. Deem and Ramdas Pophale) SiO2 
 PCOD9219279
Probable space group: C 2/M
;
_chemical_formula_sum "Si O2"
_cell_formula_units_Z 40
_cell_length_a 13.714994
_cell_length_b 14.171327
_cell_length_c 17.904315
_cell_angle_alpha 90.000000
_cell_angle_beta 38.470126
_cell_angle_gamma 90.000000
_cell_volume 2164.853892
_symmetry_space_group_name_H-M "C 2/M"
_symmetry_group_IT_number 12
_symmetry_cell_setting 'monoclinic'
loop_
_space_group_symop_operation_xyz
x,y,z
-x,y,-z
-x,-y,-z
x,-y,z
1/2+x,1/2+y,z
1/2-x,1/2+y,-z
1/2-x,1/2-y,-z
1/2+x,1/2-y,z
loop_
_atom_site_type_symbol
_atom_site_label
_atom_site_fract_x
_atom_site_fract_y
_atom_site_fract_z
Si Si1 0.861310 0.196448 0.328525
Si Si2 0.497436 0.500000 0.725691
Si Si3 0.509503 0.207089 0.602508
Si Si4 0.169556 0.500000 0.862435
Si Si5 0.503666 0.000000 0.406367
Si Si6 0.244298 0.154325 0.309208
Si Si7 0.714517 0.500000 0.457984
O O1 0.931402 0.093296 0.280786
O O2 0.677070 0.189672 0.461597
O O3 0.867289 0.263651 0.254215
O O4 0.947482 0.252060 0.342929
O O5 0.311035 0.500000 0.836663
O O6 0.557629 0.500000 0.602356
O O7 0.408941 0.288776 0.624458
O O8 0.427515 0.104208 0.652596
O O9 0.197148 0.588902 0.791998
O O10 0.000000 0.500000 0.000000
O O11 0.500000 0.000000 0.500000
O O12 0.350726 0.000000 0.440555
O O13 0.222503 0.089776 0.397199
#
# Coordination Sequence:
#
# PCOD9219279 Si02
#       7
#     8   4   8   4   4   8   4
#     4  11  20  34  55  94 123 158 199 233 305 373
#     4  12  22  38  60  88 132 155 193 259 287 371
#     4  11  21  33  53  91 135 159 190 236 296 378
#     4  11  27  46  64  86 111 157 220 265 303 343
#     4  12  21  33  50  86 145 172 184 226 296 383
#     4  11  23  38  64  86 126 161 199 253 299 367
#     4  11  22  36  55  96 123 161 205 238 302 373
#
# _framework density 18.476997999999998
#
# number of rings (size 3 to 8) (size 9 to 14) (size 15 to 20)
#    0.000    0.800    6.000    3.000    2.800    0.800 
#    0.000    1.000    0.000    0.000    0.000    1.400 
#    0.000    0.000    0.000    0.000    0.000    0.000 
#
# Total GULP energy -111619.761062 kJ/mol
# GULP energy per Si atom -5580.988053 kJ/mol
# Density = 1.843494 g / cm^3
# Si number density = 18.476998 Si / 1000 Ang^3
#
#
#
# Elastic Constant Matrix: (Units=GPa)
#
#
# Indices 1 2 3 4 5 6 
#
# 1 122.1170 67.0069 35.6749 -0.0001 -10.7517 0.0001
# 2 67.0069 195.8229 41.4978 -0.0002 -8.7493 0.0001
# 3 35.6749 41.4978 51.2375 -0.0004 -17.1501 0.0002
# 4 -0.0001 -0.0002 -0.0004 5.7250 0.0002 -5.1031
# 5 -10.7517 -8.7493 -17.1501 0.0002 13.5892 -0.0001
# 6 0.0001 0.0001 0.0002 -5.1031 -0.0001 47.6241
#
#
#
# Elastic Compliance Matrix: (Units=1/GPa)
#
#
# Indices 1 2 3 4 5 6 
#
# 1 0.011322 -0.002661 -0.005719 0.000000 0.000027 0.000000
# 2 -0.002661 0.006921 -0.005135 0.000000 -0.004130 0.000000
# 3 -0.005719 -0.005135 0.043348 0.000001 0.046875 0.000000
# 4 0.000000 0.000000 0.000001 0.193118 -0.000002 0.020693
# 5 0.000027 -0.004130 0.046875 -0.000002 0.130109 0.000000
# 6 0.000000 0.000000 0.000000 0.020693 0.000000 0.023215
#
#
# Mechanical properties :
#
#
# Convention : Reuss Voigt Hill
#
# Bulk Modulus (GPa) = 28.93418 73.05959 50.99689
# Shear Modulus (GPa) = 11.19615 28.38752 19.79184
#
# Velocity S-wave (km/s) = 2.46428 3.92391 3.27641
# Velocity P-wave (km/s) = 4.87755 7.75604 6.47868
#
# Compressibility (1/GPa) = 0.03456120
#
# Stress axis : x y z
#
# Youngs Moduli (GPa) = 88.32268 144.49106 23.06938
#
# Poissons Ratio (x) = 0.38450 0.13193
# Poissons Ratio (y) = 0.23504 0.11846
# Poissons Ratio (z) = 0.50510 0.74192
#
# Static dielectric constant tensor:
#      x y z
#    x 1.704680 0.000000 -0.016560 
#    y 0.000000 1.711790 0.000000 
#    z -0.016560 0.000000 1.593520 
# 
# From -- ./inp_files/270563.got.cif
#   From: 2010.05.17/outbox.cif.g08.bks.cpg/sg12_136_cif.got.tgz:270563.got - 2010.06.03 13:09:07.
