data_PCOD9219702
_publ_section_title
;
Structure prediction by ZEFSAII (Michael W. Deem and Ramdas Pophale) SiO2 
 PCOD9219702
Probable space group: C 2/M
;
_chemical_formula_sum "Si O2"
_cell_formula_units_Z 56
_cell_length_a 27.958631
_cell_length_b 21.213188
_cell_length_c 8.681052
_cell_angle_alpha 90.000000
_cell_angle_beta 141.485447
_cell_angle_gamma 90.000000
_cell_volume 3206.139467
_symmetry_space_group_name_H-M "C 2/M"
_symmetry_group_IT_number 12
_symmetry_cell_setting 'monoclinic'
loop_
_space_group_symop_operation_xyz
x,y,z
-x,y,-z
-x,-y,-z
x,-y,z
1/2+x,1/2+y,z
1/2-x,1/2+y,-z
1/2-x,1/2-y,-z
1/2+x,1/2-y,z
loop_
_atom_site_type_symbol
_atom_site_label
_atom_site_fract_x
_atom_site_fract_y
_atom_site_fract_z
Si Si1 0.081025 0.000000 0.986021
Si Si2 0.306304 0.820347 0.511082
Si Si3 0.597464 0.500000 0.395300
Si Si4 0.939263 0.763643 0.225694
Si Si5 0.444777 0.249894 0.723406
Si Si6 0.841963 0.878385 0.967521
Si Si7 0.793388 0.696688 0.832289
Si Si8 0.342084 0.633920 0.336681
O O1 0.117062 0.940159 0.991067
O O2 0.988794 0.000000 0.753492
O O3 0.099424 0.000000 0.214509
O O4 0.387335 0.804649 0.636063
O O5 0.258606 0.757362 0.342682
O O6 0.315333 0.827751 0.717486
O O7 0.247027 0.873768 0.306162
O O8 0.635137 0.565052 0.546019
O O9 0.892710 0.820304 0.027694
O O10 0.000000 0.790626 0.500000
O O11 0.994933 0.726819 0.251733
O O12 0.870379 0.719898 0.111953
O O13 0.398326 0.310480 0.540919
O O14 0.500000 0.271944 0.000000
O O15 0.844472 0.868348 0.157670
O O16 0.741179 0.652460 0.805354
#
# Coordination Sequence:
#
# PCOD9219702 Si02
#       8
#     4   8   4   8   8   8   8   8
#     4  11  25  39  59  77 106 141 188 221 262 316
#     4   9  19  34  52  75 107 143 180 217 266 321
#     4  11  25  39  57  81 101 144 187 222 261 316
#     4  11  21  33  53  83 112 142 178 222 273 315
#     4  11  21  33  55  81 110 144 179 220 268 321
#     4  11  23  37  53  78 111 146 178 224 268 317
#     4   9  19  34  52  75 107 144 179 218 264 323
#     4  11  23  36  55  77 111 144 181 222 268 319
#
# _framework density 17.46649
#
# number of rings (size 3 to 8) (size 9 to 14) (size 15 to 20)
#    0.000    1.571    2.857    2.143    8.000    2.286 
#    0.000    0.000    0.000    0.000    0.000    2.000 
#    0.000    0.000    0.000    0.000    0.000    0.000 
#
# Total GULP energy -156024.419439 kJ/mol
# GULP energy per Si atom -5572.300694 kJ/mol
# Density = 1.742674 g / cm^3
# Si number density = 17.466490 Si / 1000 Ang^3
#
#
#
# Elastic Constant Matrix: (Units=GPa)
#
#
# Indices 1 2 3 4 5 6 
#
# 1 118.5827 47.4293 23.9363 0.0000 28.9019 0.0000
# 2 47.4293 70.3170 30.6504 0.0000 20.3675 0.0000
# 3 23.9363 30.6504 63.9298 0.0000 22.9954 0.0000
# 4 0.0000 0.0000 0.0000 19.5062 0.0000 2.3940
# 5 28.9019 20.3675 22.9954 0.0000 26.1569 0.0000
# 6 0.0000 0.0000 0.0000 2.3940 0.0000 30.8090
#
#
#
# Elastic Compliance Matrix: (Units=1/GPa)
#
#
# Indices 1 2 3 4 5 6 
#
# 1 0.013526 -0.006759 0.002426 0.000000 -0.011816 0.000000
# 2 -0.006759 0.023085 -0.006958 0.000000 -0.004390 0.000000
# 3 0.002426 -0.006958 0.024986 0.000000 -0.019229 0.000000
# 4 0.000000 0.000000 0.000000 0.051759 0.000000 -0.004022
# 5 -0.011816 -0.004390 -0.019229 0.000000 0.071610 0.000000
# 6 0.000000 0.000000 0.000000 -0.004022 0.000000 0.032771
#
#
# Mechanical properties :
#
#
# Convention : Reuss Voigt Hill
#
# Bulk Modulus (GPa) = 25.63031 50.76240 38.19635
# Shear Modulus (GPa) = 19.73760 25.34866 22.54313
#
# Velocity S-wave (km/s) = 3.36523 3.81369 3.59646
# Velocity P-wave (km/s) = 5.45945 6.96550 6.25794
#
# Compressibility (1/GPa) = 0.03901631
#
# Stress axis : x y z
#
# Youngs Moduli (GPa) = 73.92999 43.31902 40.02189
#
# Poissons Ratio (x) = 0.29277 -0.09709
# Poissons Ratio (y) = 0.49966 0.27847
# Poissons Ratio (z) = -0.17935 0.30141
#
# Static dielectric constant tensor:
#      x y z
#    x 1.641170 0.000000 -0.023420 
#    y 0.000000 1.574640 0.000000 
#    z -0.023420 0.000000 1.636940 
# 
# From -- ./inp_files/105995.got.cif
#   From: 2010.05.17/outbox.cif.g08.bks.cpg/sg12_53_cif.got.tgz:105995.got - 2010.06.03 13:09:07.
