data_PCOD9219472
_publ_section_title
;
Structure prediction by ZEFSAII (Michael W. Deem and Ramdas Pophale) SiO2 
 PCOD9219472
Probable space group: C 2/M
;
_chemical_formula_sum "Si O2"
_cell_formula_units_Z 56
_cell_length_a 23.143749
_cell_length_b 15.094993
_cell_length_c 14.997244
_cell_angle_alpha 90.000000
_cell_angle_beta 32.344847
_cell_angle_gamma 90.000000
_cell_volume 2803.128872
_symmetry_space_group_name_H-M "C 2/M"
_symmetry_group_IT_number 12
_symmetry_cell_setting 'monoclinic'
loop_
_space_group_symop_operation_xyz
x,y,z
-x,y,-z
-x,-y,-z
x,-y,z
1/2+x,1/2+y,z
1/2-x,1/2+y,-z
1/2-x,1/2-y,-z
1/2+x,1/2-y,z
loop_
_atom_site_type_symbol
_atom_site_label
_atom_site_fract_x
_atom_site_fract_y
_atom_site_fract_z
Si Si1 0.966043 0.845050 0.950791
Si Si2 0.143152 0.301496 0.671482
Si Si3 0.787902 0.278235 0.122315
Si Si4 0.728551 0.599437 0.351244
Si Si5 0.485378 0.596438 0.728140
Si Si6 0.573724 0.764827 0.315618
Si Si7 0.031309 0.606469 0.218467
O O1 0.057962 0.771019 0.815397
O O2 0.961039 0.898040 0.864831
O O3 0.853546 0.791802 0.096685
O O4 0.000000 0.889089 0.000000
O O5 0.250000 0.250000 0.500000
O O6 0.179215 0.364375 0.704640
O O7 0.081120 0.359481 0.678306
O O8 0.720436 0.339966 0.275983
O O9 0.700306 0.231217 0.174611
O O10 0.873590 0.340997 0.959242
O O11 0.753108 0.500000 0.291724
O O12 0.614721 0.601446 0.550043
O O13 0.449752 0.500000 0.739168
O O14 0.441026 0.679717 0.730635
O O15 0.500000 0.754719 0.500000
O O16 0.538379 0.851997 0.307711
O O17 0.041492 0.500000 0.201039
#
# Coordination Sequence:
#
# PCOD9219472 Si02
#       7
#     8   8   8   8   8   8   8
#     4  11  22  39  65  94 124 165 208 259 325 389
#     4  11  20  38  65  90 125 171 210 257 325 391
#     4  11  23  39  65  94 126 174 213 264 327 385
#     4  11  21  36  62  97 125 157 212 269 325 385
#     4  11  24  42  64  93 127 167 216 271 320 377
#     4  12  24  44  68  91 128 177 225 267 319 387
#     4  11  25  42  64  98 134 170 215 272 332 387
#
# _framework density 19.977677
#
# number of rings (size 3 to 8) (size 9 to 14) (size 15 to 20)
#    0.000    0.857    7.143    1.286    0.000    2.000 
#    0.000    2.143    0.000    0.000    0.000    0.000 
#    0.000    0.000    0.000    0.000    0.000    0.000 
#
# Total GULP energy -156343.082401 kJ/mol
# GULP energy per Si atom -5583.681514 kJ/mol
# Density = 1.993221 g / cm^3
# Si number density = 19.977677 Si / 1000 Ang^3
#
#
#
# Elastic Constant Matrix: (Units=GPa)
#
#
# Indices 1 2 3 4 5 6 
#
# 1 109.6603 28.1139 17.6865 0.0000 -3.9692 0.0000
# 2 28.1139 74.1139 13.0259 0.0000 -0.3217 0.0000
# 3 17.6865 13.0259 49.7653 0.0000 2.6391 0.0000
# 4 0.0000 0.0000 0.0000 13.4169 0.0000 0.6406
# 5 -3.9692 -0.3217 2.6391 0.0000 41.5257 0.0000
# 6 0.0000 0.0000 0.0000 0.6406 0.0000 14.4450
#
#
#
# Elastic Compliance Matrix: (Units=1/GPa)
#
#
# Indices 1 2 3 4 5 6 
#
# 1 0.010519 -0.003477 -0.002890 0.000000 0.001162 0.000000
# 2 -0.003477 0.015298 -0.002766 0.000000 -0.000038 0.000000
# 3 -0.002890 -0.002766 0.021935 0.000000 -0.001692 0.000000
# 4 0.000000 0.000000 0.000000 0.074691 0.000000 -0.003312
# 5 0.001162 -0.000038 -0.001692 0.000000 0.024300 0.000000
# 6 0.000000 0.000000 0.000000 -0.003312 0.000000 0.069375
#
#
# Mechanical properties :
#
#
# Convention : Reuss Voigt Hill
#
# Bulk Modulus (GPa) = 33.91561 39.02137 36.46849
# Shear Modulus (GPa) = 20.47400 25.52506 22.99953
#
# Velocity S-wave (km/s) = 3.20479 3.57834 3.39671
# Velocity P-wave (km/s) = 5.54147 6.05373 5.80325
#
# Compressibility (1/GPa) = 0.02948495
#
# Stress axis : x y z
#
# Youngs Moduli (GPa) = 95.06907 65.36891 45.58894
#
# Poissons Ratio (x) = 0.22730 0.13174
# Poissons Ratio (y) = 0.33057 0.12612
# Poissons Ratio (z) = 0.27473 0.18083
#
# Static dielectric constant tensor:
#      x y z
#    x 1.714530 0.000000 0.023050 
#    y 0.000000 1.715260 0.000000 
#    z 0.023050 0.000000 1.713820 
# 
# From -- ./inp_files/240875.got.cif
#   From: 2010.05.17/outbox.cif.g08.bks.cpg/sg12_121_cif.got.tgz:240875.got - 2010.06.03 13:09:07.
