data_PCOD9219532
_publ_section_title
;
Structure prediction by ZEFSAII (Michael W. Deem and Ramdas Pophale) SiO2 
 PCOD9219532
Probable space group: C 2/M
;
_chemical_formula_sum "Si O2"
_cell_formula_units_Z 56
_cell_length_a 9.245201
_cell_length_b 15.487995
_cell_length_c 21.642828
_cell_angle_alpha 90.000000
_cell_angle_beta 122.637631
_cell_angle_gamma 90.000000
_cell_volume 2609.686785
_symmetry_space_group_name_H-M "C 2/M"
_symmetry_group_IT_number 12
_symmetry_cell_setting 'monoclinic'
loop_
_space_group_symop_operation_xyz
x,y,z
-x,y,-z
-x,-y,-z
x,-y,z
1/2+x,1/2+y,z
1/2-x,1/2+y,-z
1/2-x,1/2-y,-z
1/2+x,1/2-y,z
loop_
_atom_site_type_symbol
_atom_site_label
_atom_site_fract_x
_atom_site_fract_y
_atom_site_fract_z
Si Si1 0.897955 0.364538 0.659591
Si Si2 0.228693 0.099916 0.247138
Si Si3 0.286988 0.408656 0.267098
Si Si4 0.349318 0.338439 0.643233
Si Si5 0.818448 0.784438 0.949408
Si Si6 0.562796 0.768873 0.150824
Si Si7 0.835964 0.899271 0.503061
O O1 0.749370 0.401998 0.668980
O O2 0.895678 0.261308 0.661930
O O3 0.835434 0.391157 0.577481
O O4 0.074789 0.396824 0.730486
O O5 0.267150 0.133539 0.326223
O O6 0.104407 0.170228 0.184303
O O7 0.169075 0.000000 0.230349
O O8 0.225728 0.500000 0.227848
O O9 0.486760 0.397156 0.304296
O O10 0.194845 0.328390 0.216153
O O11 0.305470 0.353651 0.561794
O O12 0.628170 0.805592 0.879460
O O13 0.890984 0.723635 0.911404
O O14 0.750000 0.750000 0.000000
O O15 0.000000 0.838251 0.000000
O O16 0.000000 0.865478 0.500000
O O17 0.870132 0.000000 0.523607
#
# Coordination Sequence:
#
# PCOD9219532 Si02
#       7
#     8   8   8   8   8   8   8
#     4  12  23  42  60  88 124 164 217 269 322 385
#     4  12  25  40  63  96 130 163 205 267 326 370
#     4  12  23  40  67  94 124 169 215 259 312 380
#     4  12  23  42  60  88 124 164 217 271 322 380
#     4   9  20  38  68  98 124 172 208 238 298 366
#     4  11  20  40  66  91 134 161 206 253 304 373
#     4  11  23  39  61  85 114 167 223 268 322 381
#
# _framework density 21.458514999999998
#
# number of rings (size 3 to 8) (size 9 to 14) (size 15 to 20)
#    0.000    0.714    4.286    4.714    0.000    0.571 
#    0.000    1.429    0.000   17.143    0.000    0.000 
#    0.000    0.000    0.000    0.000    0.000    0.000 
#
# Total GULP energy -155885.718796 kJ/mol
# GULP energy per Si atom -5567.347100 kJ/mol
# Density = 2.140967 g / cm^3
# Si number density = 21.458515 Si / 1000 Ang^3
#
#
#
# Elastic Constant Matrix: (Units=GPa)
#
#
# Indices 1 2 3 4 5 6 
#
# 1 75.3387 -3.2152 21.7606 0.0000 0.1911 0.0000
# 2 -3.2152 123.6914 15.5312 0.0000 -12.1678 0.0000
# 3 21.7606 15.5312 86.8115 0.0000 -1.7135 0.0000
# 4 0.0000 0.0000 0.0000 -19.1250 0.0000 6.9352
# 5 0.1911 -12.1678 -1.7135 0.0000 41.5588 0.0000
# 6 0.0000 0.0000 0.0000 6.9352 0.0000 6.1122
#
#
#
# Elastic Compliance Matrix: (Units=1/GPa)
#
#
# Indices 1 2 3 4 5 6 
#
# 1 0.014396 0.000849 -0.003760 0.000000 0.000027 0.000000
# 2 0.000849 0.008559 -0.001696 0.000000 0.002432 0.000000
# 3 -0.003760 -0.001696 0.012766 0.000000 0.000047 0.000000
# 4 0.000000 0.000000 0.000000 -0.037045 0.000000 0.042034
# 5 0.000027 0.002432 0.000047 0.000000 0.024776 0.000000
# 6 0.000000 0.000000 0.000000 0.042034 0.000000 0.115914
#
#
# Mechanical properties :
#
#
# Convention : Reuss Voigt Hill
#
# Bulk Modulus (GPa) = 37.72628 39.33275 38.52952
# Shear Modulus (GPa) = 31.76320 22.49354 27.12837
#
# Velocity S-wave (km/s) = 3.85153 3.24116 3.55945
# Velocity P-wave (km/s) = 6.11541 5.69001 5.90654
#
# Compressibility (1/GPa) = 0.02650672
#
# Stress axis : x y z
#
# Youngs Moduli (GPa) = 69.46607 116.83717 78.33296
#
# Poissons Ratio (x) = -0.09919 0.29452
# Poissons Ratio (y) = -0.05898 0.13286
# Poissons Ratio (z) = 0.26118 0.19816
#
# Static dielectric constant tensor:
#      x y z
#    x 1.809470 0.000000 -0.000400 
#    y 0.000000 1.746820 0.000000 
#    z -0.000400 0.000000 1.907370 
# 
# From -- ./inp_files/332999.got.cif
#   From: 2010.05.17/outbox.cif.g08.bks.cpg/sg12_167_cif.got.tgz:332999.got - 2010.06.03 13:09:07.
