data_PCOD9219308
_publ_section_title
;
Structure prediction by ZEFSAII (Michael W. Deem and Ramdas Pophale) SiO2 
 PCOD9219308
Probable space group: C 2/M
;
_chemical_formula_sum "Si O2"
_cell_formula_units_Z 56
_cell_length_a 29.877570
_cell_length_b 13.658465
_cell_length_c 14.518782
_cell_angle_alpha 90.000000
_cell_angle_beta 27.309925
_cell_angle_gamma 90.000000
_cell_volume 2718.341728
_symmetry_space_group_name_H-M "C 2/M"
_symmetry_group_IT_number 12
_symmetry_cell_setting 'monoclinic'
loop_
_space_group_symop_operation_xyz
x,y,z
-x,y,-z
-x,-y,-z
x,-y,z
1/2+x,1/2+y,z
1/2-x,1/2+y,-z
1/2-x,1/2-y,-z
1/2+x,1/2-y,z
loop_
_atom_site_type_symbol
_atom_site_label
_atom_site_fract_x
_atom_site_fract_y
_atom_site_fract_z
Si Si1 0.607367 0.885914 0.350402
Si Si2 0.851129 0.216976 0.592077
Si Si3 0.462046 0.111235 0.846022
Si Si4 0.726733 0.886573 0.673179
Si Si5 0.963521 0.114929 0.671033
Si Si6 0.411574 0.119501 0.227756
Si Si7 0.828429 0.712248 0.946128
O O1 0.500000 0.876917 0.500000
O O2 0.621893 0.825002 0.417956
O O3 0.673394 0.836139 0.150610
O O4 0.628697 0.000000 0.323540
O O5 0.799553 0.187901 0.590387
O O6 0.947188 0.151479 0.429246
O O7 0.767652 0.188624 0.820021
O O8 0.554617 0.152901 0.732892
O O9 0.416664 0.164109 0.842607
O O10 0.483522 0.000000 0.779594
O O11 0.372283 0.110096 0.083879
O O12 0.688801 0.857083 0.640709
O O13 0.763260 0.000000 0.604917
O O14 0.000000 0.136296 0.500000
O O15 0.867207 0.176888 0.868282
O O16 0.947233 0.000000 0.709915
O O17 0.414919 0.000000 0.224535
O O18 0.500000 0.152538 0.000000
#
# Coordination Sequence:
#
# PCOD9219308 Si02
#       7
#     8   8   8   8   8   8   8
#     4  11  22  36  51  70  99 133 168 210 258 303
#     4  11  20  35  53  76 101 135 173 210 251 307
#     4   8  14  24  44  73 103 132 165 207 252 298
#     4   8  14  24  44  73 102 132 166 206 252 299
#     4  11  23  38  53  73 103 138 175 216 259 304
#     4   7  10  20  38  67 103 130 158 203 252 294
#     4  11  20  35  53  77 104 134 172 210 254 309
#
# _framework density 20.600795000000002
#
# number of rings (size 3 to 8) (size 9 to 14) (size 15 to 20)
#    0.000    2.429    2.857    3.000    0.000    2.286 
#    0.000    0.000    0.000    0.857    0.000    1.000 
#    0.000    5.714    0.000    0.000    0.000    0.000 
#
# Total GULP energy -156126.175987 kJ/mol
# GULP energy per Si atom -5575.934857 kJ/mol
# Density = 2.055391 g / cm^3
# Si number density = 20.600795 Si / 1000 Ang^3
#
#
#
# Elastic Constant Matrix: (Units=GPa)
#
#
# Indices 1 2 3 4 5 6 
#
# 1 162.8641 41.4107 7.2764 0.0000 -27.1584 0.0000
# 2 41.4107 99.5926 7.7704 0.0000 -16.6424 0.0000
# 3 7.2764 7.7704 60.2079 0.0000 -16.4855 0.0000
# 4 0.0000 0.0000 0.0000 16.2262 0.0000 -5.3155
# 5 -27.1584 -16.6424 -16.4855 0.0000 29.8612 0.0000
# 6 0.0000 0.0000 0.0000 -5.3155 0.0000 25.8000
#
#
#
# Elastic Compliance Matrix: (Units=1/GPa)
#
#
# Indices 1 2 3 4 5 6 
#
# 1 0.007723 -0.002230 0.001104 0.000000 0.006392 0.000000
# 2 -0.002230 0.011720 -0.000012 0.000000 0.004498 0.000000
# 3 0.001104 -0.000012 0.019733 0.000000 0.011892 0.000000
# 4 0.000000 0.000000 0.000000 0.066089 0.000000 0.013616
# 5 0.006392 0.004498 0.011892 0.000000 0.048373 0.000000
# 6 0.000000 0.000000 0.000000 0.013616 0.000000 0.041565
#
#
# Mechanical properties :
#
#
# Convention : Reuss Voigt Hill
#
# Bulk Modulus (GPa) = 27.09750 48.39773 37.74762
# Shear Modulus (GPa) = 23.83452 32.12462 27.97957
#
# Velocity S-wave (km/s) = 3.40512 3.95319 3.68935
# Velocity P-wave (km/s) = 5.35182 6.66191 6.04248
#
# Compressibility (1/GPa) = 0.03690378
#
# Stress axis : x y z
#
# Youngs Moduli (GPa) = 129.47560 85.32071 50.67569
#
# Poissons Ratio (x) = 0.19023 -0.05597
# Poissons Ratio (y) = 0.28867 0.00059
# Poissons Ratio (z) = -0.14299 0.00099
#
# Static dielectric constant tensor:
#      x y z
#    x 1.784260 0.000000 -0.014100 
#    y 0.000000 1.732050 0.000000 
#    z -0.014100 0.000000 1.763920 
# 
# From -- ./inp_files/251150.got.cif
#   From: 2010.05.17/outbox.cif.g08.bks.cpg/sg12_126_cif.got.tgz:251150.got - 2010.06.03 13:09:07.
