data_PCOD9219232
_publ_section_title
;
Structure prediction by ZEFSAII (Michael W. Deem and Ramdas Pophale) SiO2 
 PCOD9219232
Probable space group: C 2/M
;
_chemical_formula_sum "Si O2"
_cell_formula_units_Z 56
_cell_length_a 25.497347
_cell_length_b 7.976746
_cell_length_c 33.334836
_cell_angle_alpha 90.000000
_cell_angle_beta 153.257301
_cell_angle_gamma 90.000000
_cell_volume 3050.821357
_symmetry_space_group_name_H-M "C 2/M"
_symmetry_group_IT_number 12
_symmetry_cell_setting 'monoclinic'
loop_
_space_group_symop_operation_xyz
x,y,z
-x,y,-z
-x,-y,-z
x,-y,z
1/2+x,1/2+y,z
1/2-x,1/2+y,-z
1/2-x,1/2-y,-z
1/2+x,1/2-y,z
loop_
_atom_site_type_symbol
_atom_site_label
_atom_site_fract_x
_atom_site_fract_y
_atom_site_fract_z
Si Si1 0.430041 0.804649 0.413324
Si Si2 0.312087 0.195452 0.720935
Si Si3 0.199896 0.195693 0.377636
Si Si4 0.426829 0.796750 0.100439
Si Si5 0.483152 0.295054 0.284603
Si Si6 0.696342 0.298606 0.901302
Si Si7 0.942529 0.803685 0.577563
O O1 0.500000 0.737364 0.500000
O O2 0.294023 0.786653 0.329862
O O3 0.471097 0.717205 0.400879
O O4 0.462105 0.000000 0.431112
O O5 0.295319 0.211482 0.661534
O O6 0.442177 0.260842 0.818725
O O7 0.305848 0.000000 0.727785
O O8 0.321704 0.215439 0.483717
O O9 0.094293 0.254717 0.333569
O O10 0.180158 0.000000 0.354890
O O11 0.385428 0.742829 0.116440
O O12 0.428616 0.000000 0.101366
O O13 0.325554 0.736998 0.001013
O O14 0.480340 0.500000 0.282994
O O15 0.367503 0.236661 0.182315
O O16 0.502228 0.239912 0.343207
O O17 0.703665 0.500000 0.903669
O O18 0.915330 0.000000 0.564237
#
# Coordination Sequence:
#
# PCOD9219232 Si02
#       7
#     8   8   8   8   8   8   8
#     4  11  23  38  55  74  98 133 177 217 257 306
#     4  11  21  33  52  79 107 134 169 214 258 298
#     4  11  20  33  51  76 107 141 173 203 249 308
#     4   9  18  30  49  79 107 132 168 210 252 298
#     4   9  19  33  52  77 106 141 174 204 249 306
#     4   9  16  31  52  74 106 140 167 202 250 304
#     4  11  22  36  53  75 103 137 176 215 254 299
#
# _framework density 18.355713999999999
#
# number of rings (size 3 to 8) (size 9 to 14) (size 15 to 20)
#    0.000    1.857    2.857    2.143    0.000    1.143 
#    0.000    3.571    0.000    0.857    0.000    6.000 
#    0.000    0.000    0.000    0.000    0.000    0.000 
#
# Total GULP energy -156305.491811 kJ/mol
# GULP energy per Si atom -5582.338993 kJ/mol
# Density = 1.831394 g / cm^3
# Si number density = 18.355714 Si / 1000 Ang^3
#
#
#
# Elastic Constant Matrix: (Units=GPa)
#
#
# Indices 1 2 3 4 5 6 
#
# 1 68.1604 -5.2106 50.9156 0.0002 -13.2331 -0.0004
# 2 -5.2106 19.1151 -7.3066 0.0004 -0.7555 -0.0039
# 3 50.9156 -7.3066 147.8836 -0.0008 -4.6138 0.0001
# 4 0.0002 0.0004 -0.0008 -1.9879 0.0006 5.8604
# 5 -13.2331 -0.7555 -4.6138 0.0006 21.6501 0.0002
# 6 -0.0004 -0.0039 0.0001 5.8604 0.0002 17.2022
#
#
#
# Elastic Compliance Matrix: (Units=1/GPa)
#
#
# Indices 1 2 3 4 5 6 
#
# 1 0.022847 0.003941 -0.007280 0.000007 0.012551 -0.000001
# 2 0.003941 0.054130 0.001461 0.000025 0.004609 0.000004
# 3 -0.007280 0.001461 0.009265 -0.000002 -0.002424 0.000001
# 4 0.000007 0.000025 -0.000002 -0.250977 0.000010 0.085502
# 5 0.012551 0.004609 -0.002424 0.000010 0.053505 -0.000003
# 6 -0.000001 0.000004 0.000001 0.085502 -0.000003 0.029004
#
#
# Mechanical properties :
#
#
# Convention : Reuss Voigt Hill
#
# Bulk Modulus (GPa) = 12.12303 34.66177 23.39240
# Shear Modulus (GPa) = -98.08583 20.49026 -38.79779
#
# Velocity S-wave (km/s) = -7.31793 3.34471 -4.60245
# Velocity P-wave (km/s) = 8.04885 5.81726 3.93341
#
# Compressibility (1/GPa) = 0.08248765
#
# Stress axis : x y z
#
# Youngs Moduli (GPa) = 43.76858 18.47410 107.93195
#
# Poissons Ratio (x) = -0.07281 0.78574
# Poissons Ratio (y) = -0.17251 -0.15772
# Poissons Ratio (z) = 0.31863 -0.02700
#
# Static dielectric constant tensor:
#      x y z
#    x 1.593420 0.000000 -0.008990 
#    y 0.000000 1.647580 0.000000 
#    z -0.008990 0.000000 1.660480 
# 
# From -- ./inp_files/348491.got.cif
#   From: 2010.05.17/outbox.cif.g08.bks.cpg/sg12_175_cif.got.tgz:348491.got - 2010.06.03 13:09:07.
