data_PCOD9219434
_publ_section_title
;
Structure prediction by ZEFSAII (Michael W. Deem and Ramdas Pophale) SiO2 
 PCOD9219434
Probable space group: C 2/M
;
_chemical_formula_sum "Si O2"
_cell_formula_units_Z 48
_cell_length_a 13.401279
_cell_length_b 23.636526
_cell_length_c 8.679327
_cell_angle_alpha 90.000000
_cell_angle_beta 106.081964
_cell_angle_gamma 90.000000
_cell_volume 2641.672370
_symmetry_space_group_name_H-M "C 2/M"
_symmetry_group_IT_number 12
_symmetry_cell_setting 'monoclinic'
loop_
_space_group_symop_operation_xyz
x,y,z
-x,y,-z
-x,-y,-z
x,-y,z
1/2+x,1/2+y,z
1/2-x,1/2+y,-z
1/2-x,1/2-y,-z
1/2+x,1/2-y,z
loop_
_atom_site_type_symbol
_atom_site_label
_atom_site_fract_x
_atom_site_fract_y
_atom_site_fract_z
Si Si1 0.619913 0.934093 0.858990
Si Si2 0.621425 0.934649 0.229674
Si Si3 0.769800 0.327857 0.605393
Si Si4 0.724170 0.172993 0.762302
Si Si5 0.926670 0.230365 0.332038
Si Si6 0.580892 0.260900 0.157288
O O1 0.498011 0.923117 0.773311
O O2 0.691251 0.888731 0.803574
O O3 0.641664 0.000000 0.830327
O O4 0.629858 0.927851 0.048261
O O5 0.697347 0.891169 0.342468
O O6 0.643234 0.000000 0.275152
O O7 0.767634 0.320995 0.420217
O O8 0.660219 0.310270 0.633525
O O9 0.855560 0.287129 0.722984
O O10 0.634215 0.217147 0.768677
O O11 0.832265 0.197214 0.873702
O O12 0.000000 0.252417 0.500000
O O13 0.006709 0.205443 0.243674
O O14 0.500000 0.236386 0.000000
#
# Coordination Sequence:
#
# PCOD9219434 Si02
#       6
#     8   8   8   8   8   8
#     4   9  20  37  57  81 113 144 180 231 278 322
#     4   9  20  37  56  82 111 144 182 227 280 326
#     4  11  22  35  58  84 111 149 184 223 274 329
#     4  11  22  36  57  84 112 147 185 224 274 327
#     4  11  20  38  55  78 119 149 173 226 278 323
#     4  11  24  36  54  86 114 145 186 224 271 329
#
# _framework density 18.170307000000001
#
# number of rings (size 3 to 8) (size 9 to 14) (size 15 to 20)
#    0.000    1.667    3.333    3.000    7.000    2.000 
#    0.000    1.667    0.000    2.000    0.000    0.000 
#    0.000    0.000    0.000    0.000    0.000    0.000 
#
# Total GULP energy -133950.707005 kJ/mol
# GULP energy per Si atom -5581.279459 kJ/mol
# Density = 1.812895 g / cm^3
# Si number density = 18.170307 Si / 1000 Ang^3
#
#
#
# Elastic Constant Matrix: (Units=GPa)
#
#
# Indices 1 2 3 4 5 6 
#
# 1 104.6960 40.6130 24.7672 0.0000 9.6380 0.0000
# 2 40.6130 77.5180 9.2170 0.0000 5.7359 0.0000
# 3 24.7672 9.2170 34.9415 0.0000 13.1188 0.0000
# 4 0.0000 0.0000 0.0000 28.5935 0.0000 -6.4625
# 5 9.6380 5.7359 13.1188 0.0000 23.0923 0.0000
# 6 0.0000 0.0000 0.0000 -6.4625 0.0000 23.8648
#
#
#
# Elastic Compliance Matrix: (Units=1/GPa)
#
#
# Indices 1 2 3 4 5 6 
#
# 1 0.013957 -0.006351 -0.008419 0.000000 0.000535 0.000000
# 2 -0.006351 0.016259 0.000933 0.000000 -0.001918 0.000000
# 3 -0.008419 0.000933 0.042085 0.000000 -0.020626 0.000000
# 4 0.000000 0.000000 0.000000 0.037253 0.000000 0.010088
# 5 0.000535 -0.001918 -0.020626 0.000000 0.055276 0.000000
# 6 0.000000 0.000000 0.000000 0.010088 0.000000 0.044635
#
#
# Mechanical properties :
#
#
# Convention : Reuss Voigt Hill
#
# Bulk Modulus (GPa) = 22.40787 40.70553 31.55670
# Shear Modulus (GPa) = 19.84020 24.61400 22.22710
#
# Velocity S-wave (km/s) = 3.30798 3.68452 3.50131
# Velocity P-wave (km/s) = 5.19126 6.36803 5.80952
#
# Compressibility (1/GPa) = 0.04462717
#
# Stress axis : x y z
#
# Youngs Moduli (GPa) = 71.64607 61.50566 23.76156
#
# Poissons Ratio (x) = 0.39063 0.20004
# Poissons Ratio (y) = 0.45503 -0.02217
# Poissons Ratio (z) = 0.60318 -0.05739
#
# Static dielectric constant tensor:
#      x y z
#    x 1.626050 0.000000 -0.020370 
#    y 0.000000 1.602240 0.000000 
#    z -0.020370 0.000000 1.673940 
# 
# From -- ./inp_files/50714.got.cif
#   From: 2010.05.17/outbox.cif.g08.bks.cpg/sg12_26_cif.got.tgz:50714.got - 2010.06.03 13:09:07.
