data_PCOD9219643
_publ_section_title
;
Structure prediction by ZEFSAII (Michael W. Deem and Ramdas Pophale) SiO2 
 PCOD9219643
Probable space group: C 2/M
;
_chemical_formula_sum "Si O2"
_cell_formula_units_Z 48
_cell_length_a 14.438082
_cell_length_b 14.713478
_cell_length_c 9.038021
_cell_angle_alpha 90.000000
_cell_angle_beta 74.449773
_cell_angle_gamma 90.000000
_cell_volume 1849.707041
_symmetry_space_group_name_H-M "C 2/M"
_symmetry_group_IT_number 12
_symmetry_cell_setting 'monoclinic'
loop_
_space_group_symop_operation_xyz
x,y,z
-x,y,-z
-x,-y,-z
x,-y,z
1/2+x,1/2+y,z
1/2-x,1/2+y,-z
1/2-x,1/2-y,-z
1/2+x,1/2-y,z
loop_
_atom_site_type_symbol
_atom_site_label
_atom_site_fract_x
_atom_site_fract_y
_atom_site_fract_z
Si Si1 0.761773 0.103976 0.895300
Si Si2 0.057699 0.103049 0.611165
Si Si3 0.863632 0.393451 0.636098
Si Si4 0.650578 0.610659 0.855430
Si Si5 0.949906 0.604499 0.878290
Si Si6 0.261654 0.846320 0.419854
O O1 0.740470 0.156738 0.754753
O O2 0.789047 0.000000 0.844003
O O3 0.839198 0.142501 0.979365
O O4 0.661043 0.097725 0.023432
O O5 0.071709 0.143393 0.770190
O O6 0.166641 0.098097 0.504303
O O7 0.000000 0.147917 0.500000
O O8 0.019214 0.000000 0.645740
O O9 0.877872 0.500000 0.652305
O O10 0.755346 0.372206 0.738405
O O11 0.938717 0.350756 0.720089
O O12 0.856467 0.381427 0.462709
O O13 0.640123 0.500000 0.867527
O O14 0.990380 0.500000 0.850475
O O15 0.000000 0.648601 0.000000
O O16 0.250000 0.750000 0.500000
#
# Coordination Sequence:
#
# PCOD9219643 Si02
#       6
#     8   8   8   8   8   8
#     4   9  16  29  50  73  98 129 167 208 248 299
#     4   9  17  33  56  75  95 130 174 216 256 297
#     4   8  14  28  48  65  87 123 162 197 240 299
#     4   7  12  25  47  72  92 117 159 205 248 295
#     4   8  14  27  49  74  95 118 156 204 246 288
#     4  11  21  32  46  70 101 133 165 203 253 308
#
# _framework density 25.950054000000002
#
# number of rings (size 3 to 8) (size 9 to 14) (size 15 to 20)
#    0.000    3.333    0.000    4.500    0.000    0.000 
#    0.000   10.833    0.000    8.000    0.000    0.000 
#    0.000    0.000    0.000    0.000    0.000    0.167 
#
# Total GULP energy -133720.111609 kJ/mol
# GULP energy per Si atom -5571.671317 kJ/mol
# Density = 2.589099 g / cm^3
# Si number density = 25.950054 Si / 1000 Ang^3
#
#
#
# Elastic Constant Matrix: (Units=GPa)
#
#
# Indices 1 2 3 4 5 6 
#
# 1 110.4874 1.2324 78.2121 0.0000 47.4998 0.0000
# 2 1.2324 48.0160 24.7748 0.0000 9.3270 0.0000
# 3 78.2121 24.7748 213.8612 0.0000 102.4066 0.0000
# 4 0.0000 0.0000 0.0000 23.5797 0.0000 4.9544
# 5 47.4998 9.3270 102.4066 0.0000 85.4808 0.0000
# 6 0.0000 0.0000 0.0000 4.9544 0.0000 11.4518
#
#
#
# Elastic Compliance Matrix: (Units=1/GPa)
#
#
# Indices 1 2 3 4 5 6 
#
# 1 0.012823 0.002033 -0.003300 0.000000 -0.003394 0.000000
# 2 0.002033 0.022560 -0.003840 0.000000 0.001010 0.000000
# 3 -0.003300 -0.003840 0.012312 0.000000 -0.012497 0.000000
# 4 0.000000 0.000000 0.000000 0.046650 0.000000 -0.020182
# 5 -0.003394 0.001010 -0.012497 0.000000 0.028446 0.000000
# 6 0.000000 0.000000 0.000000 -0.020182 0.000000 0.096054
#
#
# Mechanical properties :
#
#
# Convention : Reuss Voigt Hill
#
# Bulk Modulus (GPa) = 26.68105 64.53369 45.60737
# Shear Modulus (GPa) = 20.69952 41.97882 31.33917
#
# Velocity S-wave (km/s) = 2.82736 4.02640 3.47893
# Velocity P-wave (km/s) = 4.57850 6.82190 5.80952
#
# Compressibility (1/GPa) = 0.03747979
#
# Stress axis : x y z
#
# Youngs Moduli (GPa) = 77.98350 44.32712 81.22420
#
# Poissons Ratio (x) = -0.09011 0.26803
# Poissons Ratio (y) = -0.15852 0.31192
# Poissons Ratio (z) = 0.25733 0.17023
#
# Static dielectric constant tensor:
#      x y z
#    x 2.224760 0.000000 0.138020 
#    y 0.000000 2.007800 0.000000 
#    z 0.138020 0.000000 2.250150 
# 
# From -- ./inp_files/74536.got.cif
#   From: 2010.05.17/outbox.cif.g08.bks.cpg/sg12_38_cif.got.tgz:74536.got - 2010.06.03 13:09:07.
