data_PCOD9219834
_publ_section_title
;
Structure prediction by ZEFSAII (Michael W. Deem and Ramdas Pophale) SiO2 
 PCOD9219834
Probable space group: C 2/M
;
_chemical_formula_sum "Si O2"
_cell_formula_units_Z 56
_cell_length_a 18.319296
_cell_length_b 29.516978
_cell_length_c 9.187617
_cell_angle_alpha 90.000000
_cell_angle_beta 141.167426
_cell_angle_gamma 90.000000
_cell_volume 3115.182523
_symmetry_space_group_name_H-M "C 2/M"
_symmetry_group_IT_number 12
_symmetry_cell_setting 'monoclinic'
loop_
_space_group_symop_operation_xyz
x,y,z
-x,y,-z
-x,-y,-z
x,-y,z
1/2+x,1/2+y,z
1/2-x,1/2+y,-z
1/2-x,1/2-y,-z
1/2+x,1/2-y,z
loop_
_atom_site_type_symbol
_atom_site_label
_atom_site_fract_x
_atom_site_fract_y
_atom_site_fract_z
Si Si1 0.189422 0.050046 0.845333
Si Si2 0.388619 0.705311 0.108771
Si Si3 0.757605 0.646843 0.886739
Si Si4 0.466120 0.549899 0.692011
Si Si5 0.483997 0.197025 0.311095
Si Si6 0.109629 0.854442 0.359614
Si Si7 0.240004 0.708616 0.597499
O O1 0.265831 0.094940 0.953851
O O2 0.113489 0.049948 0.578146
O O3 0.096590 0.055115 0.832010
O O4 0.244511 0.000000 0.942480
O O5 0.319403 0.675470 0.118260
O O6 0.440281 0.751190 0.254578
O O7 0.495144 0.675897 0.210040
O O8 0.300107 0.719978 0.844177
O O9 0.687860 0.647836 0.627169
O O10 0.883740 0.669176 0.074785
O O11 0.453792 0.500000 0.740814
O O12 0.428286 0.593687 0.722674
O O13 0.500000 0.179192 0.500000
O O14 0.606120 0.197035 0.417760
O O15 0.186646 0.832974 0.353045
O O16 0.250000 0.750000 0.500000
#
# Coordination Sequence:
#
# PCOD9219834 Si02
#       7
#     8   8   8   8   8   8   8
#     4   8  14  27  51  85 114 139 180 231 276 324
#     4  12  23  38  58  82 114 148 186 232 279 330
#     4  11  21  36  60  85 112 149 188 231 277 329
#     4   8  14  27  51  83 116 143 175 226 283 333
#     4  12  25  40  58  79 112 153 195 226 266 337
#     4  11  21  35  59  87 116 144 183 235 287 328
#     4  12  26  41  55  80 113 155 188 229 278 332
#
# _framework density 17.976474
#
# number of rings (size 3 to 8) (size 9 to 14) (size 15 to 20)
#    0.000    1.429    4.286    3.857    0.000    1.714 
#    0.000    0.000    0.000    3.857    0.000    4.000 
#    0.000    0.000    0.000    0.000    0.000    0.000 
#
# Total GULP energy -156381.003861 kJ/mol
# GULP energy per Si atom -5585.035852 kJ/mol
# Density = 1.793556 g / cm^3
# Si number density = 17.976474 Si / 1000 Ang^3
#
#
#
# Elastic Constant Matrix: (Units=GPa)
#
#
# Indices 1 2 3 4 5 6 
#
# 1 72.7215 13.7910 25.9345 0.0000 20.0600 0.0000
# 2 13.7910 96.9729 26.4188 0.0000 14.6177 0.0000
# 3 25.9345 26.4188 77.4469 0.0000 14.8940 0.0000
# 4 0.0000 0.0000 0.0000 17.6248 0.0000 3.2154
# 5 20.0600 14.6177 14.8940 0.0000 32.5251 0.0000
# 6 0.0000 0.0000 0.0000 3.2154 0.0000 23.2120
#
#
#
# Elastic Compliance Matrix: (Units=1/GPa)
#
#
# Indices 1 2 3 4 5 6 
#
# 1 0.017738 -0.000020 -0.004201 0.000000 -0.009007 0.000000
# 2 -0.000020 0.011779 -0.003285 0.000000 -0.003777 0.000000
# 3 -0.004201 -0.003285 0.016073 0.000000 -0.003293 0.000000
# 4 0.000000 0.000000 0.000000 0.058209 0.000000 -0.008063
# 5 -0.009007 -0.003777 -0.003293 0.000000 0.039506 0.000000
# 6 0.000000 0.000000 0.000000 -0.008063 0.000000 0.044198
#
#
# Mechanical properties :
#
#
# Convention : Reuss Voigt Hill
#
# Bulk Modulus (GPa) = 32.70387 42.15889 37.43138
# Shear Modulus (GPa) = 23.50646 26.73884 25.12265
#
# Velocity S-wave (km/s) = 3.62003 3.86091 3.74241
# Velocity P-wave (km/s) = 5.97536 6.58625 6.28823
#
# Compressibility (1/GPa) = 0.03057743
#
# Stress axis : x y z
#
# Youngs Moduli (GPa) = 56.37751 84.89421 62.21776
#
# Poissons Ratio (x) = 0.00174 0.26135
# Poissons Ratio (y) = 0.00115 0.20438
# Poissons Ratio (z) = 0.23682 0.27887
#
# Static dielectric constant tensor:
#      x y z
#    x 1.596720 0.000000 -0.019660 
#    y 0.000000 1.650060 0.000000 
#    z -0.019660 0.000000 1.621450 
# 
# From -- ./inp_files/54155.got.cif
#   From: 2010.05.17/outbox.cif.g08.bks.cpg/sg12_28_cif.got.tgz:54155.got - 2010.06.03 13:09:07.
