data_PCOD9219552
_publ_section_title
;
Structure prediction by ZEFSAII (Michael W. Deem and Ramdas Pophale) SiO2 
 PCOD9219552
Probable space group: C 2/M
;
_chemical_formula_sum "Si O2"
_cell_formula_units_Z 56
_cell_length_a 13.165641
_cell_length_b 28.542121
_cell_length_c 10.311703
_cell_angle_alpha 90.000000
_cell_angle_beta 133.420708
_cell_angle_gamma 90.000000
_cell_volume 2814.429759
_symmetry_space_group_name_H-M "C 2/M"
_symmetry_group_IT_number 12
_symmetry_cell_setting 'monoclinic'
loop_
_space_group_symop_operation_xyz
x,y,z
-x,y,-z
-x,-y,-z
x,-y,z
1/2+x,1/2+y,z
1/2-x,1/2+y,-z
1/2-x,1/2-y,-z
1/2+x,1/2-y,z
loop_
_atom_site_type_symbol
_atom_site_label
_atom_site_fract_x
_atom_site_fract_y
_atom_site_fract_z
Si Si1 0.902239 0.716424 0.710763
Si Si2 0.833607 0.052965 0.345102
Si Si3 0.393423 0.082595 0.019034
Si Si4 0.265447 0.374644 0.502911
Si Si5 0.004945 0.805844 0.347524
Si Si6 0.927165 0.446073 0.573978
Si Si7 0.816310 0.308242 0.924371
O O1 0.842445 0.668818 0.596310
O O2 0.899610 0.762295 0.617654
O O3 0.834119 0.714349 0.795854
O O4 0.067824 0.714284 0.883196
O O5 0.756116 0.058337 0.139243
O O6 0.768124 0.094155 0.374602
O O7 0.000000 0.059513 0.500000
O O8 0.806037 0.000000 0.367081
O O9 0.364149 0.137537 0.969524
O O10 0.500000 0.065741 0.000000
O O11 0.468542 0.072217 0.220987
O O12 0.416957 0.351016 0.642945
O O13 0.207744 0.412462 0.551591
O O14 0.000000 0.808831 0.500000
O O15 0.842343 0.804293 0.168818
O O16 0.892121 0.500000 0.571806
O O17 0.000000 0.444165 0.500000
#
# Coordination Sequence:
#
# PCOD9219552 Si02
#       7
#     8   8   8   8   8   8   8
#     4  11  22  40  59  88 123 165 210 263 320 387
#     4  11  22  35  61 102 132 159 211 277 335 383
#     4  12  19  39  70  96 127 168 220 267 326 377
#     4  12  21  41  62  91 124 168 214 266 324 382
#     4  12  25  38  63  92 128 167 213 271 334 390
#     4  11  25  43  65  99 138 175 219 270 328 396
#     4  11  20  41  61  87 126 163 207 273 321 375
#
# _framework density 19.897459000000001
#
# number of rings (size 3 to 8) (size 9 to 14) (size 15 to 20)
#    0.000    0.571    7.143    3.000    0.000    1.143 
#    0.000    1.429    0.000    2.571    0.000   10.000 
#    0.000    0.000    0.000    0.000    0.000    0.000 
#
# Total GULP energy -156132.896954 kJ/mol
# GULP energy per Si atom -5576.174891 kJ/mol
# Density = 1.985217 g / cm^3
# Si number density = 19.897459 Si / 1000 Ang^3
#
#
#
# Elastic Constant Matrix: (Units=GPa)
#
#
# Indices 1 2 3 4 5 6 
#
# 1 98.8937 54.6649 46.0673 0.0000 19.6772 0.0000
# 2 54.6649 125.5032 20.4642 0.0000 8.3880 0.0000
# 3 46.0673 20.4642 73.4424 0.0000 20.9870 0.0000
# 4 0.0000 0.0000 0.0000 621.1346 0.0000 213.3473
# 5 19.6772 8.3880 20.9870 0.0000 33.5053 0.0000
# 6 0.0000 0.0000 0.0000 213.3473 0.0000 106.3332
#
#
#
# Elastic Compliance Matrix: (Units=1/GPa)
#
#
# Indices 1 2 3 4 5 6 
#
# 1 0.018436 -0.006357 -0.008713 0.000000 -0.003778 0.000000
# 2 -0.006357 0.010555 0.000895 0.000000 0.000530 0.000000
# 3 -0.008713 0.000895 0.021235 0.000000 -0.008408 0.000000
# 4 0.000000 0.000000 0.000000 0.005179 0.000000 -0.010392
# 5 -0.003778 0.000530 -0.008408 0.000000 0.037198 0.000000
# 6 0.000000 0.000000 0.000000 -0.010392 0.000000 0.030255
#
#
# Mechanical properties :
#
#
# Convention : Reuss Voigt Hill
#
# Bulk Modulus (GPa) = 45.71332 60.02578 52.86955
# Shear Modulus (GPa) = 31.54518 163.97085 97.75802
#
# Velocity S-wave (km/s) = 3.98601 9.08773 7.01695
# Velocity P-wave (km/s) = 6.64896 11.84689 9.60618
#
# Compressibility (1/GPa) = 0.02187546
#
# Stress axis : x y z
#
# Youngs Moduli (GPa) = 54.24030 94.73758 47.09209
#
# Poissons Ratio (x) = 0.60225 0.41033
# Poissons Ratio (y) = 0.34481 -0.04213
# Poissons Ratio (z) = 0.47262 -0.08476
#
# Static dielectric constant tensor:
#      x y z
#    x 1.712380 0.000000 0.027350 
#    y 0.000000 1.764320 0.000000 
#    z 0.027350 0.000000 1.753130 
# 
# From -- ./inp_files/137012.got.cif
#   From: 2010.05.17/outbox.cif.g08.bks.cpg/sg12_69_cif.got.tgz:137012.got - 2010.06.03 13:09:07.
