data_PCOD9219402
_publ_section_title
;
Structure prediction by ZEFSAII (Michael W. Deem and Ramdas Pophale) SiO2 
 PCOD9219402
Probable space group: C 2/M
;
_chemical_formula_sum "Si O2"
_cell_formula_units_Z 56
_cell_length_a 18.632943
_cell_length_b 20.674775
_cell_length_c 15.515438
_cell_angle_alpha 90.000000
_cell_angle_beta 151.011639
_cell_angle_gamma 90.000000
_cell_volume 2896.665332
_symmetry_space_group_name_H-M "C 2/M"
_symmetry_group_IT_number 12
_symmetry_cell_setting 'monoclinic'
loop_
_space_group_symop_operation_xyz
x,y,z
-x,y,-z
-x,-y,-z
x,-y,z
1/2+x,1/2+y,z
1/2-x,1/2+y,-z
1/2-x,1/2-y,-z
1/2+x,1/2-y,z
loop_
_atom_site_type_symbol
_atom_site_label
_atom_site_fract_x
_atom_site_fract_y
_atom_site_fract_z
Si Si1 0.927397 0.308042 0.235058
Si Si2 0.255778 0.714653 0.180004
Si Si3 0.189707 0.312361 0.626849
Si Si4 0.633919 0.427056 0.710354
Si Si5 0.159713 0.069643 0.121879
Si Si6 0.965299 0.770423 0.802604
Si Si7 0.638644 0.610496 0.908257
O O1 0.839882 0.247019 0.186129
O O2 0.039247 0.333991 0.423911
O O3 0.030904 0.285047 0.265520
O O4 0.803386 0.358340 0.074706
O O5 0.332630 0.747221 0.342436
O O6 0.266893 0.637561 0.197330
O O7 0.090593 0.744340 0.000457
O O8 0.248062 0.368790 0.750237
O O9 0.316687 0.292082 0.692564
O O10 0.500000 0.421466 0.500000
O O11 0.696912 0.500000 0.764437
O O12 0.593515 0.421155 0.770132
O O13 0.223244 0.000000 0.215426
O O14 0.142414 0.070219 0.000669
O O15 0.000000 0.075995 0.000000
O O16 0.027698 0.832387 0.817953
#
# Coordination Sequence:
#
# PCOD9219402 Si02
#       7
#     8   8   8   8   8   8   8
#     4  11  21  35  60  90 124 152 202 252 294 356
#     4  11  20  37  62  85 118 156 199 253 298 345
#     4  12  22  36  59  94 124 159 199 241 304 360
#     4  11  23  39  61  90 116 152 210 260 301 351
#     4  11  22  38  60  90 127 164 199 242 299 370
#     4  11  20  37  59  89 121 158 202 244 295 363
#     4  11  20  39  62  88 119 159 198 246 307 356
#
# _framework density 19.332576
#
# number of rings (size 3 to 8) (size 9 to 14) (size 15 to 20)
#    0.000    0.857    7.143    3.429    0.000    0.000 
#    0.000    2.143    0.000    1.714    0.000    0.000 
#    0.000    0.000    0.000    0.000    0.000    0.000 
#
# Total GULP energy -156138.096821 kJ/mol
# GULP energy per Si atom -5576.360601 kJ/mol
# Density = 1.928857 g / cm^3
# Si number density = 19.332576 Si / 1000 Ang^3
#
#
#
# Elastic Constant Matrix: (Units=GPa)
#
#
# Indices 1 2 3 4 5 6 
#
# 1 96.3778 28.9628 39.8744 0.0000 -6.8274 -0.0001
# 2 28.9628 113.9839 25.9349 0.0000 -3.9000 0.0000
# 3 39.8744 25.9349 95.0953 0.0000 -14.6517 -0.0001
# 4 0.0000 0.0000 0.0000 -10.7280 0.0000 -245.7932
# 5 -6.8274 -3.9000 -14.6517 0.0000 30.0541 -0.0001
# 6 -0.0001 0.0000 -0.0001 -245.7932 -0.0001-2479.9018
#
#
#
# Elastic Compliance Matrix: (Units=1/GPa)
#
#
# Indices 1 2 3 4 5 6 
#
# 1 0.013058 -0.002210 -0.004822 0.000000 0.000329 0.000000
# 2 -0.002210 0.009728 -0.001740 0.000000 -0.000088 0.000000
# 3 -0.004822 -0.001740 0.013849 0.000000 0.005430 0.000000
# 4 0.000000 0.000000 0.000000 0.073348 0.000000 -0.007270
# 5 0.000329 -0.000088 0.005430 0.000000 0.035984 0.000000
# 6 0.000000 0.000000 0.000000 -0.007270 0.000000 0.000317
#
#
# Mechanical properties :
#
#
# Convention : Reuss Voigt Hill
#
# Bulk Modulus (GPa) = 52.38012 55.00015 53.69014
# Shear Modulus (GPa) = 29.37864 -478.06949 -224.34543
#
# Velocity S-wave (km/s) = 3.90249 -15.74242 -10.78412
# Velocity P-wave (km/s) = 6.88905 17.37586 11.27966
#
# Compressibility (1/GPa) = 0.01909121
#
# Stress axis : x y z
#
# Youngs Moduli (GPa) = 76.58015 102.80123 72.20762
#
# Poissons Ratio (x) = 0.22715 0.34820
# Poissons Ratio (y) = 0.16921 0.12564
# Poissons Ratio (z) = 0.36928 0.17887
#
# Static dielectric constant tensor:
#      x y z
#    x 1.724770 0.000000 -0.037860 
#    y 0.000000 1.691930 0.000000 
#    z -0.037860 0.000000 1.708930 
# 
# From -- ./inp_files/77615.got.cif
#   From: 2010.05.17/outbox.cif.g08.bks.cpg/sg12_39_cif.got.tgz:77615.got - 2010.06.03 13:09:07.
