data_PCOD9219595
_publ_section_title
;
Structure prediction by ZEFSAII (Michael W. Deem and Ramdas Pophale) SiO2 
 PCOD9219595
Probable space group: C 2/M
;
_chemical_formula_sum "Si O2"
_cell_formula_units_Z 52
_cell_length_a 10.825013
_cell_length_b 14.085165
_cell_length_c 19.231148
_cell_angle_alpha 90.000000
_cell_angle_beta 106.296640
_cell_angle_gamma 90.000000
_cell_volume 2814.402205
_symmetry_space_group_name_H-M "C 2/M"
_symmetry_group_IT_number 12
_symmetry_cell_setting 'monoclinic'
loop_
_space_group_symop_operation_xyz
x,y,z
-x,y,-z
-x,-y,-z
x,-y,z
1/2+x,1/2+y,z
1/2-x,1/2+y,-z
1/2-x,1/2-y,-z
1/2+x,1/2-y,z
loop_
_atom_site_type_symbol
_atom_site_label
_atom_site_fract_x
_atom_site_fract_y
_atom_site_fract_z
Si Si1 0.706928 0.000000 0.852750
Si Si2 0.315068 0.613520 0.417217
Si Si3 0.394170 0.613510 0.581056
Si Si4 0.654759 0.251956 0.301952
Si Si5 0.146094 0.500000 0.008802
Si Si6 0.638480 0.203965 0.786478
Si Si7 0.995549 0.000000 0.081510
Si Si8 0.801804 0.176088 0.068063
O O1 0.685438 0.000000 0.933423
O O2 0.647724 0.093929 0.809650
O O3 0.861298 0.000000 0.865500
O O4 0.304268 0.500000 0.411822
O O5 0.316341 0.640378 0.498946
O O6 0.456553 0.639393 0.409955
O O7 0.207822 0.663342 0.354619
O O8 0.388744 0.500000 0.586083
O O9 0.346954 0.662168 0.643261
O O10 0.508313 0.232440 0.254998
O O11 0.757241 0.273316 0.257194
O O12 0.195549 0.595010 0.052569
O O13 0.000000 0.500000 0.000000
O O14 0.680443 0.263140 0.860641
O O15 0.924998 0.897653 0.083794
O O16 0.000000 0.000000 0.000000
O O17 0.750000 0.250000 0.000000
#
# Coordination Sequence:
#
# PCOD9219595 Si02
#       8
#     4   8   8   8   4   8   4   8
#     4  12  25  47  62  95 125 167 216 273 331 376
#     4   9  19  40  68  95 128 170 218 262 312 381
#     4   9  19  40  69  95 125 172 219 261 308 388
#     4  12  24  44  61  99 132 174 209 261 332 383
#     4  11  25  42  68  90 121 158 214 276 315 376
#     4  12  28  42  65  92 134 174 208 272 326 393
#     4  11  20  42  72  94 118 160 213 277 322 369
#     4  11  23  45  66  93 121 165 223 259 315 386
#
# _framework density 18.476392000000001
#
# number of rings (size 3 to 8) (size 9 to 14) (size 15 to 20)
#    0.000    1.231    4.615    2.308    4.308    1.846 
#    5.538    0.000    0.000    1.846    0.000    0.000 
#    0.000    0.000    0.000    0.000    0.000    0.000 
#
# Total GULP energy -144912.689741 kJ/mol
# GULP energy per Si atom -5573.564990 kJ/mol
# Density = 1.843434 g / cm^3
# Si number density = 18.476392 Si / 1000 Ang^3
#
#
#
# Elastic Constant Matrix: (Units=GPa)
#
#
# Indices 1 2 3 4 5 6 
#
# 1 113.4014 46.4561 73.2615 0.0000 1.5517 0.0000
# 2 46.4561 121.9297 68.7836 0.0000 -3.9106 0.0000
# 3 73.2615 68.7836 154.4059 0.0000 -1.0455 0.0000
# 4 0.0000 0.0000 0.0000 53.9641 0.0000 15.3497
# 5 1.5517 -3.9106 -1.0455 0.0000 25.7663 0.0000
# 6 0.0000 0.0000 0.0000 15.3497 0.0000 -10.8832
#
#
#
# Elastic Compliance Matrix: (Units=1/GPa)
#
#
# Indices 1 2 3 4 5 6 
#
# 1 0.013108 -0.002034 -0.005322 0.000000 -0.001314 0.000000
# 2 -0.002034 0.011325 -0.004069 0.000000 0.001676 0.000000
# 3 -0.005322 -0.004069 0.010815 0.000000 0.000142 0.000000
# 4 0.000000 0.000000 0.000000 0.013225 0.000000 0.018653
# 5 -0.001314 0.001676 0.000142 0.000000 0.039150 0.000000
# 6 0.000000 0.000000 0.000000 0.018653 0.000000 -0.065577
#
#
# Mechanical properties :
#
#
# Convention : Reuss Voigt Hill
#
# Bulk Modulus (GPa) = 80.65393 85.19326 82.92360
# Shear Modulus (GPa) = 101.98051 27.18516 64.58284
#
# Velocity S-wave (km/s) = 7.43740 3.83997 5.91863
# Velocity P-wave (km/s) = 10.83976 8.11603 9.57523
#
# Compressibility (1/GPa) = 0.01239865
#
# Stress axis : x y z
#
# Youngs Moduli (GPa) = 76.29099 88.29670 92.46324
#
# Poissons Ratio (x) = 0.17959 0.49210
# Poissons Ratio (y) = 0.15517 0.37621
# Poissons Ratio (z) = 0.40603 0.35926
#
# Static dielectric constant tensor:
#      x y z
#    x 1.618180 0.000000 -0.042080 
#    y 0.000000 1.749910 0.000000 
#    z -0.042080 0.000000 1.568510 
# 
# From -- ./inp_files/304370.got.cif
#   From: 2010.05.17/outbox.cif.g08.bks.cpg/sg12_153_cif.got.tgz:304370.got - 2010.06.03 13:09:07.
