data_PCOD9219770
_publ_section_title
;
Structure prediction by ZEFSAII (Michael W. Deem and Ramdas Pophale) SiO2 
 PCOD9219770
Probable space group: C 2/M
;
_chemical_formula_sum "Si O2"
_cell_formula_units_Z 50
_cell_length_a 14.786765
_cell_length_b 16.962288
_cell_length_c 11.460641
_cell_angle_alpha 90.000000
_cell_angle_beta 109.588413
_cell_angle_gamma 90.000000
_cell_volume 2708.165281
_symmetry_space_group_name_H-M "C 2/M"
_symmetry_group_IT_number 12
_symmetry_cell_setting 'monoclinic'
loop_
_space_group_symop_operation_xyz
x,y,z
-x,y,-z
-x,-y,-z
x,-y,z
1/2+x,1/2+y,z
1/2-x,1/2+y,-z
1/2-x,1/2-y,-z
1/2+x,1/2-y,z
loop_
_atom_site_type_symbol
_atom_site_label
_atom_site_fract_x
_atom_site_fract_y
_atom_site_fract_z
Si Si1 0.612357 0.091882 0.016409
Si Si2 0.844632 0.909092 0.507101
Si Si3 0.260291 0.818152 0.744027
Si Si4 0.650301 0.125890 0.554583
Si Si5 0.000000 0.500000 0.500000
Si Si6 0.877757 0.690228 0.213635
Si Si7 0.913807 0.241631 0.637312
O O1 0.631084 0.146101 0.912174
O O2 0.633705 0.000000 0.001979
O O3 0.500000 0.097786 0.000000
O O4 0.674948 0.124400 0.150261
O O5 0.806397 0.870130 0.370593
O O6 0.751586 0.902622 0.551138
O O7 0.918834 0.849222 0.600629
O O8 0.873925 0.000000 0.507234
O O9 0.196430 0.761203 0.796723
O O10 0.332256 0.763471 0.697482
O O11 0.643122 0.128707 0.690504
O O12 0.623786 0.211272 0.492864
O O13 0.569072 0.067980 0.473810
O O14 0.984917 0.724298 0.277651
#
# Coordination Sequence:
#
# PCOD9219770 Si02
#       7
#     8   8   8   8   2   8   8
#     4  11  25  42  62  92 121 154 201 257 311 358
#     4  11  22  38  61  90 130 163 199 252 301 359
#     4  11  22  42  61  89 122 165 202 246 303 364
#     4  11  21  34  57  93 123 155 199 248 313 365
#     4  12  20  28  56  92 124 146 202 252 310 360
#     4  12  22  39  66  84 121 163 206 245 296 370
#     4  11  21  39  61  90 128 162 198 246 305 370
#
# _framework density 18.462682999999998
#
# number of rings (size 3 to 8) (size 9 to 14) (size 15 to 20)
#    0.000    0.800    7.200    1.920    1.120    0.000 
#    2.880    2.400    0.000    0.000    0.000    2.240 
#    0.000    0.000    0.000    0.000    0.000    0.000 
#
# Total GULP energy -139378.404985 kJ/mol
# GULP energy per Si atom -5575.136199 kJ/mol
# Density = 1.842066 g / cm^3
# Si number density = 18.462683 Si / 1000 Ang^3
#
#
#
# Elastic Constant Matrix: (Units=GPa)
#
#
# Indices 1 2 3 4 5 6 
#
# 1 49.0044 19.5720 16.7167 0.0000 -5.6093 0.0000
# 2 19.5720 141.8443 47.2934 0.0000 -5.7686 0.0000
# 3 16.7167 47.2934 86.2812 0.0000 -4.5253 0.0000
# 4 0.0000 0.0000 0.0000 84.2661 0.0000 11.0234
# 5 -5.6093 -5.7686 -4.5253 0.0000 23.7671 0.0000
# 6 0.0000 0.0000 0.0000 11.0234 0.0000 26.0590
#
#
#
# Elastic Compliance Matrix: (Units=1/GPa)
#
#
# Indices 1 2 3 4 5 6 
#
# 1 0.022732 -0.001919 -0.003127 0.000000 0.004304 0.000000
# 2 -0.001919 0.008823 -0.004420 0.000000 0.000847 0.000000
# 3 -0.003127 -0.004420 0.014670 0.000000 0.000983 0.000000
# 4 0.000000 0.000000 0.000000 0.012562 0.000000 -0.005314
# 5 0.004304 0.000847 0.000983 0.000000 0.043483 0.000000
# 6 0.000000 0.000000 0.000000 -0.005314 0.000000 0.040622
#
#
# Mechanical properties :
#
#
# Convention : Reuss Voigt Hill
#
# Bulk Modulus (GPa) = 36.63841 49.36601 43.00221
# Shear Modulus (GPa) = 29.25309 39.72163 34.48736
#
# Velocity S-wave (km/s) = 3.98483 4.64341 4.32667
# Velocity P-wave (km/s) = 6.40776 7.45283 6.94997
#
# Compressibility (1/GPa) = 0.02729376
#
# Stress axis : x y z
#
# Youngs Moduli (GPa) = 43.99080 113.34158 68.16653
#
# Poissons Ratio (x) = 0.21752 0.21313
# Poissons Ratio (y) = 0.08442 0.30129
# Poissons Ratio (z) = 0.13754 0.50095
#
# Static dielectric constant tensor:
#      x y z
#    x 1.661860 0.000000 0.003670 
#    y 0.000000 1.640460 0.000000 
#    z 0.003670 0.000000 1.629000 
# 
# From -- ./inp_files/143671.got.cif
#   From: 2010.05.17/outbox.cif.g08.bks.cpg/sg12_72_cif.got.tgz:143671.got - 2010.06.03 13:09:07.
