data_PCOD9219809
_publ_section_title
;
Structure prediction by ZEFSAII (Michael W. Deem and Ramdas Pophale) SiO2 
 PCOD9219809
Probable space group: C 2/M
;
_chemical_formula_sum "Si O2"
_cell_formula_units_Z 56
_cell_length_a 11.143832
_cell_length_b 24.122602
_cell_length_c 19.601028
_cell_angle_alpha 90.000000
_cell_angle_beta 147.019618
_cell_angle_gamma 90.000000
_cell_volume 2868.251667
_symmetry_space_group_name_H-M "C 2/M"
_symmetry_group_IT_number 12
_symmetry_cell_setting 'monoclinic'
loop_
_space_group_symop_operation_xyz
x,y,z
-x,y,-z
-x,-y,-z
x,-y,z
1/2+x,1/2+y,z
1/2-x,1/2+y,-z
1/2-x,1/2-y,-z
1/2+x,1/2-y,z
loop_
_atom_site_type_symbol
_atom_site_label
_atom_site_fract_x
_atom_site_fract_y
_atom_site_fract_z
Si Si1 0.206806 0.341047 0.281394
Si Si2 0.440746 0.437735 0.892065
Si Si3 0.512731 0.757450 0.634014
Si Si4 0.266122 0.335457 0.997156
Si Si5 0.978450 0.622654 0.657986
Si Si6 0.255513 0.760658 0.891885
Si Si7 0.035199 0.937633 0.434463
O O1 0.346882 0.283948 0.347167
O O2 0.115987 0.354727 0.314053
O O3 0.364188 0.390468 0.331635
O O4 0.997505 0.340250 0.131906
O O5 0.457850 0.500000 0.871917
O O6 0.193923 0.414346 0.769736
O O7 0.500000 0.440164 0.000000
O O8 0.609600 0.393260 0.941772
O O9 0.250000 0.750000 0.500000
O O10 0.542947 0.823667 0.644189
O O11 0.609242 0.741506 0.754903
O O12 0.300216 0.300389 0.944088
O O13 0.351026 0.296379 0.098438
O O14 0.778047 0.585521 0.534777
O O15 0.500000 0.784460 0.000000
O O16 0.000000 0.940330 0.500000
O O17 0.000611 0.000000 0.391822
#
# Coordination Sequence:
#
# PCOD9219809 Si02
#       7
#     8   8   8   8   8   8   8
#     4  11  21  35  56  87 117 152 188 247 295 356
#     4  11  22  36  58  89 119 154 198 248 299 349
#     4  12  23  36  58  91 122 154 197 249 300 361
#     4  11  22  37  60  85 120 156 198 240 300 363
#     4  11  21  36  55  82 124 151 191 239 306 354
#     4  11  22  37  60  84 118 159 195 238 304 361
#     4   9  19  34  53  77 110 152 191 235 296 355
#
# _framework density 19.524087999999999
#
# number of rings (size 3 to 8) (size 9 to 14) (size 15 to 20)
#    0.000    1.143    5.714    1.714    2.000    1.143 
#    0.000    0.000    0.000    1.286    0.000    1.000 
#    0.000    0.000    0.000    0.000    0.000    0.000 
#
# Total GULP energy -156214.632002 kJ/mol
# GULP energy per Si atom -5579.094000 kJ/mol
# Density = 1.947965 g / cm^3
# Si number density = 19.524088 Si / 1000 Ang^3
#
#
#
# Elastic Constant Matrix: (Units=GPa)
#
#
# Indices 1 2 3 4 5 6 
#
# 1 27.2053 34.9801 33.7202 -0.0023 17.0008 -0.0009
# 2 34.9801 158.5266 33.8120 -0.0012 27.8969 -0.0010
# 3 33.7202 33.8120 93.8352 -0.0076 26.0395 -0.0073
# 4 -0.0023 -0.0012 -0.0076 8.4294 -0.0013 8.4977
# 5 17.0008 27.8969 26.0395 -0.0013 32.1231 -0.0016
# 6 -0.0009 -0.0010 -0.0073 8.4977 -0.0016 15.4352
#
#
#
# Elastic Compliance Matrix: (Units=1/GPa)
#
#
# Indices 1 2 3 4 5 6 
#
# 1 0.095022 -0.012289 -0.024159 0.000018 -0.020033 -0.000018
# 2 -0.012289 0.009132 0.001963 -0.000003 -0.003018 0.000002
# 3 -0.024159 0.001963 0.020071 0.000007 -0.005189 0.000003
# 4 0.000018 -0.000003 0.000007 0.266596 -0.000009 -0.146772
# 5 -0.020033 -0.003018 -0.005189 -0.000009 0.048560 0.000006
# 6 -0.000018 0.000002 0.000003 -0.146772 0.000006 0.145591
#
#
# Mechanical properties :
#
#
# Convention : Reuss Voigt Hill
#
# Bulk Modulus (GPa) = 18.09790 53.84353 35.97071
# Shear Modulus (GPa) = 7.43647 23.00119 15.21883
#
# Velocity S-wave (km/s) = 1.95375 3.43606 2.79496
# Velocity P-wave (km/s) = 3.79199 6.58634 5.37397
#
# Compressibility (1/GPa) = 0.05525502
#
# Stress axis : x y z
#
# Youngs Moduli (GPa) = 10.52384 109.50265 49.82212
#
# Poissons Ratio (x) = 1.34569 1.20367
# Poissons Ratio (y) = 0.12933 -0.09781
# Poissons Ratio (z) = 0.25425 -0.21496
#
# Static dielectric constant tensor:
#      x y z
#    x 1.752860 0.000000 0.020600 
#    y 0.000000 1.710170 0.000000 
#    z 0.020600 0.000000 1.698370 
# 
# From -- ./inp_files/307241.got.cif
#   From: 2010.05.17/outbox.cif.g08.bks.cpg/sg12_154_cif.got.tgz:307241.got - 2010.06.03 13:09:07.
