data_PCOD9219356
_publ_section_title
;
Structure prediction by ZEFSAII (Michael W. Deem and Ramdas Pophale) SiO2 
 PCOD9219356
Probable space group: C 2/M
;
_chemical_formula_sum "Si O2"
_cell_formula_units_Z 56
_cell_length_a 26.087259
_cell_length_b 11.428071
_cell_length_c 14.435788
_cell_angle_alpha 90.000000
_cell_angle_beta 41.200100
_cell_angle_gamma 90.000000
_cell_volume 2834.806732
_symmetry_space_group_name_H-M "C 2/M"
_symmetry_group_IT_number 12
_symmetry_cell_setting 'monoclinic'
loop_
_space_group_symop_operation_xyz
x,y,z
-x,y,-z
-x,-y,-z
x,-y,z
1/2+x,1/2+y,z
1/2-x,1/2+y,-z
1/2-x,1/2-y,-z
1/2+x,1/2-y,z
loop_
_atom_site_type_symbol
_atom_site_label
_atom_site_fract_x
_atom_site_fract_y
_atom_site_fract_z
Si Si1 0.138475 0.240934 0.513238
Si Si2 0.591371 0.500000 0.491833
Si Si3 0.335140 0.253212 0.840514
Si Si4 0.491990 0.138585 0.618418
Si Si5 0.419965 0.358383 0.229227
Si Si6 0.413021 0.500000 0.724134
Si Si7 0.407271 0.640506 0.028434
Si Si8 0.764226 0.358983 0.760786
O O1 0.134384 0.114354 0.469876
O O2 0.134140 0.212542 0.627540
O O3 0.208634 0.318094 0.377764
O O4 0.059782 0.304642 0.586385
O O5 0.500332 0.500000 0.646098
O O6 0.585730 0.500000 0.389047
O O7 0.406868 0.171027 0.772727
O O8 0.367846 0.382953 0.810769
O O9 0.319257 0.209222 0.757165
O O10 0.250000 0.250000 0.000000
O O11 0.500000 0.182342 0.500000
O O12 0.502401 0.000000 0.602198
O O13 0.412107 0.500000 0.252893
O O14 0.406729 0.333401 0.139018
O O15 0.510211 0.323168 0.125666
O O16 0.407679 0.500000 0.021187
O O17 0.324894 0.678108 0.099614
O O18 0.772042 0.500000 0.760195
#
# Coordination Sequence:
#
# PCOD9219356 Si02
#       8
#     8   4   8   8   8   4   8   8
#     4  12  21  34  58  89 110 147 191 231 285 334
#     4  11  20  36  56  81 112 144 188 239 278 328
#     4  12  26  38  56  84 117 152 189 235 284 328
#     4  11  22  40  58  79 114 156 195 227 269 338
#     4   9  18  35  60  87 113 142 182 238 291 340
#     4  11  22  40  56  78 115 150 194 232 281 334
#     4   8  18  37  58  83 114 146 184 231 289 344
#     4  11  23  39  57  81 116 154 192 234 282 339
#
# _framework density 19.754432000000001
#
# number of rings (size 3 to 8) (size 9 to 14) (size 15 to 20)
#    0.000    1.429    5.000    1.714    4.000    0.571 
#    0.000    0.000    0.000    0.000    1.857    4.000 
#    0.000    0.000    0.000    0.000    0.000    0.000 
#
# Total GULP energy -156301.410342 kJ/mol
# GULP energy per Si atom -5582.193226 kJ/mol
# Density = 1.970947 g / cm^3
# Si number density = 19.754432 Si / 1000 Ang^3
#
#
#
# Elastic Constant Matrix: (Units=GPa)
#
#
# Indices 1 2 3 4 5 6 
#
# 1 23.7804 2.9386 -7.3270 0.0000 -9.7419 0.0000
# 2 2.9386 66.1395 4.1505 0.0000 0.1493 0.0000
# 3 -7.3270 4.1505 68.7123 0.0000 -2.3528 0.0000
# 4 0.0000 0.0000 0.0000 14.1171 0.0000 -5.7555
# 5 -9.7419 0.1493 -2.3528 0.0000 30.8946 0.0000
# 6 0.0000 0.0000 0.0000 -5.7555 0.0000 16.0716
#
#
#
# Elastic Compliance Matrix: (Units=1/GPa)
#
#
# Indices 1 2 3 4 5 6 
#
# 1 0.051085 -0.002695 0.006178 0.000000 0.016592 0.000000
# 2 -0.002695 0.015320 -0.001248 0.000000 -0.001019 0.000000
# 3 0.006178 -0.001248 0.015395 0.000000 0.003127 0.000000
# 4 0.000000 0.000000 0.000000 0.082946 0.000000 0.029705
# 5 0.016592 -0.001019 0.003127 0.000000 0.037843 0.000000
# 6 0.000000 0.000000 0.000000 0.029705 0.000000 0.072859
#
#
# Mechanical properties :
#
#
# Convention : Reuss Voigt Hill
#
# Bulk Modulus (GPa) = 11.59135 17.57295 14.58215
# Shear Modulus (GPa) = 16.68144 22.80800 19.74472
#
# Velocity S-wave (km/s) = 2.90908 3.40159 3.16493
# Velocity P-wave (km/s) = 4.14296 4.93384 4.55559
#
# Compressibility (1/GPa) = 0.08627122
#
# Stress axis : x y z
#
# Youngs Moduli (GPa) = 19.57512 65.27466 64.95762
#
# Poissons Ratio (x) = 0.17591 -0.40133
# Poissons Ratio (y) = 0.05275 0.08104
# Poissons Ratio (z) = -0.12094 0.08144
#
# Static dielectric constant tensor:
#      x y z
#    x 1.722450 0.000000 0.023170 
#    y 0.000000 1.664850 0.000000 
#    z 0.023170 0.000000 1.751310 
# 
# From -- ./inp_files/245649.got.cif
#   From: 2010.05.17/outbox.cif.g08.bks.cpg/sg12_123_cif.got.tgz:245649.got - 2010.06.03 13:09:07.
