data_PCOD9219890
_publ_section_title
;
Structure prediction by ZEFSAII (Michael W. Deem and Ramdas Pophale) SiO2 
 PCOD9219890
Probable space group: C 2/M
;
_chemical_formula_sum "Si O2"
_cell_formula_units_Z 56
_cell_length_a 14.692970
_cell_length_b 13.579675
_cell_length_c 15.315823
_cell_angle_alpha 90.000000
_cell_angle_beta 80.302891
_cell_angle_gamma 90.000000
_cell_volume 3012.238374
_symmetry_space_group_name_H-M "C 2/M"
_symmetry_group_IT_number 12
_symmetry_cell_setting 'monoclinic'
loop_
_space_group_symop_operation_xyz
x,y,z
-x,y,-z
-x,-y,-z
x,-y,z
1/2+x,1/2+y,z
1/2-x,1/2+y,-z
1/2-x,1/2-y,-z
1/2+x,1/2-y,z
loop_
_atom_site_type_symbol
_atom_site_label
_atom_site_fract_x
_atom_site_fract_y
_atom_site_fract_z
Si Si1 0.895678 0.619876 0.536102
Si Si2 0.649375 0.886522 0.643075
Si Si3 0.149165 0.738916 0.124141
Si Si4 0.339371 0.234514 0.191767
Si Si5 0.501380 0.383967 0.894604
Si Si6 0.069761 0.611414 0.283991
Si Si7 0.109768 0.390619 0.970116
O O1 0.899044 0.500000 0.538117
O O2 0.835179 0.643143 0.460810
O O3 0.875719 0.649848 0.638913
O O4 0.000000 0.655399 0.500000
O O5 0.679005 0.804665 0.707956
O O6 0.537979 0.891383 0.673218
O O7 0.683013 0.000000 0.651739
O O8 0.245258 0.736905 0.158650
O O9 0.097548 0.842931 0.121888
O O10 0.082705 0.674705 0.196423
O O11 0.154069 0.686715 0.029518
O O12 0.416852 0.318744 0.162586
O O13 0.372693 0.139425 0.131707
O O14 0.513422 0.500000 0.876173
O O15 0.500000 0.367779 0.000000
O O16 0.100416 0.500000 0.260625
O O17 0.143661 0.500000 0.984083
O O18 0.000000 0.387112 0.000000
#
# Coordination Sequence:
#
# PCOD9219890 Si02
#       7
#     8   8   8   8   8   8   8
#     4   7  12  24  47  80 106 131 160 204 272 332
#     4   9  16  30  54  80 108 132 165 218 275 320
#     4  12  22  36  54  80 107 143 183 222 261 322
#     4  12  22  36  54  80 107 143 183 222 261 322
#     4  11  24  42  56  71 106 153 189 224 265 315
#     4   9  16  30  54  80 108 132 165 218 275 320
#     4  11  21  36  58  81 106 130 164 220 286 324
#
# _framework density 18.590826
#
# number of rings (size 3 to 8) (size 9 to 14) (size 15 to 20)
#    0.000    1.857    4.286    3.000    0.000    4.571 
#    0.000    0.714    0.000    0.000    0.000    2.000 
#    0.000    0.000    0.000    0.000    0.000    0.000 
#
# Total GULP energy -156017.337645 kJ/mol
# GULP energy per Si atom -5572.047773 kJ/mol
# Density = 1.854851 g / cm^3
# Si number density = 18.590826 Si / 1000 Ang^3
#
#
#
# Elastic Constant Matrix: (Units=GPa)
#
#
# Indices 1 2 3 4 5 6 
#
# 1 42.2016 21.7887 -5.2629 0.0000 14.5520 0.0000
# 2 21.7887 81.4577 20.6235 0.0000 14.0655 0.0000
# 3 -5.2629 20.6235 79.8979 0.0000 22.8169 0.0000
# 4 0.0000 0.0000 0.0000 21.3849 0.0000 6.7536
# 5 14.5520 14.0655 22.8169 0.0000 20.6259 0.0000
# 6 0.0000 0.0000 0.0000 6.7536 0.0000 6.7611
#
#
#
# Elastic Compliance Matrix: (Units=1/GPa)
#
#
# Indices 1 2 3 4 5 6 
#
# 1 0.047842 -0.009277 0.019557 0.000000 -0.049061 0.000000
# 2 -0.009277 0.015805 -0.005090 0.000000 0.001397 0.000000
# 3 0.019557 -0.005090 0.026410 0.000000 -0.039542 0.000000
# 4 0.000000 0.000000 0.000000 0.068311 0.000000 -0.068235
# 5 -0.049061 0.001397 -0.039542 0.000000 0.125886 0.000000
# 6 0.000000 0.000000 0.000000 -0.068235 0.000000 0.216064
#
#
# Mechanical properties :
#
#
# Convention : Reuss Voigt Hill
#
# Bulk Modulus (GPa) = 9.95649 30.87284 20.41467
# Shear Modulus (GPa) = 9.55261 20.84825 15.20043
#
# Velocity S-wave (km/s) = 2.26925 3.35240 2.86253
# Velocity P-wave (km/s) = 3.49760 5.62382 4.68298
#
# Compressibility (1/GPa) = 0.10043700
#
# Stress axis : x y z
#
# Youngs Moduli (GPa) = 20.90235 63.27098 37.86392
#
# Poissons Ratio (x) = 0.58695 -0.74049
# Poissons Ratio (y) = 0.19391 0.19272
# Poissons Ratio (z) = -0.40878 0.32204
#
# Static dielectric constant tensor:
#      x y z
#    x 1.679510 0.000000 0.012030 
#    y 0.000000 1.637800 0.000000 
#    z 0.012030 0.000000 1.686670 
# 
# From -- ./inp_files/214258.got.cif
#   From: 2010.05.17/outbox.cif.g08.bks.cpg/sg12_108_cif.got.tgz:214258.got - 2010.06.03 13:09:07.
