data_PCOD9219404
_publ_section_title
;
Structure prediction by ZEFSAII (Michael W. Deem and Ramdas Pophale) SiO2 
 PCOD9219404
Probable space group: C 2/M
;
_chemical_formula_sum "Si O2"
_cell_formula_units_Z 64
_cell_length_a 11.809429
_cell_length_b 29.499593
_cell_length_c 17.140362
_cell_angle_alpha 90.000000
_cell_angle_beta 31.684344
_cell_angle_gamma 90.000000
_cell_volume 3136.331804
_symmetry_space_group_name_H-M "C 2/M"
_symmetry_group_IT_number 12
_symmetry_cell_setting 'monoclinic'
loop_
_space_group_symop_operation_xyz
x,y,z
-x,y,-z
-x,-y,-z
x,-y,z
1/2+x,1/2+y,z
1/2-x,1/2+y,-z
1/2-x,1/2-y,-z
1/2+x,1/2-y,z
loop_
_atom_site_type_symbol
_atom_site_label
_atom_site_fract_x
_atom_site_fract_y
_atom_site_fract_z
Si Si1 0.556599 0.448755 0.752958
Si Si2 0.045639 0.451331 0.065870
Si Si3 0.259467 0.142962 0.854718
Si Si4 0.448999 0.852458 0.908366
Si Si5 0.178210 0.304304 0.336075
Si Si6 0.765885 0.951510 0.179096
Si Si7 0.989313 0.848158 0.745461
Si Si8 0.107512 0.197351 0.355490
O O1 0.600917 0.500000 0.693567
O O2 0.691667 0.444697 0.753746
O O3 0.573992 0.400743 0.697031
O O4 0.304242 0.450098 0.925540
O O5 0.965570 0.500000 0.143310
O O6 0.962384 0.404034 0.146771
O O7 0.000000 0.450982 0.000000
O O8 0.330333 0.158731 0.897304
O O9 0.338260 0.172886 0.737776
O O10 0.344643 0.092075 0.791480
O O11 0.000000 0.141783 0.000000
O O12 0.650573 0.820275 0.797436
O O13 0.265062 0.850608 0.082616
O O14 0.396240 0.319242 0.252847
O O15 0.131700 0.251470 0.348836
O O16 0.000000 0.322367 0.500000
O O17 0.658328 0.000000 0.229631
O O18 0.000000 0.953758 0.000000
O O19 0.017059 0.822210 0.647171
O O20 0.000000 0.181627 0.500000
#
# Coordination Sequence:
#
# PCOD9219404 Si02
#       8
#     8   8   8   8   8   8   8   8
#     4   9  16  29  54  87 118 153 195 239 294 357
#     4   9  16  28  51  84 119 156 197 240 293 353
#     4  11  20  37  59  94 123 153 201 251 302 361
#     4  11  22  38  63  93 126 153 202 255 300 356
#     4  11  26  43  63  87 119 164 206 247 314 367
#     4   9  15  26  48  83 122 154 188 237 296 356
#     4  11  21  43  67  90 125 158 203 254 303 357
#     4  11  28  44  62  88 117 162 209 254 307 366
#
# _framework density 20.406003999999999
#
# number of rings (size 3 to 8) (size 9 to 14) (size 15 to 20)
#    0.000    1.750    2.500    4.125    3.500    4.000 
#    0.000    0.000    0.000    3.000    0.000    0.000 
#    0.000    0.000    0.000    0.000    0.000    0.000 
#
# Total GULP energy -178431.826961 kJ/mol
# GULP energy per Si atom -5575.994593 kJ/mol
# Density = 2.035956 g / cm^3
# Si number density = 20.406004 Si / 1000 Ang^3
#
#
#
# Elastic Constant Matrix: (Units=GPa)
#
#
# Indices 1 2 3 4 5 6 
#
# 1 89.4687 29.0236 12.9109 -0.0002 25.6776 0.0001
# 2 29.0236 104.4232 26.3089 0.0000 26.7492 0.0000
# 3 12.9109 26.3089 41.4286 -0.0015 17.2289 0.0004
# 4 -0.0002 0.0000 -0.0015 145.8274 0.0006 -19.4324
# 5 25.6776 26.7492 17.2289 0.0006 25.5102 -0.0002
# 6 0.0001 0.0000 0.0004 -19.4324 -0.0002 34.7908
#
#
#
# Elastic Compliance Matrix: (Units=1/GPa)
#
#
# Indices 1 2 3 4 5 6 
#
# 1 0.015920 -0.000714 0.002565 0.000000 -0.017008 0.000000
# 2 -0.000714 0.013528 -0.003849 0.000000 -0.010867 0.000000
# 3 0.002565 -0.003849 0.035012 0.000000 -0.022192 0.000000
# 4 0.000000 0.000000 0.000000 0.007409 -0.000001 0.004138
# 5 -0.017008 -0.010867 -0.022192 -0.000001 0.082702 0.000000
# 6 0.000000 0.000000 0.000000 0.004138 0.000000 0.031055
#
#
# Mechanical properties :
#
#
# Convention : Reuss Voigt Hill
#
# Bulk Modulus (GPa) = 16.53892 41.31194 28.92543
# Shear Modulus (GPa) = 23.83489 52.36415 38.09952
#
# Velocity S-wave (km/s) = 3.42136 5.07118 4.32565
# Velocity P-wave (km/s) = 4.87136 7.38770 6.25732
#
# Compressibility (1/GPa) = 0.06046343
#
# Stress axis : x y z
#
# Youngs Moduli (GPa) = 62.81437 73.91853 28.56178
#
# Poissons Ratio (x) = 0.05281 -0.07327
# Poissons Ratio (y) = 0.04487 0.10994
# Poissons Ratio (z) = -0.16114 0.28454
#
# Static dielectric constant tensor:
#      x y z
#    x 1.758800 0.000000 -0.008050 
#    y 0.000000 1.772660 0.000000 
#    z -0.008050 0.000000 1.727010 
# 
# From -- ./inp_files/266277.got.cif
#   From: 2010.05.17/outbox.cif.g08.bks.cpg/sg12_134_cif.got.tgz:266277.got - 2010.06.03 13:09:07.
