data_PCOD9219251
_publ_section_title
;
Structure prediction by ZEFSAII (Michael W. Deem and Ramdas Pophale) SiO2 
 PCOD9219251
Probable space group: C 2/M
;
_chemical_formula_sum "Si O2"
_cell_formula_units_Z 56
_cell_length_a 30.754650
_cell_length_b 8.611602
_cell_length_c 17.264624
_cell_angle_alpha 90.000000
_cell_angle_beta 46.025816
_cell_angle_gamma 90.000000
_cell_volume 3290.598050
_symmetry_space_group_name_H-M "C 2/M"
_symmetry_group_IT_number 12
_symmetry_cell_setting 'monoclinic'
loop_
_space_group_symop_operation_xyz
x,y,z
-x,y,-z
-x,-y,-z
x,-y,z
1/2+x,1/2+y,z
1/2-x,1/2+y,-z
1/2-x,1/2-y,-z
1/2+x,1/2-y,z
loop_
_atom_site_type_symbol
_atom_site_label
_atom_site_fract_x
_atom_site_fract_y
_atom_site_fract_z
Si Si1 0.697079 0.684025 0.895100
Si Si2 0.007208 0.814133 0.706311
Si Si3 0.871171 0.315013 0.870109
Si Si4 0.971057 0.686764 0.156779
Si Si5 0.404413 0.187022 0.085093
Si Si6 0.672237 0.313654 0.239719
Si Si7 0.557123 0.311222 0.481073
O O1 0.704442 0.500000 0.888120
O O2 0.654284 0.733749 0.877110
O O3 0.762187 0.764217 0.812244
O O4 0.663150 0.739764 0.014938
O O5 0.940730 0.739346 0.783975
O O6 0.036447 0.765000 0.751233
O O7 0.045442 0.763840 0.583905
O O8 0.999975 0.000000 0.712417
O O9 0.868370 0.500000 0.881178
O O10 0.840898 0.260867 0.827598
O O11 0.969487 0.500000 0.167142
O O12 0.923302 0.729989 0.149112
O O13 0.037463 0.726114 0.040381
O O14 0.397657 0.000000 0.090298
O O15 0.669220 0.500000 0.235295
O O16 0.619201 0.262161 0.363987
O O17 0.500000 0.260205 0.500000
O O18 0.557096 0.500000 0.480057
#
# Coordination Sequence:
#
# PCOD9219251 Si02
#       7
#     8   8   8   8   8   8   8
#     4  12  24  37  54  81 113 144 181 225 270 321
#     4  11  20  33  56  84 112 143 180 224 269 320
#     4  12  23  36  53  79 113 147 182 220 268 323
#     4   9  18  33  54  81 112 143 176 220 271 324
#     4   9  18  34  55  79 110 145 179 216 269 327
#     4  11  22  39  59  77 106 148 187 222 267 324
#     4   9  18  35  57  80 107 141 182 224 269 317
#
# _framework density 17.018183000000001
#
# number of rings (size 3 to 8) (size 9 to 14) (size 15 to 20)
#    0.000    1.571    2.857    4.714    0.000    0.571 
#    0.000    5.000    0.000    0.857    0.000    0.000 
#    0.000    0.000    0.000    0.000    0.000    0.000 
#
# Total GULP energy -156399.010630 kJ/mol
# GULP energy per Si atom -5585.678951 kJ/mol
# Density = 1.697945 g / cm^3
# Si number density = 17.018183 Si / 1000 Ang^3
#
#
#
# Elastic Constant Matrix: (Units=GPa)
#
#
# Indices 1 2 3 4 5 6 
#
# 1 90.5905 -5.2280 41.2454 0.0001 9.6392 -0.0003
# 2 -5.2280 19.0302 -5.0496 0.0011 6.0327 -0.0006
# 3 41.2454 -5.0496 62.7261 0.0004 4.5971 -0.0004
# 4 0.0001 0.0011 0.0004 15.0617 -0.0001 2.6588
# 5 9.6392 6.0327 4.5971 -0.0001 30.7495 0.0000
# 6 -0.0003 -0.0006 -0.0004 2.6588 0.0000 30.9467
#
#
#
# Elastic Compliance Matrix: (Units=1/GPa)
#
#
# Indices 1 2 3 4 5 6 
#
# 1 0.016287 0.003112 -0.010151 0.000000 -0.004198 0.000000
# 2 0.003112 0.058479 0.003614 -0.000005 -0.012989 0.000002
# 3 -0.010151 0.003614 0.022979 -0.000001 -0.000962 0.000000
# 4 0.000000 -0.000005 -0.000001 0.067416 0.000001 -0.005792
# 5 -0.004198 -0.012989 -0.000962 0.000001 0.036529 0.000000
# 6 0.000000 0.000002 0.000000 -0.005792 0.000000 0.032811
#
#
# Mechanical properties :
#
#
# Convention : Reuss Voigt Hill
#
# Bulk Modulus (GPa) = 11.00196 26.03136 18.51666
# Shear Modulus (GPa) = 18.40603 24.77685 21.59144
#
# Velocity S-wave (km/s) = 3.29226 3.81977 3.56578
# Velocity P-wave (km/s) = 4.57502 5.89776 5.27799
#
# Compressibility (1/GPa) = 0.09089290
#
# Stress axis : x y z
#
# Youngs Moduli (GPa) = 61.39969 17.10005 43.51881
#
# Poissons Ratio (x) = -0.05321 0.44176
# Poissons Ratio (y) = -0.19106 -0.15726
# Poissons Ratio (z) = 0.62327 -0.06179
#
# Static dielectric constant tensor:
#      x y z
#    x 1.566170 0.000000 0.010460 
#    y 0.000000 1.576730 0.000000 
#    z 0.010460 0.000000 1.560040 
# 
# From -- ./inp_files/248922.got.cif
#   From: 2010.05.17/outbox.cif.g08.bks.cpg/sg12_125_cif.got.tgz:248922.got - 2010.06.03 13:09:07.
