data_PCOD9219967
_publ_section_title
;
Structure prediction by ZEFSAII (Michael W. Deem and Ramdas Pophale) SiO2 
 PCOD9219967
Probable space group: C 2/M
;
_chemical_formula_sum "Si O2"
_cell_formula_units_Z 48
_cell_length_a 19.802878
_cell_length_b 7.555266
_cell_length_c 28.244240
_cell_angle_alpha 90.000000
_cell_angle_beta 141.706010
_cell_angle_gamma 90.000000
_cell_volume 2618.708481
_symmetry_space_group_name_H-M "C 2/M"
_symmetry_group_IT_number 12
_symmetry_cell_setting 'monoclinic'
loop_
_space_group_symop_operation_xyz
x,y,z
-x,y,-z
-x,-y,-z
x,-y,z
1/2+x,1/2+y,z
1/2-x,1/2+y,-z
1/2-x,1/2-y,-z
1/2+x,1/2-y,z
loop_
_atom_site_type_symbol
_atom_site_label
_atom_site_fract_x
_atom_site_fract_y
_atom_site_fract_z
Si Si1 0.344595 0.709689 0.166017
Si Si2 0.811878 0.704548 0.765045
Si Si3 0.910722 0.785941 0.720450
Si Si4 0.431949 0.500000 0.889850
Si Si5 0.594349 0.711535 0.690544
Si Si6 0.331502 0.500000 0.940289
Si Si7 0.361858 0.712408 0.587877
O O1 0.325798 0.500000 0.149112
O O2 0.460646 0.758330 0.206505
O O3 0.363115 0.741122 0.232487
O O4 0.245291 0.829695 0.094875
O O5 0.818818 0.500000 0.784855
O O6 0.844767 0.714825 0.728494
O O7 0.891726 0.829195 0.838823
O O8 0.688924 0.772434 0.707447
O O9 0.866955 0.725033 0.645156
O O10 0.904490 0.000000 0.718380
O O11 0.374827 0.500000 0.909901
O O12 0.561292 0.500000 0.968652
O O13 0.586750 0.500000 0.679387
O O14 0.470768 0.780928 0.621330
O O15 0.372917 0.500000 0.596624
O O16 0.250000 0.750000 0.500000
#
# Coordination Sequence:
#
# PCOD9219967 Si02
#       7
#     8   8   8   4   8   4   8
#     4   9  18  35  57  80 106 146 192 233 273 335
#     4  11  21  37  59  81 110 152 193 227 282 338
#     4   9  19  36  59  80 113 149 189 237 275 325
#     4  11  24  38  54  88 118 138 182 252 279 330
#     4   8  16  33  55  77 105 146 186 226 271 327
#     4  11  22  36  60  84 111 145 186 234 297 331
#     4   9  18  35  55  83 117 143 179 234 281 325
#
# _framework density 18.329646
#
# number of rings (size 3 to 8) (size 9 to 14) (size 15 to 20)
#    0.000    2.500    2.500    2.000    1.167    1.333 
#    6.000    3.333    0.000    5.000    0.000    0.000 
#    0.000    0.000    0.000    0.000    0.000    0.000 
#
# Total GULP energy -133838.594410 kJ/mol
# GULP energy per Si atom -5576.608100 kJ/mol
# Density = 1.828793 g / cm^3
# Si number density = 18.329646 Si / 1000 Ang^3
#
#
#
# Elastic Constant Matrix: (Units=GPa)
#
#
# Indices 1 2 3 4 5 6 
#
# 1 147.1505 27.1921 72.1546 0.0000 26.1143 -0.0001
# 2 27.1921 74.1833 47.4414 0.0000 10.4941 -0.0006
# 3 72.1546 47.4414 151.3779 0.0000 30.8955 0.0001
# 4 0.0000 0.0000 0.0000 26.7331 0.0000 5.3981
# 5 26.1143 10.4941 30.8955 0.0000 24.2085 0.0000
# 6 -0.0001 -0.0006 0.0001 5.3981 0.0000 18.3747
#
#
#
# Elastic Compliance Matrix: (Units=1/GPa)
#
#
# Indices 1 2 3 4 5 6 
#
# 1 0.009502 -0.000651 -0.003098 0.000000 -0.006015 0.000000
# 2 -0.000651 0.016914 -0.004918 0.000000 -0.000352 0.000001
# 3 -0.003098 -0.004918 0.011503 0.000000 -0.009207 0.000000
# 4 0.000000 0.000000 0.000000 0.039766 0.000000 -0.011682
# 5 -0.006015 -0.000352 -0.009207 0.000000 0.059699 0.000000
# 6 0.000000 0.000001 0.000000 -0.011682 0.000000 0.057855
#
#
# Mechanical properties :
#
#
# Convention : Reuss Voigt Hill
#
# Bulk Modulus (GPa) = 48.57956 74.03199 61.30578
# Shear Modulus (GPa) = 22.78574 28.92484 25.85529
#
# Velocity S-wave (km/s) = 3.52960 3.97676 3.75983
# Velocity P-wave (km/s) = 6.57051 7.84621 7.23653
#
# Compressibility (1/GPa) = 0.02058479
#
# Stress axis : x y z
#
# Youngs Moduli (GPa) = 105.23573 59.12209 86.93384
#
# Poissons Ratio (x) = 0.03850 0.26929
# Poissons Ratio (y) = 0.06854 0.42758
# Poissons Ratio (z) = 0.32598 0.29079
#
# Static dielectric constant tensor:
#      x y z
#    x 1.645020 0.000000 0.022990 
#    y 0.000000 1.647510 0.000000 
#    z 0.022990 0.000000 1.606200 
# 
# From -- ./inp_files/380271.got.cif
#   From: 2010.05.17/outbox.cif.g08.bks.cpg/sg12_191_cif.got.tgz:380271.got - 2010.06.03 13:09:07.
