data_PCOD9219705
_publ_section_title
;
Structure prediction by ZEFSAII (Michael W. Deem and Ramdas Pophale) SiO2 
 PCOD9219705
Probable space group: C 2/M
;
_chemical_formula_sum "Si O2"
_cell_formula_units_Z 64
_cell_length_a 17.280406
_cell_length_b 28.068421
_cell_length_c 23.262777
_cell_angle_alpha 90.000000
_cell_angle_beta 161.106255
_cell_angle_gamma 90.000000
_cell_volume 3653.669666
_symmetry_space_group_name_H-M "C 2/M"
_symmetry_group_IT_number 12
_symmetry_cell_setting 'monoclinic'
loop_
_space_group_symop_operation_xyz
x,y,z
-x,y,-z
-x,-y,-z
x,-y,z
1/2+x,1/2+y,z
1/2-x,1/2+y,-z
1/2-x,1/2-y,-z
1/2+x,1/2-y,z
loop_
_atom_site_type_symbol
_atom_site_label
_atom_site_fract_x
_atom_site_fract_y
_atom_site_fract_z
Si Si1 0.682656 0.442170 0.039173
Si Si2 0.985047 0.202315 0.210120
Si Si3 0.606217 0.131926 0.512697
Si Si4 0.335233 0.055774 0.277516
Si Si5 0.663208 0.705711 0.558756
Si Si6 0.765802 0.680349 0.181770
Si Si7 0.372553 0.154733 0.127357
Si Si8 0.727904 0.291358 0.812434
O O1 0.706729 0.500000 0.043033
O O2 0.801306 0.433786 0.185737
O O3 0.787712 0.400766 0.071237
O O4 0.402311 0.430717 0.853180
O O5 0.858944 0.205740 0.183014
O O6 0.139317 0.154274 0.316371
O O7 0.171935 0.246511 0.334620
O O8 0.793292 0.191432 0.025447
O O9 0.500000 0.142672 0.500000
O O10 0.569092 0.077305 0.470958
O O11 0.435352 0.155879 0.345956
O O12 0.342652 0.000000 0.285731
O O13 0.500000 0.713162 0.500000
O O14 0.483582 0.693036 0.379766
O O15 0.857151 0.663694 0.703223
O O16 0.858460 0.673253 0.182882
O O17 0.753141 0.735513 0.188917
O O18 0.500000 0.660456 0.000000
O O19 0.000000 0.311451 0.000000
#
# Coordination Sequence:
#
# PCOD9219705 Si02
#       8
#     8   8   8   8   8   8   8   8
#     4   9  18  34  57  82 111 147 191 236 285 343
#     4  12  24  38  54  84 115 153 193 233 276 334
#     4  12  22  33  51  80 116 153 193 232 275 337
#     4   9  18  33  53  81 115 150 187 233 286 339
#     4  12  25  39  57  83 117 151 193 233 279 330
#     4  11  21  33  54  77 108 149 193 229 276 325
#     4  12  23  37  59  81 112 151 194 236 279 337
#     4  11  24  40  57  79 114 156 190 237 282 327
#
# _framework density 17.516635999999998
#
# number of rings (size 3 to 8) (size 9 to 14) (size 15 to 20)
#    0.000    1.000    3.750    5.625    3.500    0.250 
#    0.000    0.625    0.000    0.375    0.000    0.000 
#    0.000    2.500    0.000    0.000    0.000    0.000 
#
# Total GULP energy -178439.212832 kJ/mol
# GULP energy per Si atom -5576.225401 kJ/mol
# Density = 1.747677 g / cm^3
# Si number density = 17.516636 Si / 1000 Ang^3
#
#
#
# Elastic Constant Matrix: (Units=GPa)
#
#
# Indices 1 2 3 4 5 6 
#
# 1 96.8514 12.2345 39.9330 -0.0230 1.9267 0.0022
# 2 12.2345 63.9318 23.7388 -0.0477 8.8476 -0.0099
# 3 39.9330 23.7388 96.2798 -0.0094 -1.5922 -0.0119
# 4 -0.0230 -0.0477 -0.0094 26.1581 0.0030 2.5385
# 5 1.9267 8.8476 -1.5922 0.0030 34.8882 -0.0022
# 6 0.0022 -0.0099 -0.0119 2.5385 -0.0022 22.5605
#
#
#
# Elastic Compliance Matrix: (Units=1/GPa)
#
#
# Indices 1 2 3 4 5 6 
#
# 1 0.012493 -0.000382 -0.005101 0.000009 -0.000826 -0.000005
# 2 -0.000382 0.017988 -0.004355 0.000031 -0.004739 0.000002
# 3 -0.005101 -0.004355 0.013609 -0.000008 0.002007 0.000007
# 4 0.000009 0.000031 -0.000008 0.038651 -0.000012 -0.004349
# 5 -0.000826 -0.004739 0.002007 -0.000012 0.030002 0.000003
# 6 -0.000005 0.000002 0.000007 -0.004349 0.000003 0.044815
#
#
# Mechanical properties :
#
#
# Convention : Reuss Voigt Hill
#
# Bulk Modulus (GPa) = 40.96121 45.43061 43.19591
# Shear Modulus (GPa) = 26.97280 28.79847 27.88563
#
# Velocity S-wave (km/s) = 3.92834 4.05910 3.99426
# Velocity P-wave (km/s) = 6.63406 6.92535 6.78127
#
# Compressibility (1/GPa) = 0.02441334
#
# Stress axis : x y z
#
# Youngs Moduli (GPa) = 80.04465 55.59334 73.48078
#
# Poissons Ratio (x) = 0.02126 0.37482
# Poissons Ratio (y) = 0.03061 0.32000
# Poissons Ratio (z) = 0.40831 0.24210
#
# Static dielectric constant tensor:
#      x y z
#    x 1.499870 -0.000140 0.098510 
#    y -0.000140 1.660810 0.000130 
#    z 0.098510 0.000130 1.488810 
# 
# From -- ./inp_files/312954.got.cif
#   From: 2010.05.17/outbox.cif.g08.bks.cpg/sg12_157_cif.got.tgz:312954.got - 2010.06.03 13:09:07.
