data_PCOD9219730
_publ_section_title
;
Structure prediction by ZEFSAII (Michael W. Deem and Ramdas Pophale) SiO2 
 PCOD9219730
Probable space group: C 2/M
;
_chemical_formula_sum "Si O2"
_cell_formula_units_Z 56
_cell_length_a 9.147457
_cell_length_b 28.741096
_cell_length_c 15.870107
_cell_angle_alpha 90.000000
_cell_angle_beta 132.217513
_cell_angle_gamma 90.000000
_cell_volume 3090.059352
_symmetry_space_group_name_H-M "C 2/M"
_symmetry_group_IT_number 12
_symmetry_cell_setting 'monoclinic'
loop_
_space_group_symop_operation_xyz
x,y,z
-x,y,-z
-x,-y,-z
x,-y,z
1/2+x,1/2+y,z
1/2-x,1/2+y,-z
1/2-x,1/2-y,-z
1/2+x,1/2-y,z
loop_
_atom_site_type_symbol
_atom_site_label
_atom_site_fract_x
_atom_site_fract_y
_atom_site_fract_z
Si Si1 0.307139 0.944799 0.076234
Si Si2 0.093361 0.199542 0.120772
Si Si3 0.111900 0.944910 0.177818
Si Si4 0.270251 0.780211 0.423991
Si Si5 0.901953 0.632748 0.873192
Si Si6 0.440799 0.365300 0.730346
Si Si7 0.497398 0.778442 0.803308
O O1 0.249671 0.932985 0.150709
O O2 0.485337 0.913813 0.111658
O O3 0.348203 0.000000 0.088385
O O4 0.111822 0.936533 0.943363
O O5 0.080004 0.162898 0.190007
O O6 0.312993 0.216122 0.182588
O O7 0.971482 0.244084 0.105620
O O8 0.000000 0.179546 0.000000
O O9 0.147918 0.914798 0.275547
O O10 0.130799 0.000000 0.200095
O O11 0.500000 0.789102 0.500000
O O12 0.250000 0.750000 0.500000
O O13 0.160065 0.830167 0.375411
O O14 0.175024 0.747480 0.314943
O O15 0.668654 0.627884 0.795142
O O16 0.940589 0.672056 0.818603
O O17 0.000000 0.647431 0.000000
#
# Coordination Sequence:
#
# PCOD9219730 Si02
#       7
#     8   8   8   8   8   8   8
#     4   9  19  33  52  79 118 162 185 209 259 318
#     4  11  21  34  51  75 114 146 179 219 265 332
#     4   9  18  35  55  80 115 151 188 221 259 322
#     4  11  23  42  59  75 103 139 187 246 287 327
#     4  12  21  32  51  82 120 149 177 218 259 329
#     4  11  22  34  55  84 107 147 192 222 278 330
#     4  11  22  36  53  78 102 143 187 225 280 331
#
# _framework density 18.122629
#
# number of rings (size 3 to 8) (size 9 to 14) (size 15 to 20)
#    0.000    1.429    1.429    7.714    2.000    0.857 
#    0.000    0.000    0.000    0.429    0.000    1.000 
#    0.000    5.714    0.000    0.000    0.000    0.000 
#
# Total GULP energy -156313.734976 kJ/mol
# GULP energy per Si atom -5582.633392 kJ/mol
# Density = 1.808138 g / cm^3
# Si number density = 18.122629 Si / 1000 Ang^3
#
#
#
# Elastic Constant Matrix: (Units=GPa)
#
#
# Indices 1 2 3 4 5 6 
#
# 1 116.3641 51.2922 32.8749 0.0000 17.6131 0.0000
# 2 51.2922 91.6480 27.6643 0.0000 1.7340 0.0000
# 3 32.8749 27.6643 68.0393 0.0000 9.8917 0.0000
# 4 0.0000 0.0000 0.0000 30.9698 0.0000 11.1553
# 5 17.6131 1.7340 9.8917 0.0000 31.4300 0.0000
# 6 0.0000 0.0000 0.0000 11.1553 0.0000 61.9817
#
#
#
# Elastic Compliance Matrix: (Units=1/GPa)
#
#
# Indices 1 2 3 4 5 6 
#
# 1 0.013137 -0.006371 -0.002869 0.000000 -0.006107 0.000000
# 2 -0.006371 0.015554 -0.003815 0.000000 0.003913 0.000000
# 3 -0.002869 -0.003815 0.018203 0.000000 -0.003911 0.000000
# 4 0.000000 0.000000 0.000000 0.034528 0.000000 -0.006214
# 5 -0.006107 0.003913 -0.003911 0.000000 0.036254 0.000000
# 6 0.000000 0.000000 0.000000 -0.006214 0.000000 0.017252
#
#
# Mechanical properties :
#
#
# Convention : Reuss Voigt Hill
#
# Bulk Modulus (GPa) = 48.11187 55.52380 51.81783
# Shear Modulus (GPa) = 29.76781 35.82430 32.79605
#
# Velocity S-wave (km/s) = 4.05727 4.45091 4.25864
# Velocity P-wave (km/s) = 6.96808 7.55768 7.26886
#
# Compressibility (1/GPa) = 0.02078489
#
# Stress axis : x y z
#
# Youngs Moduli (GPa) = 76.12173 64.29109 54.93471
#
# Poissons Ratio (x) = 0.40957 0.15762
# Poissons Ratio (y) = 0.48494 0.20957
# Poissons Ratio (z) = 0.21841 0.24527
#
# Static dielectric constant tensor:
#      x y z
#    x 1.635010 0.000000 -0.015710 
#    y 0.000000 1.660640 0.000000 
#    z -0.015710 0.000000 1.635140 
# 
# From -- ./inp_files/178707.got.cif
#   From: 2010.05.17/outbox.cif.g08.bks.cpg/sg12_90_cif.got.tgz:178707.got - 2010.06.03 13:09:07.
