data_PCOD9219400
_publ_section_title
;
Structure prediction by ZEFSAII (Michael W. Deem and Ramdas Pophale) SiO2 
 PCOD9219400
Probable space group: C 2/M
;
_chemical_formula_sum "Si O2"
_cell_formula_units_Z 48
_cell_length_a 25.746937
_cell_length_b 7.712992
_cell_length_c 18.726714
_cell_angle_alpha 90.000000
_cell_angle_beta 47.187646
_cell_angle_gamma 90.000000
_cell_volume 2728.095024
_symmetry_space_group_name_H-M "C 2/M"
_symmetry_group_IT_number 12
_symmetry_cell_setting 'monoclinic'
loop_
_space_group_symop_operation_xyz
x,y,z
-x,y,-z
-x,-y,-z
x,-y,z
1/2+x,1/2+y,z
1/2-x,1/2+y,-z
1/2-x,1/2-y,-z
1/2+x,1/2-y,z
loop_
_atom_site_type_symbol
_atom_site_label
_atom_site_fract_x
_atom_site_fract_y
_atom_site_fract_z
Si Si1 0.380870 0.500000 0.614888
Si Si2 0.966888 0.305507 0.754118
Si Si3 0.695844 0.706652 0.113560
Si Si4 0.506408 0.500000 0.613986
Si Si5 0.726295 0.799006 0.245678
Si Si6 0.005675 0.789479 0.110915
Si Si7 0.886813 0.210674 0.110007
O O1 0.437495 0.500000 0.626871
O O2 0.425843 0.500000 0.500436
O O3 0.331915 0.669515 0.668429
O O4 0.980668 0.500000 0.716456
O O5 0.882617 0.270889 0.831928
O O6 0.001844 0.166505 0.669130
O O7 0.992112 0.281665 0.811782
O O8 0.693189 0.500000 0.125615
O O9 0.719616 0.788646 0.166079
O O10 0.750000 0.750000 0.000000
O O11 0.805560 0.736808 0.190631
O O12 0.716999 0.000000 0.276266
O O13 0.936860 0.737864 0.129150
O O14 0.006872 0.000000 0.114089
O O15 0.073474 0.734644 0.999897
O O16 0.886934 0.000000 0.108461
#
# Coordination Sequence:
#
# PCOD9219400 Si02
#       7
#     4   8   8   4   8   8   8
#     4  11  24  42  64  85 106 150 196 240 301 345
#     4  12  22  37  58  86 115 151 193 235 291 340
#     4  12  22  35  53  84 122 158 187 224 278 343
#     4  11  24  44  62  81 114 146 194 250 291 345
#     4  11  20  37  58  86 117 146 189 238 288 342
#     4   9  16  34  56  83 121 160 192 226 274 341
#     4   8  17  31  56  86 118 160 192 223 279 340
#
# _framework density 17.594695000000002
#
# number of rings (size 3 to 8) (size 9 to 14) (size 15 to 20)
#    0.000    1.500    4.167    3.500    0.000    2.000 
#    3.000    2.500    0.000    1.000    0.000    0.000 
#    0.000    0.000    0.000    0.000    0.000    0.000 
#
# Total GULP energy -134089.914806 kJ/mol
# GULP energy per Si atom -5587.079784 kJ/mol
# Density = 1.755465 g / cm^3
# Si number density = 17.594695 Si / 1000 Ang^3
#
#
#
# Elastic Constant Matrix: (Units=GPa)
#
#
# Indices 1 2 3 4 5 6 
#
# 1 89.8050 29.2167 62.1978 -0.0071 -8.0107 0.0099
# 2 29.2167 116.2731 54.7710 0.0056 -4.8572 -0.0186
# 3 62.1978 54.7710 138.1866 -0.0018 -9.5338 0.0056
# 4 -0.0071 0.0056 -0.0018 17.5358 -0.0012 -2.4236
# 5 -8.0107 -4.8572 -9.5338 -0.0012 24.0841 0.0065
# 6 0.0099 -0.0186 0.0056 -2.4236 0.0065 15.0595
#
#
#
# Elastic Compliance Matrix: (Units=1/GPa)
#
#
# Indices 1 2 3 4 5 6 
#
# 1 0.016389 -0.000762 -0.006898 0.000005 0.002567 -0.000009
# 2 -0.000762 0.010616 -0.003839 -0.000002 0.000368 0.000015
# 3 -0.006898 -0.003839 0.011978 -0.000001 0.001673 -0.000006
# 4 0.000005 -0.000002 -0.000001 0.058323 0.000001 0.009386
# 5 0.002567 0.000368 0.001673 0.000001 0.043112 -0.000020
# 6 -0.000009 0.000015 -0.000006 0.009386 -0.000020 0.067914
#
#
# Mechanical properties :
#
#
# Convention : Reuss Voigt Hill
#
# Bulk Modulus (GPa) = 62.55581 70.73729 66.64655
# Shear Modulus (GPa) = 21.12744 24.54117 22.83430
#
# Velocity S-wave (km/s) = 3.46899 3.73876 3.60640
# Velocity P-wave (km/s) = 7.18862 7.67651 7.43657
#
# Compressibility (1/GPa) = 0.01598572
#
# Stress axis : x y z
#
# Youngs Moduli (GPa) = 61.01499 94.19947 83.48304
#
# Poissons Ratio (x) = 0.07176 0.57585
# Poissons Ratio (y) = 0.04648 0.32052
# Poissons Ratio (z) = 0.42087 0.36167
#
# Static dielectric constant tensor:
#      x y z
#    x 1.594670 -0.000010 -0.006910 
#    y -0.000010 1.627300 0.000010 
#    z -0.006910 0.000010 1.563820 
# 
# From -- ./inp_files/287281.got.cif
#   From: 2010.05.17/outbox.cif.g08.bks.cpg/sg12_144_cif.got.tgz:287281.got - 2010.06.03 13:09:07.
