data_PCOD9219487
_publ_section_title
;
Structure prediction by ZEFSAII (Michael W. Deem and Ramdas Pophale) SiO2 
 PCOD9219487
Probable space group: C 2/M
;
_chemical_formula_sum "Si O2"
_cell_formula_units_Z 56
_cell_length_a 22.977366
_cell_length_b 13.166303
_cell_length_c 16.115871
_cell_angle_alpha 90.000000
_cell_angle_beta 143.943149
_cell_angle_gamma 90.000000
_cell_volume 2869.650799
_symmetry_space_group_name_H-M "C 2/M"
_symmetry_group_IT_number 12
_symmetry_cell_setting 'monoclinic'
loop_
_space_group_symop_operation_xyz
x,y,z
-x,y,-z
-x,-y,-z
x,-y,z
1/2+x,1/2+y,z
1/2-x,1/2+y,-z
1/2-x,1/2-y,-z
1/2+x,1/2-y,z
loop_
_atom_site_type_symbol
_atom_site_label
_atom_site_fract_x
_atom_site_fract_y
_atom_site_fract_z
Si Si1 0.918346 0.613699 0.691008
Si Si2 0.021885 0.170317 0.268723
Si Si3 0.920767 0.387689 0.506495
Si Si4 0.270672 0.619236 0.411061
Si Si5 0.556730 0.690224 0.647258
Si Si6 0.734192 0.759350 0.757871
Si Si7 0.427751 0.614335 0.993080
O O1 0.960575 0.500000 0.754489
O O2 0.989587 0.710638 0.770155
O O3 0.877710 0.613194 0.550047
O O4 0.830396 0.631072 0.654123
O O5 0.136169 0.152157 0.425258
O O6 0.964133 0.142353 0.287058
O O7 0.987651 0.112756 0.147992
O O8 0.960082 0.500000 0.537885
O O9 0.834402 0.355046 0.345895
O O10 0.003562 0.300699 0.595902
O O11 0.282585 0.500000 0.404554
O O12 0.266928 0.686612 0.324027
O O13 0.500000 0.645383 0.500000
O O14 0.671203 0.703037 0.756451
O O15 0.840931 0.803338 0.899959
O O16 0.388875 0.500000 0.932157
O O17 0.500000 0.640410 0.000000
#
# Coordination Sequence:
#
# PCOD9219487 Si02
#       7
#     8   8   8   8   8   8   8
#     4   9  18  31  55  88 112 142 195 244 293 340
#     4  11  20  39  60  84 121 153 189 243 295 341
#     4   9  17  30  55  86 112 142 186 243 296 335
#     4  11  21  34  58  87 114 154 200 243 292 342
#     4   9  18  35  59  86 113 144 196 242 291 330
#     4  11  21  38  56  81 118 154 192 241 283 340
#     4  11  26  41  58  87 121 157 191 229 294 364
#
# _framework density 19.514569000000002
#
# number of rings (size 3 to 8) (size 9 to 14) (size 15 to 20)
#    0.000    1.857    4.286    2.143    2.000    3.714 
#    0.000    2.857    0.000    2.571    0.000    0.000 
#    0.000    0.000    0.000    0.000    0.000    0.000 
#
# Total GULP energy -156065.726476 kJ/mol
# GULP energy per Si atom -5573.775946 kJ/mol
# Density = 1.947015 g / cm^3
# Si number density = 19.514569 Si / 1000 Ang^3
#
#
#
# Elastic Constant Matrix: (Units=GPa)
#
#
# Indices 1 2 3 4 5 6 
#
# 1 131.8080 14.6952 35.3115 0.0000 -12.5790 0.0000
# 2 14.6952 46.1875 21.9878 0.0000 -1.2948 0.0000
# 3 35.3115 21.9878 64.9465 0.0000 -6.4841 0.0000
# 4 0.0000 0.0000 0.0000 20.2712 0.0000 -2.4738
# 5 -12.5790 -1.2948 -6.4841 0.0000 21.5957 0.0000
# 6 0.0000 0.0000 0.0000 -2.4738 0.0000 3.2718
#
#
#
# Elastic Compliance Matrix: (Units=1/GPa)
#
#
# Indices 1 2 3 4 5 6 
#
# 1 0.009221 -0.000746 -0.004360 0.000000 0.004017 0.000000
# 2 -0.000746 0.025897 -0.008505 0.000000 -0.001435 0.000000
# 3 -0.004360 -0.008505 0.020972 0.000000 0.003247 0.000000
# 4 0.000000 0.000000 0.000000 0.054346 0.000000 0.041091
# 5 0.004017 -0.001435 0.003247 0.000000 0.049534 0.000000
# 6 0.000000 0.000000 0.000000 0.041091 0.000000 0.336708
#
#
# Mechanical properties :
#
#
# Convention : Reuss Voigt Hill
#
# Bulk Modulus (GPa) = 34.64092 42.99233 38.81663
# Shear Modulus (GPa) = 9.37167 20.42425 14.89796
#
# Velocity S-wave (km/s) = 2.19381 3.23865 2.76602
# Velocity P-wave (km/s) = 4.92006 6.00532 5.48957
#
# Compressibility (1/GPa) = 0.02886759
#
# Stress axis : x y z
#
# Youngs Moduli (GPa) = 108.44316 38.61467 47.68347
#
# Poissons Ratio (x) = 0.02879 0.20791
# Poissons Ratio (y) = 0.08086 0.40557
# Poissons Ratio (z) = 0.47283 0.32843
#
# Static dielectric constant tensor:
#      x y z
#    x 1.716110 0.000000 -0.013910 
#    y 0.000000 1.732120 0.000000 
#    z -0.013910 0.000000 1.653830 
# 
# From -- ./inp_files/233725.got.cif
#   From: 2010.05.17/outbox.cif.g08.bks.cpg/sg12_117_cif.got.tgz:233725.got - 2010.06.03 13:09:07.
