data_PCOD9219562
_publ_section_title
;
Structure prediction by ZEFSAII (Michael W. Deem and Ramdas Pophale) SiO2 
 PCOD9219562
Probable space group: C 2/M
;
_chemical_formula_sum "Si O2"
_cell_formula_units_Z 64
_cell_length_a 18.239130
_cell_length_b 27.653888
_cell_length_c 13.362584
_cell_angle_alpha 90.000000
_cell_angle_beta 150.553343
_cell_angle_gamma 90.000000
_cell_volume 3313.402207
_symmetry_space_group_name_H-M "C 2/M"
_symmetry_group_IT_number 12
_symmetry_cell_setting 'monoclinic'
loop_
_space_group_symop_operation_xyz
x,y,z
-x,y,-z
-x,-y,-z
x,-y,z
1/2+x,1/2+y,z
1/2-x,1/2+y,-z
1/2-x,1/2-y,-z
1/2+x,1/2-y,z
loop_
_atom_site_type_symbol
_atom_site_label
_atom_site_fract_x
_atom_site_fract_y
_atom_site_fract_z
Si Si1 0.104476 0.291212 0.525204
Si Si2 0.830904 0.701238 0.059877
Si Si3 0.040596 0.057630 0.435888
Si Si4 0.042604 0.556043 0.317582
Si Si5 0.357964 0.101670 0.765094
Si Si6 0.773739 0.902212 0.989165
Si Si7 0.163677 0.292249 0.172408
Si Si8 0.833070 0.604443 0.349027
O O1 0.210276 0.245227 0.646443
O O2 0.194356 0.341243 0.645120
O O3 0.000000 0.285815 0.500000
O O4 0.997205 0.296384 0.302384
O O5 0.750000 0.750000 0.000000
O O6 0.756487 0.653914 0.020524
O O7 0.825016 0.697594 0.933089
O O8 0.208816 0.072699 0.612466
O O9 0.000000 0.073974 0.500000
O O10 0.922781 0.080515 0.219579
O O11 0.025785 0.000000 0.413787
O O12 0.052875 0.500000 0.300334
O O13 0.094448 0.591324 0.291291
O O14 0.147174 0.567348 0.537198
O O15 0.871602 0.569044 0.142397
O O16 0.328302 0.157434 0.757986
O O17 0.500000 0.085902 0.000000
O O18 0.773419 0.908644 0.869090
O O19 0.000000 0.271352 0.000000
O O20 0.000000 0.606914 0.500000
#
# Coordination Sequence:
#
# PCOD9219562 Si02
#       8
#     8   8   8   8   8   8   8   8
#     4  11  20  41  65  92 126 171 212 254 309 384
#     4  12  22  38  67  93 128 171 212 253 314 383
#     4  11  24  40  61  92 122 157 210 269 323 373
#     4  11  22  40  66  92 122 167 213 260 324 382
#     4  11  25  44  62  88 126 167 209 258 321 391
#     4  11  21  39  65  95 128 161 211 269 315 371
#     4  11  25  40  59  96 129 163 215 263 313 372
#     4   9  19  38  63  92 126 163 211 263 306 378
#
# _framework density 19.315493
#
# number of rings (size 3 to 8) (size 9 to 14) (size 15 to 20)
#    0.000    1.125    5.000    3.750    1.750    5.750 
#    0.000    0.625    0.000    1.500    0.000    0.000 
#    0.000    0.000    0.000    0.000    0.000    0.000 
#
# Total GULP energy -178834.694135 kJ/mol
# GULP energy per Si atom -5588.584192 kJ/mol
# Density = 1.927153 g / cm^3
# Si number density = 19.315493 Si / 1000 Ang^3
#
#
#
# Elastic Constant Matrix: (Units=GPa)
#
#
# Indices 1 2 3 4 5 6 
#
# 1 55.1125 28.5958 33.8212 0.0000 -4.6354 0.0000
# 2 28.5958 91.1451 49.9084 0.0000 -9.8877 0.0000
# 3 33.8212 49.9084 148.1497 0.0000 -9.1754 0.0000
# 4 0.0000 0.0000 0.0000 24.5892 0.0000 -0.3817
# 5 -4.6354 -9.8877 -9.1754 0.0000 16.9341 0.0000
# 6 0.0000 0.0000 0.0000 -0.3817 0.0000 25.2357
#
#
#
# Elastic Compliance Matrix: (Units=1/GPa)
#
#
# Indices 1 2 3 4 5 6 
#
# 1 0.023068 -0.005209 -0.003424 0.000000 0.001418 0.000000
# 2 -0.005209 0.015160 -0.003578 0.000000 0.005487 0.000000
# 3 -0.003424 -0.003578 0.008846 0.000000 0.001767 0.000000
# 4 0.000000 0.000000 0.000000 0.040678 0.000000 0.000615
# 5 0.001418 0.005487 0.001767 0.000000 0.063602 0.000000
# 6 0.000000 0.000000 0.000000 0.000615 0.000000 0.039636
#
#
# Mechanical properties :
#
#
# Convention : Reuss Voigt Hill
#
# Bulk Modulus (GPa) = 44.14394 57.67310 50.90852
# Shear Modulus (GPa) = 22.42539 25.49060 23.95799
#
# Velocity S-wave (km/s) = 3.41105 3.63670 3.52568
# Velocity P-wave (km/s) = 6.19818 6.89619 6.55648
#
# Compressibility (1/GPa) = 0.02265316
#
# Stress axis : x y z
#
# Youngs Moduli (GPa) = 43.35096 65.96176 113.04102
#
# Poissons Ratio (x) = 0.34358 0.38701
# Poissons Ratio (y) = 0.22580 0.40449
# Poissons Ratio (z) = 0.14842 0.23603
#
# Static dielectric constant tensor:
#      x y z
#    x 1.680910 0.000000 -0.017030 
#    y 0.000000 1.665290 0.000000 
#    z -0.017030 0.000000 1.668340 
# 
# From -- ./inp_files/161238.got.cif
#   From: 2010.05.17/outbox.cif.g08.bks.cpg/sg12_81_cif.got.tgz:161238.got - 2010.06.03 13:09:07.
