data_PCOD9219703
_publ_section_title
;
Structure prediction by ZEFSAII (Michael W. Deem and Ramdas Pophale) SiO2 
 PCOD9219703
Probable space group: C 2/M
;
_chemical_formula_sum "Si O2"
_cell_formula_units_Z 48
_cell_length_a 16.146477
_cell_length_b 17.659879
_cell_length_c 18.473867
_cell_angle_alpha 90.000000
_cell_angle_beta 30.562562
_cell_angle_gamma 90.000000
_cell_volume 2678.528286
_symmetry_space_group_name_H-M "C 2/M"
_symmetry_group_IT_number 12
_symmetry_cell_setting 'monoclinic'
loop_
_space_group_symop_operation_xyz
x,y,z
-x,y,-z
-x,-y,-z
x,-y,z
1/2+x,1/2+y,z
1/2-x,1/2+y,-z
1/2-x,1/2-y,-z
1/2+x,1/2-y,z
loop_
_atom_site_type_symbol
_atom_site_label
_atom_site_fract_x
_atom_site_fract_y
_atom_site_fract_z
Si Si1 0.084214 0.587628 0.800577
Si Si2 0.184387 0.696847 0.383078
Si Si3 0.585575 0.408762 0.705122
Si Si4 0.243430 0.326499 0.959977
Si Si5 0.735491 0.680561 0.225969
Si Si6 0.636409 0.345396 0.507280
O O1 0.049889 0.500000 0.830168
O O2 0.140235 0.620306 0.835465
O O3 0.235873 0.605345 0.633891
O O4 0.923614 0.631128 0.896401
O O5 0.296867 0.628034 0.323062
O O6 0.251104 0.745010 0.264408
O O7 0.177951 0.758422 0.453943
O O8 0.000000 0.675078 0.500000
O O9 0.591744 0.500000 0.698085
O O10 0.401425 0.378594 0.855121
O O11 0.640593 0.372323 0.586812
O O12 0.243209 0.306658 0.874717
O O13 0.250000 0.250000 0.000000
O O14 0.552211 0.648537 0.374698
#
# Coordination Sequence:
#
# PCOD9219703 Si02
#       6
#     8   8   8   8   8   8
#     4  11  21  33  53  83 114 140 172 218 274 329
#     4   9  18  35  59  82 105 139 187 226 260 318
#     4  11  22  36  56  83 114 143 177 227 278 318
#     4  11  23  38  56  76 106 147 186 223 266 323
#     4   9  20  36  56  80 105 141 182 222 265 315
#     4   9  19  36  56  82 112 145 180 216 264 323
#
# _framework density 17.920289
#
# number of rings (size 3 to 8) (size 9 to 14) (size 15 to 20)
#    0.000    2.000    0.000    5.500    0.000    8.333 
#    0.000    0.000    0.000    3.000    0.000    0.000 
#    0.000    0.000    0.000    0.000    0.000    0.000 
#
# Total GULP energy -133921.051983 kJ/mol
# GULP energy per Si atom -5580.043833 kJ/mol
# Density = 1.787950 g / cm^3
# Si number density = 17.920289 Si / 1000 Ang^3
#
#
#
# Elastic Constant Matrix: (Units=GPa)
#
#
# Indices 1 2 3 4 5 6 
#
# 1 95.6280 72.6562 37.1557 -0.0011 -10.6309 -0.0028
# 2 72.6562 125.6660 41.1521 -0.0009 -17.2354 0.0015
# 3 37.1557 41.1521 76.0656 -0.0017 0.6730 -0.0031
# 4 -0.0011 -0.0009 -0.0017 18.2517 0.0012 -5.0250
# 5 -10.6309 -17.2354 0.6730 0.0012 17.9922 -0.0004
# 6 -0.0028 0.0015 -0.0031 -5.0250 -0.0004 -1.9150
#
#
#
# Elastic Compliance Matrix: (Units=1/GPa)
#
#
# Indices 1 2 3 4 5 6 
#
# 1 0.019803 -0.009612 -0.004497 -0.000005 0.002661 -0.000018
# 2 -0.009612 0.016269 -0.004195 0.000005 0.010062 0.000019
# 3 -0.004497 -0.004195 0.017678 -0.000003 -0.007337 -0.000016
# 4 -0.000005 0.000005 -0.000003 0.031809 -0.000002 -0.083468
# 5 0.002661 0.010062 -0.007337 -0.000002 0.067066 0.000008
# 6 -0.000018 0.000019 -0.000016 -0.083468 0.000008 -0.303169
#
#
# Mechanical properties :
#
#
# Convention : Reuss Voigt Hill
#
# Bulk Modulus (GPa) = 58.33763 66.58751 62.46257
# Shear Modulus (GPa) = -46.20123 16.62549 -14.78787
#
# Velocity S-wave (km/s) = -5.08306 3.04920 -2.87575
# Velocity P-wave (km/s) = 1.35106 7.04522 4.88926
#
# Compressibility (1/GPa) = 0.01714159
#
# Stress axis : x y z
#
# Youngs Moduli (GPa) = 50.49668 61.46670 56.56848
#
# Poissons Ratio (x) = 0.59082 0.25437
# Poissons Ratio (y) = 0.48538 0.23733
# Poissons Ratio (z) = 0.22706 0.25788
#
# Static dielectric constant tensor:
#      x y z
#    x 1.617870 0.000000 0.003600 
#    y 0.000000 1.578320 0.000000 
#    z 0.003600 0.000000 1.638280 
# 
# From -- ./inp_files/104941.got.cif
#   From: 2010.05.17/outbox.cif.g08.bks.cpg/sg12_53_cif.got.tgz:104941.got - 2010.06.03 13:09:07.
