data_PCOD9219707
_publ_section_title
;
Structure prediction by ZEFSAII (Michael W. Deem and Ramdas Pophale) SiO2 
 PCOD9219707
Probable space group: C 2/M
;
_chemical_formula_sum "Si O2"
_cell_formula_units_Z 48
_cell_length_a 18.313185
_cell_length_b 9.048855
_cell_length_c 20.824641
_cell_angle_alpha 90.000000
_cell_angle_beta 49.716325
_cell_angle_gamma 90.000000
_cell_volume 2632.544114
_symmetry_space_group_name_H-M "C 2/M"
_symmetry_group_IT_number 12
_symmetry_cell_setting 'monoclinic'
loop_
_space_group_symop_operation_xyz
x,y,z
-x,y,-z
-x,-y,-z
x,-y,z
1/2+x,1/2+y,z
1/2-x,1/2+y,-z
1/2-x,1/2-y,-z
1/2+x,1/2-y,z
loop_
_atom_site_type_symbol
_atom_site_label
_atom_site_fract_x
_atom_site_fract_y
_atom_site_fract_z
Si Si1 0.899065 0.830501 0.924687
Si Si2 0.026608 0.823275 0.739853
Si Si3 0.243252 0.176280 0.573515
Si Si4 0.371358 0.176268 0.735894
Si Si5 0.391419 0.324790 0.586032
Si Si6 0.266286 0.830898 0.091757
O O1 0.815326 0.828469 0.917804
O O2 0.992179 0.783024 0.831386
O O3 0.909973 0.000000 0.939877
O O4 0.861319 0.731479 0.004106
O O5 0.137326 0.798694 0.662537
O O6 0.960732 0.735982 0.727075
O O7 0.006782 0.000000 0.743847
O O8 0.250000 0.250000 0.500000
O O9 0.320920 0.249725 0.575403
O O10 0.258250 0.000000 0.560233
O O11 0.377832 0.248807 0.662513
O O12 0.276748 0.231544 0.827264
O O13 0.373247 0.000000 0.731146
O O14 0.500000 0.305388 0.500000
O O15 0.372689 0.500000 0.601395
O O16 0.277257 0.000000 0.106302
#
# Coordination Sequence:
#
# PCOD9219707 Si02
#       6
#     8   8   8   8   8   8
#     4   8  14  26  45  71 103 139 178 217 259 310
#     4   9  19  35  54  78 111 146 178 219 270 319
#     4  11  23  39  59  83 110 141 178 219 267 321
#     4  11  21  33  54  82 110 142 182 224 265 315
#     4  11  24  41  59  79 107 142 178 220 271 321
#     4   9  16  27  45  72 107 142 176 218 266 312
#
# _framework density 18.233311
#
# number of rings (size 3 to 8) (size 9 to 14) (size 15 to 20)
#    0.000    2.167    0.000    5.000    0.000   10.667 
#    0.000    0.000    0.000    1.000    0.000    7.000 
#    0.000    0.000    0.000    0.000    0.000    0.000 
#
# Total GULP energy -133966.767371 kJ/mol
# GULP energy per Si atom -5581.948640 kJ/mol
# Density = 1.819181 g / cm^3
# Si number density = 18.233311 Si / 1000 Ang^3
#
#
#
# Elastic Constant Matrix: (Units=GPa)
#
#
# Indices 1 2 3 4 5 6 
#
# 1 74.7450 67.7443 64.2281 0.0000 0.4125 0.0000
# 2 67.7443 136.9899 104.3240 0.0000 -2.0174 0.0001
# 3 64.2281 104.3240 160.5679 0.0000 -6.1351 0.0000
# 4 0.0000 0.0000 0.0000 35.9420 0.0000 1.9847
# 5 0.4125 -2.0174 -6.1351 0.0000 20.6622 0.0000
# 6 0.0000 0.0001 0.0000 1.9847 0.0000 19.0049
#
#
#
# Elastic Compliance Matrix: (Units=1/GPa)
#
#
# Indices 1 2 3 4 5 6 
#
# 1 0.025606 -0.009549 -0.004141 0.000000 -0.002673 0.000000
# 2 -0.009549 0.018050 -0.007923 0.000000 -0.000400 0.000000
# 3 -0.004141 -0.007923 0.013155 0.000000 0.003215 0.000000
# 4 0.000000 0.000000 0.000000 0.027984 0.000000 -0.002922
# 5 -0.002673 -0.000400 0.003215 0.000000 0.049367 0.000000
# 6 0.000000 0.000000 0.000000 -0.002922 0.000000 0.052923
#
#
# Mechanical properties :
#
#
# Convention : Reuss Voigt Hill
#
# Bulk Modulus (GPa) = 73.60685 93.87728 83.74206
# Shear Modulus (GPa) = 21.29134 24.18891 22.74012
#
# Velocity S-wave (km/s) = 3.42089 3.64625 3.53537
# Velocity P-wave (km/s) = 7.48735 8.32618 7.91788
#
# Compressibility (1/GPa) = 0.01358569
#
# Stress axis : x y z
#
# Youngs Moduli (GPa) = 39.05325 55.40295 76.01853
#
# Poissons Ratio (x) = 0.52903 0.31477
# Poissons Ratio (y) = 0.37291 0.60228
# Poissons Ratio (z) = 0.16171 0.43895
#
# Static dielectric constant tensor:
#      x y z
#    x 1.605150 0.000000 -0.011620 
#    y 0.000000 1.610540 0.000000 
#    z -0.011620 0.000000 1.638130 
# 
# From -- ./inp_files/313602.got.cif
#   From: 2010.05.17/outbox.cif.g08.bks.cpg/sg12_157_cif.got.tgz:313602.got - 2010.06.03 13:09:07.
