data_PCOD9219543
_publ_section_title
;
Structure prediction by ZEFSAII (Michael W. Deem and Ramdas Pophale) SiO2 
 PCOD9219543
Probable space group: C 2/M
;
_chemical_formula_sum "Si O2"
_cell_formula_units_Z 24
_cell_length_a 14.770010
_cell_length_b 12.918135
_cell_length_c 8.513799
_cell_angle_alpha 90.000000
_cell_angle_beta 40.674444
_cell_angle_gamma 90.000000
_cell_volume 1058.746107
_symmetry_space_group_name_H-M "C 2/M"
_symmetry_group_IT_number 12
_symmetry_cell_setting 'monoclinic'
loop_
_space_group_symop_operation_xyz
x,y,z
-x,y,-z
-x,-y,-z
x,-y,z
1/2+x,1/2+y,z
1/2-x,1/2+y,-z
1/2-x,1/2-y,-z
1/2+x,1/2-y,z
loop_
_atom_site_type_symbol
_atom_site_label
_atom_site_fract_x
_atom_site_fract_y
_atom_site_fract_z
Si Si1 0.650787 0.380712 0.266578
Si Si2 0.276295 0.000000 0.855884
Si Si3 0.360144 0.796491 0.234182
Si Si4 0.566416 0.000000 0.667464
O O1 0.500000 0.334096 0.500000
O O2 0.647291 0.500000 0.336633
O O3 0.771239 0.323057 0.197749
O O4 0.689425 0.401680 0.034599
O O5 0.418447 0.000000 0.772349
O O6 0.317613 0.000000 0.622161
O O7 0.250000 0.750000 0.500000
O O8 0.415048 0.899489 0.250305
O O9 0.500000 0.736705 0.000000
#
# Coordination Sequence:
#
# PCOD9219543 Si02
#       4
#     8   4   8   4
#     4   9  18  39  65  87 123 161 203 252 315 357
#     4   9  18  35  70  91 114 164 212 249 315 354
#     4  12  24  43  64  94 125 168 207 255 308 372
#     4  11  20  40  68  88 123 164 210 254 305 373
#
# _framework density 22.668324999999999
#
# number of rings (size 3 to 8) (size 9 to 14) (size 15 to 20)
#    1.000    0.667    5.000    0.500    0.000    2.667 
#    6.000    5.833    0.000    0.000    0.000    0.000 
#    0.000    0.000    0.000    0.000    0.000    0.000 
#
# Total GULP energy -66987.221214 kJ/mol
# GULP energy per Si atom -5582.268434 kJ/mol
# Density = 2.261673 g / cm^3
# Si number density = 22.668325 Si / 1000 Ang^3
#
#
#
# Elastic Constant Matrix: (Units=GPa)
#
#
# Indices 1 2 3 4 5 6 
#
# 1 74.3542 10.0866 46.7869 0.0000 -15.1382 0.0000
# 2 10.0866 32.6911 15.3784 0.0000 -0.7435 0.0000
# 3 46.7869 15.3784 221.3867 0.0000 -7.5190 0.0000
# 4 0.0000 0.0000 0.0000 19.3316 0.0000 6.6539
# 5 -15.1382 -0.7435 -7.5190 0.0000 49.6279 0.0000
# 6 0.0000 0.0000 0.0000 6.6539 0.0000 8.9401
#
#
#
# Elastic Compliance Matrix: (Units=1/GPa)
#
#
# Indices 1 2 3 4 5 6 
#
# 1 0.016864 -0.003614 -0.003156 0.000000 0.004612 0.000000
# 2 -0.003614 0.032398 -0.001516 0.000000 -0.000847 0.000000
# 3 -0.003156 -0.001516 0.005283 0.000000 -0.000185 0.000000
# 4 0.000000 0.000000 0.000000 0.069544 0.000000 -0.051760
# 5 0.004612 -0.000847 -0.000185 0.000000 0.021516 0.000000
# 6 0.000000 0.000000 0.000000 -0.051760 0.000000 0.150379
#
#
# Mechanical properties :
#
#
# Convention : Reuss Voigt Hill
#
# Bulk Modulus (GPa) = 26.33366 52.54843 39.44105
# Shear Modulus (GPa) = 15.37447 32.65861 24.01654
#
# Velocity S-wave (km/s) = 2.60712 3.79979 3.25849
# Velocity P-wave (km/s) = 4.55027 6.51790 5.62085
#
# Compressibility (1/GPa) = 0.03797421
#
# Stress axis : x y z
#
# Youngs Moduli (GPa) = 59.29631 30.86609 189.28527
#
# Poissons Ratio (x) = 0.11154 0.59746
# Poissons Ratio (y) = 0.21428 0.28687
# Poissons Ratio (z) = 0.18716 0.04678
#
# Static dielectric constant tensor:
#      x y z
#    x 1.786300 0.000000 -0.020210 
#    y 0.000000 1.880980 0.000000 
#    z -0.020210 0.000000 1.944740 
# 
# From -- ./inp_files/74248.got.cif
#   From: 2010.05.17/outbox.cif.g08.bks.cpg/sg12_38_cif.got.tgz:74248.got - 2010.06.03 13:09:07.
