data_PCOD9219537
_publ_section_title
;
Structure prediction by ZEFSAII (Michael W. Deem and Ramdas Pophale) SiO2 
 PCOD9219537
Probable space group: C 2/M
;
_chemical_formula_sum "Si O2"
_cell_formula_units_Z 40
_cell_length_a 24.268883
_cell_length_b 10.274897
_cell_length_c 11.135713
_cell_angle_alpha 90.000000
_cell_angle_beta 50.769758
_cell_angle_gamma 90.000000
_cell_volume 2150.942654
_symmetry_space_group_name_H-M "C 2/M"
_symmetry_group_IT_number 12
_symmetry_cell_setting 'monoclinic'
loop_
_space_group_symop_operation_xyz
x,y,z
-x,y,-z
-x,-y,-z
x,-y,z
1/2+x,1/2+y,z
1/2-x,1/2+y,-z
1/2-x,1/2-y,-z
1/2+x,1/2-y,z
loop_
_atom_site_type_symbol
_atom_site_label
_atom_site_fract_x
_atom_site_fract_y
_atom_site_fract_z
Si Si1 0.075443 0.274313 0.951860
Si Si2 0.870104 0.000000 0.216276
Si Si3 0.656612 0.500000 0.463728
Si Si4 0.176449 0.500000 0.719311
Si Si5 0.297011 0.000000 0.599694
Si Si6 0.391280 0.225879 0.572309
Si Si7 0.546056 0.844264 0.261260
O O1 0.135439 0.373306 0.823150
O O2 0.092902 0.129901 0.882866
O O3 0.068941 0.283241 0.104033
O O4 0.000000 0.316421 0.000000
O O5 0.869486 0.000000 0.362007
O O6 0.788055 0.000000 0.286427
O O7 0.742154 0.500000 0.350223
O O8 0.629142 0.370956 0.436382
O O9 0.177281 0.500000 0.573855
O O10 0.329604 0.126566 0.618556
O O11 0.409601 0.209745 0.687179
O O12 0.463374 0.184801 0.403208
O O13 0.555131 0.000000 0.243363
#
# Coordination Sequence:
#
# PCOD9219537 Si02
#       7
#     8   4   4   4   4   8   8
#     4  12  24  40  65  91 127 160 199 257 312 354
#     4  11  25  41  59  96 128 160 202 251 306 371
#     4  11  24  42  61  93 130 156 204 255 301 364
#     4  11  23  39  63  94 120 162 212 247 296 373
#     4  11  20  40  67  85 122 170 206 245 303 358
#     4  11  22  40  67  90 121 165 203 253 304 353
#     4  11  22  41  65  94 120 156 217 252 291 372
#
# _framework density 18.596498
#
# number of rings (size 3 to 8) (size 9 to 14) (size 15 to 20)
#    0.000    0.800    3.000    6.000    0.000    6.400 
#    0.000    6.000    0.000    0.000    0.000    0.000 
#    0.000    0.000    0.000    0.000    0.000    0.000 
#
# Total GULP energy -111911.840294 kJ/mol
# GULP energy per Si atom -5595.592015 kJ/mol
# Density = 1.855417 g / cm^3
# Si number density = 18.596498 Si / 1000 Ang^3
#
#
#
# Elastic Constant Matrix: (Units=GPa)
#
#
# Indices 1 2 3 4 5 6 
#
# 1 67.5686 21.2204 40.7200 0.0000 1.9544 0.0000
# 2 21.2204 138.3234 38.0993 0.0000 5.7679 0.0000
# 3 40.7200 38.0993 108.7919 0.0000 12.2670 0.0000
# 4 0.0000 0.0000 0.0000 28.4195 0.0000 0.4322
# 5 1.9544 5.7679 12.2670 0.0000 11.5662 0.0000
# 6 0.0000 0.0000 0.0000 0.4322 0.0000 61.1535
#
#
#
# Elastic Compliance Matrix: (Units=1/GPa)
#
#
# Indices 1 2 3 4 5 6 
#
# 1 0.019526 -0.001149 -0.007495 0.000000 0.005223 0.000000
# 2 -0.001149 0.008082 -0.002235 0.000000 -0.001466 0.000000
# 3 -0.007495 -0.002235 0.014211 0.000000 -0.012691 0.000000
# 4 0.000000 0.000000 0.000000 0.035191 0.000000 -0.000249
# 5 0.005223 -0.001466 -0.012691 0.000000 0.099767 0.000000
# 6 0.000000 0.000000 0.000000 -0.000249 0.000000 0.016354
#
#
# Mechanical properties :
#
#
# Convention : Reuss Voigt Hill
#
# Bulk Modulus (GPa) = 49.84701 57.19592 53.52146
# Shear Modulus (GPa) = 22.56543 34.53744 28.55143
#
# Velocity S-wave (km/s) = 3.48720 4.31420 3.92256
# Velocity P-wave (km/s) = 6.56329 7.45919 7.02554
#
# Compressibility (1/GPa) = 0.02006139
#
# Stress axis : x y z
#
# Youngs Moduli (GPa) = 51.21246 123.72454 70.36803
#
# Poissons Ratio (x) = 0.14215 0.52742
# Poissons Ratio (y) = 0.05884 0.15729
# Poissons Ratio (z) = 0.38385 0.27655
#
# Static dielectric constant tensor:
#      x y z
#    x 1.621830 0.000000 -0.004080 
#    y 0.000000 1.611700 0.000000 
#    z -0.004080 0.000000 1.617360 
# 
# From -- ./inp_files/179696.got.cif
#   From: 2010.05.17/outbox.cif.g08.bks.cpg/sg12_90_cif.got.tgz:179696.got - 2010.06.03 13:09:07.
