data_PCOD9219323
_publ_section_title
;
Structure prediction by ZEFSAII (Michael W. Deem and Ramdas Pophale) SiO2 
 PCOD9219323
Probable space group: C 2/M
;
_chemical_formula_sum "Si O2"
_cell_formula_units_Z 40
_cell_length_a 21.791620
_cell_length_b 21.368277
_cell_length_c 5.373637
_cell_angle_alpha 90.000000
_cell_angle_beta 126.966583
_cell_angle_gamma 90.000000
_cell_volume 1999.248233
_symmetry_space_group_name_H-M "C 2/M"
_symmetry_group_IT_number 12
_symmetry_cell_setting 'monoclinic'
loop_
_space_group_symop_operation_xyz
x,y,z
-x,y,-z
-x,-y,-z
x,-y,z
1/2+x,1/2+y,z
1/2-x,1/2+y,-z
1/2-x,1/2-y,-z
1/2+x,1/2-y,z
loop_
_atom_site_type_symbol
_atom_site_label
_atom_site_fract_x
_atom_site_fract_y
_atom_site_fract_z
Si Si1 0.579126 0.293959 0.056796
Si Si2 0.415844 0.838117 0.230512
Si Si3 0.226741 0.572915 0.153659
Si Si4 0.312243 0.229033 0.351377
Si Si5 0.704735 0.374296 0.199987
O O1 0.643505 0.286316 0.424942
O O2 0.618579 0.345731 0.977047
O O3 0.500000 0.309026 0.000000
O O4 0.575594 0.225019 0.918184
O O5 0.500000 0.863412 0.500000
O O6 0.378776 0.811797 0.391834
O O7 0.352900 0.888827 0.992527
O O8 0.209755 0.500000 0.075809
O O9 0.280612 0.581176 0.528598
O O10 0.266563 0.598654 0.995736
O O11 0.262364 0.183960 0.400021
O O12 0.250000 0.250000 0.000000
#
# Coordination Sequence:
#
# PCOD9219323 Si02
#       5
#     8   8   8   8   8
#     4  12  22  36  61  97 133 162 195 257 338 398
#     4  11  22  36  59  93 136 166 201 256 324 387
#     4  11  25  44  66  88 121 175 229 265 300 360
#     4  11  20  35  58  90 131 169 199 248 312 388
#     4  11  23  40  66  91 126 164 216 265 314 373
#
# _framework density 20.00752
#
# number of rings (size 3 to 8) (size 9 to 14) (size 15 to 20)
#    0.000    0.800    6.000    3.600    0.000    0.400 
#    0.000    0.000    0.000    7.800    0.000    0.000 
#    0.000    0.000    0.000    0.000    0.000    0.000 
#
# Total GULP energy -111536.331944 kJ/mol
# GULP energy per Si atom -5576.816597 kJ/mol
# Density = 1.996198 g / cm^3
# Si number density = 20.007520 Si / 1000 Ang^3
#
#
#
# Elastic Constant Matrix: (Units=GPa)
#
#
# Indices 1 2 3 4 5 6 
#
# 1 159.1177 44.1071 48.8346 0.0000 28.0885 0.0000
# 2 44.1071 93.3197 28.6996 0.0000 10.1822 0.0000
# 3 48.8346 28.6996 82.0852 0.0000 -1.8896 0.0000
# 4 0.0000 0.0000 0.0000 22.3633 0.0000 -4.8778
# 5 28.0885 10.1822 -1.8896 0.0000 21.9403 0.0000
# 6 0.0000 0.0000 0.0000 -4.8778 0.0000 18.8292
#
#
#
# Elastic Compliance Matrix: (Units=1/GPa)
#
#
# Indices 1 2 3 4 5 6 
#
# 1 0.011228 -0.001811 -0.006371 0.000000 -0.014082 0.000000
# 2 -0.001811 0.013126 -0.003606 0.000000 -0.004084 0.000000
# 3 -0.006371 -0.003606 0.017494 0.000000 0.011336 0.000000
# 4 0.000000 0.000000 0.000000 0.047394 0.000000 0.012278
# 5 -0.014082 -0.004084 0.011336 0.000000 0.066479 0.000000
# 6 0.000000 0.000000 0.000000 0.012278 0.000000 0.056289
#
#
# Mechanical properties :
#
#
# Convention : Reuss Voigt Hill
#
# Bulk Modulus (GPa) = 54.72530 64.20058 59.46294
# Shear Modulus (GPa) = 20.68876 26.81865 23.75371
#
# Velocity S-wave (km/s) = 3.21915 3.66516 3.44937
# Velocity P-wave (km/s) = 6.42098 7.07595 6.75641
#
# Compressibility (1/GPa) = 0.01827309
#
# Stress axis : x y z
#
# Youngs Moduli (GPa) = 89.06473 76.18237 57.16142
#
# Poissons Ratio (x) = 0.13796 0.36416
# Poissons Ratio (y) = 0.16129 0.20613
# Poissons Ratio (z) = 0.56741 0.27472
#
# Static dielectric constant tensor:
#      x y z
#    x 1.712610 0.000000 -0.087530 
#    y 0.000000 1.746930 0.000000 
#    z -0.087530 0.000000 1.748670 
# 
# From -- ./inp_files/11307.got.cif
#   From: 2010.05.17/outbox.cif.g08.bks.cpg/sg12_6_cif.got.tgz:11307.got - 2010.06.03 13:09:07.
