data_PCOD9219311
_publ_section_title
;
Structure prediction by ZEFSAII (Michael W. Deem and Ramdas Pophale) SiO2 
 PCOD9219311
Probable space group: C 2/M
;
_chemical_formula_sum "Si O2"
_cell_formula_units_Z 64
_cell_length_a 11.956505
_cell_length_b 25.326531
_cell_length_c 22.855371
_cell_angle_alpha 90.000000
_cell_angle_beta 149.833095
_cell_angle_gamma 90.000000
_cell_volume 3477.940439
_symmetry_space_group_name_H-M "C 2/M"
_symmetry_group_IT_number 12
_symmetry_cell_setting 'monoclinic'
loop_
_space_group_symop_operation_xyz
x,y,z
-x,y,-z
-x,-y,-z
x,-y,z
1/2+x,1/2+y,z
1/2-x,1/2+y,-z
1/2-x,1/2-y,-z
1/2+x,1/2-y,z
loop_
_atom_site_type_symbol
_atom_site_label
_atom_site_fract_x
_atom_site_fract_y
_atom_site_fract_z
Si Si1 0.833394 0.210407 0.369979
Si Si2 0.260649 0.939522 0.135406
Si Si3 0.453662 0.151972 0.144371
Si Si4 0.840848 0.369746 0.283570
Si Si5 0.500976 0.706684 0.933411
Si Si6 0.336009 0.173515 0.875250
Si Si7 0.680651 0.327926 0.323862
Si Si8 0.732647 0.686838 0.481369
O O1 0.594273 0.183173 0.257450
O O2 0.776171 0.272587 0.340919
O O3 0.000000 0.203884 0.500000
O O4 0.976552 0.182212 0.384033
O O5 0.371327 0.900626 0.138361
O O6 0.311460 0.917048 0.223864
O O7 0.337427 0.000000 0.166254
O O8 0.000000 0.938646 0.000000
O O9 0.604365 0.141319 0.155893
O O10 0.251587 0.189866 0.030440
O O11 0.672836 0.326302 0.181916
O O12 0.757309 0.373330 0.313472
O O13 0.090286 0.345860 0.400610
O O14 0.411399 0.766296 0.894001
O O15 0.500000 0.688500 0.000000
O O16 0.085921 0.174039 0.787324
O O17 0.500000 0.154736 0.000000
O O18 0.767415 0.328798 0.429814
O O19 0.750000 0.750000 0.500000
#
# Coordination Sequence:
#
# PCOD9219311 Si02
#       8
#     8   8   8   8   8   8   8   8
#     4  12  22  32  56  83 129 174 205 237 284 363
#     4  11  25  45  70  94 112 151 220 284 331 366
#     4  12  21  39  59  84 122 160 201 259 313 362
#     4  12  21  39  64  83 126 158 207 266 314 360
#     4  11  20  35  53  87 120 166 198 240 305 372
#     4  11  23  33  52  87 134 166 201 234 298 394
#     4  12  23  36  53  91 129 173 207 238 291 376
#     4  12  22  37  53  91 132 173 211 239 289 371
#
# _framework density 18.401696000000001
#
# number of rings (size 3 to 8) (size 9 to 14) (size 15 to 20)
#    0.000    0.375    6.250    5.250    0.000    0.000 
#    0.000    0.000    0.000    6.000    0.000    0.000 
#    0.000    0.000    0.000    0.000    0.000    0.000 
#
# Total GULP energy -178427.523224 kJ/mol
# GULP energy per Si atom -5575.860101 kJ/mol
# Density = 1.835981 g / cm^3
# Si number density = 18.401696 Si / 1000 Ang^3
#
#
#
# Elastic Constant Matrix: (Units=GPa)
#
#
# Indices 1 2 3 4 5 6 
#
# 1 91.7665 26.5196 20.6765 -0.0006 4.1391 0.0006
# 2 26.5196 75.7702 33.9524 0.0006 -1.8073 -0.0004
# 3 20.6765 33.9524 109.8781 -0.0015 8.7707 0.0012
# 4 -0.0006 0.0006 -0.0015 18.0170 0.0005 0.8215
# 5 4.1391 -1.8073 8.7707 0.0005 38.4809 0.0001
# 6 0.0006 -0.0004 0.0012 0.8215 0.0001 9.3884
#
#
#
# Elastic Compliance Matrix: (Units=1/GPa)
#
#
# Indices 1 2 3 4 5 6 
#
# 1 0.012305 -0.003883 -0.001014 0.000000 -0.001275 -0.000001
# 2 -0.003883 0.016672 -0.004601 -0.000001 0.002249 0.000002
# 3 -0.001014 -0.004601 0.010921 0.000001 -0.002596 -0.000002
# 4 0.000000 -0.000001 0.000001 0.055726 -0.000001 -0.004876
# 5 -0.001275 0.002249 -0.002596 -0.000001 0.026821 0.000000
# 6 -0.000001 0.000002 -0.000002 -0.004876 0.000000 0.106941
#
#
# Mechanical properties :
#
#
# Convention : Reuss Voigt Hill
#
# Bulk Modulus (GPa) = 47.83996 48.85688 48.34842
# Shear Modulus (GPa) = 19.58110 26.26168 22.92139
#
# Velocity S-wave (km/s) = 3.26558 3.78184 3.53315
# Velocity P-wave (km/s) = 6.34608 6.75852 6.55554
#
# Compressibility (1/GPa) = 0.02090303
#
# Stress axis : x y z
#
# Youngs Moduli (GPa) = 81.26568 59.98105 91.57015
#
# Poissons Ratio (x) = 0.23290 0.09285
# Poissons Ratio (y) = 0.31555 0.42127
# Poissons Ratio (z) = 0.08240 0.27594
#
# Static dielectric constant tensor:
#      x y z
#    x 1.785240 0.000000 0.021520 
#    y 0.000000 1.597040 0.000000 
#    z 0.021520 0.000000 1.761700 
# 
# From -- ./inp_files/337215.got.cif
#   From: 2010.05.17/outbox.cif.g08.bks.cpg/sg12_169_cif.got.tgz:337215.got - 2010.06.03 13:09:07.
