data_PCOD9219904
_publ_section_title
;
Structure prediction by ZEFSAII (Michael W. Deem and Ramdas Pophale) SiO2 
 PCOD9219904
Probable space group: C 2/M
;
_chemical_formula_sum "Si O2"
_cell_formula_units_Z 56
_cell_length_a 24.187444
_cell_length_b 8.471548
_cell_length_c 14.874479
_cell_angle_alpha 90.000000
_cell_angle_beta 111.783482
_cell_angle_gamma 90.000000
_cell_volume 2830.217758
_symmetry_space_group_name_H-M "C 2/M"
_symmetry_group_IT_number 12
_symmetry_cell_setting 'monoclinic'
loop_
_space_group_symop_operation_xyz
x,y,z
-x,y,-z
-x,-y,-z
x,-y,z
1/2+x,1/2+y,z
1/2-x,1/2+y,-z
1/2-x,1/2-y,-z
1/2+x,1/2-y,z
loop_
_atom_site_type_symbol
_atom_site_label
_atom_site_fract_x
_atom_site_fract_y
_atom_site_fract_z
Si Si1 0.560735 0.808400 0.925774
Si Si2 0.687920 0.315555 0.314600
Si Si3 0.188394 0.182761 0.665014
Si Si4 0.134010 0.685002 0.454481
Si Si5 0.425128 0.808620 0.859477
Si Si6 0.612468 0.812593 0.773577
Si Si7 0.496392 0.313019 0.605354
O O1 0.491807 0.760861 0.869819
O O2 0.602386 0.755291 0.869574
O O3 0.560222 0.000000 0.923765
O O4 0.579553 0.764519 0.037848
O O5 0.700894 0.500000 0.312909
O O6 0.742229 0.217961 0.305812
O O7 0.678050 0.272794 0.412869
O O8 0.626709 0.269732 0.228576
O O9 0.154094 0.282714 0.568395
O O10 0.163721 0.229541 0.747382
O O11 0.174919 0.000000 0.639593
O O12 0.135371 0.500000 0.435489
O O13 0.067460 0.750115 0.401817
O O14 0.420863 0.000000 0.849446
O O15 0.550452 0.776199 0.685387
O O16 0.623038 0.000000 0.780190
O O17 0.500000 0.289429 0.500000
O O18 0.501547 0.500000 0.626047
#
# Coordination Sequence:
#
# PCOD9219904 Si02
#       7
#     8   8   8   8   8   8   8
#     4   8  17  34  62  93 121 150 188 236 289 348
#     4  12  25  41  60  86 117 152 195 244 293 349
#     4  12  25  42  59  81 115 157 200 245 291 346
#     4  12  24  40  62  87 115 154 198 243 293 348
#     4   9  17  37  64  91 119 152 191 236 288 345
#     4  11  21  36  59  89 121 158 198 240 294 351
#     4  11  22  36  56  85 122 157 192 237 287 339
#
# _framework density 19.786462
#
# number of rings (size 3 to 8) (size 9 to 14) (size 15 to 20)
#    0.000    1.286    1.429    6.857    0.000    1.714 
#    0.000    4.286    0.000    0.000    0.000    0.000 
#    0.000    0.000    0.000    0.000    0.000    0.000 
#
# Total GULP energy -156601.080085 kJ/mol
# GULP energy per Si atom -5592.895717 kJ/mol
# Density = 1.974143 g / cm^3
# Si number density = 19.786462 Si / 1000 Ang^3
#
#
#
# Elastic Constant Matrix: (Units=GPa)
#
#
# Indices 1 2 3 4 5 6 
#
# 1 85.2996 -0.6710 20.6419 0.0000 -22.2746 0.0000
# 2 -0.6710 30.6080 -5.5370 0.0000 -2.6285 0.0000
# 3 20.6419 -5.5370 41.2876 0.0000 -20.8031 0.0000
# 4 0.0000 0.0000 0.0000 18.8675 0.0000 -4.2597
# 5 -22.2746 -2.6285 -20.8031 0.0000 29.1303 0.0000
# 6 0.0000 0.0000 0.0000 -4.2597 0.0000 20.8539
#
#
#
# Elastic Compliance Matrix: (Units=1/GPa)
#
#
# Indices 1 2 3 4 5 6 
#
# 1 0.014847 0.000710 -0.002460 0.000000 0.009660 0.000000
# 2 0.000710 0.035381 0.009797 0.000000 0.010732 0.000000
# 3 -0.002460 0.009797 0.041023 0.000000 0.028299 0.000000
# 4 0.000000 0.000000 0.000000 0.055563 0.000000 0.011349
# 5 0.009660 0.010732 0.028299 0.000000 0.062892 0.000000
# 6 0.000000 0.000000 0.000000 0.011349 0.000000 0.050271
#
#
# Mechanical properties :
#
#
# Convention : Reuss Voigt Hill
#
# Bulk Modulus (GPa) = 9.31584 20.67366 14.99475
# Shear Modulus (GPa) = 17.87855 23.28779 20.58317
#
# Velocity S-wave (km/s) = 3.00921 3.43440 3.22881
# Velocity P-wave (km/s) = 4.09783 5.11839 4.63628
#
# Compressibility (1/GPa) = 0.10734400
#
# Stress axis : x y z
#
# Youngs Moduli (GPa) = 67.35450 28.26402 24.37663
#
# Poissons Ratio (x) = -0.02006 0.05998
# Poissons Ratio (y) = -0.04782 -0.23883
# Poissons Ratio (z) = 0.16572 -0.27691
#
# Static dielectric constant tensor:
#      x y z
#    x 1.684870 0.000000 -0.025730 
#    y 0.000000 1.665780 0.000000 
#    z -0.025730 0.000000 1.690090 
# 
# From -- ./inp_files/237804.got.cif
#   From: 2010.05.17/outbox.cif.g08.bks.cpg/sg12_119_cif.got.tgz:237804.got - 2010.06.03 13:09:07.
