data_PCOD9219824
_publ_section_title
;
Structure prediction by ZEFSAII (Michael W. Deem and Ramdas Pophale) SiO2 
 PCOD9219824
Probable space group: C 2/M
;
_chemical_formula_sum "Si O2"
_cell_formula_units_Z 56
_cell_length_a 9.258841
_cell_length_b 26.502650
_cell_length_c 13.745142
_cell_angle_alpha 90.000000
_cell_angle_beta 56.437259
_cell_angle_gamma 90.000000
_cell_volume 2810.519491
_symmetry_space_group_name_H-M "C 2/M"
_symmetry_group_IT_number 12
_symmetry_cell_setting 'monoclinic'
loop_
_space_group_symop_operation_xyz
x,y,z
-x,y,-z
-x,-y,-z
x,-y,z
1/2+x,1/2+y,z
1/2-x,1/2+y,-z
1/2-x,1/2-y,-z
1/2+x,1/2-y,z
loop_
_atom_site_type_symbol
_atom_site_label
_atom_site_fract_x
_atom_site_fract_y
_atom_site_fract_z
Si Si1 0.954477 0.823895 0.778256
Si Si2 0.549581 0.942522 0.686389
Si Si3 0.313706 0.346293 0.021254
Si Si4 0.868826 0.556615 0.964134
Si Si5 0.603273 0.774384 0.622102
Si Si6 0.827960 0.138447 0.628054
Si Si7 0.171310 0.350738 0.281031
O O1 0.874860 0.858984 0.724026
O O2 0.007594 0.770855 0.712065
O O3 0.136076 0.847780 0.748115
O O4 0.823149 0.815764 0.917304
O O5 0.472509 0.945198 0.824262
O O6 0.727878 0.911599 0.630670
O O7 0.417994 0.905523 0.677659
O O8 0.565057 0.000000 0.644244
O O9 0.281445 0.403260 0.996453
O O10 0.184235 0.337904 0.159618
O O11 0.500000 0.340352 0.000000
O O12 0.808028 0.500000 0.010357
O O13 0.000000 0.573220 0.000000
O O14 0.750000 0.750000 0.500000
O O15 0.703476 0.814092 0.653066
O O16 0.454141 0.808388 0.627874
O O17 0.000000 0.144922 0.500000
#
# Coordination Sequence:
#
# PCOD9219824 Si02
#       7
#     8   8   8   8   8   8   8
#     4  11  21  35  58  83 117 148 184 236 281 328
#     4   9  19  37  57  78 112 151 185 229 284 334
#     4   9  19  35  51  79 114 146 182 225 280 333
#     4   9  16  29  52  78 104 142 187 228 274 330
#     4  11  22  39  58  83 112 149 191 231 278 337
#     4  11  22  37  56  87 110 142 194 236 279 330
#     4   9  21  38  58  83 114 150 189 230 277 340
#
# _framework density 19.925142000000001
#
# number of rings (size 3 to 8) (size 9 to 14) (size 15 to 20)
#    0.000    2.143    1.429    1.714    0.000    1.143 
#    0.000    4.286    0.000    0.857    0.000    0.000 
#    0.000    0.000    0.000    0.000    0.000    0.000 
#
# Total GULP energy -156156.355277 kJ/mol
# GULP energy per Si atom -5577.012688 kJ/mol
# Density = 1.987979 g / cm^3
# Si number density = 19.925142 Si / 1000 Ang^3
#
#
#
# Elastic Constant Matrix: (Units=GPa)
#
#
# Indices 1 2 3 4 5 6 
#
# 1 46.4501 11.0304 4.7582 0.0000 2.8187 0.0000
# 2 11.0304 94.7116 16.8927 0.0000 -7.6226 0.0000
# 3 4.7582 16.8927 61.5797 0.0000 -3.5195 0.0000
# 4 0.0000 0.0000 0.0000 14.5766 0.0000 -6.5802
# 5 2.8187 -7.6226 -3.5195 0.0000 24.8588 0.0000
# 6 0.0000 0.0000 0.0000 -6.5802 0.0000 12.1086
#
#
#
# Elastic Compliance Matrix: (Units=1/GPa)
#
#
# Indices 1 2 3 4 5 6 
#
# 1 0.022506 -0.002692 -0.001203 0.000000 -0.003548 0.000000
# 2 -0.002692 0.011650 -0.002789 0.000000 0.003483 0.000000
# 3 -0.001203 -0.002789 0.017195 0.000000 0.001716 0.000000
# 4 0.000000 0.000000 0.000000 0.090904 0.000000 0.049400
# 5 -0.003548 0.003483 0.001716 0.000000 0.041940 0.000000
# 6 0.000000 0.000000 0.000000 0.049400 0.000000 0.109432
#
#
# Mechanical properties :
#
#
# Convention : Reuss Voigt Hill
#
# Bulk Modulus (GPa) = 26.32761 29.78933 28.05847
# Shear Modulus (GPa) = 15.64181 21.64613 18.64397
#
# Velocity S-wave (km/s) = 2.80488 3.29959 3.06224
# Velocity P-wave (km/s) = 4.87152 5.43134 5.15903
#
# Compressibility (1/GPa) = 0.03798294
#
# Stress axis : x y z
#
# Youngs Moduli (GPa) = 44.43199 85.84010 58.15585
#
# Poissons Ratio (x) = 0.23109 0.06998
# Poissons Ratio (y) = 0.11961 0.16218
# Poissons Ratio (z) = 0.05347 0.23938
#
# Static dielectric constant tensor:
#      x y z
#    x 1.715290 0.000000 0.017210 
#    y 0.000000 1.711220 0.000000 
#    z 0.017210 0.000000 1.736740 
# 
# From -- ./inp_files/198788.got.cif
#   From: 2010.05.17/outbox.cif.g08.bks.cpg/sg12_100_cif.got.tgz:198788.got - 2010.06.03 13:09:07.
