data_PCOD9219996
_publ_section_title
;
Structure prediction by ZEFSAII (Michael W. Deem and Ramdas Pophale) SiO2 
 PCOD9219996
Probable space group: C 2/M
;
_chemical_formula_sum "Si O2"
_cell_formula_units_Z 48
_cell_length_a 19.686146
_cell_length_b 13.735767
_cell_length_c 12.140951
_cell_angle_alpha 90.000000
_cell_angle_beta 134.721343
_cell_angle_gamma 90.000000
_cell_volume 2332.669814
_symmetry_space_group_name_H-M "C 2/M"
_symmetry_group_IT_number 12
_symmetry_cell_setting 'monoclinic'
loop_
_space_group_symop_operation_xyz
x,y,z
-x,y,-z
-x,-y,-z
x,-y,z
1/2+x,1/2+y,z
1/2-x,1/2+y,-z
1/2-x,1/2-y,-z
1/2+x,1/2-y,z
loop_
_atom_site_type_symbol
_atom_site_label
_atom_site_fract_x
_atom_site_fract_y
_atom_site_fract_z
Si Si1 0.456766 0.891797 0.302293
Si Si2 0.850011 0.201371 0.637217
Si Si3 0.917557 0.794428 0.480229
Si Si4 0.464706 0.107470 0.835665
Si Si5 0.390128 0.611266 0.898218
Si Si6 0.731082 0.787621 0.854558
O O1 0.532626 0.810171 0.429088
O O2 0.454623 0.887704 0.166890
O O3 0.351396 0.869651 0.226583
O O4 0.489011 0.000000 0.368349
O O5 0.750000 0.250000 0.500000
O O6 0.893401 0.162599 0.572072
O O7 0.907189 0.294481 0.749042
O O8 0.842227 0.122777 0.724088
O O9 0.823852 0.782172 0.296521
O O10 0.000000 0.843297 0.500000
O O11 0.416772 0.000000 0.763877
O O12 0.500000 0.108453 0.000000
O O13 0.389743 0.500000 0.936178
O O14 0.329374 0.675509 0.913328
O O15 0.500000 0.639461 0.000000
O O16 0.750000 0.750000 0.000000
#
# Coordination Sequence:
#
# PCOD9219996 Si02
#       6
#     8   8   8   8   8   8
#     4   9  19  35  58  88 118 149 190 249 317 369
#     4  11  21  37  62  88 119 161 204 254 308 359
#     4   9  20  36  57  91 114 148 194 251 320 368
#     4   9  19  34  57  89 122 153 189 248 318 372
#     4  11  26  43  62  87 125 174 217 250 290 364
#     4  11  23  37  60  90 120 161 200 254 310 363
#
# _framework density 20.577279000000001
#
# number of rings (size 3 to 8) (size 9 to 14) (size 15 to 20)
#    0.000    2.000    1.667    1.000    9.333    4.333 
#    0.000    0.000    0.000    2.500    0.000    0.000 
#    0.000    0.000    0.000    0.000    0.000    0.000 
#
# Total GULP energy -133714.224776 kJ/mol
# GULP energy per Si atom -5571.426032 kJ/mol
# Density = 2.053044 g / cm^3
# Si number density = 20.577279 Si / 1000 Ang^3
#
#
#
# Elastic Constant Matrix: (Units=GPa)
#
#
# Indices 1 2 3 4 5 6 
#
# 1 141.3060 13.7126 49.8180 0.0000 -22.2516 0.0000
# 2 13.7126 25.3269 8.3353 0.0000 -1.2173 0.0000
# 3 49.8180 8.3353 94.4135 0.0000 -18.1427 0.0000
# 4 0.0000 0.0000 0.0000 7.4297 0.0000 -5.9661
# 5 -22.2516 -1.2173 -18.1427 0.0000 46.8626 0.0000
# 6 0.0000 0.0000 0.0000 -5.9661 0.0000 15.2168
#
#
#
# Elastic Compliance Matrix: (Units=1/GPa)
#
#
# Indices 1 2 3 4 5 6 
#
# 1 0.009285 -0.003560 -0.004057 0.000000 0.002746 0.000000
# 2 -0.003560 0.042036 -0.002104 0.000000 -0.001413 0.000000
# 3 -0.004057 -0.002104 0.013545 0.000000 0.003263 0.000000
# 4 0.000000 0.000000 0.000000 0.196443 0.000000 0.077020
# 5 0.002746 -0.001413 0.003263 0.000000 0.023869 0.000000
# 6 0.000000 0.000000 0.000000 0.077020 0.000000 0.095914
#
#
# Mechanical properties :
#
#
# Convention : Reuss Voigt Hill
#
# Bulk Modulus (GPa) = 22.01528 44.97537 33.49532
# Shear Modulus (GPa) = 12.02858 26.51387 19.27122
#
# Velocity S-wave (km/s) = 2.42038 3.59347 3.06360
# Velocity P-wave (km/s) = 4.30500 6.25472 5.36911
#
# Compressibility (1/GPa) = 0.04542300
#
# Stress axis : x y z
#
# Youngs Moduli (GPa) = 107.69914 23.78930 73.82564
#
# Poissons Ratio (x) = 0.08469 0.29955
# Poissons Ratio (y) = 0.38340 0.15535
# Poissons Ratio (z) = 0.43699 0.05006
#
# Static dielectric constant tensor:
#      x y z
#    x 1.763110 0.000000 -0.035170 
#    y 0.000000 1.748670 0.000000 
#    z -0.035170 0.000000 1.712270 
# 
# From -- ./inp_files/167645.got.cif
#   From: 2010.05.17/outbox.cif.g08.bks.cpg/sg12_84_cif.got.tgz:167645.got - 2010.06.03 13:09:07.
