data_PCOD9219905
_publ_section_title
;
Structure prediction by ZEFSAII (Michael W. Deem and Ramdas Pophale) SiO2 
 PCOD9219905
Probable space group: C 2/M
;
_chemical_formula_sum "Si O2"
_cell_formula_units_Z 48
_cell_length_a 9.868517
_cell_length_b 22.825616
_cell_length_c 23.926655
_cell_angle_alpha 90.000000
_cell_angle_beta 152.053812
_cell_angle_gamma 90.000000
_cell_volume 2525.792581
_symmetry_space_group_name_H-M "C 2/M"
_symmetry_group_IT_number 12
_symmetry_cell_setting 'monoclinic'
loop_
_space_group_symop_operation_xyz
x,y,z
-x,y,-z
-x,-y,-z
x,-y,z
1/2+x,1/2+y,z
1/2-x,1/2+y,-z
1/2-x,1/2-y,-z
1/2+x,1/2-y,z
loop_
_atom_site_type_symbol
_atom_site_label
_atom_site_fract_x
_atom_site_fract_y
_atom_site_fract_z
Si Si1 0.267120 0.186609 0.366423
Si Si2 0.300479 0.857510 0.777747
Si Si3 0.275770 0.672254 0.368175
Si Si4 0.341292 0.930298 0.001096
Si Si5 0.212121 0.857513 0.232601
Si Si6 0.695305 0.248416 0.915564
O O1 0.500000 0.176574 0.500000
O O2 0.294914 0.256996 0.363453
O O3 0.331439 0.140084 0.339698
O O4 0.947229 0.173497 0.275064
O O5 0.166218 0.866106 0.666736
O O6 0.554261 0.813205 0.851916
O O7 0.465667 0.903766 0.877850
O O8 0.500000 0.660688 0.500000
O O9 0.964248 0.656382 0.281012
O O10 0.018340 0.903729 0.875908
O O11 0.325478 0.000000 0.001666
O O12 0.500000 0.916459 0.000000
O O13 0.021049 0.800153 0.174314
O O14 0.750000 0.250000 0.000000
O O15 0.000000 0.258529 0.000000
#
# Coordination Sequence:
#
# PCOD9219905 Si02
#       6
#     8   8   8   8   8   8
#     4  11  21  36  59  91 127 165 201 236 287 358
#     4  12  22  37  61  89 124 162 197 242 301 362
#     4  11  23  37  57  93 134 163 190 236 296 363
#     4  11  25  43  65  89 114 152 204 263 306 344
#     4  12  21  37  60  87 126 159 196 243 300 357
#     4  12  21  31  53  89 125 155 188 236 300 367
#
# _framework density 19.003935999999999
#
# number of rings (size 3 to 8) (size 9 to 14) (size 15 to 20)
#    0.000    0.500    6.667    3.500    0.000    2.667 
#    0.000    1.667    0.000    6.000    0.000    0.000 
#    0.000    0.000    0.000    0.000    0.000    0.000 
#
# Total GULP energy -133747.885303 kJ/mol
# GULP energy per Si atom -5572.828554 kJ/mol
# Density = 1.896068 g / cm^3
# Si number density = 19.003936 Si / 1000 Ang^3
#
#
#
# Elastic Constant Matrix: (Units=GPa)
#
#
# Indices 1 2 3 4 5 6 
#
# 1 104.3520 16.5413 26.9005 0.0014 -14.2891 -0.0020
# 2 16.5413 67.3510 40.5015 0.0028 -8.4589 -0.0005
# 3 26.9005 40.5015 102.4931 0.0002 -23.4861 -0.0051
# 4 0.0014 0.0028 0.0002 8.5284 0.0005 -1.2625
# 5 -14.2891 -8.4589 -23.4861 0.0005 47.8551 -0.0022
# 6 -0.0020 -0.0005 -0.0051 -1.2625 -0.0022 16.7561
#
#
#
# Elastic Compliance Matrix: (Units=1/GPa)
#
#
# Indices 1 2 3 4 5 6 
#
# 1 0.010524 -0.001244 -0.001804 -0.000001 0.002037 0.000001
# 2 -0.001244 0.019629 -0.007572 -0.000006 -0.000618 -0.000002
# 3 -0.001804 -0.007572 0.014413 0.000003 0.005197 0.000005
# 4 -0.000001 -0.000006 0.000003 0.118578 -0.000001 0.008935
# 5 0.002037 -0.000618 0.005197 -0.000001 0.023946 0.000005
# 6 0.000001 -0.000002 0.000005 0.008935 0.000005 0.060353
#
#
# Mechanical properties :
#
#
# Convention : Reuss Voigt Hill
#
# Bulk Modulus (GPa) = 42.86895 49.12028 45.99462
# Shear Modulus (GPa) = 18.08598 27.31144 22.69871
#
# Velocity S-wave (km/s) = 3.08830 3.79508 3.45979
# Velocity P-wave (km/s) = 5.94338 6.71618 6.34156
#
# Compressibility (1/GPa) = 0.02332690
#
# Stress axis : x y z
#
# Youngs Moduli (GPa) = 95.02003 50.94572 69.38201
#
# Poissons Ratio (x) = 0.06339 0.12514
# Poissons Ratio (y) = 0.11822 0.52533
# Poissons Ratio (z) = 0.17139 0.38574
#
# Static dielectric constant tensor:
#      x y z
#    x 1.735770 0.000000 -0.111840 
#    y 0.000000 1.632650 0.000000 
#    z -0.111840 0.000000 1.829630 
# 
# From -- ./inp_files/302792.got.cif
#   From: 2010.05.17/outbox.cif.g08.bks.cpg/sg12_152_cif.got.tgz:302792.got - 2010.06.03 13:09:07.
