data_PCOD9219226
_publ_section_title
;
Structure prediction by ZEFSAII (Michael W. Deem and Ramdas Pophale) SiO2 
 PCOD9219226
Probable space group: C 2/M
;
_chemical_formula_sum "Si O2"
_cell_formula_units_Z 52
_cell_length_a 12.795804
_cell_length_b 23.781526
_cell_length_c 12.283606
_cell_angle_alpha 90.000000
_cell_angle_beta 47.551040
_cell_angle_gamma 90.000000
_cell_volume 2758.152343
_symmetry_space_group_name_H-M "C 2/M"
_symmetry_group_IT_number 12
_symmetry_cell_setting 'monoclinic'
loop_
_space_group_symop_operation_xyz
x,y,z
-x,y,-z
-x,-y,-z
x,-y,z
1/2+x,1/2+y,z
1/2-x,1/2+y,-z
1/2-x,1/2-y,-z
1/2+x,1/2-y,z
loop_
_atom_site_type_symbol
_atom_site_label
_atom_site_fract_x
_atom_site_fract_y
_atom_site_fract_z
Si Si1 0.963797 0.784439 0.912998
Si Si2 0.727360 0.000000 0.773623
Si Si3 0.273934 0.178615 0.050760
Si Si4 0.000000 0.331407 0.500000
Si Si5 0.538180 0.884914 0.241793
Si Si6 0.907015 0.500000 0.898845
Si Si7 0.738040 0.877635 0.715936
Si Si8 0.262084 0.741762 0.620507
O O1 0.890834 0.817372 0.865103
O O2 0.103690 0.752703 0.775295
O O3 0.844563 0.738268 0.028136
O O4 0.000000 0.816163 0.000000
O O5 0.796743 0.058651 0.684237
O O6 0.566368 0.000000 0.838183
O O7 0.700735 0.000000 0.923059
O O8 0.303883 0.137900 0.130478
O O9 0.352698 0.158691 0.887133
O O10 0.006098 0.369177 0.387742
O O11 0.865566 0.289839 0.591895
O O12 0.603150 0.945505 0.169616
O O13 0.396058 0.880815 0.269862
O O14 0.813853 0.820635 0.619981
O O15 0.250000 0.750000 0.500000
#
# Coordination Sequence:
#
# PCOD9219226 Si02
#       8
#     8   4   8   4   8   4   8   8
#     4  11  21  34  53  82 118 153 193 230 296 359
#     4   9  18  32  56  89 114 146 195 257 298 332
#     4  11  20  32  59  87 112 151 189 245 299 345
#     4  12  26  39  56  83 124 166 200 226 300 372
#     4  11  20  37  55  87 123 153 193 249 289 353
#     4   9  18  31  58  86 116 151 193 250 304 328
#     4  11  20  35  58  86 118 149 192 250 294 337
#     4  12  24  39  55  84 122 161 193 243 297 357
#
# _framework density 18.853202
#
# number of rings (size 3 to 8) (size 9 to 14) (size 15 to 20)
#    0.000    1.077    6.154    1.385    4.308    0.308 
#    0.000    0.000    0.000    0.462    0.000   11.846 
#    0.000    0.000    0.000    0.000    0.000    0.000 
#
# Total GULP energy -144965.693038 kJ/mol
# GULP energy per Si atom -5575.603578 kJ/mol
# Density = 1.881029 g / cm^3
# Si number density = 18.853202 Si / 1000 Ang^3
#
#
#
# Elastic Constant Matrix: (Units=GPa)
#
#
# Indices 1 2 3 4 5 6 
#
# 1 98.3298 34.9108 42.8358 0.0000 18.4777 0.0000
# 2 34.9108 111.4170 41.7393 0.0000 20.9430 0.0000
# 3 42.8358 41.7393 61.3492 0.0000 28.1920 0.0000
# 4 0.0000 0.0000 0.0000 24.2100 0.0000 6.5152
# 5 18.4777 20.9430 28.1920 0.0000 28.9997 0.0000
# 6 0.0000 0.0000 0.0000 6.5152 0.0000 12.4223
#
#
#
# Elastic Compliance Matrix: (Units=1/GPa)
#
#
# Indices 1 2 3 4 5 6 
#
# 1 0.014725 -0.001049 -0.010130 0.000000 0.001223 0.000000
# 2 -0.001049 0.012148 -0.006883 0.000000 -0.001413 0.000000
# 3 -0.010130 -0.006883 0.041220 0.000000 -0.028647 0.000000
# 4 0.000000 0.000000 0.000000 0.048093 0.000000 -0.025224
# 5 0.001223 -0.001413 -0.028647 0.000000 0.062574 0.000000
# 6 0.000000 0.000000 0.000000 -0.025224 0.000000 0.093730
#
#
# Mechanical properties :
#
#
# Convention : Reuss Voigt Hill
#
# Bulk Modulus (GPa) = 31.27959 56.67419 43.97689
# Shear Modulus (GPa) = 15.66064 23.23375 19.44720
#
# Velocity S-wave (km/s) = 2.88525 3.51429 3.21519
# Velocity P-wave (km/s) = 5.26561 6.82591 6.09589
#
# Compressibility (1/GPa) = 0.03196973
#
# Stress axis : x y z
#
# Youngs Moduli (GPa) = 67.90959 82.31644 24.25984
#
# Poissons Ratio (x) = 0.08634 0.24575
# Poissons Ratio (y) = 0.07123 0.16699
# Poissons Ratio (z) = 0.68792 0.56661
#
# Static dielectric constant tensor:
#      x y z
#    x 1.690950 0.000000 0.008760 
#    y 0.000000 1.703670 0.000000 
#    z 0.008760 0.000000 1.654730 
# 
# From -- ./inp_files/135904.got.cif
#   From: 2010.05.17/outbox.cif.g08.bks.cpg/sg12_68_cif.got.tgz:135904.got - 2010.06.03 13:09:07.
