data_PCOD9219275
_publ_section_title
;
Structure prediction by ZEFSAII (Michael W. Deem and Ramdas Pophale) SiO2 
 PCOD9219275
Probable space group: C 2/M
;
_chemical_formula_sum "Si O2"
_cell_formula_units_Z 56
_cell_length_a 14.955110
_cell_length_b 15.904237
_cell_length_c 17.377140
_cell_angle_alpha 90.000000
_cell_angle_beta 54.183184
_cell_angle_gamma 90.000000
_cell_volume 3351.535479
_symmetry_space_group_name_H-M "C 2/M"
_symmetry_group_IT_number 12
_symmetry_cell_setting 'monoclinic'
loop_
_space_group_symop_operation_xyz
x,y,z
-x,y,-z
-x,-y,-z
x,-y,z
1/2+x,1/2+y,z
1/2-x,1/2+y,-z
1/2-x,1/2-y,-z
1/2+x,1/2-y,z
loop_
_atom_site_type_symbol
_atom_site_label
_atom_site_fract_x
_atom_site_fract_y
_atom_site_fract_z
Si Si1 0.020673 0.899626 0.111544
Si Si2 0.721596 0.766768 0.399632
Si Si3 0.535931 0.328956 0.694847
Si Si4 0.120961 0.314974 0.283863
Si Si5 0.318665 0.601622 0.098985
Si Si6 0.570034 0.093347 0.543945
Si Si7 0.606558 0.594158 0.501858
O O1 0.005399 0.869413 0.205460
O O2 0.912857 0.878469 0.115025
O O3 0.025941 0.000000 0.109238
O O4 0.128227 0.871642 0.009261
O O5 0.851353 0.779277 0.342896
O O6 0.680668 0.793483 0.334957
O O7 0.659239 0.833196 0.487451
O O8 0.682732 0.672853 0.439703
O O9 0.440981 0.268015 0.712375
O O10 0.567512 0.391383 0.609359
O O11 0.208820 0.351772 0.180266
O O12 0.022455 0.381441 0.348112
O O13 0.302787 0.500000 0.107422
O O14 0.500000 0.091517 0.500000
O O15 0.617021 0.000000 0.532437
O O16 0.500000 0.599978 0.500000
O O17 0.653570 0.500000 0.469401
#
# Coordination Sequence:
#
# PCOD9219275 Si02
#       7
#     8   8   8   8   8   8   8
#     4   9  19  35  57  85 109 137 181 225 279 339
#     4  11  21  39  52  77 113 148 186 232 269 319
#     4  12  22  35  57  82 109 145 189 227 271 326
#     4  11  20  34  55  78 115 142 184 224 272 331
#     4   9  18  36  58  81 112 141 171 227 288 334
#     4   9  18  31  50  75 108 143 176 217 274 332
#     4  11  22  38  55  75 110 153 191 227 268 314
#
# _framework density 16.708760000000002
#
# number of rings (size 3 to 8) (size 9 to 14) (size 15 to 20)
#    0.000    1.714    4.286    2.571    0.000    2.286 
#    0.000    0.714    0.000    0.000    0.000    0.000 
#    0.000    3.429    0.000    0.000    0.000    0.000 
#
# Total GULP energy -156196.538418 kJ/mol
# GULP energy per Si atom -5578.447801 kJ/mol
# Density = 1.667073 g / cm^3
# Si number density = 16.708760 Si / 1000 Ang^3
#
#
#
# Elastic Constant Matrix: (Units=GPa)
#
#
# Indices 1 2 3 4 5 6 
#
# 1 66.2011 12.4581 29.9104 0.0000 -0.8805 0.0000
# 2 12.4581 84.0106 32.8477 0.0000 -9.8883 0.0000
# 3 29.9104 32.8477 119.7830 0.0000 -7.5701 0.0000
# 4 0.0000 0.0000 0.0000 27.1666 0.0000 5.7520
# 5 -0.8805 -9.8883 -7.5701 0.0000 29.9409 0.0000
# 6 0.0000 0.0000 0.0000 5.7520 0.0000 -3.7846
#
#
#
# Elastic Compliance Matrix: (Units=1/GPa)
#
#
# Indices 1 2 3 4 5 6 
#
# 1 0.017118 -0.001062 -0.004038 0.000000 -0.000868 0.000000
# 2 -0.001062 0.013777 -0.003280 0.000000 0.003690 0.000000
# 3 -0.004038 -0.003280 0.010346 0.000000 0.001414 0.000000
# 4 0.000000 0.000000 0.000000 0.027848 0.000000 0.042325
# 5 -0.000868 0.003690 0.001414 0.000000 0.034950 0.000000
# 6 0.000000 0.000000 0.000000 0.042325 0.000000 -0.199900
#
#
# Mechanical properties :
#
#
# Convention : Reuss Voigt Hill
#
# Bulk Modulus (GPa) = 40.84702 46.71412 43.78057
# Shear Modulus (GPa) = -70.48108 23.64982 -23.41563
#
# Velocity S-wave (km/s) = -6.50182 3.76628 -3.74759
# Velocity P-wave (km/s) = 5.64494 6.85067 2.74466
#
# Compressibility (1/GPa) = 0.02448159
#
# Stress axis : x y z
#
# Youngs Moduli (GPa) = 58.41711 72.58274 96.65981
#
# Poissons Ratio (x) = 0.07707 0.39033
# Poissons Ratio (y) = 0.06203 0.31703
# Poissons Ratio (z) = 0.23590 0.23806
#
# Static dielectric constant tensor:
#      x y z
#    x 1.573020 0.000000 0.013150 
#    y 0.000000 1.563340 0.000000 
#    z 0.013150 0.000000 1.567350 
# 
# From -- ./inp_files/270204.got.cif
#   From: 2010.05.17/outbox.cif.g08.bks.cpg/sg12_136_cif.got.tgz:270204.got - 2010.06.03 13:09:07.
