data_PCOD9219743
_publ_section_title
;
Structure prediction by ZEFSAII (Michael W. Deem and Ramdas Pophale) SiO2 
 PCOD9219743
Probable space group: C 2/M
;
_chemical_formula_sum "Si O2"
_cell_formula_units_Z 64
_cell_length_a 24.988037
_cell_length_b 8.955843
_cell_length_c 24.323200
_cell_angle_alpha 90.000000
_cell_angle_beta 46.559002
_cell_angle_gamma 90.000000
_cell_volume 3952.259894
_symmetry_space_group_name_H-M "C 2/M"
_symmetry_group_IT_number 12
_symmetry_cell_setting 'monoclinic'
loop_
_space_group_symop_operation_xyz
x,y,z
-x,y,-z
-x,-y,-z
x,-y,z
1/2+x,1/2+y,z
1/2-x,1/2+y,-z
1/2-x,1/2-y,-z
1/2+x,1/2-y,z
loop_
_atom_site_type_symbol
_atom_site_label
_atom_site_fract_x
_atom_site_fract_y
_atom_site_fract_z
Si Si1 0.144377 0.322709 0.313861
Si Si2 0.688069 0.178366 0.004381
Si Si3 0.206374 0.821217 0.163316
Si Si4 0.583725 0.321425 0.157427
Si Si5 0.568837 0.679132 0.677970
Si Si6 0.472627 0.822065 0.409545
Si Si7 0.646410 0.677493 0.429711
Si Si8 0.776948 0.677857 0.423930
O O1 0.152952 0.500000 0.314389
O O2 0.193254 0.262981 0.229116
O O3 0.160754 0.240150 0.359130
O O4 0.058808 0.292579 0.358929
O O5 0.717532 0.213658 0.922483
O O6 0.689466 0.000000 0.009255
O O7 0.750000 0.250000 0.000000
O O8 0.612502 0.242580 0.081943
O O9 0.139752 0.782275 0.167938
O O10 0.202711 0.000000 0.174631
O O11 0.589298 0.500000 0.146320
O O12 0.501562 0.283556 0.234553
O O13 0.575352 0.500000 0.670102
O O14 0.553046 0.742727 0.628294
O O15 0.644411 0.750489 0.645469
O O16 0.423747 0.758778 0.493706
O O17 0.461875 0.000000 0.412363
O O18 0.633317 0.500000 0.437303
O O19 0.715660 0.705911 0.420884
O O20 0.784325 0.500000 0.425880
O O21 0.750000 0.750000 0.500000
#
# Coordination Sequence:
#
# PCOD9219743 Si02
#       8
#     8   8   8   8   8   8   8   8
#     4  11  23  35  51  77 105 136 174 215 257 303
#     4   9  17  28  45  70 101 137 171 206 250 302
#     4   9  17  31  48  70 103 139 170 204 248 305
#     4   9  18  31  48  73 104 136 171 209 251 306
#     4  11  21  34  54  78 104 138 175 212 260 309
#     4  11  22  35  52  76 105 135 172 216 258 305
#     4  11  24  39  55  73  98 137 177 214 261 311
#     4  11  23  38  56  77 100 132 174 219 264 308
#
# _framework density 16.193268
#
# number of rings (size 3 to 8) (size 9 to 14) (size 15 to 20)
#    0.000    1.750    2.500    3.375    0.000    8.000 
#    0.000    0.000    0.000    0.000    0.000    0.875 
#    0.000    7.000    0.000    0.000    0.000    0.000 
#
# Total GULP energy -178618.703889 kJ/mol
# GULP energy per Si atom -5581.834497 kJ/mol
# Density = 1.615641 g / cm^3
# Si number density = 16.193268 Si / 1000 Ang^3
#
#
#
# Elastic Constant Matrix: (Units=GPa)
#
#
# Indices 1 2 3 4 5 6 
#
# 1 36.3978 32.0938 34.4981 0.0000 6.3347 0.0000
# 2 32.0938 51.3378 52.4925 -0.0003 5.5781 0.0011
# 3 34.4981 52.4925 149.2781 -0.0001 2.6079 0.0000
# 4 0.0000 -0.0003 -0.0001 33.6071 0.0001 -0.5242
# 5 6.3347 5.5781 2.6079 0.0001 17.6487 -0.0001
# 6 0.0000 0.0011 0.0000 -0.5242 -0.0001 22.2999
#
#
#
# Elastic Compliance Matrix: (Units=1/GPa)
#
#
# Indices 1 2 3 4 5 6 
#
# 1 0.063260 -0.036873 -0.001464 0.000000 -0.010836 0.000002
# 2 -0.036873 0.053092 -0.010112 0.000000 -0.002052 -0.000002
# 3 -0.001464 -0.010112 0.010555 0.000000 0.002162 0.000001
# 4 0.000000 0.000000 0.000000 0.029767 0.000000 0.000700
# 5 -0.010836 -0.002052 0.002162 0.000000 0.060880 0.000000
# 6 0.000002 -0.000002 0.000001 0.000700 0.000000 0.044860
#
#
# Mechanical properties :
#
#
# Convention : Reuss Voigt Hill
#
# Bulk Modulus (GPa) = 33.32249 52.79804 43.06027
# Shear Modulus (GPa) = 13.53855 22.57309 18.05582
#
# Velocity S-wave (km/s) = 2.89461 3.73765 3.34281
# Velocity P-wave (km/s) = 5.63865 7.16257 6.44580
#
# Compressibility (1/GPa) = 0.03000976
#
# Stress axis : x y z
#
# Youngs Moduli (GPa) = 15.80773 18.83506 94.73758
#
# Poissons Ratio (x) = 0.69450 0.13871
# Poissons Ratio (y) = 0.58287 0.95803
# Poissons Ratio (z) = 0.02314 0.19047
#
# Static dielectric constant tensor:
#      x y z
#    x 1.519440 0.000000 -0.012950 
#    y 0.000000 1.538710 0.000000 
#    z -0.012950 0.000000 1.554490 
# 
# From -- ./inp_files/324086.got.cif
#   From: 2010.05.17/outbox.cif.g08.bks.cpg/sg12_163_cif.got.tgz:324086.got - 2010.06.03 13:09:07.
