data_PCOD9219430
_publ_section_title
;
Structure prediction by ZEFSAII (Michael W. Deem and Ramdas Pophale) SiO2 
 PCOD9219430
Probable space group: C 2/M
;
_chemical_formula_sum "Si O2"
_cell_formula_units_Z 48
_cell_length_a 13.831277
_cell_length_b 20.485939
_cell_length_c 11.452317
_cell_angle_alpha 90.000000
_cell_angle_beta 42.874493
_cell_angle_gamma 90.000000
_cell_volume 2207.864563
_symmetry_space_group_name_H-M "C 2/M"
_symmetry_group_IT_number 12
_symmetry_cell_setting 'monoclinic'
loop_
_space_group_symop_operation_xyz
x,y,z
-x,y,-z
-x,-y,-z
x,-y,z
1/2+x,1/2+y,z
1/2-x,1/2+y,-z
1/2-x,1/2-y,-z
1/2+x,1/2-y,z
loop_
_atom_site_type_symbol
_atom_site_label
_atom_site_fract_x
_atom_site_fract_y
_atom_site_fract_z
Si Si1 0.930211 0.818292 0.860750
Si Si2 0.287858 0.859491 0.107797
Si Si3 0.072214 0.683348 0.776815
Si Si4 0.170265 0.000000 0.497526
Si Si5 0.831725 0.925792 0.121537
Si Si6 0.762590 0.124105 0.432879
Si Si7 0.646621 0.500000 0.241292
O O1 0.824513 0.808181 0.846343
O O2 0.996022 0.753531 0.859418
O O3 0.074674 0.853849 0.694093
O O4 0.838220 0.865999 0.025069
O O5 0.326222 0.836447 0.205220
O O6 0.219795 0.930839 0.153769
O O7 0.435893 0.862814 0.907737
O O8 0.154670 0.676895 0.581466
O O9 0.253352 0.062006 0.469833
O O10 0.146399 0.000000 0.382012
O O11 0.006513 0.000000 0.687250
O O12 0.752834 0.900220 0.308146
O O13 0.784288 0.000000 0.130495
O O14 0.000000 0.932078 0.000000
#
# Coordination Sequence:
#
# PCOD9219430 Si02
#       7
#     8   8   8   4   8   8   4
#     4  11  24  44  69  96 134 179 230 278 331 413
#     4  11  25  42  71  95 136 182 222 279 341 405
#     4  11  26  44  62 100 140 178 224 273 348 411
#     4  11  20  37  66 102 131 167 233 289 329 391
#     4   9  20  36  67  99 125 171 226 282 332 386
#     4  11  21  40  67  98 133 175 225 285 334 399
#     4  11  22  40  66 104 131 169 235 282 337 399
#
# _framework density 21.740463999999999
#
# number of rings (size 3 to 8) (size 9 to 14) (size 15 to 20)
#    0.000    1.333    4.167    1.000    9.333    2.667 
#    0.000    0.833    0.000    1.000    0.000    0.000 
#    0.000    0.000    0.000    0.000    0.000    0.000 
#
# Total GULP energy -133843.698721 kJ/mol
# GULP energy per Si atom -5576.820780 kJ/mol
# Density = 2.169098 g / cm^3
# Si number density = 21.740464 Si / 1000 Ang^3
#
#
#
# Elastic Constant Matrix: (Units=GPa)
#
#
# Indices 1 2 3 4 5 6 
#
# 1 60.9436 44.2322 16.2271 0.0000 0.4806 -0.0002
# 2 44.2322 103.5244 31.7120 0.0000 9.0423 0.0001
# 3 16.2271 31.7120 105.3184 -0.0001 20.5105 -0.0001
# 4 0.0000 0.0000 -0.0001 20.5583 0.0001 2.4273
# 5 0.4806 9.0423 20.5105 0.0001 17.7537 -0.0001
# 6 -0.0002 0.0001 -0.0001 2.4273 -0.0001 26.3364
#
#
#
# Elastic Compliance Matrix: (Units=1/GPa)
#
#
# Indices 1 2 3 4 5 6 
#
# 1 0.024469 -0.010456 -0.001974 0.000000 0.006944 0.000000
# 2 -0.010456 0.015178 -0.001947 0.000000 -0.005198 0.000000
# 3 -0.001974 -0.001947 0.013138 0.000000 -0.014133 0.000000
# 4 0.000000 0.000000 0.000000 0.049177 0.000000 -0.004533
# 5 0.006944 -0.005198 -0.014133 0.000000 0.075113 0.000000
# 6 0.000000 0.000000 0.000000 -0.004533 0.000000 0.038388
#
#
# Mechanical properties :
#
#
# Convention : Reuss Voigt Hill
#
# Bulk Modulus (GPa) = 41.61449 50.45878 46.03663
# Shear Modulus (GPa) = 19.82350 24.77068 22.29709
#
# Velocity S-wave (km/s) = 3.02292 3.37913 3.20598
# Velocity P-wave (km/s) = 5.60063 6.20361 5.90982
#
# Compressibility (1/GPa) = 0.02403009
#
# Stress axis : x y z
#
# Youngs Moduli (GPa) = 40.86884 65.88692 76.11739
#
# Poissons Ratio (x) = 0.68894 0.15024
# Poissons Ratio (y) = 0.42734 0.14817
# Poissons Ratio (z) = 0.08067 0.12826
#
# Static dielectric constant tensor:
#      x y z
#    x 1.776720 0.000000 0.060020 
#    y 0.000000 1.887510 0.000000 
#    z 0.060020 0.000000 1.876010 
# 
# From -- ./inp_files/147956.got.cif
#   From: 2010.05.17/outbox.cif.g08.bks.cpg/sg12_74_cif.got.tgz:147956.got - 2010.06.03 13:09:07.
