data_PCOD9219191
_publ_section_title
;
Structure prediction by ZEFSAII (Michael W. Deem and Ramdas Pophale) SiO2 
 PCOD9219191
Probable space group: C 2/M
;
_chemical_formula_sum "Si O2"
_cell_formula_units_Z 40
_cell_length_a 8.344175
_cell_length_b 18.286072
_cell_length_c 13.620367
_cell_angle_alpha 90.000000
_cell_angle_beta 109.016212
_cell_angle_gamma 90.000000
_cell_volume 1964.809152
_symmetry_space_group_name_H-M "C 2/M"
_symmetry_group_IT_number 12
_symmetry_cell_setting 'monoclinic'
loop_
_space_group_symop_operation_xyz
x,y,z
-x,y,-z
-x,-y,-z
x,-y,z
1/2+x,1/2+y,z
1/2-x,1/2+y,-z
1/2-x,1/2-y,-z
1/2+x,1/2-y,z
loop_
_atom_site_type_symbol
_atom_site_label
_atom_site_fract_x
_atom_site_fract_y
_atom_site_fract_z
Si Si1 0.693944 0.319008 0.708393
Si Si2 0.987419 0.284114 0.110458
Si Si3 0.406654 0.795281 0.575103
Si Si4 0.772404 0.420718 0.104443
Si Si5 0.916284 0.117606 0.124690
O O1 0.832736 0.276114 0.800928
O O2 0.541806 0.263446 0.648039
O O3 0.808287 0.342161 0.637816
O O4 0.627979 0.381887 0.768994
O O5 0.888612 0.350194 0.142101
O O6 0.909752 0.203669 0.095366
O O7 0.000000 0.306130 0.000000
O O8 0.500000 0.831320 0.500000
O O9 0.250000 0.750000 0.500000
O O10 0.850953 0.500000 0.140103
O O11 0.602680 0.411031 0.135377
O O12 0.709548 0.419040 0.978201
#
# Coordination Sequence:
#
# PCOD9219191 Si02
#       5
#     8   8   8   8   8
#     4  11  20  31  55  83 115 159 195 237 289 379
#     4  12  21  34  56  88 119 168 205 240 285 353
#     4   9  20  35  52  81 124 152 178 250 333 357
#     4  11  24  38  52  79 131 174 205 245 287 333
#     4  11  20  34  57  81 112 166 214 237 285 345
#
# _framework density 20.358211000000001
#
# number of rings (size 3 to 8) (size 9 to 14) (size 15 to 20)
#    0.000    1.200    6.000    3.000    0.000    0.400 
#    0.000    0.000    0.000    0.000    0.000    0.000 
#    0.000  116.800    0.000    0.000    0.000    0.000 
#
# Total GULP energy -111484.714230 kJ/mol
# GULP energy per Si atom -5574.235712 kJ/mol
# Density = 2.031187 g / cm^3
# Si number density = 20.358211 Si / 1000 Ang^3
#
#
#
# Elastic Constant Matrix: (Units=GPa)
#
#
# Indices 1 2 3 4 5 6 
#
# 1 98.2839 26.0541 52.2711 0.0000 -12.6774 0.0000
# 2 26.0541 100.3235 1.5024 0.0000 2.1153 0.0000
# 3 52.2711 1.5024 96.5649 0.0000 -22.3688 0.0000
# 4 0.0000 0.0000 0.0000 6.9751 0.0000 0.0221
# 5 -12.6774 2.1153 -22.3688 0.0000 64.1333 0.0000
# 6 0.0000 0.0000 0.0000 0.0221 0.0000 10.7796
#
#
#
# Elastic Compliance Matrix: (Units=1/GPa)
#
#
# Indices 1 2 3 4 5 6 
#
# 1 0.015720 -0.003964 -0.008374 0.000000 0.000317 0.000000
# 2 -0.003964 0.010980 0.001860 0.000000 -0.000497 0.000000
# 3 -0.008374 0.001860 0.015733 0.000000 0.003771 0.000000
# 4 0.000000 0.000000 0.000000 0.143367 0.000000 -0.000294
# 5 0.000317 -0.000497 0.003771 0.000000 0.016987 0.000000
# 6 0.000000 0.000000 0.000000 -0.000294 0.000000 0.092768
#
#
# Mechanical properties :
#
#
# Convention : Reuss Voigt Hill
#
# Bulk Modulus (GPa) = 46.56249 50.53640 48.54945
# Shear Modulus (GPa) = 15.44782 30.73394 23.09088
#
# Velocity S-wave (km/s) = 2.75762 3.88965 3.37149
# Velocity P-wave (km/s) = 5.74983 6.71193 6.24942
#
# Compressibility (1/GPa) = 0.02147651
#
# Stress axis : x y z
#
# Youngs Moduli (GPa) = 63.61329 91.07650 63.55958
#
# Poissons Ratio (x) = 0.36101 0.53226
# Poissons Ratio (y) = 0.25215 -0.11820
# Poissons Ratio (z) = 0.53271 -0.16937
#
# Static dielectric constant tensor:
#      x y z
#    x 1.823120 0.000000 -0.071350 
#    y 0.000000 1.674860 0.000000 
#    z -0.071350 0.000000 1.821320 
# 
# From -- ./inp_files/195092.got.cif
#   From: 2010.05.17/outbox.cif.g08.bks.cpg/sg12_98_cif.got.tgz:195092.got - 2010.06.03 13:09:07.
