data_PCOD9219877
_publ_section_title
;
Structure prediction by ZEFSAII (Michael W. Deem and Ramdas Pophale) SiO2 
 PCOD9219877
Probable space group: C 2/M
;
_chemical_formula_sum "Si O2"
_cell_formula_units_Z 40
_cell_length_a 16.667241
_cell_length_b 32.651560
_cell_length_c 10.013762
_cell_angle_alpha 90.000000
_cell_angle_beta 153.684337
_cell_angle_gamma 90.000000
_cell_volume 2415.897833
_symmetry_space_group_name_H-M "C 2/M"
_symmetry_group_IT_number 12
_symmetry_cell_setting 'monoclinic'
loop_
_space_group_symop_operation_xyz
x,y,z
-x,y,-z
-x,-y,-z
x,-y,z
1/2+x,1/2+y,z
1/2-x,1/2+y,-z
1/2-x,1/2-y,-z
1/2+x,1/2-y,z
loop_
_atom_site_type_symbol
_atom_site_label
_atom_site_fract_x
_atom_site_fract_y
_atom_site_fract_z
Si Si1 0.496288 0.436815 0.655480
Si Si2 0.295203 0.775369 0.699638
Si Si3 0.313591 0.000000 0.135405
Si Si4 0.497339 0.657212 0.657844
Si Si5 0.682835 0.000000 0.185376
Si Si6 0.288555 0.781498 0.176771
O O1 0.500000 0.436715 0.500000
O O2 0.485091 0.389877 0.683071
O O3 0.314056 0.461757 0.417149
O O4 0.679768 0.461359 0.967739
O O5 0.250000 0.750000 0.500000
O O6 0.161155 0.812989 0.527155
O O7 0.275485 0.742387 0.788149
O O8 0.500000 0.790621 0.000000
O O9 0.500000 0.000000 0.500000
O O10 0.348062 0.000000 0.023911
O O11 0.500000 0.659122 0.500000
O O12 0.678750 0.677656 0.984263
O O13 0.500000 0.000000 0.000000
O O14 0.500000 0.789416 0.500000
O O15 0.250000 0.750000 0.000000
#
# Coordination Sequence:
#
# PCOD9219877 Si02
#       6
#     8   8   4   8   4   8
#     4   8  18  35  56  84 111 144 179 216 263 327
#     4  12  22  34  53  75 106 142 182 230 279 310
#     4   9  17  35  64  86 110 139 177 217 268 320
#     4  11  21  36  57  79 108 144 190 227 260 320
#     4   9  17  35  64  86 110 143 173 211 270 336
#     4  12  20  36  55  75  98 142 194 224 261 319
#
# _framework density 16.556991
#
# number of rings (size 3 to 8) (size 9 to 14) (size 15 to 20)
#    0.000    1.600    6.000    1.200    0.000    1.600 
#    0.000    2.000    8.800    0.000    0.000    0.000 
#    0.000    0.000    0.000    0.000    0.000    0.000 
#
# Total GULP energy -111490.945027 kJ/mol
# GULP energy per Si atom -5574.547251 kJ/mol
# Density = 1.651931 g / cm^3
# Si number density = 16.556991 Si / 1000 Ang^3
#
#
#
# Elastic Constant Matrix: (Units=GPa)
#
#
# Indices 1 2 3 4 5 6 
#
# 1 96.1596 49.3326 50.8731 0.0000 9.4799 0.0000
# 2 49.3326 164.0063 76.0089 0.0000 12.7476 0.0000
# 3 50.8731 76.0089 158.0813 0.0000 24.5839 0.0001
# 4 0.0000 0.0000 0.0000 17.7405 0.0000 -1.7491
# 5 9.4799 12.7476 24.5839 0.0000 39.3206 0.0000
# 6 0.0000 0.0000 0.0001 -1.7491 0.0000 9.2487
#
#
#
# Elastic Compliance Matrix: (Units=1/GPa)
#
#
# Indices 1 2 3 4 5 6 
#
# 1 0.013355 -0.002602 -0.002965 0.000000 -0.000522 0.000000
# 2 -0.002602 0.008354 -0.003163 0.000000 -0.000103 0.000000
# 3 -0.002965 -0.003163 0.009449 0.000000 -0.004167 0.000000
# 4 0.000000 0.000000 0.000000 0.057439 0.000000 0.010863
# 5 -0.000522 -0.000103 -0.004167 0.000000 0.028197 0.000000
# 6 0.000000 0.000000 0.000000 0.010863 0.000000 0.110178
#
#
# Mechanical properties :
#
#
# Convention : Reuss Voigt Hill
#
# Bulk Modulus (GPa) = 73.01273 85.63070 79.32172
# Shear Modulus (GPa) = 20.08034 29.39744 24.73889
#
# Velocity S-wave (km/s) = 3.48631 4.21828 3.86964
# Velocity P-wave (km/s) = 7.77170 8.69231 8.24486
#
# Compressibility (1/GPa) = 0.01369624
#
# Stress axis : x y z
#
# Youngs Moduli (GPa) = 74.88026 119.70110 105.82825
#
# Poissons Ratio (x) = 0.31148 0.31382
# Poissons Ratio (y) = 0.19485 0.33478
# Poissons Ratio (z) = 0.22205 0.37866
#
# Static dielectric constant tensor:
#      x y z
#    x 1.559390 0.000000 0.012570 
#    y 0.000000 1.552230 0.000000 
#    z 0.012570 0.000000 1.556230 
# 
# From -- ./inp_files/68496.got.cif
#   From: 2010.05.17/outbox.cif.g08.bks.cpg/sg12_35_cif.got.tgz:68496.got - 2010.06.03 13:09:07.
