data_PCOD9219104
_publ_section_title
;
Structure prediction by ZEFSAII (Michael W. Deem and Ramdas Pophale) SiO2 
 PCOD9219104
Probable space group: C 2/M
;
_chemical_formula_sum "Si O2"
_cell_formula_units_Z 48
_cell_length_a 12.461701
_cell_length_b 23.020784
_cell_length_c 8.252809
_cell_angle_alpha 90.000000
_cell_angle_beta 110.918864
_cell_angle_gamma 90.000000
_cell_volume 2211.497973
_symmetry_space_group_name_H-M "C 2/M"
_symmetry_group_IT_number 12
_symmetry_cell_setting 'monoclinic'
loop_
_space_group_symop_operation_xyz
x,y,z
-x,y,-z
-x,-y,-z
x,-y,z
1/2+x,1/2+y,z
1/2-x,1/2+y,-z
1/2-x,1/2-y,-z
1/2+x,1/2-y,z
loop_
_atom_site_type_symbol
_atom_site_label
_atom_site_fract_x
_atom_site_fract_y
_atom_site_fract_z
Si Si1 0.411693 0.366353 0.081943
Si Si2 0.167105 0.657540 0.801139
Si Si3 0.472230 0.932526 0.679503
Si Si4 0.236373 0.648020 0.473057
Si Si5 0.059261 0.938151 0.357300
Si Si6 0.385644 0.273906 0.335065
O O1 0.465095 0.427236 0.168031
O O2 0.415036 0.330688 0.248186
O O3 0.500000 0.340772 0.000000
O O4 0.285781 0.363675 0.940456
O O5 0.071361 0.610685 0.796234
O O6 0.177518 0.664730 0.610869
O O7 0.138363 0.724873 0.814839
O O8 0.500000 0.934732 0.500000
O O9 0.353050 0.898492 0.650554
O O10 0.472371 0.000000 0.734809
O O11 0.348545 0.612630 0.587412
O O12 0.278852 0.702166 0.387190
O O13 0.000000 0.939614 0.500000
O O14 0.118940 0.000000 0.361418
O O15 0.500000 0.258997 0.500000
#
# Coordination Sequence:
#
# PCOD9219104 Si02
#       6
#     8   8   8   8   8   8
#     4  12  23  42  60  93 131 161 206 262 325 377
#     4  11  24  38  62  94 126 167 209 254 325 371
#     4   9  20  38  60  88 122 162 210 256 304 375
#     4  11  19  40  65  92 121 163 212 264 305 374
#     4  11  22  40  66  93 121 161 209 262 319 376
#     4  12  22  41  64  92 128 165 213 263 309 382
#
# _framework density 21.704744000000002
#
# number of rings (size 3 to 8) (size 9 to 14) (size 15 to 20)
#    0.000    1.000    5.000    3.000    0.000    3.000 
#    0.000    0.833    0.000    1.000    0.000    0.000 
#    0.000    0.000    0.000    0.000    0.000    0.000 
#
# Total GULP energy -133845.388484 kJ/mol
# GULP energy per Si atom -5576.891187 kJ/mol
# Density = 2.165534 g / cm^3
# Si number density = 21.704744 Si / 1000 Ang^3
#
#
#
# Elastic Constant Matrix: (Units=GPa)
#
#
# Indices 1 2 3 4 5 6 
#
# 1 92.6755 35.0719 30.2539 0.0000 30.8295 0.0000
# 2 35.0719 103.5706 13.0246 0.0000 30.9924 0.0000
# 3 30.2539 13.0246 63.4523 0.0000 23.4933 0.0000
# 4 0.0000 0.0000 0.0000 -16.3546 0.0000 3.9923
# 5 30.8295 30.9924 23.4933 0.0000 41.8212 0.0000
# 6 0.0000 0.0000 0.0000 3.9923 0.0000 23.6748
#
#
#
# Elastic Compliance Matrix: (Units=1/GPa)
#
#
# Indices 1 2 3 4 5 6 
#
# 1 0.015529 -0.002585 -0.004223 0.000000 -0.007160 0.000000
# 2 -0.002585 0.012896 0.001791 0.000000 -0.008657 0.000000
# 3 -0.004223 0.001791 0.021142 0.000000 -0.010091 0.000000
# 4 0.000000 0.000000 0.000000 -0.058728 0.000000 0.009903
# 5 -0.007160 -0.008657 -0.010091 0.000000 0.041273 0.000000
# 6 0.000000 0.000000 0.000000 0.009903 0.000000 0.040569
#
#
# Mechanical properties :
#
#
# Convention : Reuss Voigt Hill
#
# Bulk Modulus (GPa) = 25.29543 46.26659 35.78101
# Shear Modulus (GPa) = 52.14154 21.91814 37.02984
#
# Velocity S-wave (km/s) = 4.90665 3.18123 4.13494
# Velocity P-wave (km/s) = 6.61664 5.90392 6.27042
#
# Compressibility (1/GPa) = 0.03953283
#
# Stress axis : x y z
#
# Youngs Moduli (GPa) = 64.39632 77.54357 47.29981
#
# Poissons Ratio (x) = 0.20045 0.19973
# Poissons Ratio (y) = 0.16646 -0.08470
# Poissons Ratio (z) = 0.27192 -0.13886
#
# Static dielectric constant tensor:
#      x y z
#    x 1.812850 0.000000 -0.031630 
#    y 0.000000 1.868760 0.000000 
#    z -0.031630 0.000000 1.806030 
# 
# From -- ./inp_files/51428.got.cif
#   From: 2010.05.17/outbox.cif.g08.bks.cpg/sg12_26_cif.got.tgz:51428.got - 2010.06.03 13:09:07.
