data_PCOD9219390
_publ_section_title
;
Structure prediction by ZEFSAII (Michael W. Deem and Ramdas Pophale) SiO2 
 PCOD9219390
Probable space group: C 2/M
;
_chemical_formula_sum "Si O2"
_cell_formula_units_Z 64
_cell_length_a 25.515671
_cell_length_b 17.739880
_cell_length_c 24.257886
_cell_angle_alpha 90.000000
_cell_angle_beta 17.590884
_cell_angle_gamma 90.000000
_cell_volume 3318.419451
_symmetry_space_group_name_H-M "C 2/M"
_symmetry_group_IT_number 12
_symmetry_cell_setting 'monoclinic'
loop_
_space_group_symop_operation_xyz
x,y,z
-x,y,-z
-x,-y,-z
x,-y,z
1/2+x,1/2+y,z
1/2-x,1/2+y,-z
1/2-x,1/2-y,-z
1/2+x,1/2-y,z
loop_
_atom_site_type_symbol
_atom_site_label
_atom_site_fract_x
_atom_site_fract_y
_atom_site_fract_z
Si Si1 0.540779 0.410632 0.127376
Si Si2 0.259303 0.160645 0.497414
Si Si3 0.955219 0.645186 0.981261
Si Si4 0.060850 0.588083 0.264527
Si Si5 0.054627 0.179777 0.883342
Si Si6 0.558664 0.663590 0.378583
Si Si7 0.032896 0.336433 0.528825
Si Si8 0.235272 0.911824 0.401289
O O1 0.505284 0.500000 0.161191
O O2 0.401429 0.369745 0.305520
O O3 0.523760 0.374847 0.083814
O O4 0.737176 0.399443 0.950905
O O5 0.250000 0.250000 0.500000
O O6 0.433110 0.136993 0.355333
O O7 0.253462 0.122526 0.443596
O O8 0.751769 0.633196 0.175142
O O9 0.000000 0.627448 0.000000
O O10 0.993944 0.734364 0.934916
O O11 0.085536 0.601279 0.811177
O O12 0.019935 0.500000 0.297598
O O13 0.029680 0.610524 0.359428
O O14 0.262150 0.177513 0.670588
O O15 0.000000 0.158387 0.000000
O O16 0.500000 0.645999 0.500000
O O17 0.558935 0.754740 0.374329
O O18 0.416985 0.630528 0.479274
O O19 0.000000 0.365683 0.500000
O O20 0.195609 0.000000 0.444071
#
# Coordination Sequence:
#
# PCOD9219390 Si02
#       8
#     8   8   8   8   8   8   8   8
#     4  11  24  43  66  95 133 173 212 266 333 388
#     4  12  26  46  72  94 126 172 225 274 325 386
#     4  11  21  41  65  92 130 172 215 265 322 381
#     4  11  24  43  66  95 133 173 212 266 333 388
#     4  11  20  36  64  96 131 171 219 267 315 381
#     4  11  21  41  65  92 130 172 215 265 322 381
#     4  11  20  36  64  96 131 171 219 267 315 381
#     4  12  26  42  64  98 130 166 218 266 328 398
#
# _framework density 19.286290000000001
#
# number of rings (size 3 to 8) (size 9 to 14) (size 15 to 20)
#    0.000    0.750    3.750    6.375    0.000    3.000 
#    0.000    0.000    0.000    0.000    0.000    0.000 
#    0.000    0.000    0.000    0.000    0.000    0.000 
#
# Total GULP energy -179046.724866 kJ/mol
# GULP energy per Si atom -5595.210152 kJ/mol
# Density = 1.924239 g / cm^3
# Si number density = 19.286290 Si / 1000 Ang^3
#
#
#
# Elastic Constant Matrix: (Units=GPa)
#
#
# Indices 1 2 3 4 5 6 
#
# 1 113.4155 45.2164 18.0249 -0.0084 -0.7961 -0.0010
# 2 45.2164 74.8960 8.2844 -0.0263 11.4146 0.0162
# 3 18.0249 8.2844 63.0070 -0.0323 -6.4549 0.0102
# 4 -0.0084 -0.0263 -0.0323 16.3210 0.0111 23.9420
# 5 -0.7961 11.4146 -6.4549 0.0111 36.3591 -0.0041
# 6 -0.0010 0.0162 0.0102 23.9420 -0.0041 57.3599
#
#
#
# Elastic Compliance Matrix: (Units=1/GPa)
#
#
# Indices 1 2 3 4 5 6 
#
# 1 0.012152 -0.007419 -0.002277 -0.000041 0.002191 0.000020
# 2 -0.007419 0.018898 -0.001005 0.000096 -0.006274 -0.000046
# 3 -0.002277 -0.001005 0.016991 0.000083 0.003282 -0.000037
# 4 -0.000041 0.000096 0.000083 0.158037 -0.000072 -0.065964
# 5 0.002191 -0.006274 0.003282 -0.000072 0.030104 0.000033
# 6 0.000020 -0.000046 -0.000037 -0.065964 0.000033 0.044967
#
#
# Mechanical properties :
#
#
# Convention : Reuss Voigt Hill
#
# Bulk Modulus (GPa) = 37.53700 43.81889 40.67794
# Shear Modulus (GPa) = 16.05501 33.99420 25.02461
#
# Velocity S-wave (km/s) = 2.88836 4.20290 3.60604
# Velocity P-wave (km/s) = 5.53433 6.80603 6.20286
#
# Compressibility (1/GPa) = 0.02664038
#
# Stress axis : x y z
#
# Youngs Moduli (GPa) = 82.29151 52.91577 58.85476
#
# Poissons Ratio (x) = 0.39256 0.13399
# Poissons Ratio (y) = 0.61048 0.05916
# Poissons Ratio (z) = 0.18734 0.05319
#
# Static dielectric constant tensor:
#      x y z
#    x 1.640720 0.000000 0.020620 
#    y 0.000000 1.643610 -0.000010 
#    z 0.020620 -0.000010 1.582580 
# 
# From -- ./inp_files/326099.got.cif
#   From: 2010.05.17/outbox.cif.g08.bks.cpg/sg12_164_cif.got.tgz:326099.got - 2010.06.03 13:09:07.
