data_PCOD9219019
_publ_section_title
;
Structure prediction by ZEFSAII (Michael W. Deem and Ramdas Pophale) SiO2 
 PCOD9219019
Probable space group: C 2/M
;
_chemical_formula_sum "Si O2"
_cell_formula_units_Z 32
_cell_length_a 10.990508
_cell_length_b 34.166470
_cell_length_c 9.993265
_cell_angle_alpha 90.000000
_cell_angle_beta 27.152186
_cell_angle_gamma 90.000000
_cell_volume 1712.492225
_symmetry_space_group_name_H-M "C 2/M"
_symmetry_group_IT_number 12
_symmetry_cell_setting 'monoclinic'
loop_
_space_group_symop_operation_xyz
x,y,z
-x,y,-z
-x,-y,-z
x,-y,z
1/2+x,1/2+y,z
1/2-x,1/2+y,-z
1/2-x,1/2-y,-z
1/2+x,1/2-y,z
loop_
_atom_site_type_symbol
_atom_site_label
_atom_site_fract_x
_atom_site_fract_y
_atom_site_fract_z
Si Si1 0.439127 0.377484 0.900161
Si Si2 0.000000 0.281352 0.000000
Si Si3 0.500000 0.771096 0.500000
Si Si4 0.921706 0.329524 0.341383
Si Si5 0.739074 0.043364 0.164146
O O1 0.708303 0.364380 0.564250
O O2 0.500000 0.375740 0.000000
O O3 0.316429 0.420589 0.993615
O O4 0.213606 0.346762 0.081952
O O5 0.254516 0.255119 0.791626
O O6 0.089944 0.307879 0.787967
O O7 0.379556 0.798137 0.500919
O O8 0.500000 0.054286 0.500000
O O9 0.678308 0.000000 0.166316
O O10 0.000000 0.039226 0.000000
#
# Coordination Sequence:
#
# PCOD9219019 Si02
#       5
#     8   4   4   8   8
#     4  11  19  35  56  83 111 146 182 221 271 329
#     4  12  26  40  56  82 109 142 187 234 284 326
#     4  12  22  42  58  80 105 142 187 238 282 328
#     4  12  23  38  59  81 109 145 184 230 276 330
#     4   9  17  29  49  81 117 144 173 220 273 318
#
# _framework density 18.686216000000002
#
# number of rings (size 3 to 8) (size 9 to 14) (size 15 to 20)
#    0.000    1.000    2.500    7.500    0.000    0.000 
#    0.000    0.000    0.000    0.000    0.000    5.250 
#    0.000    0.000    0.000    0.000    0.000    0.000 
#
# Total GULP energy -89314.427677 kJ/mol
# GULP energy per Si atom -5582.151730 kJ/mol
# Density = 1.864369 g / cm^3
# Si number density = 18.686216 Si / 1000 Ang^3
#
#
#
# Elastic Constant Matrix: (Units=GPa)
#
#
# Indices 1 2 3 4 5 6 
#
# 1 30.5314 25.6924 22.4318 0.0000 4.7631 0.0000
# 2 25.6924 86.3407 14.1228 0.0000 15.1294 0.0000
# 3 22.4318 14.1228 80.7018 0.0000 -11.1777 0.0000
# 4 0.0000 0.0000 0.0000 40.0372 0.0000 -12.4937
# 5 4.7631 15.1294 -11.1777 0.0000 38.6150 0.0000
# 6 0.0000 0.0000 0.0000 -12.4937 0.0000 -13.5230
#
#
#
# Elastic Compliance Matrix: (Units=1/GPa)
#
#
# Indices 1 2 3 4 5 6 
#
# 1 0.054658 -0.013047 -0.013684 0.000000 -0.005591 0.000000
# 2 -0.013047 0.016273 0.000123 0.000000 -0.004731 0.000000
# 3 -0.013684 0.000123 0.017085 0.000000 0.006585 0.000000
# 4 0.000000 0.000000 0.000000 0.019387 0.000000 -0.017912
# 5 -0.005591 -0.004731 0.006585 0.000000 0.030346 0.000000
# 6 0.000000 0.000000 0.000000 -0.017912 0.000000 -0.057400
#
#
# Mechanical properties :
#
#
# Convention : Reuss Voigt Hill
#
# Bulk Modulus (GPa) = 28.73383 35.78533 32.25958
# Shear Modulus (GPa) = 34.44354 22.04765 28.24559
#
# Velocity S-wave (km/s) = 4.29798 3.43868 3.89211
# Velocity P-wave (km/s) = 6.32776 5.91255 6.12367
#
# Compressibility (1/GPa) = 0.03480218
#
# Stress axis : x y z
#
# Youngs Moduli (GPa) = 18.29556 61.45121 58.52959
#
# Poissons Ratio (x) = 0.80173 0.80092
# Poissons Ratio (y) = 0.23869 -0.00722
# Poissons Ratio (z) = 0.25036 -0.00758
#
# Static dielectric constant tensor:
#      x y z
#    x 1.612300 0.000000 0.013600 
#    y 0.000000 1.734120 0.000000 
#    z 0.013600 0.000000 1.621290 
# 
# From -- ./inp_files/150071.got.cif
#   From: 2010.05.17/outbox.cif.g08.bks.cpg/sg12_76_cif.got.tgz:150071.got - 2010.06.03 13:09:07.
