data_PCOD9219686
_publ_section_title
;
Structure prediction by ZEFSAII (Michael W. Deem and Ramdas Pophale) SiO2 
 PCOD9219686
Probable space group: C 2/M
;
_chemical_formula_sum "Si O2"
_cell_formula_units_Z 48
_cell_length_a 18.026500
_cell_length_b 16.494141
_cell_length_c 16.383807
_cell_angle_alpha 90.000000
_cell_angle_beta 145.471743
_cell_angle_gamma 90.000000
_cell_volume 2761.184594
_symmetry_space_group_name_H-M "C 2/M"
_symmetry_group_IT_number 12
_symmetry_cell_setting 'monoclinic'
loop_
_space_group_symop_operation_xyz
x,y,z
-x,y,-z
-x,-y,-z
x,-y,z
1/2+x,1/2+y,z
1/2-x,1/2+y,-z
1/2-x,1/2-y,-z
1/2+x,1/2-y,z
loop_
_atom_site_type_symbol
_atom_site_label
_atom_site_fract_x
_atom_site_fract_y
_atom_site_fract_z
Si Si1 0.170819 0.244469 0.344479
Si Si2 0.763631 0.166460 0.905450
Si Si3 0.308327 0.592363 0.195515
Si Si4 0.015483 0.908694 0.807375
Si Si5 0.593889 0.168177 0.904513
Si Si6 0.347879 0.747066 0.345821
O O1 0.250000 0.250000 0.500000
O O2 0.267680 0.251623 0.356444
O O3 0.092958 0.159182 0.276345
O O4 0.059154 0.313670 0.233841
O O5 0.643641 0.151617 0.858158
O O6 0.712770 0.185802 0.769971
O O7 0.873863 0.099819 0.022129
O O8 0.835763 0.248557 0.002201
O O9 0.327981 0.500000 0.241009
O O10 0.405927 0.607766 0.206628
O O11 0.333042 0.660641 0.285587
O O12 0.161922 0.603543 0.025857
O O13 0.964264 0.000000 0.757693
O O14 0.500000 0.761592 0.500000
#
# Coordination Sequence:
#
# PCOD9219686 Si02
#       6
#     8   8   8   8   8   8
#     4  11  21  34  52  75 106 143 181 218 258 311
#     4   8  15  30  51  73  98 130 170 210 251 305
#     4   9  18  34  56  82 110 136 167 213 267 319
#     4   9  18  35  59  82 104 134 174 220 265 309
#     4   8  15  30  50  72 100 135 169 203 249 308
#     4  11  21  33  51  76 105 142 182 217 259 312
#
# _framework density 17.383842999999999
#
# number of rings (size 3 to 8) (size 9 to 14) (size 15 to 20)
#    0.000    2.667    0.000    5.000    0.000    6.333 
#    0.000    5.000    0.000    4.000    0.000    0.000 
#    0.000    0.000    0.000    0.000    0.000    0.000 
#
# Total GULP energy -133717.419787 kJ/mol
# GULP energy per Si atom -5571.559158 kJ/mol
# Density = 1.734428 g / cm^3
# Si number density = 17.383843 Si / 1000 Ang^3
#
#
#
# Elastic Constant Matrix: (Units=GPa)
#
#
# Indices 1 2 3 4 5 6 
#
# 1 107.5385 26.1478 70.5915 -0.0001 -0.5251 -0.0001
# 2 26.1478 71.8508 17.8677 -0.0001 0.0327 -0.0001
# 3 70.5915 17.8677 111.7781 -0.0001 0.1531 -0.0001
# 4 -0.0001 -0.0001 -0.0001 14.4175 -0.0001 -0.5061
# 5 -0.5251 0.0327 0.1531 -0.0001 32.1542 -0.0001
# 6 -0.0001 -0.0001 -0.0001 -0.5061 -0.0001 18.7221
#
#
#
# Elastic Compliance Matrix: (Units=1/GPa)
#
#
# Indices 1 2 3 4 5 6 
#
# 1 0.016738 -0.003606 -0.009995 0.000000 0.000325 0.000000
# 2 -0.003606 0.015271 -0.000164 0.000000 -0.000074 0.000000
# 3 -0.009995 -0.000164 0.015285 0.000000 -0.000236 0.000000
# 4 0.000000 0.000000 0.000000 0.069426 0.000000 0.001877
# 5 0.000325 -0.000074 -0.000236 0.000000 0.031107 0.000000
# 6 0.000000 0.000000 0.000000 0.001877 0.000000 0.053463
#
#
# Mechanical properties :
#
#
# Convention : Reuss Voigt Hill
#
# Bulk Modulus (GPa) = 50.59454 57.82019 54.20736
# Shear Modulus (GPa) = 21.23980 24.82945 23.03462
#
# Velocity S-wave (km/s) = 3.49924 3.78339 3.64409
# Velocity P-wave (km/s) = 6.74490 7.24006 6.99686
#
# Compressibility (1/GPa) = 0.01976498
#
# Stress axis : x y z
#
# Youngs Moduli (GPa) = 59.74343 65.48473 65.42449
#
# Poissons Ratio (x) = 0.23614 0.65390
# Poissons Ratio (y) = 0.21544 0.01070
# Poissons Ratio (z) = 0.59712 0.01071
#
# Static dielectric constant tensor:
#      x y z
#    x 1.578680 0.000000 -0.001930 
#    y 0.000000 1.612520 0.000000 
#    z -0.001930 0.000000 1.596740 
# 
# From -- ./inp_files/216506.got.cif
#   From: 2010.05.17/outbox.cif.g08.bks.cpg/sg12_109_cif.got.tgz:216506.got - 2010.06.03 13:09:07.
