data_PCOD9219202
_publ_section_title
;
Structure prediction by ZEFSAII (Michael W. Deem and Ramdas Pophale) SiO2 
 PCOD9219202
Probable space group: C 2/M
;
_chemical_formula_sum "Si O2"
_cell_formula_units_Z 48
_cell_length_a 20.038490
_cell_length_b 7.590769
_cell_length_c 23.079596
_cell_angle_alpha 90.000000
_cell_angle_beta 43.037272
_cell_angle_gamma 90.000000
_cell_volume 2395.880015
_symmetry_space_group_name_H-M "C 2/M"
_symmetry_group_IT_number 12
_symmetry_cell_setting 'monoclinic'
loop_
_space_group_symop_operation_xyz
x,y,z
-x,y,-z
-x,-y,-z
x,-y,z
1/2+x,1/2+y,z
1/2-x,1/2+y,-z
1/2-x,1/2-y,-z
1/2+x,1/2-y,z
loop_
_atom_site_type_symbol
_atom_site_label
_atom_site_fract_x
_atom_site_fract_y
_atom_site_fract_z
Si Si1 0.790775 0.293317 0.753925
Si Si2 0.645516 0.210565 0.537160
Si Si3 0.563440 0.714826 0.778190
Si Si4 0.461341 0.298327 0.730765
Si Si5 0.070980 0.215535 0.904151
Si Si6 0.290665 0.214682 0.626337
O O1 0.774584 0.500000 0.754181
O O2 0.683648 0.224146 0.839122
O O3 0.822563 0.224524 0.670166
O O4 0.872238 0.277349 0.750824
O O5 0.750000 0.250000 0.500000
O O6 0.558249 0.290196 0.629738
O O7 0.651129 0.274968 0.467131
O O8 0.630639 0.000000 0.546784
O O9 0.562387 0.500000 0.776964
O O10 0.492386 0.781207 0.772893
O O11 0.539522 0.767056 0.859036
O O12 0.676079 0.764413 0.693715
O O13 0.434625 0.500000 0.758354
O O14 0.069564 0.000000 0.906731
O O15 0.000000 0.277408 0.000000
O O16 0.295333 0.000000 0.621088
#
# Coordination Sequence:
#
# PCOD9219202 Si02
#       6
#     8   8   8   8   8   8
#     4   9  18  33  52  73  99 128 164 206 249 294
#     4  11  20  32  51  74  99 130 173 212 245 286
#     4   8  14  27  47  69  95 129 165 197 242 297
#     4  11  21  33  48  70 104 138 166 201 250 298
#     4   8  14  28  54  80  95 118 165 213 242 286
#     4   8  15  30  50  68  91 130 171 202 237 289
#
# _framework density 20.034390999999999
#
# number of rings (size 3 to 8) (size 9 to 14) (size 15 to 20)
#    0.000    2.833    1.667    3.000    0.000    0.667 
#    0.000    5.833    0.000    0.500    0.000    0.000 
#    0.000    0.000    0.000    0.000    0.000    0.000 
#
# Total GULP energy -133822.561759 kJ/mol
# GULP energy per Si atom -5575.940073 kJ/mol
# Density = 1.998879 g / cm^3
# Si number density = 20.034391 Si / 1000 Ang^3
#
#
#
# Elastic Constant Matrix: (Units=GPa)
#
#
# Indices 1 2 3 4 5 6 
#
# 1 152.0390 -9.6263 69.9740 -0.0002 20.3532 0.0004
# 2 -9.6263 38.6777 -8.6107 -0.0006 1.1446 0.0017
# 3 69.9740 -8.6107 125.5215 -0.0001 24.9861 0.0003
# 4 -0.0002 -0.0006 -0.0001 6.1321 0.0002 -1.1711
# 5 20.3532 1.1446 24.9861 0.0002 23.1762 -0.0002
# 6 0.0004 0.0017 0.0003 -1.1711 -0.0002 21.2430
#
#
#
# Elastic Compliance Matrix: (Units=1/GPa)
#
#
# Indices 1 2 3 4 5 6 
#
# 1 0.009103 0.001411 -0.004294 0.000000 -0.003434 0.000000
# 2 0.001411 0.026788 0.001987 0.000003 -0.004705 -0.000002
# 3 -0.004294 0.001987 0.012434 0.000001 -0.009732 0.000000
# 4 0.000000 0.000003 0.000001 0.164810 -0.000003 0.009086
# 5 -0.003434 -0.004705 -0.009732 -0.000003 0.056888 0.000001
# 6 0.000000 -0.000002 0.000000 0.009086 0.000001 0.047575
#
#
# Mechanical properties :
#
#
# Convention : Reuss Voigt Hill
#
# Bulk Modulus (GPa) = 21.48978 46.63469 34.06224
# Shear Modulus (GPa) = 14.92983 27.74368 21.33675
#
# Velocity S-wave (km/s) = 2.73281 3.72533 3.26698
# Velocity P-wave (km/s) = 4.55054 6.46776 5.59193
#
# Compressibility (1/GPa) = 0.04653374
#
# Stress axis : x y z
#
# Youngs Moduli (GPa) = 109.85892 37.33067 80.42372
#
# Poissons Ratio (x) = -0.05268 0.34534
# Poissons Ratio (y) = -0.15503 -0.15984
# Poissons Ratio (z) = 0.47173 -0.07419
#
# Static dielectric constant tensor:
#      x y z
#    x 1.713400 0.000000 0.031900 
#    y 0.000000 1.785930 0.000000 
#    z 0.031900 0.000000 1.704600 
# 
# From -- ./inp_files/230351.got.cif
#   From: 2010.05.17/outbox.cif.g08.bks.cpg/sg12_116_cif.got.tgz:230351.got - 2010.06.03 13:09:07.
