data_PCOD9219075
_publ_section_title
;
Structure prediction by ZEFSAII (Michael W. Deem and Ramdas Pophale) SiO2 
 PCOD9219075
Probable space group: C 2/M
;
_chemical_formula_sum "Si O2"
_cell_formula_units_Z 40
_cell_length_a 11.268827
_cell_length_b 15.811807
_cell_length_c 9.569341
_cell_angle_alpha 90.000000
_cell_angle_beta 90.440752
_cell_angle_gamma 90.000000
_cell_volume 1705.019684
_symmetry_space_group_name_H-M "C 2/M"
_symmetry_group_IT_number 12
_symmetry_cell_setting 'monoclinic'
loop_
_space_group_symop_operation_xyz
x,y,z
-x,y,-z
-x,-y,-z
x,-y,z
1/2+x,1/2+y,z
1/2-x,1/2+y,-z
1/2-x,1/2-y,-z
1/2+x,1/2-y,z
loop_
_atom_site_type_symbol
_atom_site_label
_atom_site_fract_x
_atom_site_fract_y
_atom_site_fract_z
Si Si1 0.666834 0.863495 0.530831
Si Si2 0.923176 0.222443 0.134811
Si Si3 0.219847 0.592862 0.215146
Si Si4 0.055874 0.593024 0.806320
Si Si5 0.911694 0.185313 0.600781
O O1 0.704179 0.902713 0.383524
O O2 0.572994 0.902529 0.637389
O O3 0.787702 0.859991 0.622390
O O4 0.624516 0.769484 0.487187
O O5 0.808732 0.164848 0.163469
O O6 0.887239 0.321388 0.134590
O O7 0.015843 0.210062 0.262768
O O8 0.000000 0.201196 0.000000
O O9 0.265988 0.500000 0.177397
O O10 0.084224 0.600539 0.162386
O O11 0.097468 0.500000 0.852524
O O12 0.000000 0.134889 0.500000
#
# Coordination Sequence:
#
# PCOD9219075 Si02
#       5
#     8   8   8   8   8
#     4  11  19  37  70  99 132 167 219 277 339 389
#     4  12  26  44  69  95 137 183 224 268 332 391
#     4  11  23  42  69 100 134 174 221 274 334 398
#     4  11  24  42  68 102 134 172 221 275 336 398
#     4  11  19  38  67  98 130 172 224 276 324 391
#
# _framework density 23.460139000000002
#
# number of rings (size 3 to 8) (size 9 to 14) (size 15 to 20)
#    0.000    0.800    6.000    2.400    0.000    3.200 
#    0.000    3.000    0.000    0.000    0.000    0.000 
#    0.000    0.000    0.000    0.000    0.000    0.000 
#
# Total GULP energy -111862.324816 kJ/mol
# GULP energy per Si atom -5593.116241 kJ/mol
# Density = 2.340674 g / cm^3
# Si number density = 23.460139 Si / 1000 Ang^3
#
#
#
# Elastic Constant Matrix: (Units=GPa)
#
#
# Indices 1 2 3 4 5 6 
#
# 1 118.8291 63.9864 32.2391 0.0000 -25.2870 0.0000
# 2 63.9864 163.8611 23.5202 0.0000 -24.9365 0.0000
# 3 32.2391 23.5202 118.1993 0.0000 -32.1262 0.0000
# 4 0.0000 0.0000 0.0000 -2.3012 0.0000 2.5204
# 5 -25.2870 -24.9365 -32.1262 0.0000 36.8871 0.0000
# 6 0.0000 0.0000 0.0000 2.5204 0.0000 24.5420
#
#
#
# Elastic Compliance Matrix: (Units=1/GPa)
#
#
# Indices 1 2 3 4 5 6 
#
# 1 0.011695 -0.003715 -0.001250 0.000000 0.004417 0.000000
# 2 -0.003715 0.007984 0.000261 0.000000 0.003078 0.000000
# 3 -0.001250 0.000261 0.011220 0.000000 0.009092 0.000000
# 4 0.000000 0.000000 0.000000 -0.390618 0.000000 0.040116
# 5 0.004417 0.003078 0.009092 0.000000 0.040137 0.000000
# 6 0.000000 0.000000 0.000000 0.040116 0.000000 0.036627
#
#
# Mechanical properties :
#
#
# Convention : Reuss Voigt Hill
#
# Bulk Modulus (GPa) = 46.52947 71.15343 58.84145
# Shear Modulus (GPa) = -18.76999 30.56850 5.89926
#
# Velocity S-wave (km/s) = -2.83164 3.61362 1.58747
# Velocity P-wave (km/s) = 3.03077 6.91421 5.33816
#
# Compressibility (1/GPa) = 0.02149176
#
# Stress axis : x y z
#
# Youngs Moduli (GPa) = 85.50596 125.24339 89.12338
#
# Poissons Ratio (x) = 0.46531 0.11141
# Poissons Ratio (y) = 0.31767 -0.02328
# Poissons Ratio (z) = 0.10689 -0.03271
#
# Static dielectric constant tensor:
#      x y z
#    x 1.919630 0.000000 0.008040 
#    y 0.000000 1.909210 0.000000 
#    z 0.008040 0.000000 1.922900 
# 
# From -- ./inp_files/47065.got.cif
#   From: 2010.05.17/outbox.cif.g08.bks.cpg/sg12_24_cif.got.tgz:47065.got - 2010.06.03 13:09:07.
