data_PCOD9219861
_publ_section_title
;
Structure prediction by ZEFSAII (Michael W. Deem and Ramdas Pophale) SiO2 
 PCOD9219861
Probable space group: C 2/M
;
_chemical_formula_sum "Si O2"
_cell_formula_units_Z 48
_cell_length_a 12.865426
_cell_length_b 22.792662
_cell_length_c 16.940473
_cell_angle_alpha 90.000000
_cell_angle_beta 150.818086
_cell_angle_gamma 90.000000
_cell_volume 2422.112316
_symmetry_space_group_name_H-M "C 2/M"
_symmetry_group_IT_number 12
_symmetry_cell_setting 'monoclinic'
loop_
_space_group_symop_operation_xyz
x,y,z
-x,y,-z
-x,-y,-z
x,-y,z
1/2+x,1/2+y,z
1/2-x,1/2+y,-z
1/2-x,1/2-y,-z
1/2+x,1/2-y,z
loop_
_atom_site_type_symbol
_atom_site_label
_atom_site_fract_x
_atom_site_fract_y
_atom_site_fract_z
Si Si1 0.308786 0.068229 0.261453
Si Si2 0.004288 0.778301 0.751588
Si Si3 0.599696 0.255578 0.151066
Si Si4 0.859224 0.931677 0.030098
Si Si5 0.117331 0.638034 0.004658
Si Si6 0.473786 0.186475 0.606473
O O1 0.484488 0.118432 0.382745
O O2 0.107868 0.085578 0.183569
O O3 0.366317 0.000000 0.315294
O O4 0.232329 0.071798 0.119508
O O5 0.030459 0.782247 0.862637
O O6 0.767273 0.799045 0.574213
O O7 0.015470 0.712863 0.722258
O O8 0.184001 0.820764 0.835230
O O9 0.841722 0.277283 0.316791
O O10 0.500000 0.272913 0.000000
O O11 0.558172 0.186571 0.136020
O O12 0.715092 0.899110 0.998632
O O13 0.862502 0.000000 0.054305
O O14 0.000000 0.605862 0.000000
#
# Coordination Sequence:
#
# PCOD9219861 Si02
#       6
#     8   8   8   8   8   8
#     4   9  19  36  59  88 113 145 193 241 292 344
#     4  11  23  37  54  86 123 151 192 237 293 353
#     4  11  22  35  56  86 110 154 192 238 292 347
#     4   9  19  34  58  86 114 148 195 246 284 332
#     4  11  21  36  55  82 115 153 198 234 281 351
#     4  11  22  37  58  86 119 156 184 239 300 343
#
# _framework density 19.817412000000001
#
# number of rings (size 3 to 8) (size 9 to 14) (size 15 to 20)
#    0.000    1.667    3.333    4.000    4.667    0.333 
#    0.000    0.833    0.000    4.000    0.000    2.333 
#    0.000    0.000    0.000    0.000    0.000    0.000 
#
# Total GULP energy -133794.927993 kJ/mol
# GULP energy per Si atom -5574.788666 kJ/mol
# Density = 1.977231 g / cm^3
# Si number density = 19.817412 Si / 1000 Ang^3
#
#
#
# Elastic Constant Matrix: (Units=GPa)
#
#
# Indices 1 2 3 4 5 6 
#
# 1 167.5448 50.0682 32.5440 -0.0006 18.5347 -0.0002
# 2 50.0682 96.9594 21.2783 0.0007 19.6654 0.0001
# 3 32.5440 21.2783 53.4224 0.0019 17.8985 0.0004
# 4 -0.0006 0.0007 0.0019 18.8431 0.0004 11.2508
# 5 18.5347 19.6654 17.8985 0.0004 32.1739 0.0000
# 6 -0.0002 0.0001 0.0004 11.2508 0.0000 42.6183
#
#
#
# Elastic Compliance Matrix: (Units=1/GPa)
#
#
# Indices 1 2 3 4 5 6 
#
# 1 0.007580 -0.003074 -0.003146 0.000001 -0.000737 0.000000
# 2 -0.003074 0.013371 -0.001608 0.000000 -0.005507 0.000000
# 3 -0.003146 -0.001608 0.024998 -0.000003 -0.011112 0.000000
# 4 0.000001 0.000000 -0.000003 0.063000 0.000000 -0.016631
# 5 -0.000737 -0.005507 -0.011112 0.000000 0.041054 0.000000
# 6 0.000000 0.000000 0.000000 -0.016631 0.000000 0.027855
#
#
# Mechanical properties :
#
#
# Convention : Reuss Voigt Hill
#
# Bulk Modulus (GPa) = 33.01065 58.41194 45.71129
# Shear Modulus (GPa) = 24.55661 32.99613 28.77637
#
# Velocity S-wave (km/s) = 3.52397 4.08488 3.81474
# Velocity P-wave (km/s) = 5.76640 7.19634 6.52069
#
# Compressibility (1/GPa) = 0.03029325
#
# Stress axis : x y z
#
# Youngs Moduli (GPa) = 131.92820 74.78958 40.00247
#
# Poissons Ratio (x) = 0.22991 0.12585
# Poissons Ratio (y) = 0.40556 0.06432
# Poissons Ratio (z) = 0.41505 0.12025
#
# Static dielectric constant tensor:
#      x y z
#    x 1.776030 0.000000 -0.025990 
#    y 0.000000 1.733950 0.000000 
#    z -0.025990 0.000000 1.702200 
# 
# From -- ./inp_files/265723.got.cif
#   From: 2010.05.17/outbox.cif.g08.bks.cpg/sg12_133_cif.got.tgz:265723.got - 2010.06.03 13:09:07.
