data_PCOD9219897
_publ_section_title
;
Structure prediction by ZEFSAII (Michael W. Deem and Ramdas Pophale) SiO2 
 PCOD9219897
Probable space group: C 2/M
;
_chemical_formula_sum "Si O2"
_cell_formula_units_Z 40
_cell_length_a 16.855872
_cell_length_b 8.682054
_cell_length_c 20.193390
_cell_angle_alpha 90.000000
_cell_angle_beta 41.696763
_cell_angle_gamma 90.000000
_cell_volume 1965.746260
_symmetry_space_group_name_H-M "C 2/M"
_symmetry_group_IT_number 12
_symmetry_cell_setting 'monoclinic'
loop_
_space_group_symop_operation_xyz
x,y,z
-x,y,-z
-x,-y,-z
x,-y,z
1/2+x,1/2+y,z
1/2-x,1/2+y,-z
1/2-x,1/2-y,-z
1/2+x,1/2-y,z
loop_
_atom_site_type_symbol
_atom_site_label
_atom_site_fract_x
_atom_site_fract_y
_atom_site_fract_z
Si Si1 0.220938 0.677205 0.949066
Si Si2 0.327485 0.686233 0.391169
Si Si3 0.019555 0.829915 0.910665
Si Si4 0.092100 0.812918 0.275920
Si Si5 0.252213 0.313593 0.701756
O O1 0.250545 0.500000 0.931088
O O2 0.300790 0.742973 0.839267
O O3 0.250000 0.750000 0.000000
O O4 0.080609 0.702750 0.036590
O O5 0.324007 0.500000 0.390243
O O6 0.250000 0.750000 0.500000
O O7 0.465056 0.733279 0.323015
O O8 0.271530 0.752584 0.357814
O O9 0.144010 0.761094 0.810602
O O10 0.000744 0.000000 0.889893
O O11 0.000000 0.854460 0.000000
O O12 0.129556 0.770195 0.328349
O O13 0.090320 0.000000 0.277844
O O14 0.245097 0.500000 0.705410
#
# Coordination Sequence:
#
# PCOD9219897 Si02
#       5
#     8   8   8   8   8
#     4  11  21  36  58  87 122 166 212 259 309 371
#     4  11  24  45  67  93 125 161 205 265 325 385
#     4  11  22  36  56  88 128 166 202 249 303 366
#     4   9  21  40  63  87 122 164 208 254 313 378
#     4  11  22  41  67  94 122 166 215 261 312 376
#
# _framework density 20.348506
#
# number of rings (size 3 to 8) (size 9 to 14) (size 15 to 20)
#    0.000    1.400    2.000    3.600    0.000    3.200 
#    0.000   11.000    0.000    0.000    0.000    0.000 
#    0.000    0.000    0.000    0.000    0.000    0.000 
#
# Total GULP energy -111347.771135 kJ/mol
# GULP energy per Si atom -5567.388557 kJ/mol
# Density = 2.030219 g / cm^3
# Si number density = 20.348506 Si / 1000 Ang^3
#
#
#
# Elastic Constant Matrix: (Units=GPa)
#
#
# Indices 1 2 3 4 5 6 
#
# 1 145.0957 32.4736 36.1736 0.0000 23.1060 0.0000
# 2 32.4736 64.3099 21.6372 0.0000 12.2020 0.0000
# 3 36.1736 21.6372 50.7059 0.0000 12.7852 0.0000
# 4 0.0000 0.0000 0.0000 32.6899 0.0000 6.8261
# 5 23.1060 12.2020 12.7852 0.0000 30.1394 0.0000
# 6 0.0000 0.0000 0.0000 6.8261 0.0000 29.4463
#
#
#
# Elastic Compliance Matrix: (Units=1/GPa)
#
#
# Indices 1 2 3 4 5 6 
#
# 1 0.009209 -0.002334 -0.004515 0.000000 -0.004200 0.000000
# 2 -0.002334 0.019323 -0.005665 0.000000 -0.003630 0.000000
# 3 -0.004515 -0.005665 0.026772 0.000000 -0.005602 0.000000
# 4 0.000000 0.000000 0.000000 0.032147 0.000000 -0.007452
# 5 -0.004200 -0.003630 -0.005602 0.000000 0.040245 0.000000
# 6 0.000000 0.000000 0.000000 -0.007452 0.000000 0.035688
#
#
# Mechanical properties :
#
#
# Convention : Reuss Voigt Hill
#
# Bulk Modulus (GPa) = 33.02867 48.96447 40.99657
# Shear Modulus (GPa) = 25.18850 29.77691 27.48271
#
# Velocity S-wave (km/s) = 3.52213 3.82952 3.67904
# Velocity P-wave (km/s) = 5.72777 6.60824 6.18369
#
# Compressibility (1/GPa) = 0.03027673
#
# Stress axis : x y z
#
# Youngs Moduli (GPa) = 108.59283 51.75120 37.35217
#
# Poissons Ratio (x) = 0.12080 0.16863
# Poissons Ratio (y) = 0.25348 0.21160
# Poissons Ratio (z) = 0.49024 0.29317
#
# Static dielectric constant tensor:
#      x y z
#    x 1.727860 0.000000 0.040760 
#    y 0.000000 1.844580 0.000000 
#    z 0.040760 0.000000 1.663450 
# 
# From -- ./inp_files/151945.got.cif
#   From: 2010.05.17/outbox.cif.g08.bks.cpg/sg12_76_cif.got.tgz:151945.got - 2010.06.03 13:09:07.
