data_PCOD9219642
_publ_section_title
;
Structure prediction by ZEFSAII (Michael W. Deem and Ramdas Pophale) SiO2 
 PCOD9219642
Probable space group: C 2/M
;
_chemical_formula_sum "Si O2"
_cell_formula_units_Z 64
_cell_length_a 29.504312
_cell_length_b 8.656808
_cell_length_c 21.628034
_cell_angle_alpha 90.000000
_cell_angle_beta 48.032356
_cell_angle_gamma 90.000000
_cell_volume 4107.281619
_symmetry_space_group_name_H-M "C 2/M"
_symmetry_group_IT_number 12
_symmetry_cell_setting 'monoclinic'
loop_
_space_group_symop_operation_xyz
x,y,z
-x,y,-z
-x,-y,-z
x,-y,z
1/2+x,1/2+y,z
1/2-x,1/2+y,-z
1/2-x,1/2-y,-z
1/2+x,1/2-y,z
loop_
_atom_site_type_symbol
_atom_site_label
_atom_site_fract_x
_atom_site_fract_y
_atom_site_fract_z
Si Si1 0.359224 0.686304 0.171338
Si Si2 0.402725 0.812452 0.596950
Si Si3 0.774180 0.311456 0.667320
Si Si4 0.568482 0.685222 0.654874
Si Si5 0.700476 0.814392 0.497539
Si Si6 0.539700 0.686041 0.820500
Si Si7 0.052681 0.320000 0.004251
Si Si8 0.503845 0.186738 0.597883
O O1 0.359450 0.500000 0.170900
O O2 0.290666 0.740414 0.247009
O O3 0.404151 0.736356 0.186392
O O4 0.388591 0.743257 0.080607
O O5 0.333706 0.758829 0.650844
O O6 0.442762 0.771916 0.499955
O O7 0.440916 0.763958 0.622304
O O8 0.402013 0.000000 0.599000
O O9 0.773929 0.500000 0.668768
O O10 0.782800 0.266981 0.587798
O O11 0.573142 0.500000 0.650533
O O12 0.633706 0.754487 0.576294
O O13 0.550779 0.736382 0.740224
O O14 0.519783 0.739260 0.648491
O O15 0.750000 0.750000 0.500000
O O16 0.700607 0.000000 0.499420
O O17 0.538832 0.500000 0.822510
O O18 0.477298 0.745236 0.908000
O O19 0.063589 0.500000 0.004540
O O20 0.000000 0.302880 0.000000
O O21 0.504115 0.000000 0.603351
#
# Coordination Sequence:
#
# PCOD9219642 Si02
#       8
#     8   8   8   8   8   8   8   8
#     4   9  16  28  47  66  87 118 154 186 221 268
#     4   8  14  27  48  69  88 116 159 199 230 271
#     4   9  16  28  47  68  89 121 160 191 220 269
#     4  11  21  32  46  68  96 124 157 194 233 276
#     4  11  21  33  47  64  93 129 164 194 224 266
#     4   9  18  31  45  63  90 124 157 187 221 271
#     4   9  17  29  45  66  90 114 145 188 233 271
#     4   9  16  29  49  68  88 119 157 198 237 272
#
# _framework density 15.582082
#
# number of rings (size 3 to 8) (size 9 to 14) (size 15 to 20)
#    0.000    2.625    1.250    2.625    0.000    4.500 
#    0.000    5.000    0.000    0.000    0.000    0.875 
#    0.000    0.000    0.000    0.000    0.000    0.000 
#
# Total GULP energy -178334.688946 kJ/mol
# GULP energy per Si atom -5572.959030 kJ/mol
# Density = 1.554662 g / cm^3
# Si number density = 15.582082 Si / 1000 Ang^3
#
#
#
# Elastic Constant Matrix: (Units=GPa)
#
#
# Indices 1 2 3 4 5 6 
#
# 1 111.2178 17.0718 72.8675 0.0006 -12.6090 0.0006
# 2 17.0718 15.3278 27.2438 -0.0010 -2.1688 0.0118
# 3 72.8675 27.2438 141.2331 -0.0012 -14.6575 0.0005
# 4 0.0006 -0.0010 -0.0012 19.1061 0.0007 3.8339
# 5 -12.6090 -2.1688 -14.6575 0.0007 10.5595 -0.0024
# 6 0.0006 0.0118 0.0005 3.8339 -0.0024 19.1780
#
#
#
# Elastic Compliance Matrix: (Units=1/GPa)
#
#
# Indices 1 2 3 4 5 6 
#
# 1 0.014355 -0.004845 -0.005603 -0.000002 0.008368 0.000004
# 2 -0.004845 0.101391 -0.018106 0.000018 -0.010093 -0.000067
# 3 -0.005603 -0.018106 0.014468 -0.000003 0.009673 0.000013
# 4 -0.000002 0.000018 -0.000003 0.054526 -0.000009 -0.010900
# 5 0.008368 -0.010093 0.009673 -0.000009 0.116049 0.000022
# 6 0.000004 -0.000067 0.000013 -0.010900 0.000022 0.054322
#
#
# Mechanical properties :
#
#
# Convention : Reuss Voigt Hill
#
# Bulk Modulus (GPa) = 13.67886 55.79387 34.73636
# Shear Modulus (GPa) = 11.45244 19.80843 15.63043
#
# Velocity S-wave (km/s) = 2.71398 3.56930 3.17062
# Velocity P-wave (km/s) = 4.31492 7.27122 5.97868
#
# Compressibility (1/GPa) = 0.07310552
#
# Stress axis : x y z
#
# Youngs Moduli (GPa) = 69.66300 9.86279 69.11830
#
# Poissons Ratio (x) = 0.04778 0.38728
# Poissons Ratio (y) = 0.33751 1.25147
# Poissons Ratio (z) = 0.39033 0.17858
#
# Static dielectric constant tensor:
#      x y z
#    x 1.519940 0.000000 -0.005270 
#    y 0.000000 1.527130 0.000000 
#    z -0.005270 0.000000 1.509040 
# 
# From -- ./inp_files/326793.got.cif
#   From: 2010.05.17/outbox.cif.g08.bks.cpg/sg12_164_cif.got.tgz:326793.got - 2010.06.03 13:09:07.
