data_PCOD9219888
_publ_section_title
;
Structure prediction by ZEFSAII (Michael W. Deem and Ramdas Pophale) SiO2 
 PCOD9219888
Probable space group: C 2/M
;
_chemical_formula_sum "Si O2"
_cell_formula_units_Z 64
_cell_length_a 32.497705
_cell_length_b 8.095658
_cell_length_c 25.144259
_cell_angle_alpha 90.000000
_cell_angle_beta 152.076269
_cell_angle_gamma 90.000000
_cell_volume 3097.875529
_symmetry_space_group_name_H-M "C 2/M"
_symmetry_group_IT_number 12
_symmetry_cell_setting 'monoclinic'
loop_
_space_group_symop_operation_xyz
x,y,z
-x,y,-z
-x,-y,-z
x,-y,z
1/2+x,1/2+y,z
1/2-x,1/2+y,-z
1/2-x,1/2-y,-z
1/2+x,1/2-y,z
loop_
_atom_site_type_symbol
_atom_site_label
_atom_site_fract_x
_atom_site_fract_y
_atom_site_fract_z
Si Si1 0.098179 0.297678 0.596002
Si Si2 0.774549 0.196645 0.856936
Si Si3 0.695568 0.305246 0.299840
Si Si4 0.191123 0.302438 0.983010
Si Si5 0.000664 0.297917 0.267466
Si Si6 0.092032 0.691352 0.081348
Si Si7 0.608510 0.200593 0.486857
Si Si8 0.657237 0.197874 0.368740
O O1 0.099773 0.500000 0.599412
O O2 0.182243 0.240329 0.726094
O O3 0.108428 0.243055 0.547019
O O4 0.000000 0.246985 0.500000
O O5 0.857156 0.242875 0.912978
O O6 0.770021 0.000000 0.850712
O O7 0.782063 0.248899 0.926984
O O8 0.694181 0.500000 0.285426
O O9 0.658678 0.212127 0.206750
O O10 0.796035 0.256734 0.426957
O O11 0.644330 0.270028 0.295287
O O12 0.189418 0.500000 0.981468
O O13 0.093141 0.238484 0.858856
O O14 0.250000 0.250000 0.000000
O O15 0.998445 0.500000 0.265411
O O16 0.030189 0.242001 0.359790
O O17 0.078131 0.248756 0.316283
O O18 0.073880 0.500000 0.049052
O O19 0.000000 0.764931 0.000000
O O20 0.603544 0.000000 0.482046
O O21 0.750000 0.250000 0.500000
O O22 0.656354 0.000000 0.364189
#
# Coordination Sequence:
#
# PCOD9219888 Si02
#       8
#     8   8   8   8   8   8   8   8
#     4   9  18  32  59  93 120 150 195 246 305 375
#     4  11  23  42  67  97 128 162 208 263 318 377
#     4  11  21  37  60  88 123 158 201 260 315 369
#     4  11  25  45  67  91 123 169 217 265 315 373
#     4   9  20  37  60  85 118 164 210 252 306 374
#     4  11  25  43  63  88 124 171 214 256 313 381
#     4   9  16  32  57  87 118 150 195 251 305 362
#     4  11  21  36  57  87 123 162 206 250 306 376
#
# _framework density 20.659317999999999
#
# number of rings (size 3 to 8) (size 9 to 14) (size 15 to 20)
#    0.000    1.750    2.500    1.875    3.500    1.000 
#    0.000    1.875    0.000    3.000    0.000    0.000 
#    0.000    0.000    0.000    0.000    0.000    0.000 
#
# Total GULP energy -178601.912731 kJ/mol
# GULP energy per Si atom -5581.309773 kJ/mol
# Density = 2.061230 g / cm^3
# Si number density = 20.659318 Si / 1000 Ang^3
#
#
#
# Elastic Constant Matrix: (Units=GPa)
#
#
# Indices 1 2 3 4 5 6 
#
# 1 168.8576 14.9572 103.3438 0.0000 -8.3261 0.0000
# 2 14.9572 23.2939 8.7959 0.0000 5.0211 0.0000
# 3 103.3438 8.7959 143.3492 0.0000 -3.0218 0.0000
# 4 0.0000 0.0000 0.0000 22.3715 0.0000 -5.1442
# 5 -8.3261 5.0211 -3.0218 0.0000 40.0496 0.0000
# 6 0.0000 0.0000 0.0000 -5.1442 0.0000 29.5466
#
#
#
# Elastic Compliance Matrix: (Units=1/GPa)
#
#
# Indices 1 2 3 4 5 6 
#
# 1 0.011187 -0.004772 -0.007723 0.000000 0.002341 0.000000
# 2 -0.004772 0.047333 0.000390 0.000000 -0.006897 0.000000
# 3 -0.007723 0.000390 0.012504 0.000000 -0.000711 0.000000
# 4 0.000000 0.000000 0.000000 0.046564 0.000000 0.008107
# 5 0.002341 -0.006897 -0.000711 0.000000 0.026267 0.000000
# 6 0.000000 0.000000 0.000000 0.008107 0.000000 0.035256
#
#
# Mechanical properties :
#
#
# Convention : Reuss Voigt Hill
#
# Bulk Modulus (GPa) = 21.36017 65.52160 43.44088
# Shear Modulus (GPa) = 22.83899 32.28714 27.56306
#
# Velocity S-wave (km/s) = 3.32852 3.95756 3.65659
# Velocity P-wave (km/s) = 5.01336 7.25722 6.23702
#
# Compressibility (1/GPa) = 0.04681610
#
# Stress axis : x y z
#
# Youngs Moduli (GPa) = 89.39295 21.12696 79.97193
#
# Poissons Ratio (x) = 0.10081 0.61759
# Poissons Ratio (y) = 0.42654 -0.03121
# Poissons Ratio (z) = 0.69034 -0.00824
#
# Static dielectric constant tensor:
#      x y z
#    x 1.756160 0.000000 0.028520 
#    y 0.000000 1.759580 0.000000 
#    z 0.028520 0.000000 1.739210 
# 
# From -- ./inp_files/353535.got.cif
#   From: 2010.05.17/outbox.cif.g08.bks.cpg/sg12_177_cif.got.tgz:353535.got - 2010.06.03 13:09:07.
