data_PCOD9219393
_publ_section_title
;
Structure prediction by ZEFSAII (Michael W. Deem and Ramdas Pophale) SiO2 
 PCOD9219393
Probable space group: C 2/M
;
_chemical_formula_sum "Si O2"
_cell_formula_units_Z 56
_cell_length_a 13.433357
_cell_length_b 18.652311
_cell_length_c 11.591627
_cell_angle_alpha 90.000000
_cell_angle_beta 113.763605
_cell_angle_gamma 90.000000
_cell_volume 2658.184499
_symmetry_space_group_name_H-M "C 2/M"
_symmetry_group_IT_number 12
_symmetry_cell_setting 'monoclinic'
loop_
_space_group_symop_operation_xyz
x,y,z
-x,y,-z
-x,-y,-z
x,-y,z
1/2+x,1/2+y,z
1/2-x,1/2+y,-z
1/2-x,1/2-y,-z
1/2+x,1/2-y,z
loop_
_atom_site_type_symbol
_atom_site_label
_atom_site_fract_x
_atom_site_fract_y
_atom_site_fract_z
Si Si1 0.015681 0.854811 0.135968
Si Si2 0.684768 0.178299 0.933835
Si Si3 0.295863 0.169994 0.502259
Si Si4 0.294417 0.419650 0.126790
Si Si5 0.616806 0.366524 0.600451
Si Si6 0.239252 0.082843 0.246231
Si Si7 0.005372 0.259463 0.692473
O O1 0.108061 0.914711 0.184193
O O2 0.052270 0.801193 0.255416
O O3 0.898257 0.885842 0.111038
O O4 0.000000 0.823104 0.000000
O O5 0.733039 0.127939 0.855403
O O6 0.574789 0.202558 0.823668
O O7 0.750000 0.250000 0.000000
O O8 0.691085 0.129518 0.050084
O O9 0.250000 0.250000 0.500000
O O10 0.210654 0.131744 0.548719
O O11 0.286205 0.128584 0.376350
O O12 0.421994 0.184965 0.596065
O O13 0.275092 0.500000 0.080716
O O14 0.333456 0.413111 0.274948
O O15 0.500000 0.392404 0.500000
O O16 0.583137 0.287277 0.641064
O O17 0.276245 0.000000 0.263519
#
# Coordination Sequence:
#
# PCOD9219393 Si02
#       7
#     8   8   8   8   8   8   8
#     4  11  20  36  65  98 135 167 218 289 354 401
#     4  12  23  42  66  93 133 175 227 274 330 405
#     4  12  23  41  70  94 134 179 225 277 336 400
#     4  11  24  40  62  94 134 176 216 275 345 406
#     4  11  22  39  66  96 131 169 219 275 339 394
#     4  12  26  42  66 102 141 178 224 285 350 405
#     4  11  24  39  64 104 128 173 232 286 324 403
#
# _framework density 21.06701
#
# number of rings (size 3 to 8) (size 9 to 14) (size 15 to 20)
#    0.000    0.571    7.143    2.571    0.000    2.571 
#    0.000    2.143    0.000    0.857    0.000    0.000 
#    0.000    0.000    0.000    0.000    0.000    0.000 
#
# Total GULP energy -156062.581128 kJ/mol
# GULP energy per Si atom -5573.663612 kJ/mol
# Density = 2.101906 g / cm^3
# Si number density = 21.067010 Si / 1000 Ang^3
#
#
#
# Elastic Constant Matrix: (Units=GPa)
#
#
# Indices 1 2 3 4 5 6 
#
# 1 27.3112 10.5492 12.1355 0.0000 3.8531 0.0000
# 2 10.5492 106.7001 47.3045 0.0000 4.8246 0.0000
# 3 12.1355 47.3045 131.8136 0.0000 12.3832 0.0000
# 4 0.0000 0.0000 0.0000 21.5804 0.0000 4.0764
# 5 3.8531 4.8246 12.3832 0.0000 42.5928 0.0000
# 6 0.0000 0.0000 0.0000 4.0764 0.0000 12.4105
#
#
#
# Elastic Compliance Matrix: (Units=1/GPa)
#
#
# Indices 1 2 3 4 5 6 
#
# 1 0.039075 -0.002687 -0.002395 0.000000 -0.002534 0.000000
# 2 -0.002687 0.011331 -0.003826 0.000000 0.000072 0.000000
# 3 -0.002395 -0.003826 0.009375 0.000000 -0.002076 0.000000
# 4 0.000000 0.000000 0.000000 0.049404 0.000000 -0.016227
# 5 -0.002534 0.000072 -0.002076 0.000000 0.024303 0.000000
# 6 0.000000 0.000000 0.000000 -0.016227 0.000000 0.085907
#
#
# Mechanical properties :
#
#
# Convention : Reuss Voigt Hill
#
# Bulk Modulus (GPa) = 23.82944 45.08924 34.45934
# Shear Modulus (GPa) = 19.90474 28.37245 24.13860
#
# Velocity S-wave (km/s) = 3.07714 3.67382 3.38864
# Velocity P-wave (km/s) = 4.89499 6.28054 5.63054
#
# Compressibility (1/GPa) = 0.04196490
#
# Stress axis : x y z
#
# Youngs Moduli (GPa) = 25.59211 88.25734 106.66793
#
# Poissons Ratio (x) = 0.23713 0.25549
# Poissons Ratio (y) = 0.06876 0.40807
# Poissons Ratio (z) = 0.06130 0.33764
#
# Static dielectric constant tensor:
#      x y z
#    x 1.933100 0.000000 -0.075500 
#    y 0.000000 1.863670 0.000000 
#    z -0.075500 0.000000 1.863250 
# 
# From -- ./inp_files/146210.got.cif
#   From: 2010.05.17/outbox.cif.g08.bks.cpg/sg12_74_cif.got.tgz:146210.got - 2010.06.03 13:09:07.
