data_PCOD9219994
_publ_section_title
;
Structure prediction by ZEFSAII (Michael W. Deem and Ramdas Pophale) SiO2 
 PCOD9219994
Probable space group: C 2/M
;
_chemical_formula_sum "Si O2"
_cell_formula_units_Z 50
_cell_length_a 10.975718
_cell_length_b 27.400270
_cell_length_c 8.974100
_cell_angle_alpha 90.000000
_cell_angle_beta 61.912953
_cell_angle_gamma 90.000000
_cell_volume 2381.015082
_symmetry_space_group_name_H-M "C 2/M"
_symmetry_group_IT_number 12
_symmetry_cell_setting 'monoclinic'
loop_
_space_group_symop_operation_xyz
x,y,z
-x,y,-z
-x,-y,-z
x,-y,z
1/2+x,1/2+y,z
1/2-x,1/2+y,-z
1/2-x,1/2-y,-z
1/2+x,1/2-y,z
loop_
_atom_site_type_symbol
_atom_site_label
_atom_site_fract_x
_atom_site_fract_y
_atom_site_fract_z
Si Si1 0.771871 0.444063 0.155126
Si Si2 0.000000 0.500000 0.500000
Si Si3 0.487704 0.922644 0.765174
Si Si4 0.362065 0.646055 0.877826
Si Si5 0.170820 0.833360 0.779052
Si Si6 0.407647 0.824414 0.425593
Si Si7 0.845776 0.722454 0.155708
O O1 0.726348 0.500000 0.170083
O O2 0.863050 0.437000 0.250841
O O3 0.654757 0.403356 0.206459
O O4 0.878596 0.431651 0.959540
O O5 0.957779 0.457491 0.645597
O O6 0.503381 0.867018 0.703012
O O7 0.517799 0.665555 0.797722
O O8 0.258036 0.685750 0.867300
O O9 0.326146 0.635182 0.072118
O O10 0.279702 0.846587 0.590374
O O11 0.198226 0.778691 0.824860
O O12 0.500000 0.799248 0.500000
O O13 0.354699 0.790697 0.324644
O O14 0.000000 0.717429 0.000000
#
# Coordination Sequence:
#
# PCOD9219994 Si02
#       7
#     8   2   8   8   8   8   8
#     4  11  21  41  66  95 130 176 225 266 329 404
#     4  12  20  34  60 100 136 160 202 292 334 362
#     4  11  21  37  61  98 132 164 214 276 330 381
#     4  11  24  43  69  90 134 179 223 275 333 401
#     4  11  26  44  62  96 134 173 224 274 335 400
#     4  12  25  39  65  99 133 167 221 277 335 391
#     4  12  23  43  68  94 126 178 221 274 330 401
#
# _framework density 20.999448000000001
#
# number of rings (size 3 to 8) (size 9 to 14) (size 15 to 20)
#    0.000    0.640    5.600    4.320    2.240    0.640 
#    0.000    1.600    1.760    0.960    0.000    0.000 
#    0.000    0.000    0.000    0.000    0.000    0.000 
#
# Total GULP energy -139534.643140 kJ/mol
# GULP energy per Si atom -5581.385726 kJ/mol
# Density = 2.095165 g / cm^3
# Si number density = 20.999448 Si / 1000 Ang^3
#
#
#
# Elastic Constant Matrix: (Units=GPa)
#
#
# Indices 1 2 3 4 5 6 
#
# 1 76.4442 19.6453 2.2793 0.0000 5.3306 0.0000
# 2 19.6453 83.3041 -24.2903 0.0000 7.6678 0.0000
# 3 2.2793 -24.2903 52.9423 0.0000 1.2379 0.0000
# 4 0.0000 0.0000 0.0000 16.4446 0.0000 7.4503
# 5 5.3306 7.6678 1.2379 0.0000 27.4831 0.0000
# 6 0.0000 0.0000 0.0000 7.4503 0.0000 27.2720
#
#
#
# Elastic Compliance Matrix: (Units=1/GPa)
#
#
# Indices 1 2 3 4 5 6 
#
# 1 0.014267 -0.003912 -0.002372 0.000000 -0.001569 0.000000
# 2 -0.003912 0.015422 0.007335 0.000000 -0.003874 0.000000
# 3 -0.002372 0.007335 0.022417 0.000000 -0.002596 0.000000
# 4 0.000000 0.000000 0.000000 0.069400 0.000000 -0.018959
# 5 -0.001569 -0.003874 -0.002596 0.000000 0.037888 0.000000
# 6 0.000000 0.000000 0.000000 -0.018959 0.000000 0.041847
#
#
# Mechanical properties :
#
#
# Convention : Reuss Voigt Hill
#
# Bulk Modulus (GPa) = 18.44791 23.10658 20.77724
# Shear Modulus (GPa) = 23.01945 28.57705 25.79825
#
# Velocity S-wave (km/s) = 3.31447 3.69297 3.50883
# Velocity P-wave (km/s) = 4.84269 5.40475 5.13142
#
# Compressibility (1/GPa) = 0.05420670
#
# Stress axis : x y z
#
# Youngs Moduli (GPa) = 70.09250 64.84226 44.60992
#
# Poissons Ratio (x) = 0.25365 0.10583
# Poissons Ratio (y) = 0.27419 -0.32720
# Poissons Ratio (z) = 0.16628 -0.47560
#
# Static dielectric constant tensor:
#      x y z
#    x 1.779590 0.000000 -0.008820 
#    y 0.000000 1.742510 0.000000 
#    z -0.008820 0.000000 1.755400 
# 
# From -- ./inp_files/54108.got.cif
#   From: 2010.05.17/outbox.cif.g08.bks.cpg/sg12_28_cif.got.tgz:54108.got - 2010.06.03 13:09:07.
