data_PCOD9219337
_publ_section_title
;
Structure prediction by ZEFSAII (Michael W. Deem and Ramdas Pophale) SiO2 
 PCOD9219337
Probable space group: C 2/M
;
_chemical_formula_sum "Si O2"
_cell_formula_units_Z 40
_cell_length_a 24.167188
_cell_length_b 10.295903
_cell_length_c 21.271236
_cell_angle_alpha 90.000000
_cell_angle_beta 155.996559
_cell_angle_gamma 90.000000
_cell_volume 2153.055208
_symmetry_space_group_name_H-M "C 2/M"
_symmetry_group_IT_number 12
_symmetry_cell_setting 'monoclinic'
loop_
_space_group_symop_operation_xyz
x,y,z
-x,y,-z
-x,-y,-z
x,-y,z
1/2+x,1/2+y,z
1/2-x,1/2+y,-z
1/2-x,1/2-y,-z
1/2+x,1/2-y,z
loop_
_atom_site_type_symbol
_atom_site_label
_atom_site_fract_x
_atom_site_fract_y
_atom_site_fract_z
Si Si1 0.113051 0.000000 0.381650
Si Si2 0.741735 0.747293 0.859395
Si Si3 0.810155 0.000000 0.013502
Si Si4 0.104247 0.500000 0.385130
Si Si5 0.341427 0.149665 0.357449
Si Si6 0.876134 0.500000 0.054308
Si Si7 0.566862 0.261711 0.422582
O O1 0.121077 0.126343 0.434051
O O2 0.966979 0.000000 0.196513
O O3 0.235373 0.000000 0.459548
O O4 0.740678 0.790308 0.785709
O O5 0.587063 0.705396 0.715998
O O6 0.839444 0.628709 0.977690
O O7 0.776768 0.872218 0.938291
O O8 0.719367 0.000000 0.982309
O O9 0.060748 0.626936 0.378315
O O10 0.027485 0.500000 0.238853
O O11 0.500000 0.145647 0.500000
O O12 0.343010 0.233674 0.422317
O O13 0.301175 0.000000 0.327784
#
# Coordination Sequence:
#
# PCOD9219337 Si02
#       7
#     4   8   4   4   8   4   8
#     4  12  26  37  55  89 119 154 190 235 283 338
#     4  11  20  35  61  91 114 146 189 243 288 332
#     4  12  20  37  59  81 123 148 186 240 283 332
#     4  12  24  39  59  81 119 162 190 221 289 352
#     4   9  18  33  58  87 113 146 187 234 287 339
#     4  12  22  35  59  87 119 148 188 240 291 330
#     4  11  20  38  60  84 119 151 191 236 281 339
#
# _framework density 18.578251000000002
#
# number of rings (size 3 to 8) (size 9 to 14) (size 15 to 20)
#    0.000    1.000    6.000    2.400    0.000    0.800 
#    0.000    3.000    0.000    7.200    0.000    0.000 
#    0.000    0.000    0.000    0.000    0.000    0.000 
#
# Total GULP energy -111767.332574 kJ/mol
# GULP energy per Si atom -5588.366629 kJ/mol
# Density = 1.853597 g / cm^3
# Si number density = 18.578251 Si / 1000 Ang^3
#
#
#
# Elastic Constant Matrix: (Units=GPa)
#
#
# Indices 1 2 3 4 5 6 
#
# 1 22.4386 -1.7138 21.1505 0.0000 -16.4100 0.0000
# 2 -1.7138 88.3334 12.6182 0.0000 -26.3212 0.0000
# 3 21.1505 12.6182 78.6361 0.0000 -27.3812 0.0000
# 4 0.0000 0.0000 0.0000 -60.4295 0.0000 53.8097
# 5 -16.4100 -26.3212 -27.3812 0.0000 40.8454 0.0000
# 6 0.0000 0.0000 0.0000 53.8097 0.0000 -41.6780
#
#
#
# Elastic Compliance Matrix: (Units=1/GPa)
#
#
# Indices 1 2 3 4 5 6 
#
# 1 0.081357 0.013120 -0.012605 0.000000 0.032691 0.000000
# 2 0.013120 0.016210 -0.000857 0.000000 0.015142 0.000000
# 3 -0.012605 -0.000857 0.018640 0.000000 0.006879 0.000000
# 4 0.000000 0.000000 0.000000 0.110583 0.000000 0.142771
# 5 0.032691 0.015142 0.006879 0.000000 0.051986 0.000000
# 6 0.000000 0.000000 0.000000 0.142771 0.000000 0.160336
#
#
# Mechanical properties :
#
#
# Convention : Reuss Voigt Hill
#
# Bulk Modulus (GPa) = 8.65627 28.16867 18.41247
# Shear Modulus (GPa) = 10.45363 -1.76223 4.34570
#
# Velocity S-wave (km/s) = 2.37466 -0.97499 1.53108
# Velocity P-wave (km/s) = 3.49116 3.73197 3.61357
#
# Compressibility (1/GPa) = 0.11552321
#
# Stress axis : x y z
#
# Youngs Moduli (GPa) = 12.29147 61.69125 53.64851
#
# Poissons Ratio (x) = -0.80940 0.67621
# Poissons Ratio (y) = -0.16127 0.04600
# Poissons Ratio (z) = 0.15493 0.05290
#
# Static dielectric constant tensor:
#      x y z
#    x 1.618790 0.000000 -0.014590 
#    y 0.000000 1.615510 0.000000 
#    z -0.014590 0.000000 1.632510 
# 
# From -- ./inp_files/83516.got.cif
#   From: 2010.05.17/outbox.cif.g08.bks.cpg/sg12_42_cif.got.tgz:83516.got - 2010.06.03 13:09:07.
