data_PCOD9219386
_publ_section_title
;
Structure prediction by ZEFSAII (Michael W. Deem and Ramdas Pophale) SiO2 
 PCOD9219386
Probable space group: C 2/M
;
_chemical_formula_sum "Si O2"
_cell_formula_units_Z 48
_cell_length_a 18.474866
_cell_length_b 16.029359
_cell_length_c 16.083501
_cell_angle_alpha 90.000000
_cell_angle_beta 149.591984
_cell_angle_gamma 90.000000
_cell_volume 2410.799458
_symmetry_space_group_name_H-M "C 2/M"
_symmetry_group_IT_number 12
_symmetry_cell_setting 'monoclinic'
loop_
_space_group_symop_operation_xyz
x,y,z
-x,y,-z
-x,-y,-z
x,-y,z
1/2+x,1/2+y,z
1/2-x,1/2+y,-z
1/2-x,1/2-y,-z
1/2+x,1/2-y,z
loop_
_atom_site_type_symbol
_atom_site_label
_atom_site_fract_x
_atom_site_fract_y
_atom_site_fract_z
Si Si1 0.377819 0.901340 0.148368
Si Si2 0.163084 0.317782 0.172777
Si Si3 0.034166 0.000000 0.390759
Si Si4 0.602662 0.793023 0.680137
Si Si5 0.769916 0.000000 0.258099
Si Si6 0.879419 0.714402 0.683678
Si Si7 0.433801 0.337049 0.210160
O O1 0.375913 0.875419 0.243710
O O2 0.523069 0.862235 0.253579
O O3 0.371037 0.000000 0.128339
O O4 0.233419 0.858909 0.968191
O O5 0.258933 0.252329 0.219095
O O6 0.189005 0.412584 0.167892
O O7 0.187934 0.310377 0.295567
O O8 0.000000 0.296657 0.000000
O O9 0.897415 0.000000 0.317434
O O10 0.019687 0.919474 0.319148
O O11 0.165192 0.000000 0.584383
O O12 0.500000 0.805135 0.500000
O O13 0.547617 0.726058 0.693938
O O14 0.750000 0.750000 0.500000
O O15 0.996274 0.789609 0.798576
#
# Coordination Sequence:
#
# PCOD9219386 Si02
#       7
#     8   8   4   8   4   8   8
#     4  11  24  43  66  94 124 166 218 263 305 372
#     4  12  23  37  60  90 126 158 199 259 316 375
#     4  11  20  36  64  88 120 157 213 251 301 370
#     4  11  22  41  66  88 122 168 215 253 309 376
#     4  11  23  34  56  96 126 157 195 259 322 366
#     4  11  24  41  62  90 130 165 203 256 322 377
#     4  11  21  41  65  91 121 166 213 256 306 375
#
# _framework density 19.910408
#
# number of rings (size 3 to 8) (size 9 to 14) (size 15 to 20)
#    0.000    0.833    2.500    8.250    1.167    0.333 
#    1.500    0.000    1.833    1.500    0.000    0.000 
#    0.000    0.000    0.000    0.000    0.000    0.000 
#
# Total GULP energy -134089.265148 kJ/mol
# GULP energy per Si atom -5587.052714 kJ/mol
# Density = 1.986509 g / cm^3
# Si number density = 19.910408 Si / 1000 Ang^3
#
#
#
# Elastic Constant Matrix: (Units=GPa)
#
#
# Indices 1 2 3 4 5 6 
#
# 1 60.6519 15.1220 -11.0996 -0.0003 6.9180 -0.0002
# 2 15.1220 87.6134 -1.0943 0.0003 3.7132 0.0003
# 3 -11.0996 -1.0943 71.4993 -0.0005 0.2663 -0.0004
# 4 -0.0003 0.0003 -0.0005 49.2736 -0.0005 17.3417
# 5 6.9180 3.7132 0.2663 -0.0005 36.1132 -0.0004
# 6 -0.0002 0.0003 -0.0004 17.3417 -0.0004 41.4785
#
#
#
# Elastic Compliance Matrix: (Units=1/GPa)
#
#
# Indices 1 2 3 4 5 6 
#
# 1 0.018095 -0.002954 0.002776 0.000000 -0.003183 0.000000
# 2 -0.002954 0.011948 -0.000273 0.000000 -0.000661 0.000000
# 3 0.002776 -0.000273 0.014415 0.000000 -0.000610 0.000000
# 4 0.000000 0.000000 0.000000 0.023796 0.000000 -0.009949
# 5 -0.003183 -0.000661 -0.000610 0.000000 0.028373 0.000000
# 6 0.000000 0.000000 0.000000 -0.009949 0.000000 0.028268
#
#
# Mechanical properties :
#
#
# Convention : Reuss Voigt Hill
#
# Bulk Modulus (GPa) = 22.95888 25.06898 24.01393
# Shear Modulus (GPa) = 35.63366 39.82885 37.73125
#
# Velocity S-wave (km/s) = 4.23507 4.47744 4.35794
# Velocity P-wave (km/s) = 5.95572 6.27281 6.11632
#
# Compressibility (1/GPa) = 0.04355613
#
# Stress axis : x y z
#
# Youngs Moduli (GPa) = 55.26401 83.69496 69.37150
#
# Poissons Ratio (x) = 0.24720 -0.19256
# Poissons Ratio (y) = 0.16323 0.01895
# Poissons Ratio (z) = -0.15340 0.02286
#
# Static dielectric constant tensor:
#      x y z
#    x 1.779490 0.000000 -0.129390 
#    y 0.000000 1.705920 0.000000 
#    z -0.129390 0.000000 1.945950 
# 
# From -- ./inp_files/112758.got.cif
#   From: 2010.05.17/outbox.cif.g08.bks.cpg/sg12_57_cif.got.tgz:112758.got - 2010.06.03 13:09:07.
