data_PCOD9219213
_publ_section_title
;
Structure prediction by ZEFSAII (Michael W. Deem and Ramdas Pophale) SiO2 
 PCOD9219213
Probable space group: C 2/M
;
_chemical_formula_sum "Si O2"
_cell_formula_units_Z 56
_cell_length_a 17.114519
_cell_length_b 20.726056
_cell_length_c 9.789135
_cell_angle_alpha 90.000000
_cell_angle_beta 72.989412
_cell_angle_gamma 90.000000
_cell_volume 3320.453891
_symmetry_space_group_name_H-M "C 2/M"
_symmetry_group_IT_number 12
_symmetry_cell_setting 'monoclinic'
loop_
_space_group_symop_operation_xyz
x,y,z
-x,y,-z
-x,-y,-z
x,-y,z
1/2+x,1/2+y,z
1/2-x,1/2+y,-z
1/2-x,1/2-y,-z
1/2+x,1/2-y,z
loop_
_atom_site_type_symbol
_atom_site_label
_atom_site_fract_x
_atom_site_fract_y
_atom_site_fract_z
Si Si1 0.847409 0.120440 0.291955
Si Si2 0.312098 0.812895 0.125248
Si Si3 0.825842 0.870212 0.617973
Si Si4 0.535821 0.500000 0.830187
Si Si5 0.578799 0.500000 0.359680
Si Si6 0.571088 0.242435 0.357863
Si Si7 0.041071 0.238852 0.841946
Si Si8 0.280887 0.825604 0.831671
O O1 0.811990 0.121972 0.463096
O O2 0.908221 0.061565 0.233815
O O3 0.900303 0.185565 0.252690
O O4 0.778062 0.123703 0.211482
O O5 0.255974 0.854236 0.255865
O O6 0.402078 0.798610 0.139191
O O7 0.269948 0.741856 0.137526
O O8 0.308139 0.839901 0.972834
O O9 0.887027 0.810019 0.618076
O O10 0.869027 0.935859 0.642645
O O11 0.458338 0.500000 0.771101
O O12 0.500000 0.500000 0.000000
O O13 0.500000 0.500000 0.500000
O O14 0.500000 0.226024 0.500000
O O15 0.529171 0.247707 0.231126
O O16 0.642336 0.190274 0.303939
O O17 0.000000 0.211872 0.000000
#
# Coordination Sequence:
#
# PCOD9219213 Si02
#       8
#     8   8   8   4   4   8   8   8
#     4  11  22  36  52  75 110 143 177 216 259 314
#     4   9  20  34  50  74 104 140 176 210 267 318
#     4  11  22  35  53  76 108 146 176 214 260 315
#     4  12  26  38  54  82 106 142 184 217 255 306
#     4  12  22  40  56  74 110 142 180 216 253 302
#     4  11  20  32  53  80 107 136 176 218 264 313
#     4  11  20  33  53  77 106 139 172 219 268 310
#     4   9  20  34  50  73 107 140 172 216 263 316
#
# _framework density 16.865164
#
# number of rings (size 3 to 8) (size 9 to 14) (size 15 to 20)
#    0.000    1.429    4.286    1.714    6.000    1.714 
#    0.000    0.000    0.000    0.000    0.000    2.000 
#    0.000    0.000    0.000    0.000    0.000    0.000 
#
# Total GULP energy -156212.559245 kJ/mol
# GULP energy per Si atom -5579.019973 kJ/mol
# Density = 1.682678 g / cm^3
# Si number density = 16.865164 Si / 1000 Ang^3
#
#
#
# Elastic Constant Matrix: (Units=GPa)
#
#
# Indices 1 2 3 4 5 6 
#
# 1 42.3495 17.9018 7.3084 0.0000 7.2264 0.0000
# 2 17.9018 48.1966 23.3028 0.0000 2.6612 0.0000
# 3 7.3084 23.3028 109.1057 0.0000 5.5130 0.0000
# 4 0.0000 0.0000 0.0000 14.0752 0.0000 4.6998
# 5 7.2264 2.6612 5.5130 0.0000 32.2866 0.0000
# 6 0.0000 0.0000 0.0000 4.6998 0.0000 -18.1288
#
#
#
# Elastic Compliance Matrix: (Units=1/GPa)
#
#
# Indices 1 2 3 4 5 6 
#
# 1 0.029035 -0.010781 0.000647 0.000000 -0.005720 0.000000
# 2 -0.010781 0.027178 -0.005136 0.000000 0.001050 0.000000
# 3 0.000647 -0.005136 0.010294 0.000000 -0.001479 0.000000
# 4 0.000000 0.000000 0.000000 0.065387 0.000000 0.016951
# 5 -0.005720 0.001050 -0.001479 0.000000 0.032419 0.000000
# 6 0.000000 0.000000 0.000000 0.016951 0.000000 -0.050766
#
#
# Mechanical properties :
#
#
# Convention : Reuss Voigt Hill
#
# Bulk Modulus (GPa) = 27.80372 32.96418 30.38395
# Shear Modulus (GPa) = 32.03589 15.72253 23.87921
#
# Velocity S-wave (km/s) = 4.36309 3.05659 3.76691
# Velocity P-wave (km/s) = 6.47331 5.66084 6.08066
#
# Compressibility (1/GPa) = 0.03596641
#
# Stress axis : x y z
#
# Youngs Moduli (GPa) = 34.44126 36.79452 97.14698
#
# Poissons Ratio (x) = 0.39670 -0.06284
# Poissons Ratio (y) = 0.37133 0.49890
# Poissons Ratio (z) = -0.02228 0.18896
#
# Static dielectric constant tensor:
#      x y z
#    x 1.575410 0.000000 0.014290 
#    y 0.000000 1.541810 0.000000 
#    z 0.014290 0.000000 1.602870 
# 
# From -- ./inp_files/64123.got.cif
#   From: 2010.05.17/outbox.cif.g08.bks.cpg/sg12_33_cif.got.tgz:64123.got - 2010.06.03 13:09:07.
