data_PCOD9219496
_publ_section_title
;
Structure prediction by ZEFSAII (Michael W. Deem and Ramdas Pophale) SiO2 
 PCOD9219496
Probable space group: C 2/M
;
_chemical_formula_sum "Si O2"
_cell_formula_units_Z 64
_cell_length_a 19.500642
_cell_length_b 15.456889
_cell_length_c 18.967744
_cell_angle_alpha 90.000000
_cell_angle_beta 143.813223
_cell_angle_gamma 90.000000
_cell_volume 3375.571482
_symmetry_space_group_name_H-M "C 2/M"
_symmetry_group_IT_number 12
_symmetry_cell_setting 'monoclinic'
loop_
_space_group_symop_operation_xyz
x,y,z
-x,y,-z
-x,-y,-z
x,-y,z
1/2+x,1/2+y,z
1/2-x,1/2+y,-z
1/2-x,1/2-y,-z
1/2+x,1/2-y,z
loop_
_atom_site_type_symbol
_atom_site_label
_atom_site_fract_x
_atom_site_fract_y
_atom_site_fract_z
Si Si1 0.768253 0.749098 0.430193
Si Si2 0.832961 0.358004 0.203549
Si Si3 0.882219 0.832871 0.214933
Si Si4 0.845369 0.400683 0.049535
Si Si5 0.941178 0.100011 0.526635
Si Si6 0.586083 0.405757 0.006369
Si Si7 0.441504 0.901185 0.526291
Si Si8 0.497083 0.737918 0.825382
O O1 0.750000 0.750000 0.500000
O O2 0.839838 0.833129 0.463607
O O3 0.844690 0.666305 0.470534
O O4 0.641258 0.744309 0.290150
O O5 0.840033 0.254903 0.217866
O O6 0.716837 0.392896 0.142549
O O7 0.952032 0.396776 0.330521
O O8 0.818259 0.381706 0.109162
O O9 0.770983 0.880788 0.090791
O O10 0.959666 0.888225 0.331806
O O11 0.960834 0.797154 0.215895
O O12 0.880562 0.500000 0.070138
O O13 0.943703 0.330837 0.112480
O O14 0.000000 0.121064 0.500000
O O15 0.901916 0.000000 0.492072
O O16 0.420470 0.500000 0.035092
O O17 0.500000 0.405266 0.000000
O O18 0.549179 0.329565 0.924017
O O19 0.500000 0.877115 0.500000
O O20 0.398088 0.000000 0.485292
#
# Coordination Sequence:
#
# PCOD9219496 Si02
#       8
#     8   8   8   8   8   8   8   8
#     4  12  24  43  64  91 129 169 210 264 314 376
#     4  11  20  39  64  89 123 161 201 256 306 366
#     4  11  20  40  68  92 121 160 210 261 313 370
#     4  11  21  38  66  94 121 156 203 258 312 370
#     4  11  25  44  67  94 125 168 218 265 317 377
#     4  11  24  38  58  90 126 164 202 251 318 378
#     4  11  25  42  64  95 129 170 214 257 314 381
#     4  11  23  40  62  93 128 159 206 256 320 375
#
# _framework density 18.959752999999999
#
# number of rings (size 3 to 8) (size 9 to 14) (size 15 to 20)
#    0.000    0.875    5.000    3.375    1.750    2.000 
#    0.000    0.000    0.000    0.375    0.000    0.000 
#    0.000    0.000    0.000    0.000    0.000    0.000 
#
# Total GULP energy -178833.678162 kJ/mol
# GULP energy per Si atom -5588.552443 kJ/mol
# Density = 1.891660 g / cm^3
# Si number density = 18.959753 Si / 1000 Ang^3
#
#
#
# Elastic Constant Matrix: (Units=GPa)
#
#
# Indices 1 2 3 4 5 6 
#
# 1 92.4845 63.5209 33.2260 0.0000 25.0161 0.0000
# 2 63.5209 146.4063 31.7180 0.0000 21.9082 0.0000
# 3 33.2260 31.7180 107.1687 0.0000 31.4741 0.0000
# 4 0.0000 0.0000 0.0000 17.5568 0.0000 7.6287
# 5 25.0161 21.9082 31.4741 0.0000 34.5614 0.0000
# 6 0.0000 0.0000 0.0000 7.6287 0.0000 97.5978
#
#
#
# Elastic Compliance Matrix: (Units=1/GPa)
#
#
# Indices 1 2 3 4 5 6 
#
# 1 0.017625 -0.006214 -0.001414 0.000000 -0.007531 0.000000
# 2 -0.006214 0.009839 -0.000648 0.000000 -0.001149 0.000000
# 3 -0.001414 -0.000648 0.013023 0.000000 -0.010426 0.000000
# 4 0.000000 0.000000 0.000000 0.058961 0.000000 -0.004609
# 5 -0.007531 -0.001149 -0.010426 0.000000 0.044608 0.000000
# 6 0.000000 0.000000 0.000000 -0.004609 0.000000 0.010606
#
#
# Mechanical properties :
#
#
# Convention : Reuss Voigt Hill
#
# Bulk Modulus (GPa) = 41.77749 66.99881 54.38815
# Shear Modulus (GPa) = 27.90309 44.44952 36.17630
#
# Velocity S-wave (km/s) = 3.84044 4.84717 4.37287
# Velocity P-wave (km/s) = 6.46127 8.16951 7.36508
#
# Compressibility (1/GPa) = 0.02393634
#
# Stress axis : x y z
#
# Youngs Moduli (GPa) = 56.73610 101.64059 76.78693
#
# Poissons Ratio (x) = 0.63158 0.10854
# Poissons Ratio (y) = 0.35255 0.04975
# Poissons Ratio (z) = 0.08020 0.06586
#
# Static dielectric constant tensor:
#      x y z
#    x 1.572230 0.000000 -0.010840 
#    y 0.000000 1.673360 0.000000 
#    z -0.010840 0.000000 1.648080 
# 
# From -- ./inp_files/278192.got.cif
#   From: 2010.05.17/outbox.cif.g08.bks.cpg/sg12_140_cif.got.tgz:278192.got - 2010.06.03 13:09:07.
