data_PCOD9219542
_publ_section_title
;
Structure prediction by ZEFSAII (Michael W. Deem and Ramdas Pophale) SiO2 
 PCOD9219542
Probable space group: C 2/M
;
_chemical_formula_sum "Si O2"
_cell_formula_units_Z 50
_cell_length_a 8.292500
_cell_length_b 14.246197
_cell_length_c 24.941099
_cell_angle_alpha 90.000000
_cell_angle_beta 126.510557
_cell_angle_gamma 90.000000
_cell_volume 2368.206185
_symmetry_space_group_name_H-M "C 2/M"
_symmetry_group_IT_number 12
_symmetry_cell_setting 'monoclinic'
loop_
_space_group_symop_operation_xyz
x,y,z
-x,y,-z
-x,-y,-z
x,-y,z
1/2+x,1/2+y,z
1/2-x,1/2+y,-z
1/2-x,1/2-y,-z
1/2+x,1/2-y,z
loop_
_atom_site_type_symbol
_atom_site_label
_atom_site_fract_x
_atom_site_fract_y
_atom_site_fract_z
Si Si1 0.500000 0.000000 0.500000
Si Si2 0.565746 0.323467 0.833724
Si Si3 0.176776 0.806665 0.742044
Si Si4 0.225013 0.811837 0.049371
Si Si5 0.659866 0.500000 0.909102
Si Si6 0.585376 0.000000 0.933586
Si Si7 0.737059 0.804100 0.354405
Si Si8 0.116360 0.670452 0.444915
O O1 0.414090 0.917732 0.523475
O O2 0.367534 0.260808 0.788877
O O3 0.633959 0.360486 0.788872
O O4 0.737690 0.258467 0.893988
O O5 0.537100 0.408401 0.869031
O O6 0.208316 0.856221 0.690592
O O7 0.979401 0.742838 0.696827
O O8 0.250000 0.750000 0.000000
O O9 0.371050 0.900595 0.085353
O O10 0.000000 0.847827 0.000000
O O11 0.751036 0.500000 0.985938
O O12 0.863563 0.500000 0.913869
O O13 0.717250 0.854702 0.407570
O O14 0.901354 0.721275 0.392846
O O15 0.250000 0.750000 0.500000
#
# Coordination Sequence:
#
# PCOD9219542 Si02
#       8
#     2   8   8   8   4   4   8   8
#     4  12  24  36  70 112 140 180 218 258 344 388
#     4  11  21  38  60  87 115 162 214 260 316 390
#     4   9  20  38  62  86 114 178 213 251 317 371
#     4  12  23  38  60  87 118 152 200 261 329 395
#     4  11  22  36  60  83 122 153 203 265 318 387
#     4  11  23  38  54  90 120 153 192 257 342 397
#     4   9  19  39  67  88 134 176 210 265 314 372
#     4  11  20  40  68 103 140 176 215 271 323 381
#
# _framework density 21.113026999999999
#
# number of rings (size 3 to 8) (size 9 to 14) (size 15 to 20)
#    0.000    1.440    3.200    3.120    0.000    0.000 
#    0.000    9.600    0.000    3.840    0.000    0.000 
#    0.000    0.000    0.000    0.000    0.000    0.000 
#
# Total GULP energy -139233.567486 kJ/mol
# GULP energy per Si atom -5569.342699 kJ/mol
# Density = 2.106497 g / cm^3
# Si number density = 21.113027 Si / 1000 Ang^3
#
#
#
# Elastic Constant Matrix: (Units=GPa)
#
#
# Indices 1 2 3 4 5 6 
#
# 1 76.6162 3.8141 23.8505 0.0000 -17.3125 0.0000
# 2 3.8141 85.0037 17.0313 0.0000 -10.9666 0.0000
# 3 23.8505 17.0313 87.7214 0.0000 -9.6561 0.0000
# 4 0.0000 0.0000 0.0000 8.7268 0.0000 -11.7625
# 5 -17.3125 -10.9666 -9.6561 0.0000 59.2585 0.0000
# 6 0.0000 0.0000 0.0000 -11.7625 0.0000 24.7470
#
#
#
# Elastic Compliance Matrix: (Units=1/GPa)
#
#
# Indices 1 2 3 4 5 6 
#
# 1 0.015082 0.000584 -0.003785 0.000000 0.003898 0.000000
# 2 0.000584 0.012480 -0.002351 0.000000 0.002097 0.000000
# 3 -0.003785 -0.002351 0.012948 0.000000 0.000569 0.000000
# 4 0.000000 0.000000 0.000000 0.318876 0.000000 0.151565
# 5 0.003898 0.002097 0.000569 0.000000 0.018495 0.000000
# 6 0.000000 0.000000 0.000000 0.151565 0.000000 0.112449
#
#
# Mechanical properties :
#
#
# Convention : Reuss Voigt Hill
#
# Bulk Modulus (GPa) = 34.00628 37.63702 35.82165
# Shear Modulus (GPa) = 9.78024 32.18949 20.98487
#
# Velocity S-wave (km/s) = 2.15462 3.90888 3.15609
# Velocity P-wave (km/s) = 4.72563 6.18366 5.50315
#
# Compressibility (1/GPa) = 0.02940633
#
# Stress axis : x y z
#
# Youngs Moduli (GPa) = 66.30432 80.13089 77.23245
#
# Poissons Ratio (x) = -0.04684 0.29233
# Poissons Ratio (y) = -0.03875 0.18157
# Poissons Ratio (z) = 0.25097 0.18839
#
# Static dielectric constant tensor:
#      x y z
#    x 1.810470 0.000000 -0.049920 
#    y 0.000000 1.733730 0.000000 
#    z -0.049920 0.000000 1.795740 
# 
# From -- ./inp_files/356234.got.cif
#   From: 2010.05.17/outbox.cif.g08.bks.cpg/sg12_179_cif.got.tgz:356234.got - 2010.06.03 13:09:07.
