data_PCOD9219426
_publ_section_title
;
Structure prediction by ZEFSAII (Michael W. Deem and Ramdas Pophale) SiO2 
 PCOD9219426
Probable space group: C 2/M
;
_chemical_formula_sum "Si O2"
_cell_formula_units_Z 50
_cell_length_a 17.882549
_cell_length_b 14.552435
_cell_length_c 11.632116
_cell_angle_alpha 90.000000
_cell_angle_beta 118.307815
_cell_angle_gamma 90.000000
_cell_volume 2665.079113
_symmetry_space_group_name_H-M "C 2/M"
_symmetry_group_IT_number 12
_symmetry_cell_setting 'monoclinic'
loop_
_space_group_symop_operation_xyz
x,y,z
-x,y,-z
-x,-y,-z
x,-y,z
1/2+x,1/2+y,z
1/2-x,1/2+y,-z
1/2-x,1/2-y,-z
1/2+x,1/2-y,z
loop_
_atom_site_type_symbol
_atom_site_label
_atom_site_fract_x
_atom_site_fract_y
_atom_site_fract_z
Si Si1 0.172670 0.107780 0.141635
Si Si2 0.615732 0.602312 0.836474
Si Si3 0.687530 0.742940 0.706888
Si Si4 0.910910 0.335276 0.556742
Si Si5 0.240058 0.105144 0.554979
Si Si6 0.926217 0.160363 0.709731
Si Si7 0.000000 0.500000 0.500000
O O1 0.256389 0.169781 0.216654
O O2 0.103605 0.146265 0.181245
O O3 0.188899 0.000000 0.180721
O O4 0.139984 0.113431 0.987643
O O5 0.643134 0.500000 0.818979
O O6 0.657941 0.681096 0.790939
O O7 0.514273 0.609638 0.752142
O O8 0.608178 0.777686 0.573298
O O9 0.740547 0.677555 0.659151
O O10 0.818555 0.372990 0.528869
O O11 0.939065 0.264909 0.676327
O O12 0.970446 0.419361 0.569963
O O13 0.152444 0.121657 0.422375
O O14 0.244284 0.000000 0.596759
#
# Coordination Sequence:
#
# PCOD9219426 Si02
#       7
#     8   8   8   8   8   8   2
#     4  11  22  38  64  87 115 164 207 246 295 356
#     4  11  24  39  58  89 122 157 204 248 305 352
#     4  11  22  40  59  88 124 155 199 252 297 363
#     4  11  22  38  59  90 119 157 195 242 306 353
#     4  11  20  37  65  89 117 155 196 241 308 363
#     4  11  21  40  59  90 122 151 197 257 299 358
#     4  12  24  36  60  92 128 152 200 244 286 372
#
# _framework density 18.761168999999999
#
# number of rings (size 3 to 8) (size 9 to 14) (size 15 to 20)
#    0.000    0.960    4.000    4.800    1.120    3.200 
#    0.000    4.000    0.000    0.000    0.000    3.360 
#    0.000    0.000    0.000    0.000    0.000    0.000 
#
# Total GULP energy -139426.902795 kJ/mol
# GULP energy per Si atom -5577.076112 kJ/mol
# Density = 1.871847 g / cm^3
# Si number density = 18.761169 Si / 1000 Ang^3
#
#
#
# Elastic Constant Matrix: (Units=GPa)
#
#
# Indices 1 2 3 4 5 6 
#
# 1 75.9749 42.9504 26.1196 0.0000 -21.2888 0.0000
# 2 42.9504 155.6263 40.9672 0.0000 -30.0592 0.0000
# 3 26.1196 40.9672 59.2968 0.0000 -15.5438 0.0000
# 4 0.0000 0.0000 0.0000 22.1030 0.0000 -15.1045
# 5 -21.2888 -30.0592 -15.5438 0.0000 21.0423 0.0000
# 6 0.0000 0.0000 0.0000 -15.1045 0.0000 32.5111
#
#
#
# Elastic Compliance Matrix: (Units=1/GPa)
#
#
# Indices 1 2 3 4 5 6 
#
# 1 0.019418 -0.001560 -0.003609 0.000000 0.014752 0.000000
# 2 -0.001560 0.009620 -0.003436 0.000000 0.009626 0.000000
# 3 -0.003609 -0.003436 0.023047 0.000000 0.008465 0.000000
# 4 0.000000 0.000000 0.000000 0.066289 0.000000 0.030797
# 5 0.014752 0.009626 0.008465 0.000000 0.082451 0.000000
# 6 0.000000 0.000000 0.000000 0.030797 0.000000 0.045067
#
#
# Mechanical properties :
#
#
# Convention : Reuss Voigt Hill
#
# Bulk Modulus (GPa) = 28.67328 56.77470 42.72399
# Shear Modulus (GPa) = 18.19991 27.18868 22.69430
#
# Velocity S-wave (km/s) = 3.11800 3.81097 3.48176
# Velocity P-wave (km/s) = 5.31780 7.04926 6.24384
#
# Compressibility (1/GPa) = 0.03487568
#
# Stress axis : x y z
#
# Youngs Moduli (GPa) = 51.49778 103.95198 43.39005
#
# Poissons Ratio (x) = 0.16215 0.15659
# Poissons Ratio (y) = 0.08033 0.14908
# Poissons Ratio (z) = 0.18585 0.35716
#
# Static dielectric constant tensor:
#      x y z
#    x 1.657600 0.000000 0.000330 
#    y 0.000000 1.652240 0.000000 
#    z 0.000330 0.000000 1.634940 
# 
# From -- ./inp_files/156228.got.cif
#   From: 2010.05.17/outbox.cif.g08.bks.cpg/sg12_79_cif.got.tgz:156228.got - 2010.06.03 13:09:07.
