data_PCOD9219826
_publ_section_title
;
Structure prediction by ZEFSAII (Michael W. Deem and Ramdas Pophale) SiO2 
 PCOD9219826
Probable space group: C 2/M
;
_chemical_formula_sum "Si O2"
_cell_formula_units_Z 48
_cell_length_a 16.911463
_cell_length_b 15.825037
_cell_length_c 14.165314
_cell_angle_alpha 90.000000
_cell_angle_beta 144.497918
_cell_angle_gamma 90.000000
_cell_volume 2201.548615
_symmetry_space_group_name_H-M "C 2/M"
_symmetry_group_IT_number 12
_symmetry_cell_setting 'monoclinic'
loop_
_space_group_symop_operation_xyz
x,y,z
-x,y,-z
-x,-y,-z
x,-y,z
1/2+x,1/2+y,z
1/2-x,1/2+y,-z
1/2-x,1/2-y,-z
1/2+x,1/2-y,z
loop_
_atom_site_type_symbol
_atom_site_label
_atom_site_fract_x
_atom_site_fract_y
_atom_site_fract_z
Si Si1 0.211892 0.905700 0.199034
Si Si2 0.945892 0.635088 0.303902
Si Si3 0.747424 0.907780 0.542369
Si Si4 0.087128 0.733201 0.998333
Si Si5 0.262952 0.402033 0.069630
Si Si6 0.472260 0.300812 0.695091
O O1 0.370768 0.896767 0.324687
O O2 0.194535 0.899739 0.294605
O O3 0.165706 0.000000 0.123873
O O4 0.141735 0.824892 0.084028
O O5 0.085954 0.596202 0.402078
O O6 0.828675 0.615283 0.112423
O O7 0.986075 0.734039 0.344730
O O8 0.820961 0.837720 0.550635
O O9 0.782221 0.000000 0.538303
O O10 0.203228 0.666161 0.084992
O O11 0.000680 0.749956 0.819836
O O12 0.000000 0.698958 0.000000
O O13 0.250034 0.500000 0.083528
O O14 0.418261 0.376241 0.200601
#
# Coordination Sequence:
#
# PCOD9219826 Si02
#       6
#     8   8   8   8   8   8
#     4  11  21  35  58  84 115 151 183 228 283 338
#     4  11  21  38  56  85 117 151 186 229 280 337
#     4  11  23  35  55  88 117 148 186 228 284 340
#     4  11  21  38  58  83 116 145 192 236 277 332
#     4  11  22  38  62  84 110 151 191 235 281 325
#     4  11  21  37  59  83 114 152 186 231 284 330
#
# _framework density 21.802835000000002
#
# number of rings (size 3 to 8) (size 9 to 14) (size 15 to 20)
#    0.000    1.000    5.000    4.000    0.000    2.667 
#    0.000    0.000    0.000    0.000    0.000    1.167 
#    0.000    0.000    0.000    0.000    0.000    0.000 
#
# Total GULP energy -134053.647335 kJ/mol
# GULP energy per Si atom -5585.568639 kJ/mol
# Density = 2.175321 g / cm^3
# Si number density = 21.802835 Si / 1000 Ang^3
#
#
#
# Elastic Constant Matrix: (Units=GPa)
#
#
# Indices 1 2 3 4 5 6 
#
# 1 63.1945 14.3660 0.4042 0.0000 27.6324 0.0000
# 2 14.3660 130.7348 9.9710 0.0000 15.2505 0.0000
# 3 0.4042 9.9710 42.1404 0.0000 24.1931 0.0000
# 4 0.0000 0.0000 0.0000 56.9398 0.0000 30.0181
# 5 27.6324 15.2505 24.1931 0.0000 31.2996 0.0000
# 6 0.0000 0.0000 0.0000 30.0181 0.0000 39.3587
#
#
#
# Elastic Compliance Matrix: (Units=1/GPa)
#
#
# Indices 1 2 3 4 5 6 
#
# 1 0.049842 0.000292 0.044578 0.000000 -0.078601 0.000000
# 2 0.000292 0.008121 0.000891 0.000000 -0.004903 0.000000
# 3 0.044578 0.000891 0.082581 0.000000 -0.103621 0.000000
# 4 0.000000 0.000000 0.000000 0.029372 0.000000 -0.022402
# 5 -0.078601 -0.004903 -0.103621 0.000000 0.183824 0.000000
# 6 0.000000 0.000000 0.000000 -0.022402 0.000000 0.042493
#
#
# Mechanical properties :
#
#
# Convention : Reuss Voigt Hill
#
# Bulk Modulus (GPa) = 4.30911 31.72799 18.01855
# Shear Modulus (GPa) = 13.08674 39.60819 26.34746
#
# Velocity S-wave (km/s) = 2.45262 4.26685 3.48004
# Velocity P-wave (km/s) = 3.16246 6.23365 4.94265
#
# Compressibility (1/GPa) = 0.23206633
#
# Stress axis : x y z
#
# Youngs Moduli (GPa) = 20.06347 123.13727 12.10931
#
# Poissons Ratio (x) = -0.03597 -0.53981
# Poissons Ratio (y) = -0.00586 -0.01079
# Poissons Ratio (z) = -0.89440 -0.10967
#
# Static dielectric constant tensor:
#      x y z
#    x 1.810660 0.000000 0.007320 
#    y 0.000000 1.838530 0.000000 
#    z 0.007320 0.000000 1.829710 
# 
# From -- ./inp_files/155475.got.cif
#   From: 2010.05.17/outbox.cif.g08.bks.cpg/sg12_78_cif.got.tgz:155475.got - 2010.06.03 13:09:07.
