data_PCOD9219217
_publ_section_title
;
Structure prediction by ZEFSAII (Michael W. Deem and Ramdas Pophale) SiO2 
 PCOD9219217
Probable space group: C 2/M
;
_chemical_formula_sum "Si O2"
_cell_formula_units_Z 48
_cell_length_a 16.144061
_cell_length_b 18.775674
_cell_length_c 22.089713
_cell_angle_alpha 90.000000
_cell_angle_beta 154.192402
_cell_angle_gamma 90.000000
_cell_volume 2914.992447
_symmetry_space_group_name_H-M "C 2/M"
_symmetry_group_IT_number 12
_symmetry_cell_setting 'monoclinic'
loop_
_space_group_symop_operation_xyz
x,y,z
-x,y,-z
-x,-y,-z
x,-y,z
1/2+x,1/2+y,z
1/2-x,1/2+y,-z
1/2-x,1/2-y,-z
1/2+x,1/2-y,z
loop_
_atom_site_type_symbol
_atom_site_label
_atom_site_fract_x
_atom_site_fract_y
_atom_site_fract_z
Si Si1 0.211057 0.350874 0.163381
Si Si2 0.575362 0.416458 0.357677
Si Si3 0.274612 0.582263 0.336301
Si Si4 0.045995 0.719193 0.662637
Si Si5 0.949136 0.418881 0.536483
Si Si6 0.223955 0.679637 0.410303
O O1 0.370455 0.379791 0.221392
O O2 0.240072 0.395090 0.244439
O O3 0.271731 0.269358 0.216108
O O4 0.000000 0.357895 0.000000
O O5 0.549471 0.500000 0.350294
O O6 0.684438 0.381009 0.486121
O O7 0.724315 0.405606 0.401182
O O8 0.500000 0.586076 0.500000
O O9 0.215003 0.500000 0.307156
O O10 0.181077 0.640511 0.319497
O O11 0.064764 0.640381 0.649104
O O12 0.949930 0.712376 0.665913
O O13 0.888351 0.760235 0.517303
O O14 0.986051 0.500000 0.581592
O O15 0.000000 0.413813 0.500000
#
# Coordination Sequence:
#
# PCOD9219217 Si02
#       6
#     8   8   8   8   8   8
#     4  11  23  36  50  80 115 153 182 210 268 335
#     4   9  16  30  51  76 109 138 168 218 267 316
#     4  11  20  32  54  83 111 140 182 229 271 323
#     4   9  18  32  52  72 108 137 177 223 272 310
#     4   9  18  30  52  84 104 129 177 233 282 316
#     4   9  17  30  50  80 100 135 177 223 267 313
#
# _framework density 16.466595000000002
#
# number of rings (size 3 to 8) (size 9 to 14) (size 15 to 20)
#    0.000    2.333    3.333    2.000    2.333    2.000 
#    0.000    0.833    0.000    0.500    0.000    0.000 
#    0.000    0.000    0.000    0.000    0.000    0.000 
#
# Total GULP energy -133692.738745 kJ/mol
# GULP energy per Si atom -5570.530781 kJ/mol
# Density = 1.642912 g / cm^3
# Si number density = 16.466595 Si / 1000 Ang^3
#
#
#
# Elastic Constant Matrix: (Units=GPa)
#
#
# Indices 1 2 3 4 5 6 
#
# 1 67.3217 34.2348 26.9123 -0.0057 2.9578 0.0021
# 2 34.2348 100.6993 30.2211 0.0178 0.9238 0.0008
# 3 26.9123 30.2211 74.2023 0.0234 2.3965 0.0007
# 4 -0.0057 0.0178 0.0234 8.3459 -0.0008 3.7640
# 5 2.9578 0.9238 2.3965 -0.0008 12.4715 -0.0001
# 6 0.0021 0.0008 0.0007 3.7640 -0.0001 30.4179
#
#
#
# Elastic Compliance Matrix: (Units=1/GPa)
#
#
# Indices 1 2 3 4 5 6 
#
# 1 0.019579 -0.005157 -0.004893 0.000041 -0.003321 -0.000006
# 2 -0.005157 0.012672 -0.003320 -0.000022 0.000922 0.000003
# 3 -0.004893 -0.003320 0.016662 -0.000046 -0.001795 0.000006
# 4 0.000041 -0.000022 -0.000046 0.126902 0.000009 -0.015703
# 5 -0.003321 0.000922 -0.001795 0.000009 0.081247 -0.000001
# 6 -0.000006 0.000003 0.000006 -0.015703 -0.000001 0.034819
#
#
# Mechanical properties :
#
#
# Convention : Reuss Voigt Hill
#
# Bulk Modulus (GPa) = 45.10472 47.21776 46.16124
# Shear Modulus (GPa) = 15.33684 20.30405 17.82044
#
# Velocity S-wave (km/s) = 3.05518 3.51528 3.29328
# Velocity P-wave (km/s) = 6.31638 6.72409 6.52342
#
# Compressibility (1/GPa) = 0.02217063
#
# Stress axis : x y z
#
# Youngs Moduli (GPa) = 51.07604 78.91504 60.01781
#
# Poissons Ratio (x) = 0.40698 0.29368
# Poissons Ratio (y) = 0.26341 0.19928
# Poissons Ratio (z) = 0.24993 0.26202
#
# Static dielectric constant tensor:
#      x y z
#    x 1.596220 0.000000 0.015810 
#    y 0.000000 1.591230 0.000000 
#    z 0.015810 0.000000 1.516230 
# 
# From -- ./inp_files/227225.got.cif
#   From: 2010.05.17/outbox.cif.g08.bks.cpg/sg12_114_cif.got.tgz:227225.got - 2010.06.03 13:09:07.
