data_PCOD9219503
_publ_section_title
;
Structure prediction by ZEFSAII (Michael W. Deem and Ramdas Pophale) SiO2 
 PCOD9219503
Probable space group: C 2/M
;
_chemical_formula_sum "Si O2"
_cell_formula_units_Z 48
_cell_length_a 17.079030
_cell_length_b 18.505811
_cell_length_c 8.930263
_cell_angle_alpha 90.000000
_cell_angle_beta 112.874906
_cell_angle_gamma 90.000000
_cell_volume 2600.536299
_symmetry_space_group_name_H-M "C 2/M"
_symmetry_group_IT_number 12
_symmetry_cell_setting 'monoclinic'
loop_
_space_group_symop_operation_xyz
x,y,z
-x,y,-z
-x,-y,-z
x,-y,z
1/2+x,1/2+y,z
1/2-x,1/2+y,-z
1/2-x,1/2-y,-z
1/2+x,1/2-y,z
loop_
_atom_site_type_symbol
_atom_site_label
_atom_site_fract_x
_atom_site_fract_y
_atom_site_fract_z
Si Si1 0.760051 0.701481 0.222408
Si Si2 0.715510 0.414969 0.447870
Si Si3 0.978822 0.678934 0.659935
Si Si4 0.380834 0.080086 0.777866
Si Si5 0.399918 0.696128 0.482576
Si Si6 0.865786 0.694677 0.022441
O O1 0.743775 0.639982 0.334879
O O2 0.827113 0.765869 0.322554
O O3 0.800120 0.668466 0.101061
O O4 0.675087 0.740084 0.100754
O O5 0.702088 0.500000 0.395012
O O6 0.791157 0.414688 0.625701
O O7 0.635897 0.376595 0.471476
O O8 0.051974 0.710838 0.817985
O O9 0.000000 0.668886 0.500000
O O10 0.949212 0.604497 0.706549
O O11 0.906289 0.739661 0.609542
O O12 0.394884 0.000000 0.841670
O O13 0.385735 0.133883 0.918332
O O14 0.500000 0.687497 0.500000
#
# Coordination Sequence:
#
# PCOD9219503 Si02
#       6
#     8   8   8   8   8   8
#     4  11  21  40  65  90 118 156 207 255 299 355
#     4  11  23  40  63  90 126 166 198 242 310 371
#     4  11  21  38  60  91 119 158 206 254 303 357
#     4  11  23  37  57  88 127 164 198 244 305 368
#     4  11  20  39  66  90 115 154 210 255 289 354
#     4  11  22  36  62  92 119 154 204 258 304 346
#
# _framework density 18.457730999999999
#
# number of rings (size 3 to 8) (size 9 to 14) (size 15 to 20)
#    0.000    1.000    6.667    2.000    0.000    2.667 
#    0.000    0.000    0.000    2.500    0.000    0.000 
#    0.000    0.000    0.000    0.000    0.000    0.000 
#
# Total GULP energy -133606.519183 kJ/mol
# GULP energy per Si atom -5566.938299 kJ/mol
# Density = 1.841572 g / cm^3
# Si number density = 18.457731 Si / 1000 Ang^3
#
#
#
# Elastic Constant Matrix: (Units=GPa)
#
#
# Indices 1 2 3 4 5 6 
#
# 1 60.5061 31.1978 26.0803 0.0000 -12.7902 0.0000
# 2 31.1978 81.3368 36.1894 0.0000 -13.7904 0.0000
# 3 26.0803 36.1894 113.0612 0.0000 -2.3160 0.0000
# 4 0.0000 0.0000 0.0000 44.0708 0.0000 1.0377
# 5 -12.7902 -13.7904 -2.3160 0.0000 31.4968 0.0000
# 6 0.0000 0.0000 0.0000 1.0377 0.0000 14.8305
#
#
#
# Elastic Compliance Matrix: (Units=1/GPa)
#
#
# Indices 1 2 3 4 5 6 
#
# 1 0.022317 -0.006162 -0.003050 0.000000 0.006140 0.000000
# 2 -0.006162 0.017244 -0.004001 0.000000 0.004754 0.000000
# 3 -0.003050 -0.004001 0.010784 0.000000 -0.002197 0.000000
# 4 0.000000 0.000000 0.000000 0.022728 0.000000 -0.001590
# 5 0.006140 0.004754 -0.002197 0.000000 0.036163 0.000000
# 6 0.000000 0.000000 0.000000 -0.001590 0.000000 0.067540
#
#
# Mechanical properties :
#
#
# Convention : Reuss Voigt Hill
#
# Bulk Modulus (GPa) = 41.80635 49.09324 45.44979
# Shear Modulus (GPa) = 23.67716 28.84206 26.25961
#
# Velocity S-wave (km/s) = 3.58547 3.95726 3.77595
# Velocity P-wave (km/s) = 6.31188 6.89459 6.60966
#
# Compressibility (1/GPa) = 0.02391981
#
# Stress axis : x y z
#
# Youngs Moduli (GPa) = 44.80886 57.99075 92.73095
#
# Poissons Ratio (x) = 0.35734 0.28281
# Poissons Ratio (y) = 0.27611 0.37100
# Poissons Ratio (z) = 0.13666 0.23201
#
# Static dielectric constant tensor:
#      x y z
#    x 1.722960 0.000000 0.018910 
#    y 0.000000 1.630510 0.000000 
#    z 0.018910 0.000000 1.652610 
# 
# From -- ./inp_files/75464.got.cif
#   From: 2010.05.17/outbox.cif.g08.bks.cpg/sg12_38_cif.got.tgz:75464.got - 2010.06.03 13:09:07.
