data_PCOD9219860
_publ_section_title
;
Structure prediction by ZEFSAII (Michael W. Deem and Ramdas Pophale) SiO2 
 PCOD9219860
Probable space group: C 2/M
;
_chemical_formula_sum "Si O2"
_cell_formula_units_Z 56
_cell_length_a 18.990918
_cell_length_b 26.313660
_cell_length_c 9.127378
_cell_angle_alpha 90.000000
_cell_angle_beta 135.162128
_cell_angle_gamma 90.000000
_cell_volume 3216.072743
_symmetry_space_group_name_H-M "C 2/M"
_symmetry_group_IT_number 12
_symmetry_cell_setting 'monoclinic'
loop_
_space_group_symop_operation_xyz
x,y,z
-x,y,-z
-x,-y,-z
x,-y,z
1/2+x,1/2+y,z
1/2-x,1/2+y,-z
1/2-x,1/2-y,-z
1/2+x,1/2-y,z
loop_
_atom_site_type_symbol
_atom_site_label
_atom_site_fract_x
_atom_site_fract_y
_atom_site_fract_z
Si Si1 0.880793 0.228512 0.508860
Si Si2 0.736850 0.311908 0.216750
Si Si3 0.562936 0.229867 0.942450
Si Si4 0.605184 0.354091 0.224739
Si Si5 0.976282 0.943090 0.702455
Si Si6 0.663393 0.558316 0.790644
Si Si7 0.759923 0.665325 0.912471
O O1 0.822394 0.281508 0.426134
O O2 0.861379 0.188680 0.610411
O O3 0.832748 0.197337 0.299520
O O4 0.993548 0.247892 0.707869
O O5 0.693670 0.360067 0.238856
O O6 0.643790 0.273676 0.086916
O O7 0.764096 0.320433 0.089546
O O8 0.500000 0.220683 0.000000
O O9 0.635357 0.182942 0.005059
O O10 0.574656 0.404736 0.263047
O O11 0.500000 0.337716 0.000000
O O12 0.907171 0.943645 0.456349
O O13 0.086883 0.928045 0.810043
O O14 0.982255 0.000000 0.770245
O O15 0.700879 0.500000 0.868031
O O16 0.737708 0.605145 0.874096
#
# Coordination Sequence:
#
# PCOD9219860 Si02
#       7
#     8   8   8   8   8   8   8
#     4  11  21  36  55  73 115 151 177 229 267 320
#     4  11  23  36  50  82 113 145 191 218 272 337
#     4  11  22  36  53  82 111 144 191 225 270 331
#     4  12  20  34  53  76 111 152 183 216 276 329
#     4   9  19  33  53  83 109 144 186 223 278 336
#     4   9  18  35  57  81 111 141 183 235 278 325
#     4  11  24  36  56  84 107 148 193 220 275 337
#
# _framework density 17.412541999999998
#
# number of rings (size 3 to 8) (size 9 to 14) (size 15 to 20)
#    0.000    1.429    4.286    3.857    2.000    2.571 
#    0.000    0.714    0.000    0.429    0.000    3.000 
#    0.000    0.000    0.000    0.000    0.000    0.000 
#
# Total GULP energy -155906.678372 kJ/mol
# GULP energy per Si atom -5568.095656 kJ/mol
# Density = 1.737291 g / cm^3
# Si number density = 17.412542 Si / 1000 Ang^3
#
#
#
# Elastic Constant Matrix: (Units=GPa)
#
#
# Indices 1 2 3 4 5 6 
#
# 1 98.2625 49.9013 17.0997 0.0000 -8.4783 0.0000
# 2 49.9013 86.3324 14.2099 0.0000 -1.2462 0.0000
# 3 17.0997 14.2099 59.8376 0.0000 1.0099 0.0000
# 4 0.0000 0.0000 0.0000 12.8650 0.0000 11.7447
# 5 -8.4783 -1.2462 1.0099 0.0000 19.6542 0.0000
# 6 0.0000 0.0000 0.0000 11.7447 0.0000 17.7044
#
#
#
# Elastic Compliance Matrix: (Units=1/GPa)
#
#
# Indices 1 2 3 4 5 6 
#
# 1 0.015426 -0.008412 -0.002516 0.000000 0.006250 0.000000
# 2 -0.008412 0.016658 -0.001510 0.000000 -0.002495 0.000000
# 3 -0.002516 -0.001510 0.017825 0.000000 -0.002097 0.000000
# 4 0.000000 0.000000 0.000000 0.197086 0.000000 -0.130742
# 5 0.006250 -0.002495 -0.002097 0.000000 0.053525 0.000000
# 6 0.000000 0.000000 0.000000 -0.130742 0.000000 0.143215
#
#
# Mechanical properties :
#
#
# Convention : Reuss Voigt Hill
#
# Bulk Modulus (GPa) = 39.94762 45.20605 42.57683
# Shear Modulus (GPa) = 10.48317 20.92616 15.70466
#
# Velocity S-wave (km/s) = 2.45633 3.47044 3.00645
# Velocity P-wave (km/s) = 5.57103 6.48666 6.04620
#
# Compressibility (1/GPa) = 0.02503278
#
# Stress axis : x y z
#
# Youngs Moduli (GPa) = 64.82610 60.03160 56.10144
#
# Poissons Ratio (x) = 0.50499 0.14116
# Poissons Ratio (y) = 0.54532 0.08470
# Poissons Ratio (z) = 0.16311 0.09064
#
# Static dielectric constant tensor:
#      x y z
#    x 1.640630 0.000000 -0.037140 
#    y 0.000000 1.642560 0.000000 
#    z -0.037140 0.000000 1.623360 
# 
# From -- ./inp_files/79718.got.cif
#   From: 2010.05.17/outbox.cif.g08.bks.cpg/sg12_40_cif.got.tgz:79718.got - 2010.06.03 13:09:07.
