data_PCOD9219949
_publ_section_title
;
Structure prediction by ZEFSAII (Michael W. Deem and Ramdas Pophale) SiO2 
 PCOD9219949
Probable space group: C 2/M
;
_chemical_formula_sum "Si O2"
_cell_formula_units_Z 52
_cell_length_a 8.785358
_cell_length_b 26.183936
_cell_length_c 11.991717
_cell_angle_alpha 90.000000
_cell_angle_beta 80.496126
_cell_angle_gamma 90.000000
_cell_volume 2720.655437
_symmetry_space_group_name_H-M "C 2/M"
_symmetry_group_IT_number 12
_symmetry_cell_setting 'monoclinic'
loop_
_space_group_symop_operation_xyz
x,y,z
-x,y,-z
-x,-y,-z
x,-y,z
1/2+x,1/2+y,z
1/2-x,1/2+y,-z
1/2-x,1/2-y,-z
1/2+x,1/2-y,z
loop_
_atom_site_type_symbol
_atom_site_label
_atom_site_fract_x
_atom_site_fract_y
_atom_site_fract_z
Si Si1 0.111697 0.279187 0.576801
Si Si2 0.500000 0.601238 0.500000
Si Si3 0.094002 0.357456 0.762512
Si Si4 0.779337 0.700415 0.842614
Si Si5 0.360949 0.939154 0.425232
Si Si6 0.690110 0.680188 0.095598
Si Si7 0.551574 0.679311 0.693756
O O1 0.250000 0.250000 0.500000
O O2 0.168859 0.319079 0.661085
O O3 0.013218 0.234318 0.646528
O O4 0.000000 0.304997 0.500000
O O5 0.325120 0.574942 0.530199
O O6 0.523319 0.636808 0.605706
O O7 0.087126 0.409282 0.693417
O O8 0.191648 0.358895 0.862775
O O9 0.943548 0.326955 0.820089
O O10 0.773522 0.761182 0.869179
O O11 0.719369 0.687831 0.726124
O O12 0.693357 0.678935 0.963013
O O13 0.500000 0.927581 0.500000
O O14 0.363218 0.000000 0.411190
O O15 0.537748 0.668411 0.182139
#
# Coordination Sequence:
#
# PCOD9219949 Si02
#       7
#     8   4   8   8   8   8   8
#     4  12  21  31  48  79 121 159 189 238 302 373
#     4  12  23  42  68  96 128 168 201 262 330 392
#     4  12  21  38  57  85 117 161 212 257 311 370
#     4  11  22  35  57  84 125 173 208 250 299 373
#     4  11  25  45  67  94 125 162 214 271 328 388
#     4  11  21  37  54  84 127 169 212 246 298 372
#     4  12  21  35  54  87 125 160 205 245 304 378
#
# _framework density 19.113040000000002
#
# number of rings (size 3 to 8) (size 9 to 14) (size 15 to 20)
#    0.000    0.462    5.385    5.308    0.000    2.462 
#    0.000    0.000    0.000    1.846    0.000    1.077 
#    0.000    0.000    0.000    0.000    0.000    0.000 
#
# Total GULP energy -144783.668511 kJ/mol
# GULP energy per Si atom -5568.602635 kJ/mol
# Density = 1.906954 g / cm^3
# Si number density = 19.113040 Si / 1000 Ang^3
#
#
#
# Elastic Constant Matrix: (Units=GPa)
#
#
# Indices 1 2 3 4 5 6 
#
# 1 75.6917 20.5187 35.2451 0.0000 12.3769 0.0000
# 2 20.5187 90.9481 40.3593 0.0000 8.9624 0.0000
# 3 35.2451 40.3593 127.7467 0.0000 10.2838 0.0000
# 4 0.0000 0.0000 0.0000 -1.3746 0.0000 8.7259
# 5 12.3769 8.9624 10.2838 0.0000 39.5013 0.0000
# 6 0.0000 0.0000 0.0000 8.7259 0.0000 21.4437
#
#
#
# Elastic Compliance Matrix: (Units=1/GPa)
#
#
# Indices 1 2 3 4 5 6 
#
# 1 0.015925 -0.001642 -0.003578 0.000000 -0.003686 0.000000
# 2 -0.001642 0.013097 -0.003562 0.000000 -0.001530 0.000000
# 3 -0.003578 -0.003562 0.009995 0.000000 -0.000673 0.000000
# 4 0.000000 0.000000 0.000000 -0.203032 0.000000 0.082618
# 5 -0.003686 -0.001530 -0.000673 0.000000 0.026993 0.000000
# 6 0.000000 0.000000 0.000000 0.082618 0.000000 0.013014
#
#
# Mechanical properties :
#
#
# Convention : Reuss Voigt Hill
#
# Bulk Modulus (GPa) = 46.61245 54.07030 50.34138
# Shear Modulus (GPa) = -50.35608 25.13164 -12.61222
#
# Velocity S-wave (km/s) = -5.13845 3.63008 -2.57159
# Velocity P-wave (km/s) = 3.28088 6.77651 4.19267
#
# Compressibility (1/GPa) = 0.02145349
#
# Stress axis : x y z
#
# Youngs Moduli (GPa) = 62.79238 76.35365 100.05338
#
# Poissons Ratio (x) = 0.12535 0.35803
# Poissons Ratio (y) = 0.10309 0.35635
# Poissons Ratio (z) = 0.22470 0.27194
#
# Static dielectric constant tensor:
#      x y z
#    x 1.644670 0.000000 -0.056480 
#    y 0.000000 1.640600 0.000000 
#    z -0.056480 0.000000 1.676020 
# 
# From -- ./inp_files/123649.got.cif
#   From: 2010.05.17/outbox.cif.g08.bks.cpg/sg12_62_cif.got.tgz:123649.got - 2010.06.03 13:09:07.
