data_PCOD9219143
_publ_section_title
;
Structure prediction by ZEFSAII (Michael W. Deem and Ramdas Pophale) SiO2 
 PCOD9219143
Probable space group: C 2/M
;
_chemical_formula_sum "Si O2"
_cell_formula_units_Z 48
_cell_length_a 24.893286
_cell_length_b 8.391242
_cell_length_c 13.976288
_cell_angle_alpha 90.000000
_cell_angle_beta 107.027309
_cell_angle_gamma 90.000000
_cell_volume 2791.472103
_symmetry_space_group_name_H-M "C 2/M"
_symmetry_group_IT_number 12
_symmetry_cell_setting 'monoclinic'
loop_
_space_group_symop_operation_xyz
x,y,z
-x,y,-z
-x,-y,-z
x,-y,z
1/2+x,1/2+y,z
1/2-x,1/2+y,-z
1/2-x,1/2-y,-z
1/2+x,1/2-y,z
loop_
_atom_site_type_symbol
_atom_site_label
_atom_site_fract_x
_atom_site_fract_y
_atom_site_fract_z
Si Si1 0.362987 0.686115 0.354518
Si Si2 0.519334 0.306294 0.113496
Si Si3 0.372399 0.306652 0.717538
Si Si4 0.457900 0.306414 0.274888
Si Si5 0.565895 0.813173 0.437711
Si Si6 0.250438 0.810935 0.390600
O O1 0.351812 0.500000 0.337200
O O2 0.396034 0.744338 0.277161
O O3 0.408104 0.713859 0.462430
O O4 0.305559 0.762994 0.360751
O O5 0.517558 0.500000 0.109961
O O6 0.583014 0.262844 0.176852
O O7 0.478559 0.257823 0.179906
O O8 0.500000 0.246985 0.000000
O O9 0.375914 0.500000 0.707594
O O10 0.395310 0.225448 0.633453
O O11 0.307342 0.261118 0.692129
O O12 0.460599 0.500000 0.281008
O O13 0.504108 0.238095 0.372227
O O14 0.567509 0.000000 0.461969
O O15 0.250000 0.750000 0.500000
O O16 0.249749 0.000000 0.397292
#
# Coordination Sequence:
#
# PCOD9219143 Si02
#       6
#     8   8   8   8   8   8
#     4  11  21  32  46  65  97 136 167 198 237 286
#     4   8  14  29  55  79  93 113 156 209 251 292
#     4   9  18  32  49  71  99 128 160 200 244 288
#     4   9  19  33  48  69  97 128 160 199 249 294
#     4  11  20  29  46  70  97 129 164 201 239 288
#     4  11  21  32  48  69  98 135 171 201 235 281
#
# _framework density 17.195226999999999
#
# number of rings (size 3 to 8) (size 9 to 14) (size 15 to 20)
#    0.000    2.167    1.667    4.000    0.000    4.000 
#    0.000    0.000    0.000    9.000    0.000    0.000 
#    0.000    0.000    0.000    0.000    0.000    0.333 
#
# Total GULP energy -133794.574743 kJ/mol
# GULP energy per Si atom -5574.773948 kJ/mol
# Density = 1.715609 g / cm^3
# Si number density = 17.195227 Si / 1000 Ang^3
#
#
#
# Elastic Constant Matrix: (Units=GPa)
#
#
# Indices 1 2 3 4 5 6 
#
# 1 168.2590 18.1570 61.3291 0.0000 2.1445 0.0000
# 2 18.1570 12.1938 1.6304 0.0000 3.4491 0.0000
# 3 61.3291 1.6304 91.5361 0.0000 5.7029 0.0000
# 4 0.0000 0.0000 0.0000 5.9962 0.0000 2.6583
# 5 2.1445 3.4491 5.7029 0.0000 7.7572 0.0000
# 6 0.0000 0.0000 0.0000 2.6583 0.0000 23.7896
#
#
#
# Elastic Compliance Matrix: (Units=1/GPa)
#
#
# Indices 1 2 3 4 5 6 
#
# 1 0.010313 -0.017258 -0.007234 0.000000 0.010141 0.000000
# 2 -0.017258 0.122767 0.013079 0.000000 -0.059430 0.000000
# 3 -0.007234 0.013079 0.016534 0.000000 -0.015970 0.000000
# 4 0.000000 0.000000 0.000000 0.175463 0.000000 -0.019606
# 5 0.010141 -0.059430 -0.015970 0.000000 0.164275 0.000000
# 6 0.000000 0.000000 0.000000 -0.019606 0.000000 0.044226
#
#
# Mechanical properties :
#
#
# Convention : Reuss Voigt Hill
#
# Bulk Modulus (GPa) = 7.88721 48.24689 28.06705
# Shear Modulus (GPa) = 8.35189 20.23344 14.29267
#
# Velocity S-wave (km/s) = 2.20627 3.43401 2.88618
# Velocity P-wave (km/s) = 3.32972 6.62136 5.24068
#
# Compressibility (1/GPa) = 0.12678758
#
# Stress axis : x y z
#
# Youngs Moduli (GPa) = 96.96456 8.14550 60.48301
#
# Poissons Ratio (x) = 0.14057 0.43754
# Poissons Ratio (y) = 1.67337 -0.79103
# Poissons Ratio (z) = 0.70146 -0.10653
#
# Static dielectric constant tensor:
#      x y z
#    x 1.633160 0.000000 -0.007510 
#    y 0.000000 1.586720 0.000000 
#    z -0.007510 0.000000 1.576020 
# 
# From -- ./inp_files/236596.got.cif
#   From: 2010.05.17/outbox.cif.g08.bks.cpg/sg12_119_cif.got.tgz:236596.got - 2010.06.03 13:09:07.
