data_PCOD9219581
_publ_section_title
;
Structure prediction by ZEFSAII (Michael W. Deem and Ramdas Pophale) SiO2 
 PCOD9219581
Probable space group: C 2/M
;
_chemical_formula_sum "Si O2"
_cell_formula_units_Z 56
_cell_length_a 17.176999
_cell_length_b 15.569199
_cell_length_c 10.890017
_cell_angle_alpha 90.000000
_cell_angle_beta 104.013260
_cell_angle_gamma 90.000000
_cell_volume 2825.668201
_symmetry_space_group_name_H-M "C 2/M"
_symmetry_group_IT_number 12
_symmetry_cell_setting 'monoclinic'
loop_
_space_group_symop_operation_xyz
x,y,z
-x,y,-z
-x,-y,-z
x,-y,z
1/2+x,1/2+y,z
1/2-x,1/2+y,-z
1/2-x,1/2-y,-z
1/2+x,1/2-y,z
loop_
_atom_site_type_symbol
_atom_site_label
_atom_site_fract_x
_atom_site_fract_y
_atom_site_fract_z
Si Si1 0.698418 0.306411 0.722113
Si Si2 0.963628 0.597507 0.622447
Si Si3 0.592308 0.599344 0.497989
Si Si4 0.357838 0.252855 0.668983
Si Si5 0.893915 0.333631 0.164849
Si Si6 0.413866 0.697720 0.959399
Si Si7 0.264014 0.599722 0.017438
O O1 0.648504 0.379956 0.635507
O O2 0.764508 0.264719 0.659177
O O3 0.637177 0.234107 0.745525
O O4 0.741063 0.345293 0.859139
O O5 0.932911 0.500000 0.621548
O O6 0.034521 0.612988 0.748342
O O7 0.000000 0.608199 0.500000
O O8 0.897127 0.669117 0.622684
O O9 0.500000 0.616583 0.500000
O O10 0.598705 0.500000 0.463216
O O11 0.621435 0.665040 0.405378
O O12 0.397081 0.269210 0.816878
O O13 0.919259 0.276704 0.057321
O O14 0.816581 0.386941 0.091682
O O15 0.500000 0.651855 0.000000
O O16 0.339675 0.639178 0.973809
O O17 0.276099 0.500000 0.048908
#
# Coordination Sequence:
#
# PCOD9219581 Si02
#       7
#     8   8   8   8   8   8   8
#     4  11  22  42  66  90 125 173 216 260 325 385
#     4  11  25  42  64  95 127 167 217 265 320 385
#     4  11  26  44  65  95 128 170 222 270 324 384
#     4  12  22  43  67  93 129 170 212 265 325 381
#     4  11  20  42  65  91 129 168 208 261 325 384
#     4  11  22  40  65  94 125 166 216 253 321 390
#     4  11  23  39  63  94 131 167 211 269 322 382
#
# _framework density 19.81832
#
# number of rings (size 3 to 8) (size 9 to 14) (size 15 to 20)
#    0.000    0.857    4.286    4.286    2.000    2.000 
#    0.000    2.143    0.000    0.000    0.000    0.000 
#    0.000    0.000    0.000    0.000    0.000    0.000 
#
# Total GULP energy -156583.590331 kJ/mol
# GULP energy per Si atom -5592.271083 kJ/mol
# Density = 1.977321 g / cm^3
# Si number density = 19.818320 Si / 1000 Ang^3
#
#
#
# Elastic Constant Matrix: (Units=GPa)
#
#
# Indices 1 2 3 4 5 6 
#
# 1 54.6147 17.0869 18.8491 0.0000 -3.9507 0.0000
# 2 17.0869 107.4738 28.3775 0.0000 -24.8385 0.0000
# 3 18.8491 28.3775 71.6981 0.0000 -9.9798 0.0000
# 4 0.0000 0.0000 0.0000 21.2578 0.0000 8.7910
# 5 -3.9507 -24.8385 -9.9798 0.0000 32.2710 0.0000
# 6 0.0000 0.0000 0.0000 8.7910 0.0000 18.0255
#
#
#
# Elastic Compliance Matrix: (Units=1/GPa)
#
#
# Indices 1 2 3 4 5 6 
#
# 1 0.020545 -0.002184 -0.004619 0.000000 -0.000594 0.000000
# 2 -0.002184 0.012410 -0.003182 0.000000 0.008301 0.000000
# 3 -0.004619 -0.003182 0.016721 0.000000 0.002156 0.000000
# 4 0.000000 0.000000 0.000000 0.058926 0.000000 -0.028738
# 5 -0.000594 0.008301 0.002156 0.000000 0.037970 0.000000
# 6 0.000000 0.000000 0.000000 -0.028738 0.000000 0.069492
#
#
# Mechanical properties :
#
#
# Convention : Reuss Voigt Hill
#
# Bulk Modulus (GPa) = 33.66439 40.26817 36.96628
# Shear Modulus (GPa) = 20.33026 25.60908 22.96967
#
# Velocity S-wave (km/s) = 3.20634 3.59861 3.40812
# Velocity P-wave (km/s) = 5.54354 6.13428 5.84638
#
# Compressibility (1/GPa) = 0.02970498
#
# Stress axis : x y z
#
# Youngs Moduli (GPa) = 48.67445 80.57705 59.80332
#
# Poissons Ratio (x) = 0.17598 0.27626
# Poissons Ratio (y) = 0.10630 0.19032
# Poissons Ratio (z) = 0.22485 0.25643
#
# Static dielectric constant tensor:
#      x y z
#    x 1.700820 0.000000 0.013600 
#    y 0.000000 1.658350 0.000000 
#    z 0.013600 0.000000 1.697150 
# 
# From -- ./inp_files/143756.got.cif
#   From: 2010.05.17/outbox.cif.g08.bks.cpg/sg12_72_cif.got.tgz:143756.got - 2010.06.03 13:09:07.
