data_PCOD9219622
_publ_section_title
;
Structure prediction by ZEFSAII (Michael W. Deem and Ramdas Pophale) SiO2 
 PCOD9219622
Probable space group: C 2/M
;
_chemical_formula_sum "Si O2"
_cell_formula_units_Z 48
_cell_length_a 23.632376
_cell_length_b 8.051309
_cell_length_c 25.102337
_cell_angle_alpha 90.000000
_cell_angle_beta 34.535300
_cell_angle_gamma 90.000000
_cell_volume 2707.728550
_symmetry_space_group_name_H-M "C 2/M"
_symmetry_group_IT_number 12
_symmetry_cell_setting 'monoclinic'
loop_
_space_group_symop_operation_xyz
x,y,z
-x,y,-z
-x,-y,-z
x,-y,z
1/2+x,1/2+y,z
1/2-x,1/2+y,-z
1/2-x,1/2-y,-z
1/2+x,1/2-y,z
loop_
_atom_site_type_symbol
_atom_site_label
_atom_site_fract_x
_atom_site_fract_y
_atom_site_fract_z
Si Si1 0.869741 0.297174 0.050517
Si Si2 0.516874 0.200414 0.717697
Si Si3 0.170157 0.698053 0.516776
Si Si4 0.710253 0.697949 0.088511
Si Si5 0.097778 0.702713 0.855810
Si Si6 0.324326 0.199103 0.316646
O O1 0.867903 0.500000 0.051911
O O2 0.784316 0.236519 0.077101
O O3 0.860028 0.243517 0.119579
O O4 0.980800 0.250009 0.944883
O O5 0.565774 0.256501 0.623530
O O6 0.403502 0.249620 0.814288
O O7 0.589372 0.260423 0.709444
O O8 0.521811 0.000000 0.714585
O O9 0.167579 0.500000 0.515274
O O10 0.250000 0.750000 0.500000
O O11 0.217061 0.762439 0.425667
O O12 0.714253 0.500000 0.087797
O O13 0.750000 0.750000 0.000000
O O14 0.100213 0.500000 0.854007
O O15 0.154834 0.761721 0.758975
O O16 0.333672 0.000000 0.308058
#
# Coordination Sequence:
#
# PCOD9219622 Si02
#       6
#     8   8   8   8   8   8
#     4   8  15  27  43  65  90 116 148 182 219 263
#     4   9  18  31  45  65  93 121 148 180 220 266
#     4   9  17  29  45  65  91 120 150 186 225 265
#     4  11  21  31  46  68  93 120 150 182 218 266
#     4   8  13  25  46  67  88 114 144 184 227 262
#     4   9  16  27  47  72  93 114 146 188 230 269
#
# _framework density 17.727035999999998
#
# number of rings (size 3 to 8) (size 9 to 14) (size 15 to 20)
#    0.000    3.000    0.000    4.000    0.000    6.000 
#    0.000    0.000    0.000    3.000    0.000   14.000 
#    0.000    0.000    0.000    0.000    0.000    0.000 
#
# Total GULP energy -133667.329072 kJ/mol
# GULP energy per Si atom -5569.472045 kJ/mol
# Density = 1.768669 g / cm^3
# Si number density = 17.727036 Si / 1000 Ang^3
#
#
#
# Elastic Constant Matrix: (Units=GPa)
#
#
# Indices 1 2 3 4 5 6 
#
# 1 106.0034 10.2446 90.4704 0.0006 16.3392 0.0000
# 2 10.2446 6.1737 7.3357 0.0032 3.8789 -0.0022
# 3 90.4704 7.3357 182.8221 0.0002 29.1347 -0.0007
# 4 0.0006 0.0032 0.0002 27.1863 -0.0006 0.2122
# 5 16.3392 3.8789 29.1347 -0.0006 33.4861 0.0004
# 6 0.0000 -0.0022 -0.0007 0.2122 0.0004 13.3256
#
#
#
# Elastic Compliance Matrix: (Units=1/GPa)
#
#
# Indices 1 2 3 4 5 6 
#
# 1 0.018606 -0.021282 -0.008474 0.000002 0.000760 -0.000004
# 2 -0.021282 0.202129 0.005222 -0.000024 -0.017572 0.000034
# 3 -0.008474 0.005222 0.010323 -0.000001 -0.005451 0.000002
# 4 0.000002 -0.000024 -0.000001 0.036788 0.000003 -0.000586
# 5 0.000760 -0.017572 -0.005451 0.000003 0.036271 -0.000004
# 6 -0.000004 0.000034 0.000002 -0.000586 -0.000004 0.075053
#
#
# Mechanical properties :
#
#
# Convention : Reuss Voigt Hill
#
# Bulk Modulus (GPa) = 5.49490 56.78894 31.14192
# Shear Modulus (GPa) = 10.22702 27.26283 18.74492
#
# Velocity S-wave (km/s) = 2.40451 3.92589 3.25533
# Velocity P-wave (km/s) = 3.28867 7.25637 5.63340
#
# Compressibility (1/GPa) = 0.18198692
#
# Stress axis : x y z
#
# Youngs Moduli (GPa) = 53.74626 4.94734 96.87526
#
# Poissons Ratio (x) = 0.10529 0.82096
# Poissons Ratio (y) = 1.14385 -0.50585
# Poissons Ratio (z) = 0.45547 -0.02583
#
# Static dielectric constant tensor:
#      x y z
#    x 1.605980 0.000000 0.025000 
#    y 0.000000 1.604530 0.000000 
#    z 0.025000 0.000000 1.645750 
# 
# From -- ./inp_files/367117.got.cif
#   From: 2010.05.17/outbox.cif.g08.bks.cpg/sg12_184_cif.got.tgz:367117.got - 2010.06.03 13:09:07.
