data_PCOD9219025
_publ_section_title
;
Structure prediction by ZEFSAII (Michael W. Deem and Ramdas Pophale) SiO2 
 PCOD9219025
Probable space group: C 2/M
;
_chemical_formula_sum "Si O2"
_cell_formula_units_Z 64
_cell_length_a 8.888419
_cell_length_b 17.357846
_cell_length_c 20.958091
_cell_angle_alpha 90.000000
_cell_angle_beta 69.829825
_cell_angle_gamma 90.000000
_cell_volume 3035.192431
_symmetry_space_group_name_H-M "C 2/M"
_symmetry_group_IT_number 12
_symmetry_cell_setting 'monoclinic'
loop_
_space_group_symop_operation_xyz
x,y,z
-x,y,-z
-x,-y,-z
x,-y,z
1/2+x,1/2+y,z
1/2-x,1/2+y,-z
1/2-x,1/2-y,-z
1/2+x,1/2-y,z
loop_
_atom_site_type_symbol
_atom_site_label
_atom_site_fract_x
_atom_site_fract_y
_atom_site_fract_z
Si Si1 0.350443 0.087792 0.247320
Si Si2 0.721005 0.814477 0.863784
Si Si3 0.147622 0.310149 0.247832
Si Si4 0.642711 0.581210 0.407392
Si Si5 0.528999 0.288294 0.620426
Si Si6 0.581119 0.718176 0.049639
Si Si7 0.729363 0.588451 0.672087
Si Si8 0.436295 0.124940 0.437844
O O1 0.286156 0.120098 0.189515
O O2 0.489796 0.145497 0.248585
O O3 0.226900 0.086134 0.324879
O O4 0.408239 0.000000 0.231607
O O5 0.779935 0.737343 0.819883
O O6 0.543742 0.787542 0.914076
O O7 0.855492 0.829160 0.898334
O O8 0.096385 0.248738 0.310402
O O9 0.270965 0.371949 0.258674
O O10 0.551994 0.500000 0.422349
O O11 0.546564 0.659396 0.422931
O O12 0.776482 0.581328 0.442195
O O13 0.641873 0.349225 0.640079
O O14 0.600239 0.212358 0.578273
O O15 0.500000 0.677597 0.000000
O O16 0.750000 0.750000 0.000000
O O17 0.673000 0.500000 0.677349
O O18 0.916972 0.591772 0.625373
O O19 0.500000 0.120588 0.500000
#
# Coordination Sequence:
#
# PCOD9219025 Si02
#       8
#     8   8   8   8   8   8   8   8
#     4  11  21  34  56  91 124 151 189 238 294 352
#     4  11  19  35  63  91 117 158 200 239 287 341
#     4  11  20  34  59  89 119 152 192 236 288 350
#     4  11  22  38  57  83 121 154 182 238 303 352
#     4  11  22  37  58  86 118 144 186 247 300 341
#     4   9  20  36  58  92 121 154 203 250 274 320
#     4  11  23  38  58  86 120 150 184 243 305 351
#     4  11  24  41  61  79 104 155 210 240 279 358
#
# _framework density 21.085977
#
# number of rings (size 3 to 8) (size 9 to 14) (size 15 to 20)
#    0.000    1.250    5.000    3.375    0.000    3.000 
#    0.000    0.000    0.000    6.000    0.000    0.000 
#    0.000    0.000    0.000    0.000    0.000    0.000 
#
# Total GULP energy -178609.746942 kJ/mol
# GULP energy per Si atom -5581.554592 kJ/mol
# Density = 2.103798 g / cm^3
# Si number density = 21.085977 Si / 1000 Ang^3
#
#
#
# Elastic Constant Matrix: (Units=GPa)
#
#
# Indices 1 2 3 4 5 6 
#
# 1 71.7581 26.7391 32.6809 0.0000 23.0791 0.0000
# 2 26.7391 146.7921 25.0498 0.0000 11.7169 0.0000
# 3 32.6809 25.0498 101.1055 0.0000 25.5156 0.0000
# 4 0.0000 0.0000 0.0000 -6.6614 0.0000 1.6234
# 5 23.0791 11.7169 25.5156 0.0000 49.2403 0.0000
# 6 0.0000 0.0000 0.0000 1.6234 0.0000 18.4705
#
#
#
# Elastic Compliance Matrix: (Units=1/GPa)
#
#
# Indices 1 2 3 4 5 6 
#
# 1 0.018503 -0.002218 -0.003884 0.000000 -0.006132 0.000000
# 2 -0.002218 0.007414 -0.001078 0.000000 -0.000166 0.000000
# 3 -0.003884 -0.001078 0.012527 0.000000 -0.004415 0.000000
# 4 0.000000 0.000000 0.000000 -0.146971 0.000000 0.012918
# 5 -0.006132 -0.000166 -0.004415 0.000000 0.025510 0.000000
# 6 0.000000 0.000000 0.000000 0.012918 0.000000 0.053005
#
#
# Mechanical properties :
#
#
# Convention : Reuss Voigt Hill
#
# Bulk Modulus (GPa) = 41.52094 54.28837 47.90465
# Shear Modulus (GPa) = -655.80268 27.88893 -313.95688
#
# Velocity S-wave (km/s) = -17.65471 3.64074 -12.21544
# Velocity P-wave (km/s) = 19.89601 6.59359 13.27358
#
# Compressibility (1/GPa) = 0.02408423
#
# Stress axis : x y z
#
# Youngs Moduli (GPa) = 54.04421 134.88700 79.82636
#
# Poissons Ratio (x) = 0.29922 0.31003
# Poissons Ratio (y) = 0.11989 0.08605
# Poissons Ratio (z) = 0.20990 0.14540
#
# Static dielectric constant tensor:
#      x y z
#    x 1.822110 0.000000 0.014270 
#    y 0.000000 1.741490 0.000000 
#    z 0.014270 0.000000 1.845510 
# 
# From -- ./inp_files/300816.got.cif
#   From: 2010.05.17/outbox.cif.g08.bks.cpg/sg12_151_cif.got.tgz:300816.got - 2010.06.03 13:09:07.
