data_PCOD9219146
_publ_section_title
;
Structure prediction by ZEFSAII (Michael W. Deem and Ramdas Pophale) SiO2 
 PCOD9219146
Probable space group: C 2/M
;
_chemical_formula_sum "Si O2"
_cell_formula_units_Z 64
_cell_length_a 30.265918
_cell_length_b 8.413001
_cell_length_c 16.246650
_cell_angle_alpha 90.000000
_cell_angle_beta 62.106614
_cell_angle_gamma 90.000000
_cell_volume 3656.219533
_symmetry_space_group_name_H-M "C 2/M"
_symmetry_group_IT_number 12
_symmetry_cell_setting 'monoclinic'
loop_
_space_group_symop_operation_xyz
x,y,z
-x,y,-z
-x,-y,-z
x,-y,z
1/2+x,1/2+y,z
1/2-x,1/2+y,-z
1/2-x,1/2-y,-z
1/2+x,1/2-y,z
loop_
_atom_site_type_symbol
_atom_site_label
_atom_site_fract_x
_atom_site_fract_y
_atom_site_fract_z
Si Si1 0.658500 0.693342 0.062710
Si Si2 0.712811 0.308159 0.850282
Si Si3 0.320905 0.310275 0.770757
Si Si4 0.442551 0.691963 0.938550
Si Si5 0.077761 0.308128 0.394549
Si Si6 0.521913 0.193825 0.608265
Si Si7 0.044339 0.310749 0.771712
Si Si8 0.113321 0.191400 0.847784
O O1 0.659708 0.500000 0.062238
O O2 0.672612 0.751170 0.140796
O O3 0.602355 0.738007 0.084337
O O4 0.695338 0.745157 0.957103
O O5 0.713135 0.500000 0.850353
O O6 0.767837 0.247994 0.783642
O O7 0.668811 0.256566 0.826463
O O8 0.320553 0.500000 0.774063
O O9 0.368579 0.255400 0.677478
O O10 0.446323 0.500000 0.935349
O O11 0.494806 0.761008 0.864586
O O12 0.423946 0.741360 0.045492
O O13 0.079227 0.500000 0.392149
O O14 0.058339 0.258635 0.501814
O O15 0.034272 0.257039 0.368380
O O16 0.538402 0.250741 0.683510
O O17 0.521679 0.000000 0.609477
O O18 0.046714 0.500000 0.766125
O O19 0.091956 0.249863 0.780484
O O20 0.113194 0.000000 0.847914
#
# Coordination Sequence:
#
# PCOD9219146 Si02
#       8
#     8   8   8   8   8   8   8   8
#     4   8  16  30  47  68  96 128 159 192 227 270
#     4   9  18  34  51  65  88 129 172 195 218 270
#     4  11  20  29  46  75 103 121 148 195 245 279
#     4   9  17  31  48  66  94 131 164 189 220 272
#     4   9  17  34  55  70  92 127 160 185 221 282
#     4   8  17  33  52  73  95 122 156 192 228 274
#     4  11  20  29  46  73  99 120 151 197 243 278
#     4   9  19  34  49  65  90 128 169 198 222 267
#
# _framework density 17.504418999999999
#
# number of rings (size 3 to 8) (size 9 to 14) (size 15 to 20)
#    0.000    2.750    0.000    4.500    0.000    2.500 
#    0.000    6.250    0.000    0.750    0.000    0.000 
#    0.000    0.000    0.000    0.000    0.000    0.000 
#
# Total GULP energy -178475.687716 kJ/mol
# GULP energy per Si atom -5577.365241 kJ/mol
# Density = 1.746458 g / cm^3
# Si number density = 17.504419 Si / 1000 Ang^3
#
#
#
# Elastic Constant Matrix: (Units=GPa)
#
#
# Indices 1 2 3 4 5 6 
#
# 1 149.6381 23.5092 97.9016 0.0000 -0.8082 0.0000
# 2 23.5092 12.8562 18.4579 0.0000 0.4116 0.0000
# 3 97.9016 18.4579 92.1442 0.0000 -1.4839 0.0000
# 4 0.0000 0.0000 0.0000 17.1414 0.0000 1.7770
# 5 -0.8082 0.4116 -1.4839 0.0000 32.4854 0.0000
# 6 0.0000 0.0000 0.0000 1.7770 0.0000 18.9829
#
#
#
# Elastic Compliance Matrix: (Units=1/GPa)
#
#
# Indices 1 2 3 4 5 6 
#
# 1 0.022751 -0.009658 -0.022243 0.000000 -0.000328 0.000000
# 2 -0.009658 0.113469 -0.012505 0.000000 -0.002249 0.000000
# 3 -0.022243 -0.012505 0.037011 0.000000 0.001296 0.000000
# 4 0.000000 0.000000 0.000000 0.058910 0.000000 -0.005515
# 5 -0.000328 -0.002249 0.001296 0.000000 0.030863 0.000000
# 6 0.000000 0.000000 0.000000 -0.005515 0.000000 0.053195
#
#
# Mechanical properties :
#
#
# Convention : Reuss Voigt Hill
#
# Bulk Modulus (GPa) = 11.84555 59.37511 35.61033
# Shear Modulus (GPa) = 11.54333 21.37325 16.45829
#
# Velocity S-wave (km/s) = 2.57077 3.49810 3.06965
# Velocity P-wave (km/s) = 3.94888 7.09291 5.74034
#
# Compressibility (1/GPa) = 0.08441989
#
# Stress axis : x y z
#
# Youngs Moduli (GPa) = 43.95372 8.81301 27.01864
#
# Poissons Ratio (x) = 0.08511 0.60099
# Poissons Ratio (y) = 0.42449 0.33785
# Poissons Ratio (z) = 0.97768 0.11020
#
# Static dielectric constant tensor:
#      x y z
#    x 1.599570 0.000000 0.019160 
#    y 0.000000 1.604260 0.000000 
#    z 0.019160 0.000000 1.586110 
# 
# From -- ./inp_files/248962.got.cif
#   From: 2010.05.17/outbox.cif.g08.bks.cpg/sg12_125_cif.got.tgz:248962.got - 2010.06.03 13:09:07.
