data_PCOD9219145
_publ_section_title
;
Structure prediction by ZEFSAII (Michael W. Deem and Ramdas Pophale) SiO2 
 PCOD9219145
Probable space group: C 2/M
;
_chemical_formula_sum "Si O2"
_cell_formula_units_Z 48
_cell_length_a 31.763330
_cell_length_b 8.654458
_cell_length_c 10.454573
_cell_angle_alpha 90.000000
_cell_angle_beta 100.742545
_cell_angle_gamma 90.000000
_cell_volume 2823.537487
_symmetry_space_group_name_H-M "C 2/M"
_symmetry_group_IT_number 12
_symmetry_cell_setting 'monoclinic'
loop_
_space_group_symop_operation_xyz
x,y,z
-x,y,-z
-x,-y,-z
x,-y,z
1/2+x,1/2+y,z
1/2-x,1/2+y,-z
1/2-x,1/2-y,-z
1/2+x,1/2-y,z
loop_
_atom_site_type_symbol
_atom_site_label
_atom_site_fract_x
_atom_site_fract_y
_atom_site_fract_z
Si Si1 0.953757 0.682343 0.821674
Si Si2 0.777071 0.684243 0.134608
Si Si3 0.546544 0.817103 0.868402
Si Si4 0.269054 0.185288 0.641271
Si Si5 0.136976 0.816590 0.918207
Si Si6 0.638707 0.187638 0.207707
O O1 0.955020 0.500000 0.791566
O O2 0.906685 0.741655 0.757924
O O3 0.999638 0.744819 0.800526
O O4 0.953551 0.694147 0.976429
O O5 0.774786 0.500000 0.131191
O O6 0.756692 0.748378 0.252702
O O7 0.825814 0.739061 0.143545
O O8 0.750000 0.750000 0.000000
O O9 0.589164 0.731353 0.848130
O O10 0.549974 0.000000 0.840499
O O11 0.250000 0.250000 0.500000
O O12 0.319067 0.227659 0.689318
O O13 0.266228 0.000000 0.640991
O O14 0.141776 0.000000 0.919520
O O15 0.142624 0.755681 0.067167
O O16 0.636743 0.000000 0.194000
#
# Coordination Sequence:
#
# PCOD9219145 Si02
#       6
#     8   8   8   8   8   8
#     4   7  11  22  42  65  90 127 169 206 247 300
#     4  12  23  37  56  78 104 136 177 219 265 315
#     4   8  13  24  41  63  95 130 165 205 251 301
#     4  11  23  38  56  78 107 141 178 219 262 310
#     4  11  20  29  46  73 104 135 170 210 258 309
#     4   9  17  31  50  70  97 135 176 213 254 305
#
# _framework density 16.999950999999999
#
# number of rings (size 3 to 8) (size 9 to 14) (size 15 to 20)
#    0.000    2.333    1.667    5.500    0.000    0.667 
#    0.000    6.667    0.000    0.000    0.000    1.167 
#    0.000    9.333    0.000    0.000    0.000    0.000 
#
# Total GULP energy -133719.562798 kJ/mol
# GULP energy per Si atom -5571.648450 kJ/mol
# Density = 1.696126 g / cm^3
# Si number density = 16.999951 Si / 1000 Ang^3
#
#
#
# Elastic Constant Matrix: (Units=GPa)
#
#
# Indices 1 2 3 4 5 6 
#
# 1 196.3625 51.4394 61.2593 0.0000 13.6059 0.0000
# 2 51.4394 63.1011 28.2031 0.0000 5.1102 0.0000
# 3 61.2593 28.2031 70.7029 0.0000 5.1289 0.0000
# 4 0.0000 0.0000 0.0000 19.3199 0.0000 -1.0911
# 5 13.6059 5.1102 5.1289 0.0000 13.2124 0.0000
# 6 0.0000 0.0000 0.0000 -1.0911 0.0000 24.5321
#
#
#
# Elastic Compliance Matrix: (Units=1/GPa)
#
#
# Indices 1 2 3 4 5 6 
#
# 1 0.008019 -0.003893 -0.005048 0.000000 -0.004793 0.000000
# 2 -0.003893 0.021452 -0.005014 0.000000 -0.002342 0.000000
# 3 -0.005048 -0.005014 0.020579 0.000000 -0.000851 0.000000
# 4 0.000000 0.000000 0.000000 0.051890 0.000000 0.002308
# 5 -0.004793 -0.002342 -0.000851 0.000000 0.081858 0.000000
# 6 0.000000 0.000000 0.000000 0.002308 0.000000 0.040866
#
#
# Mechanical properties :
#
#
# Convention : Reuss Voigt Hill
#
# Bulk Modulus (GPa) = 45.16589 67.99666 56.58128
# Shear Modulus (GPa) = 19.23420 24.03054 21.63237
#
# Velocity S-wave (km/s) = 3.36732 3.76382 3.57108
# Velocity P-wave (km/s) = 6.46099 7.67942 7.09640
#
# Compressibility (1/GPa) = 0.02214060
#
# Stress axis : x y z
#
# Youngs Moduli (GPa) = 124.70024 46.61598 48.59351
#
# Poissons Ratio (x) = 0.18148 0.24528
# Poissons Ratio (y) = 0.48547 0.24365
# Poissons Ratio (z) = 0.62943 0.23374
#
# Static dielectric constant tensor:
#      x y z
#    x 1.645180 0.000000 0.019430 
#    y 0.000000 1.571200 0.000000 
#    z 0.019430 0.000000 1.530420 
# 
# From -- ./inp_files/185502.got.cif
#   From: 2010.05.17/outbox.cif.g08.bks.cpg/sg12_93_cif.got.tgz:185502.got - 2010.06.03 13:09:07.
