data_PCOD9219987
_publ_section_title
;
Structure prediction by ZEFSAII (Michael W. Deem and Ramdas Pophale) SiO2 
 PCOD9219987
Probable space group: C 2/M
;
_chemical_formula_sum "Si O2"
_cell_formula_units_Z 64
_cell_length_a 24.230016
_cell_length_b 8.241361
_cell_length_c 14.951631
_cell_angle_alpha 90.000000
_cell_angle_beta 93.253314
_cell_angle_gamma 90.000000
_cell_volume 2980.854180
_symmetry_space_group_name_H-M "C 2/M"
_symmetry_group_IT_number 12
_symmetry_cell_setting 'monoclinic'
loop_
_space_group_symop_operation_xyz
x,y,z
-x,y,-z
-x,-y,-z
x,-y,z
1/2+x,1/2+y,z
1/2-x,1/2+y,-z
1/2-x,1/2-y,-z
1/2+x,1/2-y,z
loop_
_atom_site_type_symbol
_atom_site_label
_atom_site_fract_x
_atom_site_fract_y
_atom_site_fract_z
Si Si1 0.687523 0.311073 0.505738
Si Si2 0.492033 0.801945 0.287254
Si Si3 0.530767 0.802942 0.913718
Si Si4 0.844424 0.693643 0.026712
Si Si5 0.890028 0.689666 0.653549
Si Si6 0.338041 0.686515 0.823444
Si Si7 0.869255 0.690479 0.323314
Si Si8 0.778333 0.814920 0.181509
O O1 0.688928 0.500000 0.529882
O O2 0.750000 0.250000 0.500000
O O3 0.652584 0.284335 0.412515
O O4 0.656280 0.216496 0.581663
O O5 0.492848 0.747167 0.183577
O O6 0.546750 0.749793 0.344746
O O7 0.432935 0.754951 0.322595
O O8 0.494057 0.000000 0.286811
O O9 0.595543 0.764837 0.927034
O O10 0.526389 0.000000 0.913732
O O11 0.500000 0.743089 0.000000
O O12 0.836947 0.500000 0.031352
O O13 0.798229 0.777738 0.082967
O O14 0.844487 0.748030 0.924327
O O15 0.887700 0.500000 0.628263
O O16 0.871491 0.710414 0.754448
O O17 0.355364 0.500000 0.819781
O O18 0.272926 0.703362 0.796379
O O19 0.868009 0.500000 0.298678
O O20 0.830117 0.782386 0.250155
O O21 0.759609 0.000000 0.187129
#
# Coordination Sequence:
#
# PCOD9219987 Si02
#       8
#     8   8   8   8   8   8   8   8
#     4  12  26  46  69  98 131 166 209 261 323 383
#     4   9  19  37  64  96 128 166 213 260 309 376
#     4   9  16  30  57  90 122 162 213 262 304 359
#     4  11  21  37  61  89 124 165 215 266 315 377
#     4  11  23  43  69  97 127 165 212 259 312 377
#     4  12  25  41  60  88 127 169 213 265 324 381
#     4  11  22  42  69  97 128 168 215 262 315 378
#     4  12  24  40  61  90 127 167 212 264 323 383
#
# _framework density 21.470355999999999
#
# number of rings (size 3 to 8) (size 9 to 14) (size 15 to 20)
#    0.000    1.125    1.250    6.375    0.000    2.500 
#    0.000    5.000    0.000    1.500    0.000    0.000 
#    0.000    0.000    0.000    0.000    0.000    0.000 
#
# Total GULP energy -179059.550945 kJ/mol
# GULP energy per Si atom -5595.610967 kJ/mol
# Density = 2.142149 g / cm^3
# Si number density = 21.470356 Si / 1000 Ang^3
#
#
#
# Elastic Constant Matrix: (Units=GPa)
#
#
# Indices 1 2 3 4 5 6 
#
# 1 110.7713 -4.5194 31.4283 0.0000 14.2284 0.0000
# 2 -4.5194 42.9058 -8.1489 0.0000 8.0373 0.0000
# 3 31.4283 -8.1489 78.4566 0.0000 -0.8314 0.0000
# 4 0.0000 0.0000 0.0000 29.4610 0.0000 -1.4181
# 5 14.2284 8.0373 -0.8314 0.0000 35.1691 0.0000
# 6 0.0000 0.0000 0.0000 -1.4181 0.0000 13.7502
#
#
#
# Elastic Compliance Matrix: (Units=1/GPa)
#
#
# Indices 1 2 3 4 5 6 
#
# 1 0.010913 0.001233 -0.004294 0.000000 -0.004798 0.000000
# 2 0.001233 0.024977 0.002035 0.000000 -0.006159 0.000000
# 3 -0.004294 0.002035 0.014695 0.000000 0.001620 0.000000
# 4 0.000000 0.000000 0.000000 0.034113 0.000000 0.003518
# 5 -0.004798 -0.006159 0.001620 0.000000 0.031821 0.000000
# 6 0.000000 0.000000 0.000000 0.003518 0.000000 0.073089
#
#
# Mechanical properties :
#
#
# Convention : Reuss Voigt Hill
#
# Bulk Modulus (GPa) = 20.60522 29.96153 25.28338
# Shear Modulus (GPa) = 24.05738 29.90097 26.97918
#
# Velocity S-wave (km/s) = 3.35101 3.73589 3.54867
# Velocity P-wave (km/s) = 4.95885 5.70914 5.34717
#
# Compressibility (1/GPa) = 0.04853139
#
# Stress axis : x y z
#
# Youngs Moduli (GPa) = 91.63741 40.03700 68.05207
#
# Poissons Ratio (x) = -0.04935 0.29223
# Poissons Ratio (y) = -0.11296 -0.13850
# Poissons Ratio (z) = 0.39351 -0.08148
#
# Static dielectric constant tensor:
#      x y z
#    x 1.773410 0.000000 0.008600 
#    y 0.000000 1.751210 0.000000 
#    z 0.008600 0.000000 1.767690 
# 
# From -- ./inp_files/238675.got.cif
#   From: 2010.05.17/outbox.cif.g08.bks.cpg/sg12_120_cif.got.tgz:238675.got - 2010.06.03 13:09:07.
