data_PCOD9219280
_publ_section_title
;
Structure prediction by ZEFSAII (Michael W. Deem and Ramdas Pophale) SiO2 
 PCOD9219280
Probable space group: C 2/M
;
_chemical_formula_sum "Si O2"
_cell_formula_units_Z 56
_cell_length_a 25.717806
_cell_length_b 8.652244
_cell_length_c 17.201623
_cell_angle_alpha 90.000000
_cell_angle_beta 59.744173
_cell_angle_gamma 90.000000
_cell_volume 3306.262939
_symmetry_space_group_name_H-M "C 2/M"
_symmetry_group_IT_number 12
_symmetry_cell_setting 'monoclinic'
loop_
_space_group_symop_operation_xyz
x,y,z
-x,y,-z
-x,-y,-z
x,-y,z
1/2+x,1/2+y,z
1/2-x,1/2+y,-z
1/2-x,1/2-y,-z
1/2+x,1/2-y,z
loop_
_atom_site_type_symbol
_atom_site_label
_atom_site_fract_x
_atom_site_fract_y
_atom_site_fract_z
Si Si1 0.828037 0.685384 0.092431
Si Si2 0.094814 0.813871 0.395766
Si Si3 0.528176 0.686238 0.600391
Si Si4 0.989078 0.685019 0.220578
Si Si5 0.871007 0.312182 0.890321
Si Si6 0.697196 0.185073 0.214545
Si Si7 0.557388 0.685122 0.904188
O O1 0.827748 0.500000 0.093482
O O2 0.763874 0.747641 0.168025
O O3 0.882545 0.745170 0.104110
O O4 0.841016 0.737766 0.993758
O O5 0.037669 0.771232 0.384399
O O6 0.154330 0.738766 0.316667
O O7 0.075959 0.770241 0.497593
O O8 0.099990 0.000000 0.389364
O O9 0.529281 0.500000 0.607112
O O10 0.536634 0.762871 0.677166
O O11 0.987873 0.500000 0.215093
O O12 0.059257 0.736915 0.164798
O O13 0.954733 0.757437 0.173685
O O14 0.870970 0.500000 0.889312
O O15 0.834658 0.260046 0.841795
O O16 0.700015 0.000000 0.210801
O O17 0.560967 0.500000 0.903070
O O18 0.500000 0.733554 0.000000
#
# Coordination Sequence:
#
# PCOD9219280 Si02
#       7
#     8   8   8   8   8   8   8
#     4  11  22  38  56  76 107 149 189 224 269 323
#     4   9  18  33  53  78 110 146 181 219 270 325
#     4   9  18  33  53  80 111 142 180 225 270 320
#     4  11  20  34  56  82 111 143 181 224 272 323
#     4   9  19  33  51  78 111 145 179 218 267 320
#     4  11  21  35  53  80 114 146 183 226 269 321
#     4  11  23  38  56  80 107 141 184 230 273 315
#
# _framework density 16.937550999999999
#
# number of rings (size 3 to 8) (size 9 to 14) (size 15 to 20)
#    0.000    1.857    2.857    3.000    0.000    1.143 
#    0.000    3.571    0.000    0.857    0.000    0.000 
#    0.000    0.000    0.000    0.000    0.000    0.000 
#
# Total GULP energy -156348.102482 kJ/mol
# GULP energy per Si atom -5583.860803 kJ/mol
# Density = 1.689900 g / cm^3
# Si number density = 16.937551 Si / 1000 Ang^3
#
#
#
# Elastic Constant Matrix: (Units=GPa)
#
#
# Indices 1 2 3 4 5 6 
#
# 1 113.9269 34.3428 78.9825 0.0000 -15.5733 0.0001
# 2 34.3428 40.7743 42.4837 0.0001 -4.0851 0.0005
# 3 78.9825 42.4837 152.9869 0.0000 -4.8014 0.0000
# 4 0.0000 0.0001 0.0000 26.0551 0.0000 -0.3102
# 5 -15.5733 -4.0851 -4.8014 0.0000 23.6138 0.0000
# 6 0.0001 0.0005 0.0000 -0.3102 0.0000 19.6642
#
#
#
# Elastic Compliance Matrix: (Units=1/GPa)
#
#
# Indices 1 2 3 4 5 6 
#
# 1 0.016203 -0.006149 -0.006397 0.000000 0.008322 0.000000
# 2 -0.006149 0.037233 -0.007135 0.000000 0.000935 -0.000001
# 3 -0.006397 -0.007135 0.011724 0.000000 -0.003069 0.000000
# 4 0.000000 0.000000 0.000000 0.038387 0.000000 0.000606
# 5 0.008322 0.000935 -0.003069 0.000000 0.047374 0.000000
# 6 0.000000 -0.000001 0.000000 0.000606 0.000000 0.050863
#
#
# Mechanical properties :
#
#
# Convention : Reuss Voigt Hill
#
# Bulk Modulus (GPa) = 38.76284 68.81179 53.78731
# Shear Modulus (GPa) = 20.02037 23.99189 22.00613
#
# Velocity S-wave (km/s) = 3.44177 3.76771 3.60842
# Velocity P-wave (km/s) = 6.22333 7.72286 7.01328
#
# Compressibility (1/GPa) = 0.02579791
#
# Stress axis : x y z
#
# Youngs Moduli (GPa) = 61.71609 26.85824 85.29517
#
# Poissons Ratio (x) = 0.16515 0.54559
# Poissons Ratio (y) = 0.37949 0.60862
# Poissons Ratio (z) = 0.39477 0.19164
#
# Static dielectric constant tensor:
#      x y z
#    x 1.540500 0.000000 0.001360 
#    y 0.000000 1.567030 0.000000 
#    z 0.001360 0.000000 1.566810 
# 
# From -- ./inp_files/237412.got.cif
#   From: 2010.05.17/outbox.cif.g08.bks.cpg/sg12_119_cif.got.tgz:237412.got - 2010.06.03 13:09:07.
