data_PCOD9219522
_publ_section_title
;
Structure prediction by ZEFSAII (Michael W. Deem and Ramdas Pophale) SiO2 
 PCOD9219522
Probable space group: C 2/M
;
_chemical_formula_sum "Si O2"
_cell_formula_units_Z 48
_cell_length_a 19.500124
_cell_length_b 19.718458
_cell_length_c 16.705339
_cell_angle_alpha 90.000000
_cell_angle_beta 21.969388
_cell_angle_gamma 90.000000
_cell_volume 2403.069239
_symmetry_space_group_name_H-M "C 2/M"
_symmetry_group_IT_number 12
_symmetry_cell_setting 'monoclinic'
loop_
_space_group_symop_operation_xyz
x,y,z
-x,y,-z
-x,-y,-z
x,-y,z
1/2+x,1/2+y,z
1/2-x,1/2+y,-z
1/2-x,1/2-y,-z
1/2+x,1/2-y,z
loop_
_atom_site_type_symbol
_atom_site_label
_atom_site_fract_x
_atom_site_fract_y
_atom_site_fract_z
Si Si1 0.162222 0.306922 0.874275
Si Si2 0.671026 0.077139 0.970597
Si Si3 0.281149 0.138699 0.453224
Si Si4 0.403358 0.573816 0.881287
Si Si5 0.261429 0.717682 0.076055
Si Si6 0.652221 0.241464 0.474632
O O1 0.257681 0.370844 0.812585
O O2 0.105109 0.260542 0.011709
O O3 0.246076 0.256242 0.718496
O O4 0.000000 0.340429 0.000000
O O5 0.805672 0.076154 0.900670
O O6 0.648482 0.000000 0.966208
O O7 0.472911 0.106847 0.214679
O O8 0.308359 0.178788 0.507899
O O9 0.193913 0.192648 0.484751
O O10 0.120898 0.083954 0.638228
O O11 0.361647 0.500000 0.962498
O O12 0.321880 0.640298 0.011841
O O13 0.056977 0.731453 0.326212
O O14 0.250000 0.750000 0.000000
#
# Coordination Sequence:
#
# PCOD9219522 Si02
#       6
#     8   8   8   8   8   8
#     4  12  23  38  61  97 130 167 213 267 321 379
#     4  11  23  41  63  93 136 180 213 259 323 392
#     4  11  20  40  64  93 125 168 220 268 312 377
#     4  11  23  39  64  93 126 168 216 266 320 382
#     4  12  21  41  66  88 127 171 218 272 316 379
#     4  11  22  36  64  95 124 164 220 269 316 376
#
# _framework density 19.974454999999999
#
# number of rings (size 3 to 8) (size 9 to 14) (size 15 to 20)
#    0.000    0.667    6.667    2.000    0.000    0.333 
#    0.000    0.000    0.000   10.500    0.000    0.000 
#    0.000    0.000    0.000    0.000    0.000    0.000 
#
# Total GULP energy -133844.239541 kJ/mol
# GULP energy per Si atom -5576.843314 kJ/mol
# Density = 1.992899 g / cm^3
# Si number density = 19.974455 Si / 1000 Ang^3
#
#
#
# Elastic Constant Matrix: (Units=GPa)
#
#
# Indices 1 2 3 4 5 6 
#
# 1 76.1646 45.5863 9.8771 0.0087 7.5141 0.0013
# 2 45.5863 146.0203 8.8697 0.0868 4.0648 -0.0694
# 3 9.8771 8.8697 51.4138 0.0371 -7.5689 -0.0652
# 4 0.0087 0.0868 0.0371 25.1801 -0.0214 -4.3562
# 5 7.5141 4.0648 -7.5689 -0.0214 30.4084 0.0184
# 6 0.0013 -0.0694 -0.0652 -4.3562 0.0184 10.4684
#
#
#
# Elastic Compliance Matrix: (Units=1/GPa)
#
#
# Indices 1 2 3 4 5 6 
#
# 1 0.016923 -0.004981 -0.003020 0.000004 -0.004268 -0.000045
# 2 -0.004981 0.008435 -0.000501 -0.000019 -0.000021 0.000046
# 3 -0.003020 -0.000501 0.021006 -0.000003 0.006042 0.000116
# 4 0.000004 -0.000019 -0.000003 0.042795 0.000020 0.017808
# 5 -0.004268 -0.000021 0.006042 0.000020 0.035447 -0.000016
# 6 -0.000045 0.000046 0.000116 0.017808 -0.000016 0.102937
#
#
# Mechanical properties :
#
#
# Convention : Reuss Voigt Hill
#
# Bulk Modulus (GPa) = 34.06090 44.69610 39.37850
# Shear Modulus (GPa) = 19.65914 27.16242 23.41078
#
# Velocity S-wave (km/s) = 3.14062 3.69163 3.42722
# Velocity P-wave (km/s) = 5.49914 6.37150 5.95133
#
# Compressibility (1/GPa) = 0.02935918
#
# Stress axis : x y z
#
# Youngs Moduli (GPa) = 59.08948 118.56062 47.60474
#
# Poissons Ratio (x) = 0.59057 0.14378
# Poissons Ratio (y) = 0.29433 0.02386
# Poissons Ratio (z) = 0.17846 0.05943
#
# Static dielectric constant tensor:
#      x y z
#    x 1.713470 -0.000010 -0.001360 
#    y -0.000010 1.720080 0.000030 
#    z -0.001360 0.000030 1.798400 
# 
# From -- ./inp_files/285336.got.cif
#   From: 2010.05.17/outbox.cif.g08.bks.cpg/sg12_143_cif.got.tgz:285336.got - 2010.06.03 13:09:07.
