data_PCOD9219822
_publ_section_title
;
Structure prediction by ZEFSAII (Michael W. Deem and Ramdas Pophale) SiO2 
 PCOD9219822
Probable space group: C 2/M
;
_chemical_formula_sum "Si O2"
_cell_formula_units_Z 48
_cell_length_a 12.279782
_cell_length_b 24.365363
_cell_length_c 17.019424
_cell_angle_alpha 90.000000
_cell_angle_beta 30.359091
_cell_angle_gamma 90.000000
_cell_volume 2573.706009
_symmetry_space_group_name_H-M "C 2/M"
_symmetry_group_IT_number 12
_symmetry_cell_setting 'monoclinic'
loop_
_space_group_symop_operation_xyz
x,y,z
-x,y,-z
-x,-y,-z
x,-y,z
1/2+x,1/2+y,z
1/2-x,1/2+y,-z
1/2-x,1/2-y,-z
1/2+x,1/2-y,z
loop_
_atom_site_type_symbol
_atom_site_label
_atom_site_fract_x
_atom_site_fract_y
_atom_site_fract_z
Si Si1 0.111675 0.937502 0.516177
Si Si2 0.825110 0.321613 0.672337
Si Si3 0.174673 0.185439 0.060519
Si Si4 0.506168 0.852433 0.264704
Si Si5 0.771688 0.624206 0.160477
Si Si6 0.218987 0.198985 0.335909
O O1 0.329601 0.900966 0.375949
O O2 0.000000 0.940632 0.500000
O O3 0.933456 0.912117 0.686822
O O4 0.164483 0.000000 0.506730
O O5 0.576120 0.325361 0.802742
O O6 0.849120 0.255793 0.659441
O O7 0.000000 0.342201 0.500000
O O8 0.885364 0.345352 0.718966
O O9 0.213199 0.164400 0.124850
O O10 0.250000 0.250000 0.000000
O O11 0.308943 0.147510 0.916227
O O12 0.366937 0.799530 0.320930
O O13 0.820802 0.662049 0.205615
O O14 0.000000 0.594851 0.000000
O O15 0.000000 0.171557 0.500000
#
# Coordination Sequence:
#
# PCOD9219822 Si02
#       6
#     8   8   8   8   8   8
#     4  11  23  42  66  92 122 166 220 276 326 360
#     4  11  25  36  58  90 128 172 207 245 307 389
#     4  12  23  38  60  93 132 171 205 247 310 389
#     4  12  21  42  60  85 131 165 209 259 310 377
#     4  12  20  36  61  89 127 160 207 261 315 374
#     4  11  21  35  57  89 124 169 200 248 310 376
#
# _framework density 18.650148999999999
#
# number of rings (size 3 to 8) (size 9 to 14) (size 15 to 20)
#    0.000    0.500    6.667    2.500    0.000    1.667 
#    0.000    0.833    0.000    6.500    0.000    0.000 
#    0.000    0.000    0.000    0.000    0.000    0.000 
#
# Total GULP energy -133723.920288 kJ/mol
# GULP energy per Si atom -5571.830012 kJ/mol
# Density = 1.860770 g / cm^3
# Si number density = 18.650149 Si / 1000 Ang^3
#
#
#
# Elastic Constant Matrix: (Units=GPa)
#
#
# Indices 1 2 3 4 5 6 
#
# 1 133.0113 25.6092 62.0983 -0.0029 -5.7218 0.0029
# 2 25.6092 88.4985 46.7521 -0.0008 -1.7024 0.0021
# 3 62.0983 46.7521 172.4811 -0.0266 -11.1601 0.0075
# 4 -0.0029 -0.0008 -0.0266 12.6552 0.0071 2.7716
# 5 -5.7218 -1.7024 -11.1601 0.0071 36.4618 -0.0018
# 6 0.0029 0.0021 0.0075 2.7716 -0.0018 16.6821
#
#
#
# Elastic Compliance Matrix: (Units=1/GPa)
#
#
# Indices 1 2 3 4 5 6 
#
# 1 0.009129 -0.001065 -0.002967 -0.000005 0.000475 0.000001
# 2 -0.001065 0.013321 -0.003262 -0.000006 -0.000544 0.000001
# 3 -0.002967 -0.003262 0.007866 0.000016 0.001790 -0.000005
# 4 -0.000005 -0.000006 0.000016 0.082003 -0.000013 -0.013624
# 5 0.000475 -0.000544 0.001790 -0.000013 0.028023 0.000004
# 6 0.000001 0.000001 -0.000005 -0.013624 0.000004 0.062208
#
#
# Mechanical properties :
#
#
# Convention : Reuss Voigt Hill
#
# Bulk Modulus (GPa) = 63.58712 73.65669 68.62191
# Shear Modulus (GPa) = 22.48389 30.46191 26.47290
#
# Velocity S-wave (km/s) = 3.47589 4.04584 3.77164
# Velocity P-wave (km/s) = 7.09068 7.83611 7.47270
#
# Compressibility (1/GPa) = 0.01572645
#
# Stress axis : x y z
#
# Youngs Moduli (GPa) = 109.54157 75.07036 127.12670
#
# Poissons Ratio (x) = 0.07995 0.37723
# Poissons Ratio (y) = 0.11666 0.41474
# Poissons Ratio (z) = 0.32504 0.24491
#
# Static dielectric constant tensor:
#      x y z
#    x 1.637610 0.000000 -0.028660 
#    y 0.000000 1.677010 0.000010 
#    z -0.028660 0.000010 1.733490 
# 
# From -- ./inp_files/52032.got.cif
#   From: 2010.05.17/outbox.cif.g08.bks.cpg/sg12_27_cif.got.tgz:52032.got - 2010.06.03 13:09:07.
