data_PCOD9219559
_publ_section_title
;
Structure prediction by ZEFSAII (Michael W. Deem and Ramdas Pophale) SiO2 
 PCOD9219559
Probable space group: C 2/M
;
_chemical_formula_sum "Si O2"
_cell_formula_units_Z 48
_cell_length_a 18.776934
_cell_length_b 15.777371
_cell_length_c 7.317228
_cell_angle_alpha 90.000000
_cell_angle_beta 83.788963
_cell_angle_gamma 90.000000
_cell_volume 2155.009291
_symmetry_space_group_name_H-M "C 2/M"
_symmetry_group_IT_number 12
_symmetry_cell_setting 'monoclinic'
loop_
_space_group_symop_operation_xyz
x,y,z
-x,y,-z
-x,-y,-z
x,-y,z
1/2+x,1/2+y,z
1/2-x,1/2+y,-z
1/2-x,1/2-y,-z
1/2+x,1/2-y,z
loop_
_atom_site_type_symbol
_atom_site_label
_atom_site_fract_x
_atom_site_fract_y
_atom_site_fract_z
Si Si1 0.256120 0.594351 0.189363
Si Si2 0.378712 0.195653 0.720142
Si Si3 0.969703 0.747439 0.199834
Si Si4 0.173613 0.729003 0.681417
Si Si5 0.078124 0.911082 0.563612
Si Si6 0.811306 0.863593 0.783780
O O1 0.262194 0.500000 0.271042
O O2 0.171661 0.618577 0.205972
O O3 0.294809 0.676020 0.277816
O O4 0.289715 0.591488 0.976909
O O5 0.464861 0.199587 0.716772
O O6 0.353069 0.215937 0.519743
O O7 0.350822 0.277736 0.836549
O O8 0.896358 0.696750 0.188810
O O9 0.935730 0.828127 0.312055
O O10 0.000000 0.776669 0.000000
O O11 0.238828 0.666262 0.705445
O O12 0.135144 0.902695 0.382091
O O13 0.000000 0.917866 0.500000
O O14 0.091753 0.000000 0.661474
#
# Coordination Sequence:
#
# PCOD9219559 Si02
#       6
#     8   8   8   8   8   8
#     4  11  24  41  67 102 136 169 215 277 329 379
#     4  11  22  44  67  91 134 175 224 265 318 402
#     4  12  23  41  66  94 125 172 222 273 320 391
#     4  11  23  41  68  98 126 175 228 264 322 392
#     4  11  23  38  59  92 133 172 209 263 334 390
#     4  11  20  41  64  92 129 172 218 262 314 395
#
# _framework density 22.273686000000001
#
# number of rings (size 3 to 8) (size 9 to 14) (size 15 to 20)
#    0.000    0.833    3.333    7.000    0.000    1.000 
#    0.000    1.667    0.000    7.500    0.000    0.000 
#    0.000    0.000    0.000    0.000    0.000    0.000 
#
# Total GULP energy -133727.593214 kJ/mol
# GULP energy per Si atom -5571.983051 kJ/mol
# Density = 2.222299 g / cm^3
# Si number density = 22.273686 Si / 1000 Ang^3
#
#
#
# Elastic Constant Matrix: (Units=GPa)
#
#
# Indices 1 2 3 4 5 6 
#
# 1 201.3282 37.7644 48.1264 0.0000 -34.0130 0.0000
# 2 37.7644 66.3230 26.7040 0.0000 -12.4297 0.0000
# 3 48.1264 26.7040 135.1540 0.0000 -23.9864 0.0000
# 4 0.0000 0.0000 0.0000 50.1111 0.0000 -30.5918
# 5 -34.0130 -12.4297 -23.9864 0.0000 47.7414 0.0000
# 6 0.0000 0.0000 0.0000 -30.5918 0.0000 22.8855
#
#
#
# Elastic Compliance Matrix: (Units=1/GPa)
#
#
# Indices 1 2 3 4 5 6 
#
# 1 0.006257 -0.002490 -0.001164 0.000000 0.003225 0.000000
# 2 -0.002490 0.017745 -0.002321 0.000000 0.001680 0.000000
# 3 -0.001164 -0.002321 0.008803 0.000000 0.002989 0.000000
# 4 0.000000 0.000000 0.000000 0.108484 0.000000 0.145014
# 5 0.003225 0.001680 0.002989 0.000000 0.025183 0.000000
# 6 0.000000 0.000000 0.000000 0.145014 0.000000 0.237542
#
#
# Mechanical properties :
#
#
# Convention : Reuss Voigt Hill
#
# Bulk Modulus (GPa) = 47.95111 69.77721 58.86416
# Shear Modulus (GPa) = 11.82272 43.49496 27.65884
#
# Velocity S-wave (km/s) = 2.30639 4.42379 3.52770
# Velocity P-wave (km/s) = 5.35420 7.58211 6.56338
#
# Compressibility (1/GPa) = 0.02085457
#
# Stress axis : x y z
#
# Youngs Moduli (GPa) = 159.81963 56.35418 113.60385
#
# Poissons Ratio (x) = 0.14031 0.13221
# Poissons Ratio (y) = 0.39792 0.26371
# Poissons Ratio (z) = 0.18599 0.13082
#
# Static dielectric constant tensor:
#      x y z
#    x 2.059690 0.000000 -0.057480 
#    y 0.000000 1.937280 0.000000 
#    z -0.057480 0.000000 1.938080 
# 
# From -- ./inp_files/166152.got.cif
#   From: 2010.05.17/outbox.cif.g08.bks.cpg/sg12_84_cif.got.tgz:166152.got - 2010.06.03 13:09:07.
