data_PCOD9219509
_publ_section_title
;
Structure prediction by ZEFSAII (Michael W. Deem and Ramdas Pophale) SiO2 
 PCOD9219509
Probable space group: C 2/M
;
_chemical_formula_sum "Si O2"
_cell_formula_units_Z 32
_cell_length_a 8.192741
_cell_length_b 20.496440
_cell_length_c 9.036749
_cell_angle_alpha 90.000000
_cell_angle_beta 91.692305
_cell_angle_gamma 90.000000
_cell_volume 1516.807319
_symmetry_space_group_name_H-M "C 2/M"
_symmetry_group_IT_number 12
_symmetry_cell_setting 'monoclinic'
loop_
_space_group_symop_operation_xyz
x,y,z
-x,y,-z
-x,-y,-z
x,-y,z
1/2+x,1/2+y,z
1/2-x,1/2+y,-z
1/2-x,1/2-y,-z
1/2+x,1/2-y,z
loop_
_atom_site_type_symbol
_atom_site_label
_atom_site_fract_x
_atom_site_fract_y
_atom_site_fract_z
Si Si1 0.479158 0.618923 0.169855
Si Si2 0.392383 0.232907 0.116794
Si Si3 0.185478 0.621152 0.669820
Si Si4 0.829041 0.574879 0.653295
O O1 0.468762 0.698329 0.169389
O O2 0.640993 0.597079 0.262342
O O3 0.310272 0.593364 0.233723
O O4 0.500000 0.599265 0.000000
O O5 0.342770 0.191194 0.255450
O O6 0.500000 0.192993 0.000000
O O7 0.250000 0.250000 0.000000
O O8 0.193718 0.619526 0.492770
O O9 0.017959 0.583187 0.706228
O O10 0.805561 0.500000 0.606142
#
# Coordination Sequence:
#
# PCOD9219509 Si02
#       4
#     8   8   8   8
#     4  11  24  42  70 105 137 177 226 283 348 403
#     4  11  20  39  67 101 139 167 212 281 346 411
#     4  11  23  43  71  98 137 182 226 277 348 401
#     4  11  27  48  67  96 141 188 236 279 324 401
#
# _framework density 21.096945000000002
#
# number of rings (size 3 to 8) (size 9 to 14) (size 15 to 20)
#    0.000    1.000    5.000    3.750    0.000    4.500 
#    4.500    1.250    0.000    0.000    0.000    0.000 
#    0.000    0.000    0.000    0.000    0.000    0.000 
#
# Total GULP energy -89227.324794 kJ/mol
# GULP energy per Si atom -5576.707800 kJ/mol
# Density = 2.104893 g / cm^3
# Si number density = 21.096945 Si / 1000 Ang^3
#
#
#
# Elastic Constant Matrix: (Units=GPa)
#
#
# Indices 1 2 3 4 5 6 
#
# 1 161.7772 15.8688 64.5395 0.0000 -15.9275 0.0000
# 2 15.8688 54.3095 41.6831 0.0000 -2.5430 0.0000
# 3 64.5395 41.6831 107.3735 0.0000 -20.9415 0.0000
# 4 0.0000 0.0000 0.0000 -43.1390 0.0000 -15.3258
# 5 -15.9275 -2.5430 -20.9415 0.0000 43.9027 0.0000
# 6 0.0000 0.0000 0.0000 -15.3258 0.0000 13.2507
#
#
#
# Elastic Compliance Matrix: (Units=1/GPa)
#
#
# Indices 1 2 3 4 5 6 
#
# 1 0.008287 0.001934 -0.005650 0.000000 0.000424 0.000000
# 2 0.001934 0.027230 -0.012447 0.000000 -0.003658 0.000000
# 3 -0.005650 -0.012447 0.018744 0.000000 0.006171 0.000000
# 4 0.000000 0.000000 0.000000 -0.016430 0.000000 -0.019003
# 5 0.000424 -0.003658 0.006171 0.000000 0.025663 0.000000
# 6 0.000000 0.000000 0.000000 -0.019003 0.000000 0.053489
#
#
# Mechanical properties :
#
#
# Convention : Reuss Voigt Hill
#
# Bulk Modulus (GPa) = 45.58449 63.07146 54.32797
# Shear Modulus (GPa) = 31.92449 16.22747 24.07598
#
# Velocity S-wave (km/s) = 3.89424 2.77643 3.38184
# Velocity P-wave (km/s) = 6.47103 6.34342 6.40754
#
# Compressibility (1/GPa) = 0.02193729
#
# Stress axis : x y z
#
# Youngs Moduli (GPa) = 120.66908 36.72479 53.34901
#
# Poissons Ratio (x) = -0.07104 0.30140
# Poissons Ratio (y) = -0.23343 0.66403
# Poissons Ratio (z) = 0.68172 0.45711
#
# Static dielectric constant tensor:
#      x y z
#    x 1.859770 0.000000 -0.017150 
#    y 0.000000 1.773540 0.000000 
#    z -0.017150 0.000000 1.730300 
# 
# From -- ./inp_files/37642.got.cif
#   From: 2010.05.17/outbox.cif.g08.bks.cpg/sg12_19_cif.got.tgz:37642.got - 2010.06.03 13:09:07.
