data_PCOD9219734
_publ_section_title
;
Structure prediction by ZEFSAII (Michael W. Deem and Ramdas Pophale) SiO2 
 PCOD9219734
Probable space group: C 2/M
;
_chemical_formula_sum "Si O2"
_cell_formula_units_Z 64
_cell_length_a 21.242363
_cell_length_b 8.223379
_cell_length_c 26.763817
_cell_angle_alpha 90.000000
_cell_angle_beta 134.262487
_cell_angle_gamma 90.000000
_cell_volume 3348.151413
_symmetry_space_group_name_H-M "C 2/M"
_symmetry_group_IT_number 12
_symmetry_cell_setting 'monoclinic'
loop_
_space_group_symop_operation_xyz
x,y,z
-x,y,-z
-x,-y,-z
x,-y,z
1/2+x,1/2+y,z
1/2-x,1/2+y,-z
1/2-x,1/2-y,-z
1/2+x,1/2-y,z
loop_
_atom_site_type_symbol
_atom_site_label
_atom_site_fract_x
_atom_site_fract_y
_atom_site_fract_z
Si Si1 0.920533 0.806802 0.776533
Si Si2 0.640725 0.197759 0.077744
Si Si3 0.821496 0.198912 0.223617
Si Si4 0.093760 0.692626 0.532315
Si Si5 0.485790 0.300848 0.703787
Si Si6 0.724728 0.692844 0.689721
Si Si7 0.506518 0.196658 0.922210
Si Si8 0.348620 0.692835 0.544524
O O1 0.955060 0.750237 0.741790
O O2 0.827610 0.726601 0.738889
O O3 0.989247 0.768283 0.858467
O O4 0.906239 0.000000 0.766019
O O5 0.738715 0.253435 0.144394
O O6 0.575319 0.242182 0.086976
O O7 0.641532 0.000000 0.077279
O O8 0.593861 0.249542 0.000457
O O9 0.805005 0.249972 0.271746
O O10 0.915823 0.251937 0.255632
O O11 0.820580 0.000000 0.223065
O O12 0.085492 0.500000 0.521017
O O13 0.167663 0.727251 0.614548
O O14 0.120524 0.763867 0.493880
O O15 0.000000 0.757528 0.500000
O O16 0.486323 0.500000 0.703637
O O17 0.416836 0.243031 0.623797
O O18 0.709644 0.500000 0.678989
O O19 0.506818 0.000000 0.918828
O O20 0.348910 0.500000 0.549584
O O21 0.250000 0.750000 0.500000
#
# Coordination Sequence:
#
# PCOD9219734 Si02
#       8
#     8   8   8   8   8   8   8   8
#     4  11  21  34  52  79 114 146 173 217 278 334
#     4   8  14  27  52  80 106 134 176 230 269 307
#     4   9  16  31  55  81 103 134 182 229 269 314
#     4  11  24  40  57  82 118 151 180 226 290 348
#     4   9  20  35  52  76 108 141 176 220 272 327
#     4  11  21  35  60  85 104 135 187 239 274 320
#     4   9  16  30  52  80 107 137 181 226 265 310
#     4  11  22  39  61  83 109 147 194 241 285 341
#
# _framework density 19.115026
#
# number of rings (size 3 to 8) (size 9 to 14) (size 15 to 20)
#    0.000    2.125    1.250    3.750    0.000    3.000 
#    0.000    3.750    0.000    3.000    0.000    0.000 
#    0.000    0.000    0.000    0.000    0.000    0.000 
#
# Total GULP energy -178673.796119 kJ/mol
# GULP energy per Si atom -5583.556129 kJ/mol
# Density = 1.907152 g / cm^3
# Si number density = 19.115026 Si / 1000 Ang^3
#
#
#
# Elastic Constant Matrix: (Units=GPa)
#
#
# Indices 1 2 3 4 5 6 
#
# 1 134.5466 3.6036 68.4647 0.0000 -1.0643 0.0000
# 2 3.6036 10.7378 -5.0374 0.0000 1.8673 -0.0001
# 3 68.4647 -5.0374 153.1213 0.0000 4.7954 0.0000
# 4 0.0000 0.0000 0.0000 24.6879 0.0000 -1.0389
# 5 -1.0643 1.8673 4.7954 0.0000 25.3263 0.0000
# 6 0.0000 -0.0001 0.0000 -1.0389 0.0000 20.0034
#
#
#
# Elastic Compliance Matrix: (Units=1/GPa)
#
#
# Indices 1 2 3 4 5 6 
#
# 1 0.010007 -0.005878 -0.004722 0.000000 0.001748 0.000000
# 2 -0.005878 0.099521 0.006176 0.000000 -0.008754 0.000000
# 3 -0.004722 0.006176 0.008919 0.000000 -0.002343 0.000000
# 4 0.000000 0.000000 0.000000 0.040594 0.000000 0.002108
# 5 0.001748 -0.008754 -0.002343 0.000000 0.040647 0.000000
# 6 0.000000 0.000000 0.000000 0.002108 0.000000 0.050101
#
#
# Mechanical properties :
#
#
# Convention : Reuss Voigt Hill
#
# Bulk Modulus (GPa) = 9.12415 48.05196 28.58805
# Shear Modulus (GPa) = 16.93942 29.42851 23.18396
#
# Velocity S-wave (km/s) = 2.98011 3.92796 3.48640
# Velocity P-wave (km/s) = 4.07739 6.76497 5.58524
#
# Compressibility (1/GPa) = 0.10959928
#
# Stress axis : x y z
#
# Youngs Moduli (GPa) = 99.93397 10.04811 112.12263
#
# Poissons Ratio (x) = 0.05906 0.52948
# Poissons Ratio (y) = 0.58737 -0.69250
# Poissons Ratio (z) = 0.47192 -0.06206
#
# Static dielectric constant tensor:
#      x y z
#    x 1.624310 0.000000 0.000740 
#    y 0.000000 1.676230 0.000000 
#    z 0.000740 0.000000 1.656590 
# 
# From -- ./inp_files/346273.got.cif
#   From: 2010.05.17/outbox.cif.g08.bks.cpg/sg12_174_cif.got.tgz:346273.got - 2010.06.03 13:09:07.
