data_PCOD9219446
_publ_section_title
;
Structure prediction by ZEFSAII (Michael W. Deem and Ramdas Pophale) SiO2 
 PCOD9219446
Probable space group: C 2/M
;
_chemical_formula_sum "Si O2"
_cell_formula_units_Z 56
_cell_length_a 24.359496
_cell_length_b 15.357489
_cell_length_c 25.389102
_cell_angle_alpha 90.000000
_cell_angle_beta 18.509502
_cell_angle_gamma 90.000000
_cell_volume 3015.278941
_symmetry_space_group_name_H-M "C 2/M"
_symmetry_group_IT_number 12
_symmetry_cell_setting 'monoclinic'
loop_
_space_group_symop_operation_xyz
x,y,z
-x,y,-z
-x,-y,-z
x,-y,z
1/2+x,1/2+y,z
1/2-x,1/2+y,-z
1/2-x,1/2-y,-z
1/2+x,1/2-y,z
loop_
_atom_site_type_symbol
_atom_site_label
_atom_site_fract_x
_atom_site_fract_y
_atom_site_fract_z
Si Si1 0.893882 0.399528 0.393940
Si Si2 0.488365 0.403420 0.305169
Si Si3 0.991635 0.745248 0.633899
Si Si4 0.532026 0.900231 0.072302
Si Si5 0.668968 0.753801 0.868459
Si Si6 0.687130 0.152813 0.043148
Si Si7 0.340734 0.347399 0.615009
O O1 0.906334 0.500000 0.399343
O O2 0.706771 0.388478 0.536850
O O3 0.908295 0.330793 0.427779
O O4 0.050840 0.379106 0.210816
O O5 0.494411 0.500000 0.324173
O O6 0.536266 0.325484 0.300673
O O7 0.633021 0.399258 0.127884
O O8 0.091150 0.789278 0.494987
O O9 0.807379 0.710007 0.780777
O O10 0.324327 0.900106 0.255158
O O11 0.594523 0.000000 0.012240
O O12 0.604897 0.839272 0.959301
O O13 0.589191 0.859463 0.076174
O O14 0.768975 0.784805 0.725875
O O15 0.500000 0.705893 0.000000
O O16 0.750000 0.250000 0.000000
O O17 0.500000 0.394536 0.500000
#
# Coordination Sequence:
#
# PCOD9219446 Si02
#       7
#     8   8   8   8   8   8   8
#     4  11  24  40  60  89 122 155 198 249 295 352
#     4  11  23  38  59  89 123 156 196 240 290 356
#     4  11  20  38  60  81 115 156 193 241 293 352
#     4  11  21  35  55  82 119 154 193 241 292 353
#     4   9  19  36  55  81 108 150 193 237 292 347
#     4  12  23  38  61  87 119 164 199 237 293 351
#     4   9  21  35  55  80 108 149 196 239 289 348
#
# _framework density 18.57208
#
# number of rings (size 3 to 8) (size 9 to 14) (size 15 to 20)
#    0.000    1.429    2.857    2.571    2.000    4.571 
#    0.000    4.286    0.000    4.286    0.000    0.000 
#    0.000    0.000    0.000    0.000    0.000    0.000 
#
# Total GULP energy -156123.626207 kJ/mol
# GULP energy per Si atom -5575.843793 kJ/mol
# Density = 1.852981 g / cm^3
# Si number density = 18.572080 Si / 1000 Ang^3
#
#
#
# Elastic Constant Matrix: (Units=GPa)
#
#
# Indices 1 2 3 4 5 6 
#
# 1 82.5515 40.7377 31.4892 -0.0014 -7.3464 -0.0176
# 2 40.7377 65.3265 16.7978 -0.0247 -3.6362 0.0414
# 3 31.4892 16.7978 103.5746 -0.0215 -8.5977 0.0143
# 4 -0.0014 -0.0247 -0.0215 23.2284 0.0108 -28.0420
# 5 -7.3464 -3.6362 -8.5977 0.0108 40.8183 0.0148
# 6 -0.0176 0.0414 0.0143 -28.0420 0.0148 129.1856
#
#
#
# Elastic Compliance Matrix: (Units=1/GPa)
#
#
# Indices 1 2 3 4 5 6 
#
# 1 0.019084 -0.010803 -0.003913 -0.000010 0.001648 0.000004
# 2 -0.010803 0.022121 -0.000306 0.000017 -0.000038 -0.000005
# 3 -0.003913 -0.000306 0.011026 0.000009 0.001591 0.000000
# 4 -0.000010 0.000017 0.000009 0.058338 -0.000018 0.012663
# 5 0.001648 -0.000038 0.001591 -0.000018 0.025127 -0.000007
# 6 0.000004 -0.000005 0.000000 0.012663 -0.000007 0.010490
#
#
# Mechanical properties :
#
#
# Convention : Reuss Voigt Hill
#
# Bulk Modulus (GPa) = 45.07256 47.72245 46.39751
# Shear Modulus (GPa) = 27.22909 49.47499 38.35204
#
# Velocity S-wave (km/s) = 3.83316 5.16694 4.54920
# Velocity P-wave (km/s) = 6.62665 7.83249 7.25467
#
# Compressibility (1/GPa) = 0.02218645
#
# Stress axis : x y z
#
# Youngs Moduli (GPa) = 52.39975 45.20566 90.69187
#
# Poissons Ratio (x) = 0.48835 0.35489
# Poissons Ratio (y) = 0.56607 0.02779
# Poissons Ratio (z) = 0.20505 0.01385
#
# Static dielectric constant tensor:
#      x y z
#    x 1.658230 -0.000010 -0.033830 
#    y -0.000010 1.642460 0.000020 
#    z -0.033830 0.000020 1.697930 
# 
# From -- ./inp_files/349717.got.cif
#   From: 2010.05.17/outbox.cif.g08.bks.cpg/sg12_175_cif.got.tgz:349717.got - 2010.06.03 13:09:07.
