data_PCOD9219508
_publ_section_title
;
Structure prediction by ZEFSAII (Michael W. Deem and Ramdas Pophale) SiO2 
 PCOD9219508
Probable space group: C 2/M
;
_chemical_formula_sum "Si O2"
_cell_formula_units_Z 40
_cell_length_a 14.488026
_cell_length_b 22.898152
_cell_length_c 12.141903
_cell_angle_alpha 90.000000
_cell_angle_beta 148.855097
_cell_angle_gamma 90.000000
_cell_volume 2083.331972
_symmetry_space_group_name_H-M "C 2/M"
_symmetry_group_IT_number 12
_symmetry_cell_setting 'monoclinic'
loop_
_space_group_symop_operation_xyz
x,y,z
-x,y,-z
-x,-y,-z
x,-y,z
1/2+x,1/2+y,z
1/2-x,1/2+y,-z
1/2-x,1/2-y,-z
1/2+x,1/2-y,z
loop_
_atom_site_type_symbol
_atom_site_label
_atom_site_fract_x
_atom_site_fract_y
_atom_site_fract_z
Si Si1 0.795675 0.850595 0.285207
Si Si2 0.638486 0.866666 0.365284
Si Si3 0.408472 0.761264 0.075854
Si Si4 0.766587 0.430765 0.982196
Si Si5 0.013554 0.129423 0.139735
O O1 0.722925 0.869821 0.329207
O O2 0.000000 0.830006 0.500000
O O3 0.674148 0.800037 0.107234
O O4 0.788149 0.903976 0.191801
O O5 0.558134 0.801033 0.287365
O O6 0.469067 0.908757 0.206408
O O7 0.792243 0.879799 0.609213
O O8 0.478822 0.698929 0.110466
O O9 0.250000 0.750000 0.000000
O O10 0.754004 0.500000 0.971607
O O11 0.635117 0.401951 0.937271
O O12 0.000000 0.109954 0.000000
#
# Coordination Sequence:
#
# PCOD9219508 Si02
#       5
#     8   8   8   8   8
#     4  11  21  41  69 103 133 163 208 270 333 391
#     4  11  23  43  66  96 133 168 211 271 331 383
#     4  11  20  39  66  98 136 166 205 263 327 395
#     4  11  25  45  67  95 129 171 223 269 319 381
#     4  12  25  43  65  95 129 175 222 261 321 385
#
# _framework density 19.200012999999998
#
# number of rings (size 3 to 8) (size 9 to 14) (size 15 to 20)
#    0.000    0.800    6.000    4.200    0.000    5.600 
#    0.000    1.000    0.000    0.000    0.000    0.000 
#    0.000    0.000    0.000    0.000    0.000    0.000 
#
# Total GULP energy -111839.609664 kJ/mol
# GULP energy per Si atom -5591.980483 kJ/mol
# Density = 1.915631 g / cm^3
# Si number density = 19.200013 Si / 1000 Ang^3
#
#
#
# Elastic Constant Matrix: (Units=GPa)
#
#
# Indices 1 2 3 4 5 6 
#
# 1 133.3585 23.5390 63.1297 0.0000 -3.7087 0.0000
# 2 23.5390 103.1891 14.1314 0.0000 -0.8693 0.0000
# 3 63.1297 14.1314 138.9110 0.0000 -0.3295 0.0000
# 4 0.0000 0.0000 0.0000 3.5190 0.0000 0.9171
# 5 -3.7087 -0.8693 -0.3295 0.0000 34.8881 0.0000
# 6 0.0000 0.0000 0.0000 0.9171 0.0000 9.0731
#
#
#
# Elastic Compliance Matrix: (Units=1/GPa)
#
#
# Indices 1 2 3 4 5 6 
#
# 1 0.009857 -0.001650 -0.004309 0.000000 0.000966 0.000000
# 2 -0.001650 0.010106 -0.000278 0.000000 0.000074 0.000000
# 3 -0.004309 -0.000278 0.009185 0.000000 -0.000378 0.000000
# 4 0.000000 0.000000 0.000000 0.291863 0.000000 -0.029501
# 5 0.000966 0.000074 -0.000378 0.000000 0.028764 0.000000
# 6 0.000000 0.000000 0.000000 -0.029501 0.000000 0.113197
#
#
# Mechanical properties :
#
#
# Convention : Reuss Voigt Hill
#
# Bulk Modulus (GPa) = 59.97913 64.11765 62.04839
# Shear Modulus (GPa) = 10.39492 27.80660 19.10076
#
# Velocity S-wave (km/s) = 2.32933 3.80973 3.15752
# Velocity P-wave (km/s) = 6.20816 7.26768 6.75871
#
# Compressibility (1/GPa) = 0.01667247
#
# Stress axis : x y z
#
# Youngs Moduli (GPa) = 101.45403 98.95048 108.87728
#
# Poissons Ratio (x) = 0.16329 0.46919
# Poissons Ratio (y) = 0.16742 0.03026
# Poissons Ratio (z) = 0.43720 0.02751
#
# Static dielectric constant tensor:
#      x y z
#    x 1.662890 0.000000 -0.001440 
#    y 0.000000 1.644190 0.000000 
#    z -0.001440 0.000000 1.676070 
# 
# From -- ./inp_files/148801.got.cif
#   From: 2010.05.17/outbox.cif.g08.bks.cpg/sg12_75_cif.got.tgz:148801.got - 2010.06.03 13:09:07.
