data_PCOD9219477
_publ_section_title
;
Structure prediction by ZEFSAII (Michael W. Deem and Ramdas Pophale) SiO2 
 PCOD9219477
Probable space group: C 2/M
;
_chemical_formula_sum "Si O2"
_cell_formula_units_Z 40
_cell_length_a 19.684614
_cell_length_b 10.724640
_cell_length_c 31.144672
_cell_angle_alpha 90.000000
_cell_angle_beta 161.310214
_cell_angle_gamma 90.000000
_cell_volume 2106.908647
_symmetry_space_group_name_H-M "C 2/M"
_symmetry_group_IT_number 12
_symmetry_cell_setting 'monoclinic'
loop_
_space_group_symop_operation_xyz
x,y,z
-x,y,-z
-x,-y,-z
x,-y,z
1/2+x,1/2+y,z
1/2-x,1/2+y,-z
1/2-x,1/2-y,-z
1/2+x,1/2-y,z
loop_
_atom_site_type_symbol
_atom_site_label
_atom_site_fract_x
_atom_site_fract_y
_atom_site_fract_z
Si Si1 0.961258 0.261842 0.857482
Si Si2 0.992256 0.000000 0.067000
Si Si3 0.416564 0.643737 0.154293
Si Si4 0.852543 0.500000 0.210106
Si Si5 0.582407 0.262934 0.344310
Si Si6 0.493683 0.643441 0.384998
O O1 0.742141 0.320426 0.741848
O O2 0.975401 0.237970 0.814971
O O3 0.987539 0.124847 0.893664
O O4 0.165064 0.339422 0.995403
O O5 0.177255 0.000000 0.142388
O O6 0.771319 0.000000 0.909168
O O7 0.475025 0.500000 0.181047
O O8 0.483131 0.679198 0.242214
O O9 0.986220 0.625324 0.293752
O O10 0.524776 0.340877 0.352278
O O11 0.834227 0.238845 0.492166
O O12 0.535905 0.500000 0.422358
#
# Coordination Sequence:
#
# PCOD9219477 Si02
#       6
#     8   4   8   4   8   8
#     4  11  23  41  64  91 123 162 203 250 306 363
#     4  11  20  38  66  91 123 160 206 257 297 360
#     4  11  24  42  63  90 124 161 204 253 306 363
#     4  11  20  38  66  91 123 160 206 257 297 360
#     4  11  23  41  64  91 123 162 203 250 306 363
#     4  11  24  42  63  90 124 161 204 253 306 363
#
# _framework density 18.98516
#
# number of rings (size 3 to 8) (size 9 to 14) (size 15 to 20)
#    0.000    1.000    6.000    1.200    0.000    1.600 
#    3.600    4.000    0.000    0.000    0.000    0.000 
#    0.000    0.000    0.000    0.000    0.000    0.000 
#
# Total GULP energy -111749.416494 kJ/mol
# GULP energy per Si atom -5587.470825 kJ/mol
# Density = 1.894195 g / cm^3
# Si number density = 18.985160 Si / 1000 Ang^3
#
#
#
# Elastic Constant Matrix: (Units=GPa)
#
#
# Indices 1 2 3 4 5 6 
#
# 1 55.8065 2.3731 33.4027 -0.0004 0.1398 0.0023
# 2 2.3731 58.9938 -0.1102 0.0068 -0.0313 -0.0049
# 3 33.4027 -0.1102 70.6370 0.0324 9.7109 -0.0103
# 4 -0.0004 0.0068 0.0324 15.3055 0.0009 -2.5676
# 5 0.1398 -0.0313 9.7109 0.0009 31.5271 -0.0084
# 6 0.0023 -0.0049 -0.0103 -2.5676 -0.0084 12.1911
#
#
#
# Elastic Compliance Matrix: (Units=1/GPa)
#
#
# Indices 1 2 3 4 5 6 
#
# 1 0.025474 -0.001046 -0.012564 0.000026 0.003756 -0.000008
# 2 -0.001046 0.016994 0.000541 -0.000008 -0.000145 0.000006
# 3 -0.012564 0.000541 0.020980 -0.000044 -0.006406 0.000007
# 4 0.000026 -0.000008 -0.000044 0.067729 0.000015 0.014264
# 5 0.003756 -0.000145 -0.006406 0.000015 0.033675 0.000020
# 6 -0.000008 0.000006 0.000007 0.014264 0.000020 0.085031
#
#
# Mechanical properties :
#
#
# Convention : Reuss Voigt Hill
#
# Bulk Modulus (GPa) = 26.80280 28.52984 27.66632
# Shear Modulus (GPa) = 17.33351 21.78952 19.56151
#
# Velocity S-wave (km/s) = 3.02487 3.39147 3.21340
# Velocity P-wave (km/s) = 5.13305 5.51327 5.32655
#
# Compressibility (1/GPa) = 0.03730954
#
# Stress axis : x y z
#
# Youngs Moduli (GPa) = 39.25502 58.84440 47.66490
#
# Poissons Ratio (x) = 0.06157 0.59888
# Poissons Ratio (y) = 0.04107 -0.02580
# Poissons Ratio (z) = 0.49321 -0.03185
#
# Static dielectric constant tensor:
#      x y z
#    x 1.649240 0.000000 -0.002840 
#    y 0.000000 1.626060 -0.000010 
#    z -0.002840 -0.000010 1.656900 
# 
# From -- ./inp_files/229668.got.cif
#   From: 2010.05.17/outbox.cif.g08.bks.cpg/sg12_115_cif.got.tgz:229668.got - 2010.06.03 13:09:07.
