data_PCOD9219505
_publ_section_title
;
Structure prediction by ZEFSAII (Michael W. Deem and Ramdas Pophale) SiO2 
 PCOD9219505
Probable space group: C 2/M
;
_chemical_formula_sum "Si O2"
_cell_formula_units_Z 18
_cell_length_a 24.697521
_cell_length_b 7.642669
_cell_length_c 18.815502
_cell_angle_alpha 90.000000
_cell_angle_beta 10.227767
_cell_angle_gamma 90.000000
_cell_volume 630.613820
_symmetry_space_group_name_H-M "C 2/M"
_symmetry_group_IT_number 12
_symmetry_cell_setting 'monoclinic'
loop_
_space_group_symop_operation_xyz
x,y,z
-x,y,-z
-x,-y,-z
x,-y,z
1/2+x,1/2+y,z
1/2-x,1/2+y,-z
1/2-x,1/2-y,-z
1/2+x,1/2-y,z
loop_
_atom_site_type_symbol
_atom_site_label
_atom_site_fract_x
_atom_site_fract_y
_atom_site_fract_z
Si Si1 0.017964 0.305004 0.082565
Si Si2 0.341240 0.794338 0.802883
Si Si3 0.500000 0.500000 0.000000
O O1 0.886400 0.500000 0.245996
O O2 0.365887 0.310176 0.602177
O O3 0.075337 0.244541 0.089639
O O4 0.888478 0.153165 0.200737
O O5 0.439136 0.000000 0.671685
O O6 0.250000 0.750000 0.000000
#
# Coordination Sequence:
#
# PCOD9219505 Si02
#       3
#     8   8   2
#     4  11  22  40  64  92 120 165 201 250 307 354
#     4  11  20  39  66  92 120 154 215 261 289 348
#     4  12  22  42  60  86 140 156 198 236 316 380
#
# _framework density 28.543619
#
# number of rings (size 3 to 8) (size 9 to 14) (size 15 to 20)
#    0.000    0.889    4.444    7.333    0.000    0.000 
#    0.000    2.222    0.000    0.000    0.000    0.000 
#    0.000    0.000    0.000    0.000    0.000    0.000 
#
# Total GULP energy -50330.323806 kJ/mol
# GULP energy per Si atom -5592.258201 kJ/mol
# Density = 2.847865 g / cm^3
# Si number density = 28.543619 Si / 1000 Ang^3
#
#
#
# Elastic Constant Matrix: (Units=GPa)
#
#
# Indices 1 2 3 4 5 6 
#
# 1 219.1618 84.9970 44.2318 -0.0214 63.6674 0.0071
# 2 84.9970 339.9431 27.4299 -0.0242 22.8005 0.0139
# 3 44.2318 27.4299 90.2612 -0.0429 18.6122 0.0191
# 4 -0.0214 -0.0242 -0.0429 41.9950 0.0194 2.2543
# 5 63.6674 22.8005 18.6122 0.0194 68.6879 -0.0081
# 6 0.0071 0.0139 0.0191 2.2543 -0.0081 56.2163
#
#
#
# Elastic Compliance Matrix: (Units=1/GPa)
#
#
# Indices 1 2 3 4 5 6 
#
# 1 0.007061 -0.001233 -0.001928 0.000004 -0.005613 -0.000001
# 2 -0.001233 0.003273 -0.000426 0.000001 0.000172 -0.000001
# 3 -0.001928 -0.000426 0.012451 0.000012 -0.001446 -0.000005
# 4 0.000004 0.000001 0.000012 0.023864 -0.000014 -0.000957
# 5 -0.005613 0.000172 -0.001446 -0.000014 0.020096 0.000005
# 6 -0.000001 -0.000001 -0.000005 -0.000957 0.000005 0.017827
#
#
# Mechanical properties :
#
#
# Convention : Reuss Voigt Hill
#
# Bulk Modulus (GPa) = 64.05774 106.96484 85.51129
# Shear Modulus (GPa) = 51.57354 66.22700 58.90027
#
# Velocity S-wave (km/s) = 4.25530 4.82207 4.54752
# Velocity P-wave (km/s) = 6.82892 8.28002 7.58923
#
# Compressibility (1/GPa) = 0.01561092
#
# Stress axis : x y z
#
# Youngs Moduli (GPa) = 141.62551 305.54287 80.31380
#
# Poissons Ratio (x) = 0.37686 0.15484
# Poissons Ratio (y) = 0.17468 0.03419
# Poissons Ratio (z) = 0.27304 0.13007
#
# Static dielectric constant tensor:
#      x y z
#    x 0.327840 -0.000040 2.019230 
#    y -0.000040 2.036320 0.000050 
#    z 2.019230 0.000050 -0.023140 
# 
# From -- ./inp_files/42841.got.cif
#   From: 2010.05.17/outbox.cif.g08.bks.cpg/sg12_22_cif.got.tgz:42841.got - 2010.06.03 13:09:07.
