data_PCOD9219440
_publ_section_title
;
Structure prediction by ZEFSAII (Michael W. Deem and Ramdas Pophale) SiO2 
 PCOD9219440
Probable space group: C 2/M
;
_chemical_formula_sum "Si O2"
_cell_formula_units_Z 48
_cell_length_a 14.580318
_cell_length_b 18.637048
_cell_length_c 14.532089
_cell_angle_alpha 90.000000
_cell_angle_beta 145.706857
_cell_angle_gamma 90.000000
_cell_volume 2224.897266
_symmetry_space_group_name_H-M "C 2/M"
_symmetry_group_IT_number 12
_symmetry_cell_setting 'monoclinic'
loop_
_space_group_symop_operation_xyz
x,y,z
-x,y,-z
-x,-y,-z
x,-y,z
1/2+x,1/2+y,z
1/2-x,1/2+y,-z
1/2-x,1/2-y,-z
1/2+x,1/2-y,z
loop_
_atom_site_type_symbol
_atom_site_label
_atom_site_fract_x
_atom_site_fract_y
_atom_site_fract_z
Si Si1 0.499043 0.129213 0.867115
Si Si2 0.889578 0.272772 0.489247
Si Si3 0.016392 0.208951 0.120824
Si Si4 0.234870 0.919667 0.776501
Si Si5 0.394721 0.918185 0.584088
Si Si6 0.540495 0.356906 0.323781
O O1 0.557009 0.211469 0.925788
O O2 0.318777 0.124328 0.763608
O O3 0.484111 0.098836 0.753644
O O4 0.623192 0.082644 0.029096
O O5 0.706852 0.281663 0.302177
O O6 0.947678 0.353054 0.562469
O O7 0.094136 0.220203 0.410167
O O8 0.000000 0.242704 0.500000
O O9 0.958272 0.157092 0.155411
O O10 0.000000 0.187584 0.000000
O O11 0.078292 0.890294 0.699115
O O12 0.206047 0.000000 0.719169
O O13 0.201938 0.904091 0.442143
O O14 0.421687 0.000000 0.576632
#
# Coordination Sequence:
#
# PCOD9219440 Si02
#       6
#     8   8   8   8   8   8
#     4  11  20  38  58  86 121 159 193 241 302 357
#     4  11  23  40  62  90 121 154 204 248 291 353
#     4  11  21  40  63  89 118 157 199 248 298 346
#     4  11  23  36  56  89 125 156 196 244 298 360
#     4  11  22  40  62  84 121 161 198 244 296 350
#     4  11  23  40  62  89 121 156 202 246 298 349
#
# _framework density 21.57403
#
# number of rings (size 3 to 8) (size 9 to 14) (size 15 to 20)
#    0.000    1.000    5.000    4.500    0.000    2.333 
#    0.000    1.667    0.000   12.500    0.000    0.000 
#    0.000    0.000    0.000    0.000    0.000    0.000 
#
# Total GULP energy -134095.249459 kJ/mol
# GULP energy per Si atom -5587.302061 kJ/mol
# Density = 2.152493 g / cm^3
# Si number density = 21.574030 Si / 1000 Ang^3
#
#
#
# Elastic Constant Matrix: (Units=GPa)
#
#
# Indices 1 2 3 4 5 6 
#
# 1 40.9910 -22.3451 -3.3608 0.0000 -4.2795 0.0000
# 2 -22.3451 66.1276 -1.0662 0.0000 -18.7871 0.0000
# 3 -3.3608 -1.0662 63.3993 0.0000 -30.0320 0.0000
# 4 0.0000 0.0000 0.0000 13.1838 0.0000 3.3250
# 5 -4.2795 -18.7871 -30.0320 0.0000 32.3480 0.0000
# 6 0.0000 0.0000 0.0000 3.3250 0.0000 17.4469
#
#
#
# Elastic Compliance Matrix: (Units=1/GPa)
#
#
# Indices 1 2 3 4 5 6 
#
# 1 0.047856 0.030089 0.025561 0.000000 0.047537 0.000000
# 2 0.030089 0.040861 0.027506 0.000000 0.053248 0.000000
# 3 0.025561 0.027506 0.047767 0.000000 0.063703 0.000000
# 4 0.000000 0.000000 0.000000 0.079680 0.000000 -0.015185
# 5 0.047537 0.053248 0.063703 0.000000 0.127271 0.000000
# 6 0.000000 0.000000 0.000000 -0.015185 0.000000 0.060211
#
#
# Mechanical properties :
#
#
# Convention : Reuss Voigt Hill
#
# Bulk Modulus (GPa) = 3.30256 12.99706 8.14981
# Shear Modulus (GPa) = 14.78126 25.74844 20.26485
#
# Velocity S-wave (km/s) = 2.62036 3.45844 3.06815
# Velocity P-wave (km/s) = 3.26943 4.68884 4.04193
#
# Compressibility (1/GPa) = 0.30279532
#
# Stress axis : x y z
#
# Youngs Moduli (GPa) = 20.89589 24.47314 20.93512
#
# Poissons Ratio (x) = -0.73637 -0.53512
# Poissons Ratio (y) = -0.62873 -0.57584
# Poissons Ratio (z) = -0.53412 -0.67315
#
# Static dielectric constant tensor:
#      x y z
#    x 1.797930 0.000000 0.010750 
#    y 0.000000 1.779240 0.000000 
#    z 0.010750 0.000000 1.784850 
# 
# From -- ./inp_files/134097.got.cif
#   From: 2010.05.17/outbox.cif.g08.bks.cpg/sg12_68_cif.got.tgz:134097.got - 2010.06.03 13:09:07.
