data_PCOD9219332
_publ_section_title
;
Structure prediction by ZEFSAII (Michael W. Deem and Ramdas Pophale) SiO2 
 PCOD9219332
Probable space group: C 2/M
;
_chemical_formula_sum "Si O2"
_cell_formula_units_Z 48
_cell_length_a 10.599716
_cell_length_b 25.965966
_cell_length_c 9.706448
_cell_angle_alpha 90.000000
_cell_angle_beta 125.404948
_cell_angle_gamma 90.000000
_cell_volume 2177.499643
_symmetry_space_group_name_H-M "C 2/M"
_symmetry_group_IT_number 12
_symmetry_cell_setting 'monoclinic'
loop_
_space_group_symop_operation_xyz
x,y,z
-x,y,-z
-x,-y,-z
x,-y,z
1/2+x,1/2+y,z
1/2-x,1/2+y,-z
1/2-x,1/2-y,-z
1/2+x,1/2-y,z
loop_
_atom_site_type_symbol
_atom_site_label
_atom_site_fract_x
_atom_site_fract_y
_atom_site_fract_z
Si Si1 0.296510 0.739919 0.234740
Si Si2 0.860800 0.558176 0.096513
Si Si3 0.518331 0.696160 0.156225
Si Si4 0.548686 0.148967 0.676014
Si Si5 0.232489 0.442497 0.270068
Si Si6 0.301648 0.343517 0.465105
O O1 0.359914 0.714215 0.132531
O O2 0.377033 0.795370 0.295560
O O3 0.343919 0.700334 0.383185
O O4 0.121606 0.755379 0.166659
O O5 0.822496 0.500000 0.122032
O O6 0.843021 0.608025 0.179854
O O7 0.047706 0.557907 0.189071
O O8 0.771696 0.566953 0.896643
O O9 0.616002 0.667517 0.337483
O O10 0.500000 0.666187 0.000000
O O11 0.500000 0.125000 0.500000
O O12 0.384062 0.159399 0.641229
O O13 0.289368 0.500000 0.333626
O O14 0.322640 0.399574 0.412010
#
# Coordination Sequence:
#
# PCOD9219332 Si02
#       6
#     8   8   8   8   8   8
#     4  12  24  44  62  90 129 170 212 253 310 375
#     4   8  16  31  54  88 125 157 202 262 318 369
#     4  12  26  41  61  89 126 169 213 258 309 370
#     4  11  20  35  60  89 130 168 202 255 316 375
#     4   8  16  34  59  87 117 157 211 264 311 365
#     4  11  22  39  64  89 124 168 209 258 312 373
#
# _framework density 22.043633
#
# number of rings (size 3 to 8) (size 9 to 14) (size 15 to 20)
#    0.000    1.667    3.333    3.500    0.000    3.000 
#    0.000    0.000    0.000    2.500    0.000    0.000 
#    0.000    0.000    0.000    0.000    0.000    0.000 
#
# Total GULP energy -133864.878743 kJ/mol
# GULP energy per Si atom -5577.703281 kJ/mol
# Density = 2.199346 g / cm^3
# Si number density = 22.043633 Si / 1000 Ang^3
#
#
#
# Elastic Constant Matrix: (Units=GPa)
#
#
# Indices 1 2 3 4 5 6 
#
# 1 79.1175 35.1953 37.5115 0.0000 -9.4606 0.0000
# 2 35.1953 169.8959 103.5702 0.0000 -21.3094 0.0000
# 3 37.5115 103.5702 139.3935 0.0000 -21.4153 0.0000
# 4 0.0000 0.0000 0.0000 -0.8183 0.0000 26.4364
# 5 -9.4606 -21.3094 -21.4153 0.0000 33.4315 0.0000
# 6 0.0000 0.0000 0.0000 26.4364 0.0000 -4.3609
#
#
#
# Elastic Compliance Matrix: (Units=1/GPa)
#
#
# Indices 1 2 3 4 5 6 
#
# 1 0.014687 -0.001064 -0.002914 0.000000 0.001611 0.000000
# 2 -0.001064 0.010949 -0.007568 0.000000 0.001830 0.000000
# 3 -0.002914 -0.007568 0.014101 0.000000 0.003384 0.000000
# 4 0.000000 0.000000 0.000000 0.006272 0.000000 0.038021
# 5 0.001611 0.001830 0.003384 0.000000 0.033702 0.000000
# 6 0.000000 0.000000 0.000000 0.038021 0.000000 0.001177
#
#
# Mechanical properties :
#
#
# Convention : Reuss Voigt Hill
#
# Bulk Modulus (GPa) = 60.07709 82.32900 71.20305
# Shear Modulus (GPa) = 45.64961 19.79244 32.72102
#
# Velocity S-wave (km/s) = 4.55562 2.99971 3.85694
# Velocity P-wave (km/s) = 7.41515 7.03043 7.22535
#
# Compressibility (1/GPa) = 0.01664528
#
# Stress axis : x y z
#
# Youngs Moduli (GPa) = 68.08686 91.32869 70.91564
#
# Poissons Ratio (x) = 0.09715 0.20668
# Poissons Ratio (y) = 0.07243 0.53669
# Poissons Ratio (z) = 0.19844 0.69118
#
# Static dielectric constant tensor:
#      x y z
#    x 2.147030 0.000000 0.003360 
#    y 0.000000 1.792390 0.000000 
#    z 0.003360 0.000000 1.848740 
# 
# From -- ./inp_files/122558.got.cif
#   From: 2010.05.17/outbox.cif.g08.bks.cpg/sg12_62_cif.got.tgz:122558.got - 2010.06.03 13:09:07.
