data_PCOD9219461
_publ_section_title
;
Structure prediction by ZEFSAII (Michael W. Deem and Ramdas Pophale) SiO2 
 PCOD9219461
Probable space group: C 2/M
;
_chemical_formula_sum "Si O2"
_cell_formula_units_Z 48
_cell_length_a 23.251350
_cell_length_b 18.092883
_cell_length_c 11.677709
_cell_angle_alpha 90.000000
_cell_angle_beta 33.915499
_cell_angle_gamma 90.000000
_cell_volume 2741.095369
_symmetry_space_group_name_H-M "C 2/M"
_symmetry_group_IT_number 12
_symmetry_cell_setting 'monoclinic'
loop_
_space_group_symop_operation_xyz
x,y,z
-x,y,-z
-x,-y,-z
x,-y,z
1/2+x,1/2+y,z
1/2-x,1/2+y,-z
1/2-x,1/2-y,-z
1/2+x,1/2-y,z
loop_
_atom_site_type_symbol
_atom_site_label
_atom_site_fract_x
_atom_site_fract_y
_atom_site_fract_z
Si Si1 0.385971 0.139369 0.209664
Si Si2 0.263162 0.316354 0.743963
Si Si3 0.202756 0.914555 0.662297
Si Si4 0.119044 0.087640 0.266586
Si Si5 0.080403 0.204489 0.718681
Si Si6 0.651230 0.669076 0.973642
O O1 0.324808 0.148470 0.191755
O O2 0.312724 0.095466 0.417840
O O3 0.399374 0.221354 0.242408
O O4 0.500000 0.108838 0.000000
O O5 0.309046 0.373372 0.758471
O O6 0.352794 0.292469 0.507367
O O7 0.217193 0.243470 0.878551
O O8 0.123989 0.864595 0.718699
O O9 0.201972 0.880671 0.790417
O O10 0.172647 0.000000 0.713110
O O11 0.000000 0.099271 0.500000
O O12 0.137470 0.000000 0.231637
O O13 0.138399 0.124448 0.111710
O O14 0.961656 0.192901 0.885136
#
# Coordination Sequence:
#
# PCOD9219461 Si02
#       6
#     8   8   8   8   8   8
#     4  11  20  39  64  89 123 158 196 249 292 354
#     4  11  21  38  65  89 118 159 205 246 294 354
#     4  11  23  35  56  92 125 157 196 240 304 361
#     4  11  25  42  59  87 124 159 201 249 300 353
#     4  11  20  38  63  90 121 154 197 251 298 351
#     4  12  21  39  65  86 118 162 199 248 297 353
#
# _framework density 17.511247999999998
#
# number of rings (size 3 to 8) (size 9 to 14) (size 15 to 20)
#    0.000    0.833    6.667    2.500    0.000    5.000 
#    0.000    0.000    0.000    0.000    0.000    3.500 
#    0.000    0.000    0.000    0.000    0.000    0.000 
#
# Total GULP energy -134146.489939 kJ/mol
# GULP energy per Si atom -5589.437081 kJ/mol
# Density = 1.747139 g / cm^3
# Si number density = 17.511248 Si / 1000 Ang^3
#
#
#
# Elastic Constant Matrix: (Units=GPa)
#
#
# Indices 1 2 3 4 5 6 
#
# 1 125.3630 63.3887 55.6893 0.0000 12.2309 0.0000
# 2 63.3887 92.2256 43.6183 0.0000 8.6474 0.0000
# 3 55.6893 43.6183 107.7489 0.0000 8.7773 0.0000
# 4 0.0000 0.0000 0.0000 10.0350 0.0000 -3.9603
# 5 12.2309 8.6474 8.7773 0.0000 29.1120 0.0000
# 6 0.0000 0.0000 0.0000 -3.9603 0.0000 19.1437
#
#
#
# Elastic Compliance Matrix: (Units=1/GPa)
#
#
# Indices 1 2 3 4 5 6 
#
# 1 0.013633 -0.007305 -0.003895 0.000000 -0.002384 0.000000
# 2 -0.007305 0.017491 -0.003211 0.000000 -0.001158 0.000000
# 3 -0.003895 -0.003211 0.012694 0.000000 -0.001237 0.000000
# 4 0.000000 0.000000 0.000000 0.108510 0.000000 0.022448
# 5 -0.002384 -0.001158 -0.001237 0.000000 0.036069 0.000000
# 6 0.000000 0.000000 0.000000 0.022448 0.000000 0.056880
#
#
# Mechanical properties :
#
#
# Convention : Reuss Voigt Hill
#
# Bulk Modulus (GPa) = 66.67766 72.30335 69.49050
# Shear Modulus (GPa) = 17.91484 22.50089 20.20786
#
# Velocity S-wave (km/s) = 3.20198 3.58849 3.40073
# Velocity P-wave (km/s) = 7.19930 7.65173 7.42896
#
# Compressibility (1/GPa) = 0.01499753
#
# Stress axis : x y z
#
# Youngs Moduli (GPa) = 73.35017 57.17273 78.77434
#
# Poissons Ratio (x) = 0.41763 0.30683
# Poissons Ratio (y) = 0.53581 0.25292
# Poissons Ratio (z) = 0.28570 0.18357
#
# Static dielectric constant tensor:
#      x y z
#    x 1.567260 0.000000 0.000800 
#    y 0.000000 1.571270 0.000000 
#    z 0.000800 0.000000 1.611220 
# 
# From -- ./inp_files/144783.got.cif
#   From: 2010.05.17/outbox.cif.g08.bks.cpg/sg12_73_cif.got.tgz:144783.got - 2010.06.03 13:09:07.
