data_PCOD9219180
_publ_section_title
;
Structure prediction by ZEFSAII (Michael W. Deem and Ramdas Pophale) SiO2 
 PCOD9219180
Probable space group: C 2/M
;
_chemical_formula_sum "Si O2"
_cell_formula_units_Z 56
_cell_length_a 29.100742
_cell_length_b 7.439647
_cell_length_c 12.771233
_cell_angle_alpha 90.000000
_cell_angle_beta 96.028385
_cell_angle_gamma 90.000000
_cell_volume 2749.672067
_symmetry_space_group_name_H-M "C 2/M"
_symmetry_group_IT_number 12
_symmetry_cell_setting 'monoclinic'
loop_
_space_group_symop_operation_xyz
x,y,z
-x,y,-z
-x,-y,-z
x,-y,z
1/2+x,1/2+y,z
1/2-x,1/2+y,-z
1/2-x,1/2-y,-z
1/2+x,1/2-y,z
loop_
_atom_site_type_symbol
_atom_site_label
_atom_site_fract_x
_atom_site_fract_y
_atom_site_fract_z
Si Si1 0.630563 0.220483 0.635809
Si Si2 0.895718 0.719233 0.929203
Si Si3 0.974541 0.281169 0.785005
Si Si4 0.580176 0.219947 0.834415
Si Si5 0.828069 0.714144 0.737899
Si Si6 0.405239 0.219118 0.592909
Si Si7 0.266920 0.210434 0.386497
O O1 0.609269 0.277771 0.740738
O O2 0.600331 0.276144 0.527875
O O3 0.682920 0.286720 0.629703
O O4 0.630341 0.000000 0.636428
O O5 0.895413 0.500000 0.931132
O O6 0.940765 0.771812 0.872106
O O7 0.851364 0.779285 0.850975
O O8 0.899441 0.779219 0.049323
O O9 0.974971 0.500000 0.785079
O O10 0.949611 0.224896 0.671152
O O11 0.026917 0.222077 0.811050
O O12 0.580075 0.000000 0.834923
O O13 0.833579 0.500000 0.739731
O O14 0.860220 0.777794 0.649113
O O15 0.774820 0.748323 0.702122
O O16 0.405316 0.000000 0.592448
O O17 0.250000 0.250000 0.500000
O O18 0.273876 0.000000 0.385071
#
# Coordination Sequence:
#
# PCOD9219180 Si02
#       7
#     8   8   8   8   8   8   8
#     4   9  17  26  37  56  87 119 144 178 226 270
#     4   8  14  24  40  60  86 119 150 181 216 255
#     4   8  13  20  35  57  84 118 152 180 209 259
#     4   9  15  23  35  57  89 122 150 176 216 267
#     4   9  16  29  47  66  90 118 147 183 222 259
#     4   8  13  23  37  57  85 116 144 176 220 260
#     4  11  20  31  48  68  89 116 149 186 224 265
#
# _framework density 20.366066
#
# number of rings (size 3 to 8) (size 9 to 14) (size 15 to 20)
#    0.000    3.143    1.429    2.571    0.000    2.286 
#    0.000    3.571    0.000    0.000    0.000    1.000 
#    0.000   22.857    0.000    0.000    0.000    0.000 
#
# Total GULP energy -156174.466928 kJ/mol
# GULP energy per Si atom -5577.659533 kJ/mol
# Density = 2.031971 g / cm^3
# Si number density = 20.366066 Si / 1000 Ang^3
#
#
#
# Elastic Constant Matrix: (Units=GPa)
#
#
# Indices 1 2 3 4 5 6 
#
# 1 74.3151 2.2862 105.2371 0.0000 17.0445 0.0000
# 2 2.2862 58.2786 8.2066 0.0000 1.0167 0.0000
# 3 105.2371 8.2066 226.4790 0.0000 12.7617 0.0000
# 4 0.0000 0.0000 0.0000 -5.0739 0.0000 1.1641
# 5 17.0445 1.0167 12.7617 0.0000 21.1866 0.0000
# 6 0.0000 0.0000 0.0000 1.1641 0.0000 7.2118
#
#
#
# Elastic Compliance Matrix: (Units=1/GPa)
#
#
# Indices 1 2 3 4 5 6 
#
# 1 0.051755 0.001632 -0.022522 0.000000 -0.028149 0.000000
# 2 0.001632 0.017303 -0.001309 0.000000 -0.001355 0.000000
# 3 -0.022522 -0.001309 0.014392 0.000000 0.009513 0.000000
# 4 0.000000 0.000000 0.000000 -0.190048 0.000000 0.030677
# 5 -0.028149 -0.001355 0.009513 0.000000 0.064181 0.000000
# 6 0.000000 0.000000 0.000000 0.030677 0.000000 0.133711
#
#
# Mechanical properties :
#
#
# Convention : Reuss Voigt Hill
#
# Bulk Modulus (GPa) = 25.60645 65.61471 45.61058
# Shear Modulus (GPa) = 33.62293 20.88775 27.25534
#
# Velocity S-wave (km/s) = 4.06757 3.20600 3.66221
# Velocity P-wave (km/s) = 5.88732 6.78175 6.35030
#
# Compressibility (1/GPa) = 0.03905266
#
# Stress axis : x y z
#
# Youngs Moduli (GPa) = 19.32177 57.79372 69.48325
#
# Poissons Ratio (x) = -0.09433 1.56489
# Poissons Ratio (y) = -0.03154 0.09096
# Poissons Ratio (z) = 0.43516 0.07566
#
# Static dielectric constant tensor:
#      x y z
#    x 1.716020 0.000000 0.016260 
#    y 0.000000 1.821980 0.000000 
#    z 0.016260 0.000000 1.695730 
# 
# From -- ./inp_files/181606.got.cif
#   From: 2010.05.17/outbox.cif.g08.bks.cpg/sg12_91_cif.got.tgz:181606.got - 2010.06.03 13:09:07.
