data_PCOD9219129
_publ_section_title
;
Structure prediction by ZEFSAII (Michael W. Deem and Ramdas Pophale) SiO2 
 PCOD9219129
Probable space group: C 2/M
;
_chemical_formula_sum "Si O2"
_cell_formula_units_Z 64
_cell_length_a 30.016833
_cell_length_b 15.131819
_cell_length_c 8.572461
_cell_angle_alpha 90.000000
_cell_angle_beta 106.594021
_cell_angle_gamma 90.000000
_cell_volume 3731.528400
_symmetry_space_group_name_H-M "C 2/M"
_symmetry_group_IT_number 12
_symmetry_cell_setting 'monoclinic'
loop_
_space_group_symop_operation_xyz
x,y,z
-x,y,-z
-x,-y,-z
x,-y,z
1/2+x,1/2+y,z
1/2-x,1/2+y,-z
1/2-x,1/2-y,-z
1/2+x,1/2-y,z
loop_
_atom_site_type_symbol
_atom_site_label
_atom_site_fract_x
_atom_site_fract_y
_atom_site_fract_z
Si Si1 0.716565 0.896492 0.403540
Si Si2 0.283435 0.896492 0.970410
Si Si3 0.176420 0.099649 0.486177
Si Si4 0.446643 0.899842 0.134657
Si Si5 0.176420 0.099649 0.866663
Si Si6 0.634081 0.221545 0.448448
Si Si7 0.865919 0.278455 0.180287
Si Si8 0.446643 0.899842 0.758628
O O1 0.713163 0.883474 0.213163
O O2 0.770044 0.880254 0.504730
O O3 0.679671 0.834630 0.449483
O O4 0.706538 0.000000 0.423934
O O5 0.229956 0.880254 0.964642
O O6 0.293462 0.000000 0.010859
O O7 0.320329 0.834630 0.090141
O O8 0.176112 0.098638 0.676112
O O9 0.143154 0.178444 0.400039
O O10 0.164860 0.000000 0.422831
O O11 0.410378 0.828264 0.156993
O O12 0.500000 0.883274 0.237013
O O13 0.433845 0.000000 0.172722
O O14 0.445771 0.899876 0.945771
O O15 0.143154 0.178444 0.886268
O O16 0.164860 0.000000 0.906890
O O17 0.629586 0.224071 0.629586
O O18 0.589622 0.171736 0.336237
O O19 0.433845 0.000000 0.694969
#
# Coordination Sequence:
#
# PCOD9219129 Si02
#       8
#     8   8   8   8   8   8   8   8
#     4   9  17  30  47  65  91 130 165 186 214 267
#     4   9  17  30  47  65  91 130 165 186 214 267
#     4   8  16  31  47  64  91 128 164 191 218 262
#     4   9  19  36  54  69  89 121 155 182 218 278
#     4   8  16  31  47  64  91 128 164 191 218 262
#     4  11  20  28  46  74  97 118 149 194 240 270
#     4  11  20  28  46  74  97 118 149 194 240 270
#     4   9  19  36  54  69  89 121 155 182 218 278
#
# _framework density 17.151149
#
# number of rings (size 3 to 8) (size 9 to 14) (size 15 to 20)
#    0.000    2.750    0.000    4.500    0.000    4.500 
#    0.000    2.500    0.000    6.750    0.000    5.250 
#    0.000    0.000    0.000    0.000    0.000    0.000 
#
# Total GULP energy -178444.671672 kJ/mol
# GULP energy per Si atom -5576.395990 kJ/mol
# Density = 1.711211 g / cm^3
# Si number density = 17.151149 Si / 1000 Ang^3
#
#
#
# Elastic Constant Matrix: (Units=GPa)
#
#
# Indices 1 2 3 4 5 6 
#
# 1 92.1639 93.5971 18.1033 0.0000 12.3429 0.0000
# 2 93.5971 131.7739 33.3785 0.0000 24.8347 0.0000
# 3 18.1033 33.3785 22.1394 0.0000 16.5358 0.0000
# 4 0.0000 0.0000 0.0000 19.1919 0.0000 4.7191
# 5 12.3429 24.8347 16.5358 0.0000 20.3367 0.0000
# 6 0.0000 0.0000 0.0000 4.7191 0.0000 30.6347
#
#
#
# Elastic Compliance Matrix: (Units=1/GPa)
#
#
# Indices 1 2 3 4 5 6 
#
# 1 0.043037 -0.035026 0.013187 0.000000 0.005931 0.000000
# 2 -0.035026 0.040785 -0.029352 0.000000 -0.004680 0.000000
# 3 0.013187 -0.029352 0.147299 0.000000 -0.091928 0.000000
# 4 0.000000 0.000000 0.000000 0.054157 0.000000 -0.008343
# 5 0.005931 -0.004680 -0.091928 0.000000 0.126035 0.000000
# 6 0.000000 0.000000 0.000000 -0.008343 0.000000 0.033928
#
#
# Mechanical properties :
#
#
# Convention : Reuss Voigt Hill
#
# Bulk Modulus (GPa) = 7.76779 59.58165 33.67472
# Shear Modulus (GPa) = 8.46688 20.76587 14.61638
#
# Velocity S-wave (km/s) = 2.22426 3.48337 2.92243
# Velocity P-wave (km/s) = 3.33696 7.14094 5.57352
#
# Compressibility (1/GPa) = 0.12873677
#
# Stress axis : x y z
#
# Youngs Moduli (GPa) = 23.23591 24.51910 6.78890
#
# Poissons Ratio (x) = 0.85882 -0.08952
# Poissons Ratio (y) = 0.81387 0.19927
# Poissons Ratio (z) = -0.30641 0.71969
#
# Static dielectric constant tensor:
#      x y z
#    x 1.565450 0.000000 -0.008070 
#    y 0.000000 1.600610 0.000000 
#    z -0.008070 0.000000 1.585020 
# 
# From -- ./inp_files/104682.got.cif
#   From: 2010.05.17/outbox.cif.g08.bks.cpg/sg12_53_cif.got.tgz:104682.got - 2010.06.03 13:09:07.
