data_PCOD9219630
_publ_section_title
;
Structure prediction by ZEFSAII (Michael W. Deem and Ramdas Pophale) SiO2 
 PCOD9219630
Probable space group: C 2/M
;
_chemical_formula_sum "Si O2"
_cell_formula_units_Z 48
_cell_length_a 26.186695
_cell_length_b 8.718758
_cell_length_c 12.009860
_cell_angle_alpha 90.000000
_cell_angle_beta 88.635197
_cell_angle_gamma 90.000000
_cell_volume 2741.258780
_symmetry_space_group_name_H-M "C 2/M"
_symmetry_group_IT_number 12
_symmetry_cell_setting 'monoclinic'
loop_
_space_group_symop_operation_xyz
x,y,z
-x,y,-z
-x,-y,-z
x,-y,z
1/2+x,1/2+y,z
1/2-x,1/2+y,-z
1/2-x,1/2-y,-z
1/2+x,1/2-y,z
loop_
_atom_site_type_symbol
_atom_site_label
_atom_site_fract_x
_atom_site_fract_y
_atom_site_fract_z
Si Si1 0.413128 0.820155 0.274522
Si Si2 0.993453 0.817374 0.870260
Si Si3 0.404020 0.183742 0.730406
Si Si4 0.698633 0.184365 0.368436
Si Si5 0.809898 0.315104 0.373791
Si Si6 0.060281 0.171462 0.501240
O O1 0.455827 0.738043 0.197881
O O2 0.354158 0.763933 0.285524
O O3 0.428406 0.789886 0.401444
O O4 0.414138 0.000000 0.247261
O O5 0.941564 0.742983 0.824578
O O6 0.989306 0.000000 0.855899
O O7 0.000000 0.781556 0.000000
O O8 0.343627 0.222247 0.723063
O O9 0.424138 0.261205 0.617145
O O10 0.408480 0.000000 0.724620
O O11 0.753835 0.256801 0.345836
O O12 0.681685 0.232209 0.496018
O O13 0.703447 0.000000 0.371338
O O14 0.811052 0.500000 0.373291
O O15 0.000000 0.155055 0.500000
O O16 0.082148 0.000000 0.521227
#
# Coordination Sequence:
#
# PCOD9219630 Si02
#       6
#     8   8   8   8   8   8
#     4  11  21  35  56  80 110 143 181 224 267 320
#     4  11  25  42  57  78 107 139 181 229 276 327
#     4  11  21  35  56  80 110 143 181 224 267 320
#     4   9  18  32  49  77 113 146 178 213 259 314
#     4   9  18  32  49  77 113 146 178 213 259 314
#     4  11  21  31  48  79 113 144 179 213 266 328
#
# _framework density 17.510204000000002
#
# number of rings (size 3 to 8) (size 9 to 14) (size 15 to 20)
#    0.000    1.667    3.333    2.000    0.000    4.667 
#    0.000    0.000    0.000    1.000    0.000    0.000 
#    0.000    0.000    0.000    0.000    0.000    0.000 
#
# Total GULP energy -133721.516667 kJ/mol
# GULP energy per Si atom -5571.729861 kJ/mol
# Density = 1.747035 g / cm^3
# Si number density = 17.510204 Si / 1000 Ang^3
#
#
#
# Elastic Constant Matrix: (Units=GPa)
#
#
# Indices 1 2 3 4 5 6 
#
# 1 137.4500 28.4712 31.2583 0.0000 8.9037 0.0000
# 2 28.4712 21.9307 13.0514 0.0000 7.4283 0.0000
# 3 31.2583 13.0514 32.3314 0.0000 8.0060 0.0000
# 4 0.0000 0.0000 0.0000 19.1777 0.0000 4.5722
# 5 8.9037 7.4283 8.0060 0.0000 10.9618 0.0000
# 6 0.0000 0.0000 0.0000 4.5722 0.0000 28.3838
#
#
#
# Elastic Compliance Matrix: (Units=1/GPa)
#
#
# Indices 1 2 3 4 5 6 
#
# 1 0.010973 -0.011427 -0.006966 0.000000 0.003919 0.000000
# 2 -0.011427 0.079922 -0.012333 0.000000 -0.035870 0.000000
# 3 -0.006966 -0.012333 0.047821 0.000000 -0.020911 0.000000
# 4 0.000000 0.000000 0.000000 0.054226 0.000000 -0.008735
# 5 0.003919 -0.035870 -0.020911 0.000000 0.127623 0.000000
# 6 0.000000 0.000000 0.000000 -0.008735 0.000000 0.036638
#
#
# Mechanical properties :
#
#
# Convention : Reuss Voigt Hill
#
# Bulk Modulus (GPa) = 12.94254 37.47487 25.20871
# Shear Modulus (GPa) = 11.25090 19.63340 15.44215
#
# Velocity S-wave (km/s) = 2.53758 3.35215 2.97289
# Velocity P-wave (km/s) = 3.99915 6.03579 5.11976
#
# Compressibility (1/GPa) = 0.07726458
#
# Stress axis : x y z
#
# Youngs Moduli (GPa) = 91.13565 12.51223 20.91134
#
# Poissons Ratio (x) = 0.14297 0.14567
# Poissons Ratio (y) = 1.04138 0.25789
# Poissons Ratio (z) = 0.63486 0.15431
#
# Static dielectric constant tensor:
#      x y z
#    x 1.669970 0.000000 0.002440 
#    y 0.000000 1.617070 0.000000 
#    z 0.002440 0.000000 1.569960 
# 
# From -- ./inp_files/179183.got.cif
#   From: 2010.05.17/outbox.cif.g08.bks.cpg/sg12_90_cif.got.tgz:179183.got - 2010.06.03 13:09:07.
