data_PCOD9219690
_publ_section_title
;
Structure prediction by ZEFSAII (Michael W. Deem and Ramdas Pophale) SiO2 
 PCOD9219690
Probable space group: C 2/M
;
_chemical_formula_sum "Si O2"
_cell_formula_units_Z 52
_cell_length_a 22.716541
_cell_length_b 7.670023
_cell_length_c 15.076024
_cell_angle_alpha 90.000000
_cell_angle_beta 127.899159
_cell_angle_gamma 90.000000
_cell_volume 2072.783467
_symmetry_space_group_name_H-M "C 2/M"
_symmetry_group_IT_number 12
_symmetry_cell_setting 'monoclinic'
loop_
_space_group_symop_operation_xyz
x,y,z
-x,y,-z
-x,-y,-z
x,-y,z
1/2+x,1/2+y,z
1/2-x,1/2+y,-z
1/2-x,1/2-y,-z
1/2+x,1/2-y,z
loop_
_atom_site_type_symbol
_atom_site_label
_atom_site_fract_x
_atom_site_fract_y
_atom_site_fract_z
Si Si1 0.115256 0.205260 0.479209
Si Si2 0.530820 0.801476 0.867338
Si Si3 0.181363 0.696090 0.371510
Si Si4 0.954900 0.294074 0.329700
Si Si5 0.088137 0.000000 0.202512
Si Si6 0.805785 0.194081 0.971703
Si Si7 0.198108 0.800079 0.725441
O O1 0.118376 0.306082 0.390371
O O2 0.033274 0.232304 0.441709
O O3 0.177636 0.259909 0.607474
O O4 0.124461 0.000000 0.467572
O O5 0.538965 0.761840 0.769710
O O6 0.477760 0.655105 0.860674
O O7 0.618018 0.795826 0.976044
O O8 0.503118 0.000000 0.855421
O O9 0.191761 0.500000 0.346666
O O10 0.250000 0.750000 0.500000
O O11 0.347617 0.655342 0.721153
O O12 0.946512 0.500000 0.337014
O O13 0.881374 0.205801 0.298587
O O14 0.756361 0.196912 0.837552
O O15 0.830479 0.000000 0.016949
O O16 0.750000 0.250000 0.000000
O O17 0.222620 0.000000 0.745672
#
# Coordination Sequence:
#
# PCOD9219690 Si02
#       7
#     8   8   8   8   4   8   8
#     4  11  22  39  56  82 120 156 198 246 300 371
#     4  11  22  37  58  85 120 164 204 254 299 346
#     4  12  23  40  66  95 127 157 191 244 307 374
#     4  11  21  33  51  79 114 157 202 244 295 355
#     4  12  22  40  62  93 125 154 201 244 306 365
#     4  12  23  37  55  80 116 160 220 264 295 346
#     4  11  24  36  54  79 115 163 206 250 300 348
#
# _framework density 25.087039999999998
#
# number of rings (size 3 to 8) (size 9 to 14) (size 15 to 20)
#    0.000    0.615    5.385    3.692    1.077    4.308 
#    0.000    0.000    0.000    0.000    0.000    2.154 
#    0.000    4.923    0.000    0.000    0.000    0.000 
#
# Total GULP energy -145005.175604 kJ/mol
# GULP energy per Si atom -5577.122139 kJ/mol
# Density = 2.502994 g / cm^3
# Si number density = 25.087040 Si / 1000 Ang^3
#
#
#
# Elastic Constant Matrix: (Units=GPa)
#
#
# Indices 1 2 3 4 5 6 
#
# 1 59.6188 17.4501 18.8995 0.0000 19.2324 0.0000
# 2 17.4501 152.9090 39.4010 0.0000 9.1497 0.0000
# 3 18.8995 39.4010 119.8667 0.0000 28.2459 0.0000
# 4 0.0000 0.0000 0.0000 34.6558 0.0000 12.5975
# 5 19.2324 9.1497 28.2459 0.0000 42.1298 0.0000
# 6 0.0000 0.0000 0.0000 12.5975 0.0000 6.8175
#
#
#
# Elastic Compliance Matrix: (Units=1/GPa)
#
#
# Indices 1 2 3 4 5 6 
#
# 1 0.020173 -0.001628 -0.000664 0.000000 -0.008411 0.000000
# 2 -0.001628 0.007276 -0.002301 0.000000 0.000706 0.000000
# 3 -0.000664 -0.002301 0.010706 0.000000 -0.006375 0.000000
# 4 0.000000 0.000000 0.000000 0.087889 0.000000 -0.162402
# 5 -0.008411 0.000706 -0.006375 0.000000 0.031696 0.000000
# 6 0.000000 0.000000 0.000000 -0.162402 0.000000 0.446768
#
#
# Mechanical properties :
#
#
# Convention : Reuss Voigt Hill
#
# Bulk Modulus (GPa) = 34.51904 53.76620 44.14262
# Shear Modulus (GPa) = 8.02115 33.83022 20.92568
#
# Velocity S-wave (km/s) = 1.79005 3.67620 2.89125
# Velocity P-wave (km/s) = 4.24993 6.28471 5.36468
#
# Compressibility (1/GPa) = 0.02896952
#
# Stress axis : x y z
#
# Youngs Moduli (GPa) = 49.57043 137.43036 93.40561
#
# Poissons Ratio (x) = 0.22372 0.06200
# Poissons Ratio (y) = 0.08070 0.21497
# Poissons Ratio (z) = 0.03290 0.31629
#
# Static dielectric constant tensor:
#      x y z
#    x 2.104360 0.000000 0.033970 
#    y 0.000000 1.957820 0.000000 
#    z 0.033970 0.000000 2.062540 
# 
# From -- ./inp_files/327005.got.cif
#   From: 2010.05.17/outbox.cif.g08.bks.cpg/sg12_164_cif.got.tgz:327005.got - 2010.06.03 13:09:07.
