data_PCOD9219384
_publ_section_title
;
Structure prediction by ZEFSAII (Michael W. Deem and Ramdas Pophale) SiO2 
 PCOD9219384
Probable space group: C 2/M
;
_chemical_formula_sum "Si O2"
_cell_formula_units_Z 40
_cell_length_a 17.114247
_cell_length_b 21.875797
_cell_length_c 10.130923
_cell_angle_alpha 90.000000
_cell_angle_beta 147.353519
_cell_angle_gamma 90.000000
_cell_volume 2046.091956
_symmetry_space_group_name_H-M "C 2/M"
_symmetry_group_IT_number 12
_symmetry_cell_setting 'monoclinic'
loop_
_space_group_symop_operation_xyz
x,y,z
-x,y,-z
-x,-y,-z
x,-y,z
1/2+x,1/2+y,z
1/2-x,1/2+y,-z
1/2-x,1/2-y,-z
1/2+x,1/2-y,z
loop_
_atom_site_type_symbol
_atom_site_label
_atom_site_fract_x
_atom_site_fract_y
_atom_site_fract_z
Si Si1 0.421259 0.629376 0.580274
Si Si2 0.518632 0.110425 0.683306
Si Si3 0.639549 0.071293 0.292232
Si Si4 0.926651 0.747335 0.250368
Si Si5 0.331384 0.431647 0.189580
O O1 0.283161 0.610800 0.469086
O O2 0.495297 0.695079 0.708322
O O3 0.556739 0.582453 0.768763
O O4 0.360210 0.618526 0.344257
O O5 0.500000 0.110034 0.500000
O O6 0.404770 0.079496 0.618612
O O7 0.533083 0.181075 0.748828
O O8 0.668625 0.076247 0.917614
O O9 0.670201 0.000000 0.306373
O O10 0.500000 0.087952 0.000000
O O11 0.000000 0.748622 0.500000
O O12 0.750000 0.750000 0.000000
O O13 0.351019 0.500000 0.269945
#
# Coordination Sequence:
#
# PCOD9219384 Si02
#       5
#     8   8   8   8   8
#     4  11  20  37  65  95 124 164 216 276 324 368
#     4  11  24  40  63  92 131 179 211 261 334 400
#     4  11  23  40  63  97 133 164 218 282 329 382
#     4  11  21  40  67  96 131 172 226 273 319 397
#     4  11  20  36  63  96 124 164 219 268 324 387
#
# _framework density 19.549462999999999
#
# number of rings (size 3 to 8) (size 9 to 14) (size 15 to 20)
#    0.000    1.000    6.000    3.000    0.000    2.400 
#    0.000    1.000    0.000    2.400    0.000    0.000 
#    0.000    0.000    0.000    0.000    0.000    0.000 
#
# Total GULP energy -111443.011122 kJ/mol
# GULP energy per Si atom -5572.150556 kJ/mol
# Density = 1.950497 g / cm^3
# Si number density = 19.549463 Si / 1000 Ang^3
#
#
#
# Elastic Constant Matrix: (Units=GPa)
#
#
# Indices 1 2 3 4 5 6 
#
# 1 129.8592 25.4628 55.0628 0.0000 31.5440 0.0000
# 2 25.4628 109.5347 39.0283 0.0000 16.7196 0.0000
# 3 55.0628 39.0283 77.1846 0.0000 29.3832 0.0000
# 4 0.0000 0.0000 0.0000 12.0448 0.0000 -25.1921
# 5 31.5440 16.7196 29.3832 0.0000 35.3508 0.0000
# 6 0.0000 0.0000 0.0000 -25.1921 0.0000 -40.7079
#
#
#
# Elastic Compliance Matrix: (Units=1/GPa)
#
#
# Indices 1 2 3 4 5 6 
#
# 1 0.011651 0.000415 -0.006567 0.000000 -0.005134 0.000000
# 2 0.000415 0.011168 -0.005547 0.000000 -0.001042 0.000000
# 3 -0.006567 -0.005547 0.025185 0.000000 -0.012450 0.000000
# 4 0.000000 0.000000 0.000000 0.036186 0.000000 -0.022394
# 5 -0.005134 -0.001042 -0.012450 0.000000 0.043711 0.000000
# 6 0.000000 0.000000 0.000000 -0.022394 0.000000 -0.010707
#
#
# Mechanical properties :
#
#
# Convention : Reuss Voigt Hill
#
# Bulk Modulus (GPa) = 40.63803 61.74293 51.19048
# Shear Modulus (GPa) = 33.60338 14.47250 24.03794
#
# Velocity S-wave (km/s) = 4.15045 2.72380 3.51036
# Velocity P-wave (km/s) = 6.61821 6.44543 6.53239
#
# Compressibility (1/GPa) = 0.02460749
#
# Stress axis : x y z
#
# Youngs Moduli (GPa) = 85.82993 89.53782 39.70569
#
# Poissons Ratio (x) = -0.03718 0.26075
# Poissons Ratio (y) = -0.03564 0.22024
# Poissons Ratio (z) = 0.56365 0.49664
#
# Static dielectric constant tensor:
#      x y z
#    x 1.760940 0.000000 -0.238280 
#    y 0.000000 1.723960 0.000000 
#    z -0.238280 0.000000 3.097060 
# 
# From -- ./inp_files/65600.got.cif
#   From: 2010.05.17/outbox.cif.g08.bks.cpg/sg12_33_cif.got.tgz:65600.got - 2010.06.03 13:09:07.
