data_PCOD9219983
_publ_section_title
;
Structure prediction by ZEFSAII (Michael W. Deem and Ramdas Pophale) SiO2 
 PCOD9219983
Probable space group: C 2/M
;
_chemical_formula_sum "Si O2"
_cell_formula_units_Z 64
_cell_length_a 28.871453
_cell_length_b 16.274504
_cell_length_c 22.197794
_cell_angle_alpha 90.000000
_cell_angle_beta 162.429752
_cell_angle_gamma 90.000000
_cell_volume 3148.568917
_symmetry_space_group_name_H-M "C 2/M"
_symmetry_group_IT_number 12
_symmetry_cell_setting 'monoclinic'
loop_
_space_group_symop_operation_xyz
x,y,z
-x,y,-z
-x,-y,-z
x,-y,z
1/2+x,1/2+y,z
1/2-x,1/2+y,-z
1/2-x,1/2-y,-z
1/2+x,1/2-y,z
loop_
_atom_site_type_symbol
_atom_site_label
_atom_site_fract_x
_atom_site_fract_y
_atom_site_fract_z
Si Si1 0.740829 0.405518 0.028054
Si Si2 0.423685 0.682077 0.614099
Si Si3 0.806517 0.093480 0.586366
Si Si4 0.466341 0.399686 0.025706
Si Si5 0.332435 0.899654 0.274731
Si Si6 0.482420 0.859927 0.229430
Si Si7 0.267909 0.402186 0.170599
Si Si8 0.884212 0.097484 0.445476
O O1 0.692759 0.500000 0.974182
O O2 0.788706 0.374287 0.153170
O O3 0.882555 0.401138 0.158221
O O4 0.595032 0.355812 0.824978
O O5 0.336785 0.645516 0.564233
O O6 0.449611 0.777250 0.658077
O O7 0.348216 0.653426 0.458182
O O8 0.630254 0.093663 0.387656
O O9 0.909560 0.124879 0.770025
O O10 0.856774 0.000000 0.636137
O O11 0.469762 0.500000 0.028384
O O12 0.500000 0.370660 0.000000
O O13 0.299331 0.374598 0.842367
O O14 0.500000 0.869215 0.500000
O O15 0.336795 0.000000 0.280119
O O16 0.360229 0.850982 0.023514
O O17 0.232421 0.500000 0.118729
O O18 0.437620 0.389983 0.353112
O O19 0.284239 0.385532 0.261892
O O20 0.868797 0.000000 0.441128
#
# Coordination Sequence:
#
# PCOD9219983 Si02
#       8
#     8   8   8   8   8   8   8   8
#     4  11  21  37  61  87 117 158 208 252 300 372
#     4  12  23  40  61  89 125 162 199 257 324 386
#     4  11  23  41  63  85 115 163 213 253 305 381
#     4   9  18  33  54  81 114 152 197 244 290 346
#     4   9  18  32  53  84 117 147 192 252 293 333
#     4  12  25  38  59  92 129 158 197 263 328 382
#     4   9  18  36  61  92 124 159 207 259 308 366
#     4   9  18  35  64  92 119 160 210 258 305 371
#
# _framework density 20.326694
#
# number of rings (size 3 to 8) (size 9 to 14) (size 15 to 20)
#    0.000    1.750    2.500    3.750    1.750    0.000 
#    0.000    3.125    0.000    2.250    0.000    0.000 
#    0.000    0.000    0.000    0.000    0.000    0.000 
#
# Total GULP energy -178759.753834 kJ/mol
# GULP energy per Si atom -5586.242307 kJ/mol
# Density = 2.028043 g / cm^3
# Si number density = 20.326694 Si / 1000 Ang^3
#
#
#
# Elastic Constant Matrix: (Units=GPa)
#
#
# Indices 1 2 3 4 5 6 
#
# 1 155.0205 18.7801 52.3901 -0.0001 -10.4019 -0.0004
# 2 18.7801 43.4537 -1.6757 -0.0006 -10.0149 -0.0008
# 3 52.3901 -1.6757 74.1567 0.0014 2.9364 -0.0011
# 4 -0.0001 -0.0006 0.0014 4.3219 0.0003 5.4728
# 5 -10.4019 -10.0149 2.9364 0.0003 40.9562 -0.0002
# 6 -0.0004 -0.0008 -0.0011 5.4728 -0.0002 10.7423
#
#
#
# Elastic Compliance Matrix: (Units=1/GPa)
#
#
# Indices 1 2 3 4 5 6 
#
# 1 0.009328 -0.003851 -0.006752 0.000007 0.001911 -0.000004
# 2 -0.003851 0.025985 0.003104 -0.000002 0.005153 0.000003
# 3 -0.006752 0.003104 0.018416 -0.000022 -0.002276 0.000013
# 4 0.000007 -0.000002 -0.000022 0.652046 -0.000004 -0.332195
# 5 0.001911 0.005153 -0.002276 -0.000004 0.026325 0.000003
# 6 -0.000004 0.000003 0.000013 -0.332195 0.000003 0.262332
#
#
# Mechanical properties :
#
#
# Convention : Reuss Voigt Hill
#
# Bulk Modulus (GPa) = 25.82070 45.73555 35.77813
# Shear Modulus (GPa) = 4.89074 24.74649 14.81862
#
# Velocity S-wave (km/s) = 1.55283 3.49297 2.70297
# Velocity P-wave (km/s) = 3.99318 6.23032 5.23270
#
# Compressibility (1/GPa) = 0.03872862
#
# Stress axis : x y z
#
# Youngs Moduli (GPa) = 107.20870 38.48407 54.30149
#
# Poissons Ratio (x) = 0.14821 0.36667
# Poissons Ratio (y) = 0.41288 -0.16854
# Poissons Ratio (z) = 0.72392 -0.11945
#
# Static dielectric constant tensor:
#      x y z
#    x 1.710660 0.000000 -0.020560 
#    y 0.000000 1.716510 0.000000 
#    z -0.020560 0.000000 1.702810 
# 
# From -- ./inp_files/328663.got.cif
#   From: 2010.05.17/outbox.cif.g08.bks.cpg/sg12_165_cif.got.tgz:328663.got - 2010.06.03 13:09:07.
