data_PCOD9219239
_publ_section_title
;
Structure prediction by ZEFSAII (Michael W. Deem and Ramdas Pophale) SiO2 
 PCOD9219239
Probable space group: C 2/M
;
_chemical_formula_sum "Si O2"
_cell_formula_units_Z 64
_cell_length_a 13.252808
_cell_length_b 29.166308
_cell_length_c 16.545880
_cell_angle_alpha 90.000000
_cell_angle_beta 156.340133
_cell_angle_gamma 90.000000
_cell_volume 2566.582397
_symmetry_space_group_name_H-M "C 2/M"
_symmetry_group_IT_number 12
_symmetry_cell_setting 'monoclinic'
loop_
_space_group_symop_operation_xyz
x,y,z
-x,y,-z
-x,-y,-z
x,-y,z
1/2+x,1/2+y,z
1/2-x,1/2+y,-z
1/2-x,1/2-y,-z
1/2+x,1/2-y,z
loop_
_atom_site_type_symbol
_atom_site_label
_atom_site_fract_x
_atom_site_fract_y
_atom_site_fract_z
Si Si1 0.451562 0.884352 0.598312
Si Si2 0.417033 0.447658 0.586234
Si Si3 0.798336 0.295223 0.778828
Si Si4 0.414413 0.621379 0.829012
Si Si5 0.270535 0.948349 0.006295
Si Si6 0.028374 0.784792 0.857988
Si Si7 0.170926 0.396374 0.206674
Si Si8 0.333125 0.697845 0.549122
O O1 0.339578 0.926370 0.567316
O O2 0.279389 0.880600 0.390433
O O3 0.732967 0.888191 0.771581
O O4 0.388998 0.838700 0.605050
O O5 0.398732 0.500000 0.543540
O O6 0.599556 0.448645 0.799173
O O7 0.560104 0.414070 0.628498
O O8 0.819718 0.250509 0.738885
O O9 0.852762 0.344411 0.778625
O O10 0.526515 0.303468 0.618289
O O11 0.000000 0.287897 0.000000
O O12 0.630178 0.585672 0.963914
O O13 0.528478 0.672582 0.918110
O O14 0.282249 0.000000 0.045845
O O15 0.539253 0.930558 0.172187
O O16 0.995576 0.810157 0.748706
O O17 0.250000 0.750000 0.000000
O O18 0.000000 0.395859 0.000000
O O19 0.250000 0.750000 0.500000
#
# Coordination Sequence:
#
# PCOD9219239 Si02
#       8
#     8   8   8   8   8   8   8   8
#     4   9  17  31  43  65  96 135 173 208 257 318
#     4   9  15  24  41  64  92 129 170 209 252 312
#     4  11  20  33  54  77 104 144 182 221 269 317
#     4   9  18  29  45  64  98 135 169 211 262 312
#     4   9  16  25  40  65  96 132 169 209 260 316
#     4  11  21  35  54  78 105 141 183 222 265 317
#     4   9  16  26  43  66  98 131 169 212 261 311
#     4  11  22  36  54  76 107 144 181 221 268 319
#
# _framework density 24.935883
#
# number of rings (size 3 to 8) (size 9 to 14) (size 15 to 20)
#    0.000    2.250    2.500    1.875    3.500    3.500 
#    0.000    2.500    0.000    0.000    0.000    0.000 
#    0.000    6.500    0.000    0.125    0.000    0.000 
#
# Total GULP energy -179030.348612 kJ/mol
# GULP energy per Si atom -5594.698394 kJ/mol
# Density = 2.487913 g / cm^3
# Si number density = 24.935883 Si / 1000 Ang^3
#
#
#
# Elastic Constant Matrix: (Units=GPa)
#
#
# Indices 1 2 3 4 5 6 
#
# 1 137.6520 55.2719 42.2558 -0.0004 30.9164 0.0007
# 2 55.2719 185.4268 28.8844 0.0017 43.1452 0.0021
# 3 42.2558 28.8844 106.8269 -0.0028 32.8696 0.0000
# 4 -0.0004 0.0017 -0.0028 26.6928 -0.0009 7.6596
# 5 30.9164 43.1452 32.8696 -0.0009 61.9438 0.0008
# 6 0.0007 0.0021 0.0000 7.6596 0.0008 34.8613
#
#
#
# Elastic Compliance Matrix: (Units=1/GPa)
#
#
# Indices 1 2 3 4 5 6 
#
# 1 0.009248 -0.001910 -0.002546 0.000000 -0.001934 0.000000
# 2 -0.001910 0.006847 0.000093 -0.000001 -0.003866 0.000000
# 3 -0.002546 0.000093 0.011918 0.000001 -0.005118 0.000000
# 4 0.000000 -0.000001 0.000001 0.039984 0.000001 -0.008785
# 5 -0.001934 -0.003866 -0.005118 0.000001 0.022517 0.000000
# 6 0.000000 0.000000 0.000000 -0.008785 0.000000 0.030615
#
#
# Mechanical properties :
#
#
# Convention : Reuss Voigt Hill
#
# Bulk Modulus (GPa) = 51.84879 75.85888 63.85383
# Shear Modulus (GPa) = 36.68806 44.93246 40.81026
#
# Velocity S-wave (km/s) = 3.83991 4.24951 4.04989
# Velocity P-wave (km/s) = 6.36379 7.38684 6.89432
#
# Compressibility (1/GPa) = 0.01928685
#
# Stress axis : x y z
#
# Youngs Moduli (GPa) = 108.13554 146.04643 83.90858
#
# Poissons Ratio (x) = 0.27893 0.21367
# Poissons Ratio (y) = 0.20652 -0.00784
# Poissons Ratio (z) = 0.27536 -0.01365
#
# Static dielectric constant tensor:
#      x y z
#    x 2.063790 0.000000 -0.156720 
#    y 0.000000 1.910420 0.000000 
#    z -0.156720 0.000000 2.112490 
# 
# From -- ./inp_files/312930.got.cif
#   From: 2010.05.17/outbox.cif.g08.bks.cpg/sg12_157_cif.got.tgz:312930.got - 2010.06.03 13:09:07.
