data_PCOD9219092
_publ_section_title
;
Structure prediction by ZEFSAII (Michael W. Deem and Ramdas Pophale) SiO2 
 PCOD9219092
Probable space group: C 2/M
;
_chemical_formula_sum "Si O2"
_cell_formula_units_Z 48
_cell_length_a 19.873277
_cell_length_b 13.896526
_cell_length_c 19.634850
_cell_angle_alpha 90.000000
_cell_angle_beta 151.419265
_cell_angle_gamma 90.000000
_cell_volume 2594.128115
_symmetry_space_group_name_H-M "C 2/M"
_symmetry_group_IT_number 12
_symmetry_cell_setting 'monoclinic'
loop_
_space_group_symop_operation_xyz
x,y,z
-x,y,-z
-x,-y,-z
x,-y,z
1/2+x,1/2+y,z
1/2-x,1/2+y,-z
1/2-x,1/2-y,-z
1/2+x,1/2-y,z
loop_
_atom_site_type_symbol
_atom_site_label
_atom_site_fract_x
_atom_site_fract_y
_atom_site_fract_z
Si Si1 0.570976 0.500000 0.176438
Si Si2 0.621761 0.294827 0.293622
Si Si3 0.113051 0.680718 0.657440
Si Si4 0.219586 0.000000 0.160367
Si Si5 0.376182 0.798866 0.840822
Si Si6 0.267168 0.500000 0.264241
Si Si7 0.073881 0.789875 0.401996
Si Si8 0.550107 0.500000 0.435316
O O1 0.603398 0.402628 0.247430
O O2 0.660101 0.500000 0.185311
O O3 0.409970 0.500000 0.006826
O O4 0.578350 0.220058 0.196109
O O5 0.784044 0.269453 0.455283
O O6 0.541260 0.280526 0.293151
O O7 0.182931 0.592801 0.758666
O O8 0.237195 0.735819 0.728937
O O9 0.000000 0.649733 0.500000
O O10 0.040744 0.751179 0.647108
O O11 0.329851 0.906022 0.819194
O O12 0.500000 0.764490 0.000000
O O13 0.383995 0.500000 0.307993
O O14 0.361316 0.500000 0.416239
O O15 0.090679 0.903098 0.432106
#
# Coordination Sequence:
#
# PCOD9219092 Si02
#       8
#     4   8   8   4   8   4   8   4
#     4  11  21  42  60  89 128 168 204 250 321 371
#     4  11  23  40  63  94 124 165 202 260 311 369
#     4  12  21  40  64  96 123 161 211 260 307 363
#     4  11  23  36  66  92 121 164 212 259 300 373
#     4  12  23  40  63  94 126 164 210 254 312 374
#     4  11  21  36  65  92 123 158 208 262 299 365
#     4  11  23  39  65  94 125 160 210 257 314 364
#     4  11  19  38  65  95 118 159 206 261 309 361
#
# _framework density 18.503326999999999
#
# number of rings (size 3 to 8) (size 9 to 14) (size 15 to 20)
#    0.000    0.667    6.667    2.000    0.000    0.667 
#    0.000    5.000    0.000    0.000    0.000    0.000 
#    0.000    0.000    0.000    0.000    0.000    0.000 
#
# Total GULP energy -134050.148920 kJ/mol
# GULP energy per Si atom -5585.422872 kJ/mol
# Density = 1.846121 g / cm^3
# Si number density = 18.503327 Si / 1000 Ang^3
#
#
#
# Elastic Constant Matrix: (Units=GPa)
#
#
# Indices 1 2 3 4 5 6 
#
# 1 77.2578 0.6396 30.2564 0.0000 -17.8738 0.0000
# 2 0.6396 98.5743 28.5361 -0.0001 2.7452 0.0000
# 3 30.2564 28.5361 95.2075 0.0000 -8.2472 0.0001
# 4 0.0000 -0.0001 0.0000 64.6215 0.0000 9.2646
# 5 -17.8738 2.7452 -8.2472 0.0000 23.9409 0.0000
# 6 0.0000 0.0000 0.0001 9.2646 0.0000 39.6206
#
#
#
# Elastic Compliance Matrix: (Units=1/GPa)
#
#
# Indices 1 2 3 4 5 6 
#
# 1 0.017439 0.000982 -0.004863 0.000000 0.011231 0.000000
# 2 0.000982 0.011310 -0.003866 0.000000 -0.001896 0.000000
# 3 -0.004863 -0.003866 0.013329 0.000000 0.001404 0.000000
# 4 0.000000 0.000000 0.000000 0.016012 0.000000 -0.003744
# 5 0.011231 -0.001896 0.001404 0.000000 0.050856 0.000000
# 6 0.000000 0.000000 0.000000 -0.003744 0.000000 0.026115
#
#
# Mechanical properties :
#
#
# Convention : Reuss Voigt Hill
#
# Bulk Modulus (GPa) = 37.61803 43.32264 40.47033
# Shear Modulus (GPa) = 31.36438 39.74375 35.55406
#
# Velocity S-wave (km/s) = 4.12159 4.63960 4.38824
# Velocity P-wave (km/s) = 6.55931 7.22256 6.89891
#
# Compressibility (1/GPa) = 0.02658300
#
# Stress axis : x y z
#
# Youngs Moduli (GPa) = 57.34420 88.41509 75.02249
#
# Poissons Ratio (x) = -0.08682 0.36486
# Poissons Ratio (y) = -0.05631 0.29005
# Poissons Ratio (z) = 0.27888 0.34183
#
# Static dielectric constant tensor:
#      x y z
#    x 1.636300 0.000000 0.001600 
#    y 0.000000 1.657840 0.000000 
#    z 0.001600 0.000000 1.621160 
# 
# From -- ./inp_files/85764.got.cif
#   From: 2010.05.17/outbox.cif.g08.bks.cpg/sg12_43_cif.got.tgz:85764.got - 2010.06.03 13:09:07.
