data_PCOD9219140
_publ_section_title
;
Structure prediction by ZEFSAII (Michael W. Deem and Ramdas Pophale) SiO2 
 PCOD9219140
Probable space group: C 2/M
;
_chemical_formula_sum "Si O2"
_cell_formula_units_Z 48
_cell_length_a 27.786554
_cell_length_b 8.725158
_cell_length_c 12.319232
_cell_angle_alpha 90.000000
_cell_angle_beta 106.545844
_cell_angle_gamma 90.000000
_cell_volume 2863.027410
_symmetry_space_group_name_H-M "C 2/M"
_symmetry_group_IT_number 12
_symmetry_cell_setting 'monoclinic'
loop_
_space_group_symop_operation_xyz
x,y,z
-x,y,-z
-x,-y,-z
x,-y,z
1/2+x,1/2+y,z
1/2-x,1/2+y,-z
1/2-x,1/2-y,-z
1/2+x,1/2-y,z
loop_
_atom_site_type_symbol
_atom_site_label
_atom_site_fract_x
_atom_site_fract_y
_atom_site_fract_z
Si Si1 0.695648 0.319245 0.496939
Si Si2 0.863524 0.313214 0.089279
Si Si3 0.220230 0.678095 0.130574
Si Si4 0.557565 0.187394 0.039568
Si Si5 0.363586 0.822411 0.734481
Si Si6 0.320889 0.818667 0.279745
O O1 0.701771 0.500000 0.503395
O O2 0.750000 0.250000 0.500000
O O3 0.655350 0.270473 0.380599
O O4 0.678584 0.261647 0.603939
O O5 0.863343 0.500000 0.087447
O O6 0.860197 0.265857 0.212340
O O7 0.812669 0.267747 0.992842
O O8 0.910342 0.263564 0.045415
O O9 0.235866 0.500000 0.124615
O O10 0.181285 0.679011 0.205985
O O11 0.266819 0.781612 0.192306
O O12 0.587975 0.234077 0.167262
O O13 0.558472 0.000000 0.040475
O O14 0.500000 0.237040 0.000000
O O15 0.371625 0.000000 0.707880
O O16 0.326328 0.000000 0.299337
#
# Coordination Sequence:
#
# PCOD9219140 Si02
#       6
#     8   8   8   8   8   8
#     4  12  23  34  48  67  96 133 172 204 238 285
#     4   8  16  28  43  69 100 128 160 201 244 286
#     4   9  16  28  45  65  96 131 161 196 237 282
#     4   8  14  28  53  80 102 124 154 200 254 295
#     4   9  17  30  49  74 101 127 161 202 241 283
#     4  11  20  29  44  67  99 134 166 197 235 285
#
# _framework density 16.765470000000001
#
# number of rings (size 3 to 8) (size 9 to 14) (size 15 to 20)
#    0.000    2.500    1.667    4.500    0.000    0.000 
#    0.000    0.833    0.000    2.500    0.000    7.000 
#    0.000    0.000    0.000    0.000    0.000    0.000 
#
# Total GULP energy -133781.248388 kJ/mol
# GULP energy per Si atom -5574.218683 kJ/mol
# Density = 1.672731 g / cm^3
# Si number density = 16.765470 Si / 1000 Ang^3
#
#
#
# Elastic Constant Matrix: (Units=GPa)
#
#
# Indices 1 2 3 4 5 6 
#
# 1 84.2679 22.2381 71.2118 0.0000 6.6311 0.0000
# 2 22.2381 52.9981 45.5742 0.0000 -6.1243 0.0000
# 3 71.2118 45.5742 148.5709 0.0000 -18.2193 0.0000
# 4 0.0000 0.0000 0.0000 22.1485 0.0000 1.6931
# 5 6.6311 -6.1243 -18.2193 0.0000 20.0085 0.0000
# 6 0.0000 0.0000 0.0000 1.6931 0.0000 10.1842
#
#
#
# Elastic Compliance Matrix: (Units=1/GPa)
#
#
# Indices 1 2 3 4 5 6 
#
# 1 0.027147 -0.000596 -0.015709 0.000000 -0.023484 0.000000
# 2 -0.000596 0.025653 -0.007425 0.000000 0.001288 0.000000
# 3 -0.015709 -0.007425 0.019022 0.000000 0.020254 0.000000
# 4 0.000000 0.000000 0.000000 0.045731 0.000000 -0.007603
# 5 -0.023484 0.001288 0.020254 0.000000 0.076599 0.000000
# 6 0.000000 0.000000 0.000000 -0.007603 0.000000 0.099455
#
#
# Mechanical properties :
#
#
# Convention : Reuss Voigt Hill
#
# Bulk Modulus (GPa) = 41.04935 62.65390 51.85163
# Shear Modulus (GPa) = 14.31892 20.25577 17.28734
#
# Velocity S-wave (km/s) = 2.92562 3.47966 3.21460
# Velocity P-wave (km/s) = 5.99583 7.32093 6.69126
#
# Compressibility (1/GPa) = 0.02436092
#
# Stress axis : x y z
#
# Youngs Moduli (GPa) = 36.83605 38.98221 52.57139
#
# Poissons Ratio (x) = 0.02325 0.82584
# Poissons Ratio (y) = 0.02197 0.39035
# Poissons Ratio (z) = 0.57866 0.28945
#
# Static dielectric constant tensor:
#      x y z
#    x 1.567370 0.000000 -0.018920 
#    y 0.000000 1.583150 0.000000 
#    z -0.018920 0.000000 1.582930 
# 
# From -- ./inp_files/185732.got.cif
#   From: 2010.05.17/outbox.cif.g08.bks.cpg/sg12_93_cif.got.tgz:185732.got - 2010.06.03 13:09:07.
