data_PCOD9219290
_publ_section_title
;
Structure prediction by ZEFSAII (Michael W. Deem and Ramdas Pophale) SiO2 
 PCOD9219290
Probable space group: C 2/M
;
_chemical_formula_sum "Si O2"
_cell_formula_units_Z 40
_cell_length_a 24.280128
_cell_length_b 10.135355
_cell_length_c 11.349106
_cell_angle_alpha 90.000000
_cell_angle_beta 52.643870
_cell_angle_gamma 90.000000
_cell_volume 2219.999381
_symmetry_space_group_name_H-M "C 2/M"
_symmetry_group_IT_number 12
_symmetry_cell_setting 'monoclinic'
loop_
_space_group_symop_operation_xyz
x,y,z
-x,y,-z
-x,-y,-z
x,-y,z
1/2+x,1/2+y,z
1/2-x,1/2+y,-z
1/2-x,1/2-y,-z
1/2+x,1/2-y,z
loop_
_atom_site_type_symbol
_atom_site_label
_atom_site_fract_x
_atom_site_fract_y
_atom_site_fract_z
Si Si1 0.672439 0.500000 0.175105
Si Si2 0.346021 0.343425 0.451744
Si Si3 0.118820 0.500000 0.263834
Si Si4 0.921965 0.779145 0.585759
Si Si5 0.193543 0.263952 0.740370
Si Si6 0.330823 0.000000 0.062948
Si Si7 0.776768 0.000000 0.151407
O O1 0.631603 0.372832 0.275198
O O2 0.749979 0.500000 0.127079
O O3 0.679339 0.500000 0.025741
O O4 0.357601 0.500000 0.424820
O O5 0.397844 0.285675 0.481582
O O6 0.267868 0.321277 0.601774
O O7 0.348615 0.271919 0.322534
O O8 0.083429 0.632448 0.355997
O O9 0.196695 0.500000 0.215882
O O10 0.125691 0.500000 0.113520
O O11 0.000000 0.828480 0.500000
O O12 0.159057 0.371035 0.870224
O O13 0.207974 0.129882 0.792741
#
# Coordination Sequence:
#
# PCOD9219290 Si02
#       7
#     4   8   4   8   8   4   4
#     4  11  21  37  57  88 112 153 196 227 289 332
#     4  11  21  35  56  86 118 147 195 228 283 340
#     4  11  23  37  57  90 116 149 190 231 293 336
#     4  12  23  39  59  82 120 153 192 232 273 340
#     4  11  20  34  57  87 118 147 181 241 291 334
#     4  11  20  38  60  85 123 142 182 247 286 344
#     4  11  20  34  60  85 119 146 184 245 288 336
#
# _framework density 18.018021999999998
#
# number of rings (size 3 to 8) (size 9 to 14) (size 15 to 20)
#    0.000    0.800    7.000    1.800    0.000    4.000 
#    0.000    0.000    0.000    7.200    0.000    0.000 
#    0.000    0.000    0.000    0.000    0.000    0.000 
#
# Total GULP energy -111782.057960 kJ/mol
# GULP energy per Si atom -5589.102898 kJ/mol
# Density = 1.797701 g / cm^3
# Si number density = 18.018022 Si / 1000 Ang^3
#
#
#
# Elastic Constant Matrix: (Units=GPa)
#
#
# Indices 1 2 3 4 5 6 
#
# 1 83.8443 12.9150 54.9687 0.0000 25.1043 0.0000
# 2 12.9150 116.1592 34.5435 0.0000 17.7349 0.0000
# 3 54.9687 34.5435 70.3847 0.0000 27.6655 0.0000
# 4 0.0000 0.0000 0.0000 19.1452 0.0000 22.7747
# 5 25.1043 17.7349 27.6655 0.0000 31.8177 0.0000
# 6 0.0000 0.0000 0.0000 22.7747 0.0000 21.5546
#
#
#
# Elastic Compliance Matrix: (Units=1/GPa)
#
#
# Indices 1 2 3 4 5 6 
#
# 1 0.026235 0.003935 -0.020391 0.000000 -0.005163 0.000000
# 2 0.003935 0.010755 -0.007254 0.000000 -0.002792 0.000000
# 3 -0.020391 -0.007254 0.039165 0.000000 -0.013922 0.000000
# 4 0.000000 0.000000 0.000000 -0.203304 0.000000 0.214813
# 5 -0.005163 -0.002792 -0.013922 0.000000 0.049164 0.000000
# 6 0.000000 0.000000 0.000000 0.214813 0.000000 -0.180580
#
#
# Mechanical properties :
#
#
# Convention : Reuss Voigt Hill
#
# Bulk Modulus (GPa) = 34.80058 52.80474 43.80266
# Shear Modulus (GPa) = -24.80550 25.70090 0.44770
#
# Velocity S-wave (km/s) = -3.71442 3.78087 0.49901
# Velocity P-wave (km/s) = 0.97996 6.95918 4.96943
#
# Compressibility (1/GPa) = 0.02873516
#
# Stress axis : x y z
#
# Youngs Moduli (GPa) = 38.11734 92.98108 25.53329
#
# Poissons Ratio (x) = -0.36590 0.52064
# Poissons Ratio (y) = -0.15000 0.18522
# Poissons Ratio (z) = 0.77724 0.67450
#
# Static dielectric constant tensor:
#      x y z
#    x 1.594060 0.000000 0.017800 
#    y 0.000000 1.607640 0.000000 
#    z 0.017800 0.000000 1.598110 
# 
# From -- ./inp_files/171609.got.cif
#   From: 2010.05.17/outbox.cif.g08.bks.cpg/sg12_86_cif.got.tgz:171609.got - 2010.06.03 13:09:07.
