data_PCOD9219036
_publ_section_title
;
Structure prediction by ZEFSAII (Michael W. Deem and Ramdas Pophale) SiO2 
 PCOD9219036
Probable space group: C 2/M
;
_chemical_formula_sum "Si O2"
_cell_formula_units_Z 56
_cell_length_a 22.983580
_cell_length_b 16.044756
_cell_length_c 8.575622
_cell_angle_alpha 90.000000
_cell_angle_beta 117.974353
_cell_angle_gamma 90.000000
_cell_volume 2792.895327
_symmetry_space_group_name_H-M "C 2/M"
_symmetry_group_IT_number 12
_symmetry_cell_setting 'monoclinic'
loop_
_space_group_symop_operation_xyz
x,y,z
-x,y,-z
-x,-y,-z
x,-y,z
1/2+x,1/2+y,z
1/2-x,1/2+y,-z
1/2-x,1/2-y,-z
1/2+x,1/2-y,z
loop_
_atom_site_type_symbol
_atom_site_label
_atom_site_fract_x
_atom_site_fract_y
_atom_site_fract_z
Si Si1 0.651946 0.598370 0.046438
Si Si2 0.189641 0.407036 0.093085
Si Si3 0.060377 0.793808 0.156281
Si Si4 0.699747 0.831491 0.770396
Si Si5 0.963372 0.903491 0.604326
Si Si6 0.837911 0.864484 0.276005
Si Si7 0.182140 0.307589 0.408740
O O1 0.658934 0.500000 0.093690
O O2 0.605641 0.649098 0.102959
O O3 0.722629 0.645744 0.129654
O O4 0.626715 0.608005 0.838498
O O5 0.161779 0.500000 0.069437
O O6 0.268835 0.410883 0.191394
O O7 0.178377 0.354886 0.237479
O O8 0.172226 0.368205 0.900178
O O9 0.021775 0.855028 0.222065
O O10 0.113587 0.741906 0.319375
O O11 0.000000 0.744527 0.000000
O O12 0.681131 0.733421 0.748665
O O13 0.681112 0.859173 0.570125
O O14 0.885515 0.891874 0.473589
O O15 0.000000 0.867376 0.500000
O O16 0.979510 0.000000 0.639628
O O17 0.250000 0.250000 0.500000
#
# Coordination Sequence:
#
# PCOD9219036 Si02
#       7
#     8   8   8   8   8   8   8
#     4  11  22  35  57  89 125 163 201 251 311 366
#     4  11  23  37  61  95 126 157 201 262 324 371
#     4  12  24  40  60  88 122 165 209 251 305 372
#     4  11  21  38  62  88 124 164 213 256 306 361
#     4  11  23  37  54  80 119 168 210 248 301 371
#     4  11  19  36  57  81 122 162 206 255 302 358
#     4  12  22  42  65  91 125 166 212 261 309 366
#
# _framework density 20.050875999999999
#
# number of rings (size 3 to 8) (size 9 to 14) (size 15 to 20)
#    0.000    0.714    4.286    6.429    0.000    3.429 
#    0.000    0.000    0.000    0.429    0.000    1.000 
#    0.000    0.000    0.000    0.000    0.000    0.000 
#
# Total GULP energy -156072.222856 kJ/mol
# GULP energy per Si atom -5574.007959 kJ/mol
# Density = 2.000524 g / cm^3
# Si number density = 20.050876 Si / 1000 Ang^3
#
#
#
# Elastic Constant Matrix: (Units=GPa)
#
#
# Indices 1 2 3 4 5 6 
#
# 1 54.9525 13.3325 21.4001 0.0000 -14.6597 0.0000
# 2 13.3325 61.4816 17.6239 0.0000 -9.2086 0.0000
# 3 21.4001 17.6239 111.0672 0.0000 -15.0472 0.0000
# 4 0.0000 0.0000 0.0000 47.2941 0.0000 -3.1329
# 5 -14.6597 -9.2086 -15.0472 0.0000 48.3558 0.0000
# 6 0.0000 0.0000 0.0000 -3.1329 0.0000 19.5115
#
#
#
# Elastic Compliance Matrix: (Units=1/GPa)
#
#
# Indices 1 2 3 4 5 6 
#
# 1 0.021424 -0.003048 -0.002968 0.000000 0.004991 0.000000
# 2 -0.003048 0.017770 -0.001983 0.000000 0.001843 0.000000
# 3 -0.002968 -0.001983 0.010145 0.000000 0.001879 0.000000
# 4 0.000000 0.000000 0.000000 0.021372 0.000000 0.003432
# 5 0.004991 0.001843 0.001879 0.000000 0.023129 0.000000
# 6 0.000000 0.000000 0.000000 0.003432 0.000000 0.051803
#
#
# Mechanical properties :
#
#
# Convention : Reuss Voigt Hill
#
# Bulk Modulus (GPa) = 29.99209 36.91270 33.45239
# Shear Modulus (GPa) = 28.94289 34.70860 31.82575
#
# Velocity S-wave (km/s) = 3.80343 4.16507 3.98835
# Velocity P-wave (km/s) = 5.85479 6.44825 6.15867
#
# Compressibility (1/GPa) = 0.03334213
#
# Stress axis : x y z
#
# Youngs Moduli (GPa) = 46.67595 56.27347 98.57348
#
# Poissons Ratio (x) = 0.17150 0.29259
# Poissons Ratio (y) = 0.14225 0.19546
# Poissons Ratio (z) = 0.13854 0.11158
#
# Static dielectric constant tensor:
#      x y z
#    x 1.741490 0.000000 -0.029440 
#    y 0.000000 1.730390 0.000000 
#    z -0.029440 0.000000 1.772660 
# 
# From -- ./inp_files/97001.got.cif
#   From: 2010.05.17/outbox.cif.g08.bks.cpg/sg12_49_cif.got.tgz:97001.got - 2010.06.03 13:09:07.
