data_PCOD9219889
_publ_section_title
;
Structure prediction by ZEFSAII (Michael W. Deem and Ramdas Pophale) SiO2 
 PCOD9219889
Probable space group: C 2/M
;
_chemical_formula_sum "Si O2"
_cell_formula_units_Z 50
_cell_length_a 27.708799
_cell_length_b 7.626338
_cell_length_c 11.785739
_cell_angle_alpha 90.000000
_cell_angle_beta 118.053740
_cell_angle_gamma 90.000000
_cell_volume 2197.903725
_symmetry_space_group_name_H-M "C 2/M"
_symmetry_group_IT_number 12
_symmetry_cell_setting 'monoclinic'
loop_
_space_group_symop_operation_xyz
x,y,z
-x,y,-z
-x,-y,-z
x,-y,z
1/2+x,1/2+y,z
1/2-x,1/2+y,-z
1/2-x,1/2-y,-z
1/2+x,1/2-y,z
loop_
_atom_site_type_symbol
_atom_site_label
_atom_site_fract_x
_atom_site_fract_y
_atom_site_fract_z
Si Si1 0.341364 0.713393 0.667832
Si Si2 0.138728 0.788632 0.946204
Si Si3 0.567144 0.812284 0.658805
Si Si4 0.651116 0.295748 0.578028
Si Si5 0.234751 0.212577 0.207086
Si Si6 0.561610 0.712992 0.073189
Si Si7 0.000000 0.000000 0.500000
O O1 0.339198 0.500000 0.665963
O O2 0.332831 0.769749 0.529390
O O3 0.297424 0.769522 0.713650
O O4 0.400945 0.767795 0.779498
O O5 0.114015 0.712238 0.805196
O O6 0.140176 0.000000 0.936948
O O7 0.197937 0.731891 0.059168
O O8 0.096101 0.743446 0.999388
O O9 0.600339 0.800539 0.577613
O O10 0.525354 0.653450 0.611341
O O11 0.540567 0.000000 0.646063
O O12 0.634086 0.500000 0.551581
O O13 0.704259 0.281640 0.715796
O O14 0.236534 0.000000 0.208870
O O15 0.559412 0.500000 0.075275
O O16 0.500000 0.779230 0.000000
#
# Coordination Sequence:
#
# PCOD9219889 Si02
#       7
#     8   8   8   8   8   8   2
#     4   8  16  30  50  83 128 169 211 261 320 382
#     4   9  18  37  60  89 127 164 208 265 319 379
#     4  12  26  45  69  94 126 168 214 264 321 380
#     4  11  21  36  57  90 130 170 216 267 319 387
#     4   9  18  34  59  88 128 171 215 262 325 386
#     4   8  14  27  52  87 117 154 208 259 315 379
#     4  12  26  52  68  90 126 168 214 264 318 378
#
# _framework density 22.748949
#
# number of rings (size 3 to 8) (size 9 to 14) (size 15 to 20)
#    0.000    2.400    1.600    3.120    0.000    2.560 
#    2.880    0.800    0.000    2.400    0.000    0.000 
#    0.000    0.000    0.000    0.000    0.000    0.000 
#
# Total GULP energy -139433.965867 kJ/mol
# GULP energy per Si atom -5577.358635 kJ/mol
# Density = 2.269717 g / cm^3
# Si number density = 22.748949 Si / 1000 Ang^3
#
#
#
# Elastic Constant Matrix: (Units=GPa)
#
#
# Indices 1 2 3 4 5 6 
#
# 1 35.6400 8.0113 12.9081 0.0000 20.4022 0.0000
# 2 8.0113 103.0952 24.2604 0.0000 -1.1901 0.0000
# 3 12.9081 24.2604 112.3093 0.0000 7.7175 0.0000
# 4 0.0000 0.0000 0.0000 -15.1509 0.0000 -13.3687
# 5 20.4022 -1.1901 7.7175 0.0000 25.1255 0.0000
# 6 0.0000 0.0000 0.0000 -13.3687 0.0000 -13.8905
#
#
#
# Elastic Compliance Matrix: (Units=1/GPa)
#
#
# Indices 1 2 3 4 5 6 
#
# 1 0.055259 -0.004244 -0.002388 0.000000 -0.044338 0.000000
# 2 -0.004244 0.010580 -0.002114 0.000000 0.004596 0.000000
# 3 -0.002388 -0.002114 0.009714 0.000000 -0.001145 0.000000
# 4 0.000000 0.000000 0.000000 -0.437744 0.000000 0.421300
# 5 -0.044338 0.004596 -0.001145 0.000000 0.076373 0.000000
# 6 0.000000 0.000000 0.000000 0.421300 0.000000 -0.477466
#
#
# Mechanical properties :
#
#
# Convention : Reuss Voigt Hill
#
# Bulk Modulus (GPa) = 17.22293 37.93377 27.57835
# Shear Modulus (GPa) = -6.88288 12.94113 3.02913
#
# Velocity S-wave (km/s) = -1.74131 2.38768 1.15518
# Velocity P-wave (km/s) = 1.88267 4.93077 3.73209
#
# Compressibility (1/GPa) = 0.05806212
#
# Stress axis : x y z
#
# Youngs Moduli (GPa) = 18.09675 94.51817 102.94827
#
# Poissons Ratio (x) = 0.40113 0.24579
# Poissons Ratio (y) = 0.07680 0.21758
# Poissons Ratio (z) = 0.04321 0.19976
#
# Static dielectric constant tensor:
#      x y z
#    x 1.838140 0.000000 0.007950 
#    y 0.000000 1.861730 0.000000 
#    z 0.007950 0.000000 1.847160 
# 
# From -- ./inp_files/186928.got.cif
#   From: 2010.05.17/outbox.cif.g08.bks.cpg/sg12_94_cif.got.tgz:186928.got - 2010.06.03 13:09:07.
