data_PCOD9219330
_publ_section_title
;
Structure prediction by ZEFSAII (Michael W. Deem and Ramdas Pophale) SiO2 
 PCOD9219330
Probable space group: C 2/M
;
_chemical_formula_sum "Si O2"
_cell_formula_units_Z 48
_cell_length_a 13.373028
_cell_length_b 26.854963
_cell_length_c 8.204685
_cell_angle_alpha 90.000000
_cell_angle_beta 124.093271
_cell_angle_gamma 90.000000
_cell_volume 2440.128709
_symmetry_space_group_name_H-M "C 2/M"
_symmetry_group_IT_number 12
_symmetry_cell_setting 'monoclinic'
loop_
_space_group_symop_operation_xyz
x,y,z
-x,y,-z
-x,-y,-z
x,-y,z
1/2+x,1/2+y,z
1/2-x,1/2+y,-z
1/2-x,1/2-y,-z
1/2+x,1/2-y,z
loop_
_atom_site_type_symbol
_atom_site_label
_atom_site_fract_x
_atom_site_fract_y
_atom_site_fract_z
Si Si1 0.871904 0.644757 0.956807
Si Si2 0.184129 0.942103 0.784350
Si Si3 0.918472 0.942735 0.675543
Si Si4 0.690983 0.710753 0.570286
Si Si5 0.322686 0.785793 0.188140
Si Si6 0.121696 0.154646 0.204814
O O1 0.787215 0.597603 0.918557
O O2 0.792758 0.678541 0.758400
O O3 0.898181 0.678331 0.140677
O O4 0.000000 0.629884 0.000000
O O5 0.150352 0.938099 0.560909
O O6 0.059237 0.931316 0.765546
O O7 0.216547 0.000000 0.844416
O O8 0.868702 0.904386 0.761760
O O9 0.909773 0.000000 0.719782
O O10 0.750000 0.750000 0.500000
O O11 0.624691 0.745542 0.639787
O O12 0.615059 0.675343 0.383545
O O13 0.231575 0.820715 0.207736
O O14 0.250000 0.750000 0.000000
O O15 0.000000 0.167780 0.000000
#
# Coordination Sequence:
#
# PCOD9219330 Si02
#       6
#     8   8   8   8   8   8
#     4  11  21  38  59  84 119 158 203 241 283 355
#     4   9  18  35  59  89 119 152 195 239 297 363
#     4   9  18  34  60  89 119 150 186 247 311 355
#     4   9  20  38  56  80 116 151 197 242 297 346
#     4   9  21  38  54  80 116 152 199 241 289 347
#     4  11  20  35  60  87 116 148 193 246 306 352
#
# _framework density 19.671092000000002
#
# number of rings (size 3 to 8) (size 9 to 14) (size 15 to 20)
#    0.000    2.333    1.667    2.000    0.000    6.667 
#    0.000   10.833    0.000    0.000    0.000    2.333 
#    0.000    0.000    0.000    0.000    0.000    0.000 
#
# Total GULP energy -133885.203464 kJ/mol
# GULP energy per Si atom -5578.550144 kJ/mol
# Density = 1.962632 g / cm^3
# Si number density = 19.671092 Si / 1000 Ang^3
#
#
#
# Elastic Constant Matrix: (Units=GPa)
#
#
# Indices 1 2 3 4 5 6 
#
# 1 48.6942 42.6022 18.0026 0.0000 -1.8207 0.0000
# 2 42.6022 111.4463 23.8950 0.0000 0.3430 0.0000
# 3 18.0026 23.8950 75.6922 0.0000 -7.1267 0.0000
# 4 0.0000 0.0000 0.0000 7.7191 0.0000 -28.1831
# 5 -1.8207 0.3430 -7.1267 0.0000 24.7597 0.0000
# 6 0.0000 0.0000 0.0000 -28.1831 0.0000 16.8137
#
#
#
# Elastic Compliance Matrix: (Units=1/GPa)
#
#
# Indices 1 2 3 4 5 6 
#
# 1 0.032001 -0.011406 -0.003879 0.000000 0.001395 0.000000
# 2 -0.011406 0.013715 -0.001762 0.000000 -0.001536 0.000000
# 3 -0.003879 -0.001762 0.015074 0.000000 0.004078 0.000000
# 4 0.000000 0.000000 0.000000 -0.025303 0.000000 -0.042413
# 5 0.001395 -0.001536 0.004078 0.000000 0.041686 0.000000
# 6 0.000000 0.000000 0.000000 -0.042413 0.000000 -0.011616
#
#
# Mechanical properties :
#
#
# Convention : Reuss Voigt Hill
#
# Bulk Modulus (GPa) = 37.45632 44.98138 41.21885
# Shear Modulus (GPa) = 46.06187 19.94736 33.00461
#
# Velocity S-wave (km/s) = 4.84426 3.18786 4.10057
# Velocity P-wave (km/s) = 7.09731 6.03874 6.58931
#
# Compressibility (1/GPa) = 0.02669776
#
# Stress axis : x y z
#
# Youngs Moduli (GPa) = 31.24868 72.91109 66.33876
#
# Poissons Ratio (x) = 0.83159 0.25735
# Poissons Ratio (y) = 0.35641 0.11687
# Poissons Ratio (z) = 0.12122 0.12844
#
# Static dielectric constant tensor:
#      x y z
#    x 1.652650 0.000000 -0.011380 
#    y 0.000000 1.717530 0.000000 
#    z -0.011380 0.000000 1.673950 
# 
# From -- ./inp_files/52781.got.cif
#   From: 2010.05.17/outbox.cif.g08.bks.cpg/sg12_27_cif.got.tgz:52781.got - 2010.06.03 13:09:07.
