data_PCOD9219364
_publ_section_title
;
Structure prediction by ZEFSAII (Michael W. Deem and Ramdas Pophale) SiO2 
 PCOD9219364
Probable space group: C 2/M
;
_chemical_formula_sum "Si O2"
_cell_formula_units_Z 58
_cell_length_a 28.190578
_cell_length_b 7.568782
_cell_length_c 12.013445
_cell_angle_alpha 90.000000
_cell_angle_beta 92.588907
_cell_angle_gamma 90.000000
_cell_volume 2560.672547
_symmetry_space_group_name_H-M "C 2/M"
_symmetry_group_IT_number 12
_symmetry_cell_setting 'monoclinic'
loop_
_space_group_symop_operation_xyz
x,y,z
-x,y,-z
-x,-y,-z
x,-y,z
1/2+x,1/2+y,z
1/2-x,1/2+y,-z
1/2-x,1/2-y,-z
1/2+x,1/2-y,z
loop_
_atom_site_type_symbol
_atom_site_label
_atom_site_fract_x
_atom_site_fract_y
_atom_site_fract_z
Si Si1 0.921956 0.201106 0.658410
Si Si2 0.526522 0.800347 0.669735
Si Si3 0.616339 0.796975 0.113330
Si Si4 0.764982 0.713406 0.342311
Si Si5 0.775283 0.209481 0.888761
Si Si6 0.456421 0.785779 0.075798
Si Si7 0.000000 0.000000 0.500000
Si Si8 0.328907 0.294149 0.537805
O O1 0.899954 0.193233 0.779423
O O2 0.879894 0.277085 0.577753
O O3 0.969349 0.310495 0.672381
O O4 0.938442 0.000000 0.624529
O O5 0.542042 0.731875 0.794573
O O6 0.531098 0.658618 0.572053
O O7 0.545248 0.000000 0.651233
O O8 0.672702 0.790542 0.110900
O O9 0.601146 0.000000 0.129652
O O10 0.590630 0.735664 0.997896
O O11 0.765915 0.500000 0.350603
O O12 0.758121 0.769124 0.215674
O O13 0.716686 0.777469 0.399267
O O14 0.811648 0.778534 0.409937
O O15 0.781990 0.000000 0.876011
O O16 0.750000 0.250000 0.000000
O O17 0.459229 0.000000 0.081984
O O18 0.500000 0.727706 0.000000
O O19 0.333062 0.500000 0.569620
#
# Coordination Sequence:
#
# PCOD9219364 Si02
#       8
#     8   8   8   8   8   8   2   8
#     4  11  20  36  59  96 131 158 205 264 317 381
#     4  11  23  43  69  95 131 175 215 268 324 384
#     4  11  21  36  62  95 128 163 206 262 324 389
#     4   9  18  34  53  78 112 151 196 249 305 363
#     4  11  23  41  59  84 120 164 209 257 316 388
#     4   9  18  36  63  99 134 161 205 268 330 385
#     4  12  26  48  62  94 124 176 226 254 308 406
#     4   9  18  32  54  83 119 148 189 253 310 355
#
# _framework density 22.650299
#
# number of rings (size 3 to 8) (size 9 to 14) (size 15 to 20)
#    0.000    1.793    3.448    1.448    0.000    2.207 
#    2.483    2.414    0.000    1.655    0.000    0.000 
#    0.000    0.000    0.000    0.000    0.000    0.000 
#
# Total GULP energy -161789.698022 kJ/mol
# GULP energy per Si atom -5578.955104 kJ/mol
# Density = 2.259875 g / cm^3
# Si number density = 22.650299 Si / 1000 Ang^3
#
#
#
# Elastic Constant Matrix: (Units=GPa)
#
#
# Indices 1 2 3 4 5 6 
#
# 1 38.3463 -1.0608 22.0941 0.0000 26.1887 0.0000
# 2 -1.0608 90.4215 27.8120 0.0000 -0.2038 0.0000
# 3 22.0941 27.8120 176.9070 0.0000 33.0246 0.0000
# 4 0.0000 0.0000 0.0000 28.2792 0.0000 -8.2081
# 5 26.1887 -0.2038 33.0246 0.0000 46.0596 0.0000
# 6 0.0000 0.0000 0.0000 -8.2081 0.0000 12.8115
#
#
#
# Elastic Compliance Matrix: (Units=1/GPa)
#
#
# Indices 1 2 3 4 5 6 
#
# 1 0.042816 0.000778 -0.001069 0.000000 -0.023575 0.000000
# 2 0.000778 0.011735 -0.002158 0.000000 0.001157 0.000000
# 3 -0.001069 -0.002158 0.006943 0.000000 -0.004380 0.000000
# 4 0.000000 0.000000 0.000000 0.043440 0.000000 0.027831
# 5 -0.023575 0.001157 -0.004380 0.000000 0.038261 0.000000
# 6 0.000000 0.000000 0.000000 0.027831 0.000000 0.095886
#
#
# Mechanical properties :
#
#
# Convention : Reuss Voigt Hill
#
# Bulk Modulus (GPa) = 17.66911 44.81837 31.24374
# Shear Modulus (GPa) = 19.02277 34.55202 26.78739
#
# Velocity S-wave (km/s) = 2.90115 3.90994 3.44270
# Velocity P-wave (km/s) = 4.36349 6.34142 5.44305
#
# Compressibility (1/GPa) = 0.05659594
#
# Stress axis : x y z
#
# Youngs Moduli (GPa) = 23.35591 85.21652 144.02817
#
# Poissons Ratio (x) = -0.06629 0.15393
# Poissons Ratio (y) = -0.01817 0.31081
# Poissons Ratio (z) = 0.02496 0.18390
#
# Static dielectric constant tensor:
#      x y z
#    x 1.689020 0.000000 0.096060 
#    y 0.000000 1.604620 0.000000 
#    z 0.096060 0.000000 1.776000 
# 
# From -- ./inp_files/186719.got.cif
#   From: 2010.05.17/outbox.cif.g08.bks.cpg/sg12_94_cif.got.tgz:186719.got - 2010.06.03 13:09:07.
