data_PCOD9219831
_publ_section_title
;
Structure prediction by ZEFSAII (Michael W. Deem and Ramdas Pophale) SiO2 
 PCOD9219831
Probable space group: C 2/M
;
_chemical_formula_sum "Si O2"
_cell_formula_units_Z 40
_cell_length_a 30.716802
_cell_length_b 7.862125
_cell_length_c 24.309615
_cell_angle_alpha 90.000000
_cell_angle_beta 19.761956
_cell_angle_gamma 90.000000
_cell_volume 1984.979521
_symmetry_space_group_name_H-M "C 2/M"
_symmetry_group_IT_number 12
_symmetry_cell_setting 'monoclinic'
loop_
_space_group_symop_operation_xyz
x,y,z
-x,y,-z
-x,-y,-z
x,-y,z
1/2+x,1/2+y,z
1/2-x,1/2+y,-z
1/2-x,1/2-y,-z
1/2+x,1/2-y,z
loop_
_atom_site_type_symbol
_atom_site_label
_atom_site_fract_x
_atom_site_fract_y
_atom_site_fract_z
Si Si1 0.637432 0.304443 0.500279
Si Si2 0.519959 0.201048 0.411303
Si Si3 0.697132 0.188513 0.916953
Si Si4 0.882552 0.202532 0.873362
Si Si5 0.177394 0.000000 0.734023
Si Si6 0.373771 0.500000 0.076509
O O1 0.672576 0.500000 0.470643
O O2 0.590038 0.287870 0.493590
O O3 0.509594 0.256337 0.687056
O O4 0.749533 0.167445 0.374460
O O5 0.500000 0.217044 0.500000
O O6 0.656493 0.285969 0.236578
O O7 0.524163 0.000000 0.392587
O O8 0.671587 0.334986 0.903161
O O9 0.679973 0.000000 0.914429
O O10 0.613735 0.213523 0.071066
O O11 0.880115 0.000000 0.884347
O O12 0.750000 0.250000 0.000000
O O13 0.181309 0.000000 0.796209
O O14 0.028073 0.000000 0.896009
#
# Coordination Sequence:
#
# PCOD9219831 Si02
#       6
#     8   8   8   8   4   4
#     4  11  24  40  64  98 130 171 215 266 327 395
#     4  11  21  35  58  92 133 170 205 257 327 399
#     4  12  24  40  66  96 131 174 214 269 329 393
#     4  11  22  38  62  97 138 171 212 259 319 399
#     4  11  26  47  73  89 129 176 223 280 330 379
#     4  11  26  49  67  97 125 172 231 278 326 381
#
# _framework density 20.151342
#
# number of rings (size 3 to 8) (size 9 to 14) (size 15 to 20)
#    0.000    0.800    5.000    2.400    2.800    4.800 
#    0.000    3.000    0.000    0.000    0.000    0.000 
#    0.000    0.000    0.000    0.000    0.000    0.000 
#
# Total GULP energy -111882.644211 kJ/mol
# GULP energy per Si atom -5594.132211 kJ/mol
# Density = 2.010548 g / cm^3
# Si number density = 20.151342 Si / 1000 Ang^3
#
#
#
# Elastic Constant Matrix: (Units=GPa)
#
#
# Indices 1 2 3 4 5 6 
#
# 1 19.4942 6.2607 -4.7583 0.0013 1.5462 -0.0005
# 2 6.2607 114.7744 45.2810 0.0011 4.5407 0.0007
# 3 -4.7583 45.2810 97.4168 -0.0001 -0.2154 0.0018
# 4 0.0013 0.0011 -0.0001 21.8012 0.0007 5.6363
# 5 1.5462 4.5407 -0.2154 0.0007 25.5618 -0.0004
# 6 -0.0005 0.0007 0.0018 5.6363 -0.0004 3.8397
#
#
#
# Elastic Compliance Matrix: (Units=1/GPa)
#
#
# Indices 1 2 3 4 5 6 
#
# 1 0.054210 -0.004782 0.004865 -0.000007 -0.002389 0.000017
# 2 -0.004782 0.011188 -0.005438 0.000000 -0.001744 0.000000
# 3 0.004865 -0.005438 0.013032 0.000002 0.000781 -0.000007
# 4 -0.000007 0.000000 0.000002 0.073922 -0.000003 -0.108509
# 5 -0.002389 -0.001744 0.000781 -0.000003 0.039582 0.000009
# 6 0.000017 0.000000 -0.000007 -0.108509 0.000009 0.419713
#
#
# Mechanical properties :
#
#
# Convention : Reuss Voigt Hill
#
# Bulk Modulus (GPa) = 14.76643 36.13913 25.45278
# Shear Modulus (GPa) = 7.75279 22.56735 15.16007
#
# Velocity S-wave (km/s) = 1.96358 3.35011 2.74580
# Velocity P-wave (km/s) = 3.53334 5.73909 4.76559
#
# Compressibility (1/GPa) = 0.06772118
#
# Stress axis : x y z
#
# Youngs Moduli (GPa) = 18.44677 89.38229 76.73356
#
# Poissons Ratio (x) = 0.42743 -0.37334
# Poissons Ratio (y) = 0.08821 0.41726
# Poissons Ratio (z) = -0.08975 0.48604
#
# Static dielectric constant tensor:
#      x y z
#    x 1.709780 0.000000 0.038850 
#    y 0.000000 1.712480 0.000000 
#    z 0.038850 0.000000 1.721280 
# 
# From -- ./inp_files/352975.got.cif
#   From: 2010.05.17/outbox.cif.g08.bks.cpg/sg12_177_cif.got.tgz:352975.got - 2010.06.03 13:09:07.
