data_PCOD9219103
_publ_section_title
;
Structure prediction by ZEFSAII (Michael W. Deem and Ramdas Pophale) SiO2 
 PCOD9219103
Probable space group: C 2/M
;
_chemical_formula_sum "Si O2"
_cell_formula_units_Z 64
_cell_length_a 25.640132
_cell_length_b 14.887152
_cell_length_c 11.250178
_cell_angle_alpha 90.000000
_cell_angle_beta 137.483783
_cell_angle_gamma 90.000000
_cell_volume 2902.075640
_symmetry_space_group_name_H-M "C 2/M"
_symmetry_group_IT_number 12
_symmetry_cell_setting 'monoclinic'
loop_
_space_group_symop_operation_xyz
x,y,z
-x,y,-z
-x,-y,-z
x,-y,z
1/2+x,1/2+y,z
1/2-x,1/2+y,-z
1/2-x,1/2-y,-z
1/2+x,1/2-y,z
loop_
_atom_site_type_symbol
_atom_site_label
_atom_site_fract_x
_atom_site_fract_y
_atom_site_fract_z
Si Si1 0.137437 0.098893 0.919011
Si Si2 0.416336 0.257874 0.333801
Si Si3 0.137594 0.599821 0.338182
Si Si4 0.720936 0.137185 0.233320
Si Si5 0.707627 0.340646 0.274865
Si Si6 0.694540 0.100210 0.916253
Si Si7 0.102974 0.898940 0.486806
Si Si8 0.931445 0.212226 0.790362
O O1 0.087487 0.183348 0.793203
O O2 0.104507 0.000000 0.839075
O O3 0.163090 0.105665 0.098455
O O4 0.216953 0.107218 0.977284
O O5 0.500000 0.217973 0.500000
O O6 0.353564 0.179983 0.222938
O O7 0.402680 0.331994 0.412191
O O8 0.105900 0.500000 0.305626
O O9 0.165006 0.608433 0.246548
O O10 0.215590 0.613663 0.546155
O O11 0.082058 0.684189 0.270867
O O12 0.729153 0.244659 0.254537
O O13 0.806287 0.098629 0.393735
O O14 0.691813 0.110783 0.054089
O O15 0.648263 0.317791 0.280253
O O16 0.667631 0.000000 0.837851
O O17 0.058304 0.854854 0.301725
O O18 0.078277 0.000000 0.472950
O O19 0.000000 0.207299 0.000000
#
# Coordination Sequence:
#
# PCOD9219103 Si02
#       8
#     8   8   8   8   8   8   8   8
#     4  11  23  39  64  96 126 162 210 265 319 369
#     4  12  27  43  62  92 135 168 205 256 316 382
#     4  11  22  39  67  97 128 165 211 265 318 373
#     4  11  19  39  67  95 122 161 215 272 311 363
#     4  11  21  40  64  94 128 164 208 268 320 362
#     4  11  23  42  70  96 123 165 216 264 313 370
#     4  12  24  42  67  93 124 168 215 259 313 378
#     4  11  26  43  62  93 132 170 212 254 315 377
#
# _framework density 22.053180999999999
#
# number of rings (size 3 to 8) (size 9 to 14) (size 15 to 20)
#    0.000    0.750    5.000    3.750    1.750    2.250 
#    0.000    0.000    0.000    0.000    0.000    0.000 
#    0.000    0.000    0.000    0.000    0.000    0.000 
#
# Total GULP energy -179126.268230 kJ/mol
# GULP energy per Si atom -5597.695882 kJ/mol
# Density = 2.200299 g / cm^3
# Si number density = 22.053181 Si / 1000 Ang^3
#
#
#
# Elastic Constant Matrix: (Units=GPa)
#
#
# Indices 1 2 3 4 5 6 
#
# 1 29.3312 16.0245 1.0945 0.0000 -6.8987 0.0000
# 2 16.0245 141.0141 49.0441 0.0000 -6.1641 0.0000
# 3 1.0945 49.0441 108.7641 0.0000 -7.4753 0.0000
# 4 0.0000 0.0000 0.0000 -1.4824 0.0000 -15.2845
# 5 -6.8987 -6.1641 -7.4753 0.0000 30.9617 0.0000
# 6 0.0000 0.0000 0.0000 -15.2845 0.0000 5.3570
#
#
#
# Elastic Compliance Matrix: (Units=1/GPa)
#
#
# Indices 1 2 3 4 5 6 
#
# 1 0.038583 -0.004847 0.002361 0.000000 0.008202 0.000000
# 2 -0.004847 0.009038 -0.004044 0.000000 -0.000257 0.000000
# 3 0.002361 -0.004044 0.011160 0.000000 0.002415 0.000000
# 4 0.000000 0.000000 0.000000 -0.022177 0.000000 -0.063275
# 5 0.008202 -0.000257 0.002415 0.000000 0.034657 0.000000
# 6 0.000000 0.000000 0.000000 -0.063275 0.000000 0.006137
#
#
# Mechanical properties :
#
#
# Convention : Reuss Voigt Hill
#
# Bulk Modulus (GPa) = 21.87232 45.71509 33.79370
# Shear Modulus (GPa) = 47.30472 21.16367 34.23420
#
# Velocity S-wave (km/s) = 4.63647 3.10121 3.94426
# Velocity P-wave (km/s) = 6.21305 5.79636 6.00832
#
# Compressibility (1/GPa) = 0.04571990
#
# Stress axis : x y z
#
# Youngs Moduli (GPa) = 25.91847 110.64886 89.60526
#
# Poissons Ratio (x) = 0.53632 -0.21157
# Poissons Ratio (y) = 0.12563 0.36238
# Poissons Ratio (z) = -0.06120 0.44748
#
# Static dielectric constant tensor:
#      x y z
#    x 1.820040 0.000000 -0.007550 
#    y 0.000000 1.810240 0.000000 
#    z -0.007550 0.000000 1.796820 
# 
# From -- ./inp_files/183820.got.cif
#   From: 2010.05.17/outbox.cif.g08.bks.cpg/sg12_92_cif.got.tgz:183820.got - 2010.06.03 13:09:07.
