data_PCOD9219785
_publ_section_title
;
Structure prediction by ZEFSAII (Michael W. Deem and Ramdas Pophale) SiO2 
 PCOD9219785
Probable space group: C 2/M
;
_chemical_formula_sum "Si O2"
_cell_formula_units_Z 40
_cell_length_a 8.091783
_cell_length_b 14.175132
_cell_length_c 16.016346
_cell_angle_alpha 90.000000
_cell_angle_beta 87.173325
_cell_angle_gamma 90.000000
_cell_volume 1834.873160
_symmetry_space_group_name_H-M "C 2/M"
_symmetry_group_IT_number 12
_symmetry_cell_setting 'monoclinic'
loop_
_space_group_symop_operation_xyz
x,y,z
-x,y,-z
-x,-y,-z
x,-y,z
1/2+x,1/2+y,z
1/2-x,1/2+y,-z
1/2-x,1/2-y,-z
1/2+x,1/2-y,z
loop_
_atom_site_type_symbol
_atom_site_label
_atom_site_fract_x
_atom_site_fract_y
_atom_site_fract_z
Si Si1 0.660248 0.825171 0.791893
Si Si2 0.698077 0.000000 0.887767
Si Si3 0.142051 0.188398 0.936906
Si Si4 0.129793 0.816451 0.558413
Si Si5 0.888849 0.312656 0.676946
Si Si6 0.303675 0.000000 0.914607
O O1 0.583536 0.760439 0.867091
O O2 0.782867 0.760569 0.735158
O O3 0.515840 0.864561 0.735470
O O4 0.754978 0.908116 0.837119
O O5 0.497641 0.000000 0.891916
O O6 0.730262 0.000000 0.984699
O O7 0.228634 0.099997 0.890099
O O8 0.250000 0.250000 0.000000
O O9 0.000000 0.150276 0.000000
O O10 0.250000 0.750000 0.500000
O O11 0.256082 0.865284 0.620718
O O12 0.000000 0.868902 0.500000
O O13 0.011032 0.748598 0.615416
#
# Coordination Sequence:
#
# PCOD9219785 Si02
#       6
#     8   4   8   8   8   4
#     4  11  21  35  53  78 110 149 187 243 287 334
#     4  11  22  36  56  74 107 152 200 241 291 343
#     4  12  23  38  57  78 108 148 196 248 291 336
#     4   8  14  28  53  85 111 136 172 222 269 338
#     4   9  18  31  51  82 112 137 177 225 287 332
#     4  11  23  38  54  80 102 146 210 248 289 340
#
# _framework density 21.799872000000001
#
# number of rings (size 3 to 8) (size 9 to 14) (size 15 to 20)
#    0.000    1.800    2.000    3.900    0.000    0.000 
#    0.000    0.000    0.000    0.000    0.000   88.200 
#    0.000    0.000    0.000    0.000    0.000    0.000 
#
# Total GULP energy -111499.959605 kJ/mol
# GULP energy per Si atom -5574.997980 kJ/mol
# Density = 2.175025 g / cm^3
# Si number density = 21.799872 Si / 1000 Ang^3
#
#
#
# Elastic Constant Matrix: (Units=GPa)
#
#
# Indices 1 2 3 4 5 6 
#
# 1 71.0566 -7.8062 23.2731 0.0000 2.3321 0.0000
# 2 -7.8062 56.6947 2.5744 0.0000 2.6034 0.0000
# 3 23.2731 2.5744 100.8793 0.0000 8.9449 0.0000
# 4 0.0000 0.0000 0.0000 1.8612 0.0000 1.4523
# 5 2.3321 2.6034 8.9449 0.0000 60.2613 0.0000
# 6 0.0000 0.0000 0.0000 1.4523 0.0000 16.0556
#
#
#
# Elastic Compliance Matrix: (Units=1/GPa)
#
#
# Indices 1 2 3 4 5 6 
#
# 1 0.015520 0.002309 -0.003625 0.000000 -0.000162 0.000000
# 2 0.002309 0.018032 -0.000928 0.000000 -0.000731 0.000000
# 3 -0.003625 -0.000928 0.010900 0.000000 -0.001438 0.000000
# 4 0.000000 0.000000 0.000000 0.578076 0.000000 -0.052290
# 5 -0.000162 -0.000731 -0.001438 0.000000 0.016846 0.000000
# 6 0.000000 0.000000 0.000000 -0.052290 0.000000 0.067013
#
#
# Mechanical properties :
#
#
# Convention : Reuss Voigt Hill
#
# Bulk Modulus (GPa) = 25.02276 29.41257 27.21767
# Shear Modulus (GPa) = 6.90421 29.67491 18.28956
#
# Velocity S-wave (km/s) = 1.78156 3.69350 2.89965
# Velocity P-wave (km/s) = 3.96677 5.63122 4.87062
#
# Compressibility (1/GPa) = 0.03996361
#
# Stress axis : x y z
#
# Youngs Moduli (GPa) = 64.43492 55.45714 91.74083
#
# Poissons Ratio (x) = -0.12805 0.33255
# Poissons Ratio (y) = -0.14877 0.08514
# Poissons Ratio (z) = 0.23357 0.05147
#
# Static dielectric constant tensor:
#      x y z
#    x 1.851490 0.000000 0.073120 
#    y 0.000000 1.768030 0.000000 
#    z 0.073120 0.000000 1.831080 
# 
# From -- ./inp_files/194613.got.cif
#   From: 2010.05.17/outbox.cif.g08.bks.cpg/sg12_98_cif.got.tgz:194613.got - 2010.06.03 13:09:07.
