data_PCOD9219870
_publ_section_title
;
Structure prediction by ZEFSAII (Michael W. Deem and Ramdas Pophale) SiO2 
 PCOD9219870
Probable space group: C 2/M
;
_chemical_formula_sum "Si O2"
_cell_formula_units_Z 48
_cell_length_a 9.436260
_cell_length_b 23.415860
_cell_length_c 12.468991
_cell_angle_alpha 90.000000
_cell_angle_beta 82.353349
_cell_angle_gamma 90.000000
_cell_volume 2730.625221
_symmetry_space_group_name_H-M "C 2/M"
_symmetry_group_IT_number 12
_symmetry_cell_setting 'monoclinic'
loop_
_space_group_symop_operation_xyz
x,y,z
-x,y,-z
-x,-y,-z
x,-y,z
1/2+x,1/2+y,z
1/2-x,1/2+y,-z
1/2-x,1/2-y,-z
1/2+x,1/2-y,z
loop_
_atom_site_type_symbol
_atom_site_label
_atom_site_fract_x
_atom_site_fract_y
_atom_site_fract_z
Si Si1 0.672947 0.061988 0.477556
Si Si2 0.358400 0.566632 0.870701
Si Si3 0.626571 0.853339 0.297471
Si Si4 0.212825 0.376869 0.686068
Si Si5 0.691874 0.567807 0.872400
Si Si6 0.857209 0.235580 0.584135
O O1 0.500000 0.058815 0.500000
O O2 0.694452 0.112686 0.391999
O O3 0.732656 0.077464 0.587969
O O4 0.725856 0.000000 0.435303
O O5 0.336338 0.500000 0.849695
O O6 0.267434 0.601282 0.794299
O O7 0.529206 0.577072 0.847833
O O8 0.312815 0.575763 0.998679
O O9 0.456943 0.864105 0.300553
O O10 0.706097 0.885044 0.191532
O O11 0.639397 0.787023 0.329296
O O12 0.303419 0.321418 0.646067
O O13 0.729448 0.500000 0.848293
O O14 0.750000 0.250000 0.500000
O O15 0.000000 0.228891 0.500000
#
# Coordination Sequence:
#
# PCOD9219870 Si02
#       6
#     8   8   8   8   8   8
#     4   9  17  30  49  78 114 143 175 226 285 339
#     4   9  20  39  60  86 118 153 191 234 289 345
#     4  11  21  36  56  85 114 151 195 234 288 343
#     4  11  22  35  58  86 115 148 195 241 282 341
#     4   9  20  39  61  85 118 155 189 233 291 347
#     4  12  23  41  58  82 118 157 195 236 289 345
#
# _framework density 17.578392999999998
#
# number of rings (size 3 to 8) (size 9 to 14) (size 15 to 20)
#    0.000    1.833    3.333    2.500    2.333    2.667 
#    0.000    2.500    0.000    4.000    0.000    0.000 
#    0.000    0.000    0.000    0.000    0.000    0.000 
#
# Total GULP energy -133721.424055 kJ/mol
# GULP energy per Si atom -5571.726002 kJ/mol
# Density = 1.753838 g / cm^3
# Si number density = 17.578393 Si / 1000 Ang^3
#
#
#
# Elastic Constant Matrix: (Units=GPa)
#
#
# Indices 1 2 3 4 5 6 
#
# 1 82.4821 43.0250 48.5110 0.0000 -1.5647 0.0000
# 2 43.0250 99.5948 49.4004 0.0000 -5.8754 0.0000
# 3 48.5110 49.4004 83.2854 0.0000 9.6086 0.0000
# 4 0.0000 0.0000 0.0000 33.1877 0.0000 -5.4820
# 5 -1.5647 -5.8754 9.6086 0.0000 39.5104 0.0000
# 6 0.0000 0.0000 0.0000 -5.4820 0.0000 21.1265
#
#
#
# Elastic Compliance Matrix: (Units=1/GPa)
#
#
# Indices 1 2 3 4 5 6 
#
# 1 0.019723 -0.003570 -0.009671 0.000000 0.002602 0.000000
# 2 -0.003570 0.015615 -0.007649 0.000000 0.004041 0.000000
# 3 -0.009671 -0.007649 0.022997 0.000000 -0.007113 0.000000
# 4 0.000000 0.000000 0.000000 0.031481 0.000000 0.008169
# 5 0.002602 0.004041 -0.007113 0.000000 0.027744 0.000000
# 6 0.000000 0.000000 0.000000 0.008169 0.000000 0.049454
#
#
# Mechanical properties :
#
#
# Convention : Reuss Voigt Hill
#
# Bulk Modulus (GPa) = 60.39949 60.80389 60.60169
# Shear Modulus (GPa) = 23.33045 27.05998 25.19522
#
# Velocity S-wave (km/s) = 3.64706 3.92776 3.79001
# Velocity P-wave (km/s) = 7.22284 7.43202 7.32818
#
# Compressibility (1/GPa) = 0.01655643
#
# Stress axis : x y z
#
# Youngs Moduli (GPa) = 50.70169 64.03967 43.48342
#
# Poissons Ratio (x) = 0.22863 0.42051
# Poissons Ratio (y) = 0.18101 0.33260
# Poissons Ratio (z) = 0.49032 0.48983
#
# Static dielectric constant tensor:
#      x y z
#    x 1.579280 0.000000 -0.010320 
#    y 0.000000 1.545450 0.000000 
#    z -0.010320 0.000000 1.596030 
# 
# From -- ./inp_files/121941.got.cif
#   From: 2010.05.17/outbox.cif.g08.bks.cpg/sg12_61_cif.got.tgz:121941.got - 2010.06.03 13:09:07.
