data_PCOD9219389
_publ_section_title
;
Structure prediction by ZEFSAII (Michael W. Deem and Ramdas Pophale) SiO2 
 PCOD9219389
Probable space group: C 2/M
;
_chemical_formula_sum "Si O2"
_cell_formula_units_Z 48
_cell_length_a 14.278450
_cell_length_b 15.068144
_cell_length_c 10.686484
_cell_angle_alpha 90.000000
_cell_angle_beta 53.208412
_cell_angle_gamma 90.000000
_cell_volume 1841.239160
_symmetry_space_group_name_H-M "C 2/M"
_symmetry_group_IT_number 12
_symmetry_cell_setting 'monoclinic'
loop_
_space_group_symop_operation_xyz
x,y,z
-x,y,-z
-x,-y,-z
x,-y,z
1/2+x,1/2+y,z
1/2-x,1/2+y,-z
1/2-x,1/2-y,-z
1/2+x,1/2-y,z
loop_
_atom_site_type_symbol
_atom_site_label
_atom_site_fract_x
_atom_site_fract_y
_atom_site_fract_z
Si Si1 0.881750 0.637727 0.379150
Si Si2 0.820567 0.782283 0.819849
Si Si3 0.945669 0.165840 0.262486
Si Si4 0.088547 0.602364 0.041076
Si Si5 0.743470 0.102675 0.258515
Si Si6 0.847277 0.093714 0.580429
O O1 0.882201 0.743284 0.356797
O O2 0.008012 0.606706 0.229973
O O3 0.840552 0.611810 0.550978
O O4 0.785282 0.599266 0.362517
O O5 0.794115 0.680861 0.804743
O O6 0.869212 0.824739 0.652966
O O7 0.918744 0.807120 0.844435
O O8 0.797976 0.663859 0.058685
O O9 0.874690 0.127782 0.202035
O O10 0.922076 0.099416 0.394987
O O11 0.122398 0.500000 0.994533
O O12 0.000000 0.629851 0.000000
O O13 0.739887 0.000000 0.217794
O O14 0.865286 0.000000 0.631222
#
# Coordination Sequence:
#
# PCOD9219389 Si02
#       6
#     8   8   8   8   8   8
#     4  11  20  40  65  93 130 174 218 270 336 393
#     4  12  24  40  66  99 133 175 220 274 337 395
#     4  11  22  39  66  93 134 175 216 273 333 394
#     4  11  22  38  63  96 134 171 216 275 336 395
#     4  11  23  44  70  98 134 177 224 277 334 399
#     4  11  20  36  64  96 126 161 213 272 330 385
#
# _framework density 26.069399000000001
#
# number of rings (size 3 to 8) (size 9 to 14) (size 15 to 20)
#    0.000    0.833    5.000    5.000    0.000    4.000 
#    0.000    3.333    0.000    5.500    0.000    0.000 
#    0.000    0.000    0.000    0.000    0.000    0.000 
#
# Total GULP energy -134467.835628 kJ/mol
# GULP energy per Si atom -5602.826484 kJ/mol
# Density = 2.601006 g / cm^3
# Si number density = 26.069399 Si / 1000 Ang^3
#
#
#
# Elastic Constant Matrix: (Units=GPa)
#
#
# Indices 1 2 3 4 5 6 
#
# 1 219.3969 75.4281 59.0694 0.0000 -29.0560 0.0000
# 2 75.4281 211.3365 17.2841 0.0000 -5.8478 0.0000
# 3 59.0694 17.2841 85.9702 0.0000 -6.8620 0.0000
# 4 0.0000 0.0000 0.0000 13.0078 0.0000 0.4409
# 5 -29.0560 -5.8478 -6.8620 0.0000 41.6558 0.0000
# 6 0.0000 0.0000 0.0000 0.4409 0.0000 3.7239
#
#
#
# Elastic Compliance Matrix: (Units=1/GPa)
#
#
# Indices 1 2 3 4 5 6 
#
# 1 0.006826 -0.002005 -0.003982 0.000000 0.003824 0.000000
# 2 -0.002005 0.005411 0.000242 0.000000 -0.000599 0.000000
# 3 -0.003982 0.000242 0.014288 0.000000 -0.000390 0.000000
# 4 0.000000 0.000000 0.000000 0.077187 0.000000 -0.009139
# 5 0.003824 -0.000599 -0.000390 0.000000 0.026525 0.000000
# 6 0.000000 0.000000 0.000000 -0.009139 0.000000 0.269621
#
#
# Mechanical properties :
#
#
# Convention : Reuss Voigt Hill
#
# Bulk Modulus (GPa) = 66.50948 91.14076 78.82512
# Shear Modulus (GPa) = 12.00890 36.00562 24.00726
#
# Velocity S-wave (km/s) = 2.14861 3.72041 3.03792
# Velocity P-wave (km/s) = 5.63234 7.31382 6.52745
#
# Compressibility (1/GPa) = 0.01503545
#
# Stress axis : x y z
#
# Youngs Moduli (GPa) = 146.50936 184.81100 69.98930
#
# Poissons Ratio (x) = 0.37048 0.27866
# Poissons Ratio (y) = 0.29370 -0.01692
# Poissons Ratio (z) = 0.58333 -0.04467
#
# Static dielectric constant tensor:
#      x y z
#    x 2.058180 0.000000 -0.004520 
#    y 0.000000 2.036120 0.000000 
#    z -0.004520 0.000000 2.052150 
# 
# From -- ./inp_files/142866.got.cif
#   From: 2010.05.17/outbox.cif.g08.bks.cpg/sg12_72_cif.got.tgz:142866.got - 2010.06.03 13:09:07.
