data_PCOD9219557
_publ_section_title
;
Structure prediction by ZEFSAII (Michael W. Deem and Ramdas Pophale) SiO2 
 PCOD9219557
Probable space group: C 2/M
;
_chemical_formula_sum "Si O2"
_cell_formula_units_Z 52
_cell_length_a 14.069219
_cell_length_b 21.851904
_cell_length_c 9.242248
_cell_angle_alpha 90.000000
_cell_angle_beta 81.085235
_cell_angle_gamma 90.000000
_cell_volume 2807.104973
_symmetry_space_group_name_H-M "C 2/M"
_symmetry_group_IT_number 12
_symmetry_cell_setting 'monoclinic'
loop_
_space_group_symop_operation_xyz
x,y,z
-x,y,-z
-x,-y,-z
x,-y,z
1/2+x,1/2+y,z
1/2-x,1/2+y,-z
1/2-x,1/2-y,-z
1/2+x,1/2-y,z
loop_
_atom_site_type_symbol
_atom_site_label
_atom_site_fract_x
_atom_site_fract_y
_atom_site_fract_z
Si Si1 0.701473 0.122887 0.665825
Si Si2 0.604047 0.328515 0.449661
Si Si3 0.661666 0.265962 0.741233
Si Si4 0.500000 0.748262 0.000000
Si Si5 0.895927 0.500000 0.830058
Si Si6 0.374523 0.000000 0.165630
Si Si7 0.882093 0.715939 0.763390
Si Si8 0.093286 0.401623 0.401292
O O1 0.816106 0.126339 0.630016
O O2 0.667015 0.191141 0.724823
O O3 0.665145 0.063984 0.761749
O O4 0.666422 0.112441 0.510757
O O5 0.500000 0.356495 0.500000
O O6 0.643617 0.295086 0.586542
O O7 0.592011 0.276837 0.330177
O O8 0.765824 0.287725 0.777747
O O9 0.574338 0.283333 0.869843
O O10 0.425880 0.783839 0.912871
O O11 0.869016 0.442723 0.737230
O O12 0.011434 0.500000 0.826541
O O13 0.854798 0.500000 0.999410
O O14 0.933963 0.661891 0.665623
O O15 0.000000 0.429889 0.500000
#
# Coordination Sequence:
#
# PCOD9219557 Si02
#       8
#     8   8   8   4   4   4   8   8
#     4  11  22  39  63  84 117 152 201 242 290 339
#     4  11  20  41  64  89 112 153 202 252 286 342
#     4  11  22  39  58  91 119 158 195 242 292 352
#     4  12  24  32  54  87 130 165 184 236 292 362
#     4  11  26  35  58  84 124 156 193 226 295 363
#     4  11  25  42  54  87 120 154 193 242 290 350
#     4  11  22  36  58  86 126 155 197 232 301 346
#     4  12  20  36  58  88 115 159 193 236 278 357
#
# _framework density 18.524422000000001
#
# number of rings (size 3 to 8) (size 9 to 14) (size 15 to 20)
#    0.000    0.769    6.154    3.462    2.154    0.000 
#    0.000    0.385    0.000    0.000    0.000    1.077 
#    0.000    0.000    0.000    0.000    0.000    0.000 
#
# Total GULP energy -145048.363598 kJ/mol
# GULP energy per Si atom -5578.783215 kJ/mol
# Density = 1.848226 g / cm^3
# Si number density = 18.524422 Si / 1000 Ang^3
#
#
#
# Elastic Constant Matrix: (Units=GPa)
#
#
# Indices 1 2 3 4 5 6 
#
# 1 74.7337 2.0296 18.7754 0.0000 5.3585 0.0000
# 2 2.0296 54.4655 24.6455 0.0000 4.6380 0.0000
# 3 18.7754 24.6455 118.1502 0.0000 18.0067 0.0000
# 4 0.0000 0.0000 0.0000 9.0123 0.0000 -4.7438
# 5 5.3585 4.6380 18.0067 0.0000 39.9974 0.0000
# 6 0.0000 0.0000 0.0000 -4.7438 0.0000 16.7719
#
#
#
# Elastic Compliance Matrix: (Units=1/GPa)
#
#
# Indices 1 2 3 4 5 6 
#
# 1 0.013985 0.000552 -0.002193 0.000000 -0.000950 0.000000
# 2 0.000552 0.020304 -0.004244 0.000000 -0.000518 0.000000
# 3 -0.002193 -0.004244 0.010283 0.000000 -0.003844 0.000000
# 4 0.000000 0.000000 0.000000 0.130368 0.000000 0.036873
# 5 -0.000950 -0.000518 -0.003844 0.000000 0.026919 0.000000
# 6 0.000000 0.000000 0.000000 0.036873 0.000000 0.070053
#
#
# Mechanical properties :
#
#
# Convention : Reuss Voigt Hill
#
# Bulk Modulus (GPa) = 30.48523 37.58336 34.03429
# Shear Modulus (GPa) = 16.97119 26.61625 21.79372
#
# Velocity S-wave (km/s) = 3.03008 3.79465 3.43372
# Velocity P-wave (km/s) = 5.36045 6.28743 5.84235
#
# Compressibility (1/GPa) = 0.03280277
#
# Stress axis : x y z
#
# Youngs Moduli (GPa) = 71.50585 49.25082 97.24480
#
# Poissons Ratio (x) = -0.02718 0.21322
# Poissons Ratio (y) = -0.03947 0.41272
# Poissons Ratio (z) = 0.15679 0.20903
#
# Static dielectric constant tensor:
#      x y z
#    x 1.693930 0.000000 -0.003780 
#    y 0.000000 1.637290 0.000000 
#    z -0.003780 0.000000 1.659990 
# 
# From -- ./inp_files/63484.got.cif
#   From: 2010.05.17/outbox.cif.g08.bks.cpg/sg12_32_cif.got.tgz:63484.got - 2010.06.03 13:09:07.
