data_PCOD9219921
_publ_section_title
;
Structure prediction by ZEFSAII (Michael W. Deem and Ramdas Pophale) SiO2 
 PCOD9219921
Probable space group: C 2/M
;
_chemical_formula_sum "Si O2"
_cell_formula_units_Z 36
_cell_length_a 13.318710
_cell_length_b 14.569211
_cell_length_c 8.423295
_cell_angle_alpha 90.000000
_cell_angle_beta 73.374620
_cell_angle_gamma 90.000000
_cell_volume 1566.154233
_symmetry_space_group_name_H-M "C 2/M"
_symmetry_group_IT_number 12
_symmetry_cell_setting 'monoclinic'
loop_
_space_group_symop_operation_xyz
x,y,z
-x,y,-z
-x,-y,-z
x,-y,z
1/2+x,1/2+y,z
1/2-x,1/2+y,-z
1/2-x,1/2-y,-z
1/2+x,1/2-y,z
loop_
_atom_site_type_symbol
_atom_site_label
_atom_site_fract_x
_atom_site_fract_y
_atom_site_fract_z
Si Si1 0.775232 0.669720 0.858747
Si Si2 0.344346 0.900787 0.135959
Si Si3 0.070817 0.108229 0.746594
Si Si4 0.500000 0.742013 0.000000
Si Si5 0.827163 0.198710 0.587585
O O1 0.674732 0.631619 0.807805
O O2 0.852299 0.718338 0.697753
O O3 0.750000 0.750000 0.000000
O O4 0.822958 0.596983 0.956891
O O5 0.240555 0.875052 0.281686
O O6 0.385217 0.000000 0.169381
O O7 0.420723 0.813717 0.117473
O O8 0.979503 0.168553 0.868700
O O9 0.092828 0.146121 0.561443
O O10 0.050922 0.000000 0.758621
O O11 0.750000 0.250000 0.500000
#
# Coordination Sequence:
#
# PCOD9219921 Si02
#       5
#     8   8   8   4   8
#     4   9  17  36  60  80 109 145 188 236 271 318
#     4  11  21  36  61  85 109 150 193 229 277 336
#     4  11  21  36  61  85 109 150 193 229 277 336
#     4  12  22  36  54  82 128 146 172 236 296 330
#     4   9  17  36  60  80 109 145 188 236 271 318
#
# _framework density 22.986243000000002
#
# number of rings (size 3 to 8) (size 9 to 14) (size 15 to 20)
#    0.000    1.778    6.667    2.000    0.000    0.000 
#    0.000    1.111    0.000    2.667    0.000    0.000 
#    0.000    0.000    0.000    0.000    0.000    0.000 
#
# Total GULP energy -100252.035787 kJ/mol
# GULP energy per Si atom -5569.557544 kJ/mol
# Density = 2.293393 g / cm^3
# Si number density = 22.986243 Si / 1000 Ang^3
#
#
#
# Elastic Constant Matrix: (Units=GPa)
#
#
# Indices 1 2 3 4 5 6 
#
# 1 41.2590 14.1023 13.0773 0.0000 11.9304 0.0000
# 2 14.1023 196.5693 60.3903 0.0000 -11.6204 0.0000
# 3 13.0773 60.3903 163.4973 0.0000 -17.2626 0.0000
# 4 0.0000 0.0000 0.0000 20.3852 0.0000 -1.0965
# 5 11.9304 -11.6204 -17.2626 0.0000 36.7768 0.0000
# 6 0.0000 0.0000 0.0000 -1.0965 0.0000 20.0578
#
#
#
# Elastic Compliance Matrix: (Units=1/GPa)
#
#
# Indices 1 2 3 4 5 6 
#
# 1 0.029060 -0.001888 -0.002825 0.000000 -0.011350 0.000000
# 2 -0.001888 0.005887 -0.001854 0.000000 0.001602 0.000000
# 3 -0.002825 -0.001854 0.007430 0.000000 0.003818 0.000000
# 4 0.000000 0.000000 0.000000 0.049200 0.000000 0.002690
# 5 -0.011350 0.001602 0.003818 0.000000 0.033171 0.000000
# 6 0.000000 0.000000 0.000000 0.002690 0.000000 0.050003
#
#
# Mechanical properties :
#
#
# Convention : Reuss Voigt Hill
#
# Bulk Modulus (GPa) = 34.19706 64.05169 49.12437
# Shear Modulus (GPa) = 25.29931 36.36101 30.83016
#
# Velocity S-wave (km/s) = 3.32117 3.98157 3.66627
# Velocity P-wave (km/s) = 5.44209 7.00450 6.27214
#
# Compressibility (1/GPa) = 0.02924228
#
# Stress axis : x y z
#
# Youngs Moduli (GPa) = 34.41185 169.86297 134.58253
#
# Poissons Ratio (x) = 0.32065 0.38025
# Poissons Ratio (y) = 0.06496 0.24956
# Poissons Ratio (z) = 0.09723 0.31498
#
# Static dielectric constant tensor:
#      x y z
#    x 2.062880 0.000000 0.009190 
#    y 0.000000 1.854450 0.000000 
#    z 0.009190 0.000000 1.874400 
# 
# From -- ./inp_files/72276.got.cif
#   From: 2010.05.17/outbox.cif.g08.bks.cpg/sg12_37_cif.got.tgz:72276.got - 2010.06.03 13:09:07.
