data_PCOD9219415
_publ_section_title
;
Structure prediction by ZEFSAII (Michael W. Deem and Ramdas Pophale) SiO2 
 PCOD9219415
Probable space group: C 2/M
;
_chemical_formula_sum "Si O2"
_cell_formula_units_Z 56
_cell_length_a 32.062914
_cell_length_b 16.447526
_cell_length_c 9.878757
_cell_angle_alpha 90.000000
_cell_angle_beta 33.530866
_cell_angle_gamma 90.000000
_cell_volume 2877.720696
_symmetry_space_group_name_H-M "C 2/M"
_symmetry_group_IT_number 12
_symmetry_cell_setting 'monoclinic'
loop_
_space_group_symop_operation_xyz
x,y,z
-x,y,-z
-x,-y,-z
x,-y,z
1/2+x,1/2+y,z
1/2-x,1/2+y,-z
1/2-x,1/2-y,-z
1/2+x,1/2-y,z
loop_
_atom_site_type_symbol
_atom_site_label
_atom_site_fract_x
_atom_site_fract_y
_atom_site_fract_z
Si Si1 0.218563 0.092383 0.102485
Si Si2 0.146042 0.789813 0.515535
Si Si3 0.513504 0.174815 0.817426
Si Si4 0.123245 0.314382 0.009326
Si Si5 0.601911 0.094054 0.332537
Si Si6 0.726059 0.594248 0.494126
Si Si7 0.222112 0.160072 0.800556
O O1 0.174859 0.159301 0.308161
O O2 0.196635 0.000000 0.197007
O O3 0.307748 0.101638 0.890807
O O4 0.207829 0.108991 0.973314
O O5 0.063163 0.754743 0.716230
O O6 0.162051 0.849930 0.597687
O O7 0.201099 0.712353 0.388161
O O8 0.560977 0.124293 0.578716
O O9 0.500000 0.133690 0.000000
O O10 0.434310 0.191752 0.958830
O O11 0.194442 0.370963 0.776569
O O12 0.157597 0.227559 0.954540
O O13 0.085127 0.353617 0.244518
O O14 0.583921 0.000000 0.357019
O O15 0.717916 0.500000 0.481103
O O16 0.726553 0.607703 0.653114
#
# Coordination Sequence:
#
# PCOD9219415 Si02
#       7
#     8   8   8   8   8   8   8
#     4  11  21  37  64  94 119 153 206 265 310 351
#     4  11  21  40  64  86 122 163 211 251 298 367
#     4  12  25  41  59  91 127 167 203 248 306 370
#     4  11  23  39  63  88 123 165 206 248 303 371
#     4  11  23  40  61  90 126 165 205 248 307 370
#     4  11  22  38  63  93 123 160 206 257 309 357
#     4  11  20  37  61  90 120 159 205 260 298 355
#
# _framework density 19.459844
#
# number of rings (size 3 to 8) (size 9 to 14) (size 15 to 20)
#    0.000    0.857    4.286    6.429    0.000    2.000 
#    0.000    0.000    0.000   10.286    0.000    0.000 
#    0.000    0.000    0.000    0.000    0.000    0.000 
#
# Total GULP energy -156582.302238 kJ/mol
# GULP energy per Si atom -5592.225080 kJ/mol
# Density = 1.941555 g / cm^3
# Si number density = 19.459844 Si / 1000 Ang^3
#
#
#
# Elastic Constant Matrix: (Units=GPa)
#
#
# Indices 1 2 3 4 5 6 
#
# 1 123.1008 25.4118 36.4914 0.0000 16.0625 0.0000
# 2 25.4118 73.8962 21.0266 0.0000 -6.7899 0.0000
# 3 36.4914 21.0266 67.7351 0.0000 17.0038 0.0000
# 4 0.0000 0.0000 0.0000 18.7408 0.0000 6.2986
# 5 16.0625 -6.7899 17.0038 0.0000 39.8982 0.0000
# 6 0.0000 0.0000 0.0000 6.2986 0.0000 17.7992
#
#
#
# Elastic Compliance Matrix: (Units=1/GPa)
#
#
# Indices 1 2 3 4 5 6 
#
# 1 0.010220 -0.002652 -0.003960 0.000000 -0.002878 0.000000
# 2 -0.002652 0.016491 -0.005221 0.000000 0.006099 0.000000
# 3 -0.003960 -0.005221 0.020538 0.000000 -0.008047 0.000000
# 4 0.000000 0.000000 0.000000 0.060562 0.000000 -0.021431
# 5 -0.002878 0.006099 -0.008047 0.000000 0.030690 0.000000
# 6 0.000000 0.000000 0.000000 -0.021431 0.000000 0.063766
#
#
# Mechanical properties :
#
#
# Convention : Reuss Voigt Hill
#
# Bulk Modulus (GPa) = 42.40674 47.84352 45.12513
# Shear Modulus (GPa) = 21.38622 27.40782 24.39702
#
# Velocity S-wave (km/s) = 3.31870 3.75698 3.54462
# Velocity P-wave (km/s) = 6.04353 6.59234 6.32389
#
# Compressibility (1/GPa) = 0.02358116
#
# Stress axis : x y z
#
# Youngs Moduli (GPa) = 97.84306 60.64025 48.69050
#
# Poissons Ratio (x) = 0.16083 0.19283
# Poissons Ratio (y) = 0.25950 0.25423
# Poissons Ratio (z) = 0.38749 0.31663
#
# Static dielectric constant tensor:
#      x y z
#    x 1.689210 0.000000 0.008590 
#    y 0.000000 1.646310 0.000000 
#    z 0.008590 0.000000 1.686350 
# 
# From -- ./inp_files/105930.got.cif
#   From: 2010.05.17/outbox.cif.g08.bks.cpg/sg12_53_cif.got.tgz:105930.got - 2010.06.03 13:09:07.
