data_PCOD9219319
_publ_section_title
;
Structure prediction by ZEFSAII (Michael W. Deem and Ramdas Pophale) SiO2 
 PCOD9219319
Probable space group: C 2/M
;
_chemical_formula_sum "Si O2"
_cell_formula_units_Z 64
_cell_length_a 9.796848
_cell_length_b 16.268817
_cell_length_c 31.033597
_cell_angle_alpha 90.000000
_cell_angle_beta 140.170155
_cell_angle_gamma 90.000000
_cell_volume 3168.109935
_symmetry_space_group_name_H-M "C 2/M"
_symmetry_group_IT_number 12
_symmetry_cell_setting 'monoclinic'
loop_
_space_group_symop_operation_xyz
x,y,z
-x,y,-z
-x,-y,-z
x,-y,z
1/2+x,1/2+y,z
1/2-x,1/2+y,-z
1/2-x,1/2-y,-z
1/2+x,1/2-y,z
loop_
_atom_site_type_symbol
_atom_site_label
_atom_site_fract_x
_atom_site_fract_y
_atom_site_fract_z
Si Si1 0.550809 0.318331 0.576739
Si Si2 0.057644 0.600340 0.081895
Si Si3 0.686659 0.095422 0.804109
Si Si4 0.278043 0.877918 0.288748
Si Si5 0.154984 0.343323 0.432857
Si Si6 0.161544 0.907419 0.774155
Si Si7 0.163630 0.100145 0.933484
Si Si8 0.245234 0.318507 0.285392
O O1 0.351212 0.371392 0.510575
O O2 0.721826 0.309790 0.579897
O O3 0.459115 0.229241 0.568043
O O4 0.660274 0.350426 0.646519
O O5 0.061053 0.500000 0.083922
O O6 0.151980 0.627826 0.150168
O O7 0.218467 0.624385 0.082326
O O8 0.820840 0.625619 0.010264
O O9 0.680410 0.098611 0.750452
O O10 0.495554 0.149522 0.775892
O O11 0.919505 0.126655 0.875024
O O12 0.662405 0.000000 0.811344
O O13 0.470945 0.899919 0.368064
O O14 0.258679 0.779262 0.287097
O O15 0.052043 0.910807 0.249563
O O16 0.126549 0.853115 0.723912
O O17 0.218474 0.000000 0.774539
O O18 0.159371 0.000000 0.932201
#
# Coordination Sequence:
#
# PCOD9219319 Si02
#       8
#     8   8   8   8   8   8   8   8
#     4   9  18  33  53  80 109 142 185 227 270 312
#     4   8  14  28  51  79 104 135 183 230 263 305
#     4  11  20  35  57  83 109 142 184 226 270 323
#     4  11  21  36  58  83 108 143 187 225 266 323
#     4   9  18  32  54  81 108 140 185 233 264 313
#     4  11  22  37  57  82 112 146 182 225 275 327
#     4   8  14  27  52  80 103 133 184 233 260 304
#     4  11  23  36  54  82 117 145 172 225 284 326
#
# _framework density 20.201319000000002
#
# number of rings (size 3 to 8) (size 9 to 14) (size 15 to 20)
#    0.000    2.250    2.500    2.250    5.250    0.000 
#    0.000    0.625    0.000   12.000    0.000    0.000 
#    0.000    0.000    0.000    0.000    0.000    0.000 
#
# Total GULP energy -178469.592277 kJ/mol
# GULP energy per Si atom -5577.174759 kJ/mol
# Density = 2.015534 g / cm^3
# Si number density = 20.201319 Si / 1000 Ang^3
#
#
#
# Elastic Constant Matrix: (Units=GPa)
#
#
# Indices 1 2 3 4 5 6 
#
# 1 44.9891 4.3764 3.7659 0.0000 -2.1947 0.0000
# 2 4.3764 39.8437 13.9491 0.0000 -1.0124 0.0000
# 3 3.7659 13.9491 110.0928 0.0000 8.0225 0.0000
# 4 0.0000 0.0000 0.0000 5.9819 0.0000 -2.0197
# 5 -2.1947 -1.0124 8.0225 0.0000 34.1201 0.0000
# 6 0.0000 0.0000 0.0000 -2.0197 0.0000 34.0230
#
#
#
# Elastic Compliance Matrix: (Units=1/GPa)
#
#
# Indices 1 2 3 4 5 6 
#
# 1 0.022569 -0.002230 -0.000601 0.000000 0.001527 0.000000
# 2 -0.002230 0.026568 -0.003395 0.000000 0.001443 0.000000
# 3 -0.000601 -0.003395 0.009711 0.000000 -0.002423 0.000000
# 4 0.000000 0.000000 0.000000 0.170591 0.000000 0.010127
# 5 0.001527 0.001443 -0.002423 0.000000 0.030019 0.000000
# 6 0.000000 0.000000 0.000000 0.010127 0.000000 0.029993
#
#
# Mechanical properties :
#
#
# Convention : Reuss Voigt Hill
#
# Bulk Modulus (GPa) = 21.55337 26.56761 24.06049
# Shear Modulus (GPa) = 15.75457 26.34727 21.05092
#
# Velocity S-wave (km/s) = 2.79566 3.61534 3.23159
# Velocity P-wave (km/s) = 4.59493 5.53241 5.08532
#
# Compressibility (1/GPa) = 0.04639646
#
# Stress axis : x y z
#
# Youngs Moduli (GPa) = 44.30799 37.63882 102.98117
#
# Poissons Ratio (x) = 0.08393 0.06187
# Poissons Ratio (y) = 0.09880 0.34964
# Poissons Ratio (z) = 0.02662 0.12779
#
# Static dielectric constant tensor:
#      x y z
#    x 1.676520 0.000000 0.006260 
#    y 0.000000 1.697720 0.000000 
#    z 0.006260 0.000000 1.779700 
# 
# From -- ./inp_files/372979.got.cif
#   From: 2010.05.17/outbox.cif.g08.bks.cpg/sg12_187_cif.got.tgz:372979.got - 2010.06.03 13:09:07.
