data_PCOD9219629
_publ_section_title
;
Structure prediction by ZEFSAII (Michael W. Deem and Ramdas Pophale) SiO2 
 PCOD9219629
Probable space group: C 2/M
;
_chemical_formula_sum "Si O2"
_cell_formula_units_Z 64
_cell_length_a 19.324661
_cell_length_b 9.261986
_cell_length_c 20.198485
_cell_angle_alpha 90.000000
_cell_angle_beta 111.463567
_cell_angle_gamma 90.000000
_cell_volume 3364.506583
_symmetry_space_group_name_H-M "C 2/M"
_symmetry_group_IT_number 12
_symmetry_cell_setting 'monoclinic'
loop_
_space_group_symop_operation_xyz
x,y,z
-x,y,-z
-x,-y,-z
x,-y,z
1/2+x,1/2+y,z
1/2-x,1/2+y,-z
1/2-x,1/2-y,-z
1/2+x,1/2-y,z
loop_
_atom_site_type_symbol
_atom_site_label
_atom_site_fract_x
_atom_site_fract_y
_atom_site_fract_z
Si Si1 0.051772 0.323569 0.578996
Si Si2 0.797152 0.832118 0.071242
Si Si3 0.285346 0.167062 0.342010
Si Si4 0.594740 0.833504 0.111536
Si Si5 0.915940 0.333321 0.044805
Si Si6 0.494713 0.170339 0.289640
Si Si7 0.822550 0.661005 0.199869
Si Si8 0.125377 0.825438 0.256336
O O1 0.055819 0.500000 0.581884
O O2 0.137355 0.270187 0.602706
O O3 0.000000 0.280386 0.500000
O O4 0.016029 0.283652 0.637340
O O5 0.879810 0.780326 0.081159
O O6 0.783160 0.776184 0.140032
O O7 0.786649 0.000000 0.062520
O O8 0.750000 0.750000 0.000000
O O9 0.299164 0.167336 0.267790
O O10 0.201847 0.225581 0.319349
O O11 0.282269 0.000000 0.363391
O O12 0.504597 0.829088 0.082063
O O13 0.624246 0.732980 0.180395
O O14 0.617469 0.000000 0.131382
O O15 0.609473 0.799296 0.039459
O O16 0.893473 0.500000 0.050993
O O17 0.411635 0.180490 0.230887
O O18 0.554694 0.261289 0.270259
O O19 0.515238 0.000000 0.294757
O O20 0.805408 0.500000 0.168655
O O21 0.124333 0.000000 0.255133
#
# Coordination Sequence:
#
# PCOD9219629 Si02
#       8
#     8   8   8   8   8   8   8   8
#     4   8  14  30  58  84 104 135 181 220 247 295
#     4  12  25  36  49  71  99 131 172 221 269 317
#     4   8  17  32  50  76 107 137 171 215 265 306
#     4   9  19  35  55  73  97 132 170 214 263 316
#     4   9  19  37  54  71  95 128 170 217 269 317
#     4   9  18  33  55  81 106 136 173 215 260 306
#     4   9  18  36  56  71  96 134 177 221 265 313
#     4  11  21  31  48  76 110 140 170 211 262 316
#
# _framework density 19.022106000000001
#
# number of rings (size 3 to 8) (size 9 to 14) (size 15 to 20)
#    0.000    2.625    0.000    4.500    1.750    4.500 
#    0.000    2.500    0.000    1.875    0.000    0.000 
#    0.000    0.000    0.000    0.000    0.000    0.000 
#
# Total GULP energy -178445.996814 kJ/mol
# GULP energy per Si atom -5576.437400 kJ/mol
# Density = 1.897881 g / cm^3
# Si number density = 19.022106 Si / 1000 Ang^3
#
#
#
# Elastic Constant Matrix: (Units=GPa)
#
#
# Indices 1 2 3 4 5 6 
#
# 1 54.7864 15.1752 -2.1361 0.0000 11.3673 0.0000
# 2 15.1752 62.6624 34.0862 0.0000 3.3352 0.0000
# 3 -2.1361 34.0862 80.3288 0.0000 8.3559 0.0000
# 4 0.0000 0.0000 0.0000 16.2583 0.0000 1.7813
# 5 11.3673 3.3352 8.3559 0.0000 21.2323 0.0000
# 6 0.0000 0.0000 0.0000 1.7813 0.0000 16.7489
#
#
#
# Elastic Compliance Matrix: (Units=1/GPa)
#
#
# Indices 1 2 3 4 5 6 
#
# 1 0.023426 -0.007875 0.005360 0.000000 -0.013414 0.000000
# 2 -0.007875 0.023396 -0.010628 0.000000 0.004724 0.000000
# 3 0.005360 -0.010628 0.017961 0.000000 -0.008269 0.000000
# 4 0.000000 0.000000 0.000000 0.062232 0.000000 -0.006618
# 5 -0.013414 0.004724 -0.008269 0.000000 0.056792 0.000000
# 6 0.000000 0.000000 0.000000 -0.006618 0.000000 0.060409
#
#
# Mechanical properties :
#
#
# Convention : Reuss Voigt Hill
#
# Bulk Modulus (GPa) = 25.97629 32.44760 29.21194
# Shear Modulus (GPa) = 17.64695 20.89140 19.26918
#
# Velocity S-wave (km/s) = 3.04913 3.31761 3.18620
# Velocity P-wave (km/s) = 5.10703 5.63651 5.37829
#
# Compressibility (1/GPa) = 0.03849665
#
# Stress axis : x y z
#
# Youngs Moduli (GPa) = 42.68734 42.74302 55.67482
#
# Poissons Ratio (x) = 0.33659 -0.29841
# Poissons Ratio (y) = 0.33615 0.59173
# Poissons Ratio (z) = -0.22880 0.45429
#
# Static dielectric constant tensor:
#      x y z
#    x 1.753320 0.000000 0.015790 
#    y 0.000000 1.635700 0.000000 
#    z 0.015790 0.000000 1.667320 
# 
# From -- ./inp_files/320038.got.cif
#   From: 2010.05.17/outbox.cif.g08.bks.cpg/sg12_161_cif.got.tgz:320038.got - 2010.06.03 13:09:07.
