data_PCOD9219123
_publ_section_title
;
Structure prediction by ZEFSAII (Michael W. Deem and Ramdas Pophale) SiO2 
 PCOD9219123
Probable space group: C 2/M
;
_chemical_formula_sum "Si O2"
_cell_formula_units_Z 64
_cell_length_a 17.638196
_cell_length_b 16.138684
_cell_length_c 13.726795
_cell_angle_alpha 90.000000
_cell_angle_beta 98.732801
_cell_angle_gamma 90.000000
_cell_volume 3862.133662
_symmetry_space_group_name_H-M "C 2/M"
_symmetry_group_IT_number 12
_symmetry_cell_setting 'monoclinic'
loop_
_space_group_symop_operation_xyz
x,y,z
-x,y,-z
-x,-y,-z
x,-y,z
1/2+x,1/2+y,z
1/2-x,1/2+y,-z
1/2-x,1/2-y,-z
1/2+x,1/2-y,z
loop_
_atom_site_type_symbol
_atom_site_label
_atom_site_fract_x
_atom_site_fract_y
_atom_site_fract_z
Si Si1 0.505859 0.095809 0.383015
Si Si2 0.836630 0.676283 0.572739
Si Si3 0.536599 0.601142 0.108566
Si Si4 0.541636 0.600612 0.703919
Si Si5 0.662113 0.101717 0.644313
Si Si6 0.112571 0.864059 0.417915
Si Si7 0.312527 0.594365 0.769888
Si Si8 0.190113 0.905922 0.629444
O O1 0.500000 0.099239 0.500000
O O2 0.582938 0.142072 0.369885
O O3 0.422251 0.126674 0.334985
O O4 0.513748 0.000000 0.356846
O O5 0.825971 0.637101 0.462408
O O6 0.849615 0.773640 0.568225
O O7 0.764253 0.649382 0.622708
O O8 0.540338 0.500000 0.107992
O O9 0.485320 0.622766 0.192567
O O10 0.623410 0.631872 0.146484
O O11 0.500000 0.628382 0.000000
O O12 0.537783 0.500000 0.693200
O O13 0.478669 0.637849 0.617392
O O14 0.628270 0.625462 0.695637
O O15 0.729561 0.130725 0.728935
O O16 0.663788 0.000000 0.636734
O O17 0.145855 0.906532 0.327483
O O18 0.140148 0.908318 0.520354
O O19 0.298975 0.500000 0.799587
O O20 0.214546 0.000000 0.657320
#
# Coordination Sequence:
#
# PCOD9219123 Si02
#       8
#     8   8   8   8   8   8   8   8
#     4   8  15  27  40  53  74 110 152 187 216 246
#     4  11  20  28  39  61  87 119 158 188 221 238
#     4   8  14  27  47  69  90 108 136 184 233 270
#     4   9  19  32  46  65  89 120 151 178 219 275
#     4   9  16  27  42  57  80 117 154 182 212 252
#     4  11  20  29  39  61  90 119 157 180 213 247
#     4   9  16  27  44  63  85 113 142 175 216 263
#     4  11  20  30  43  59  88 127 158 180 210 264
#
# _framework density 16.571151
#
# number of rings (size 3 to 8) (size 9 to 14) (size 15 to 20)
#    0.000    2.500    1.250    4.500    0.000    4.000 
#    0.000    0.000    0.000    0.000    0.000    3.500 
#    0.000    0.125    0.000   11.625    0.000    8.000 
#
# Total GULP energy -178262.019735 kJ/mol
# GULP energy per Si atom -5570.688117 kJ/mol
# Density = 1.653343 g / cm^3
# Si number density = 16.571151 Si / 1000 Ang^3
#
#
#
# Elastic Constant Matrix: (Units=GPa)
#
#
# Indices 1 2 3 4 5 6 
#
# 1 156.4043 30.1910 41.3141 0.0000 8.9467 0.0000
# 2 30.1910 42.9367 4.4970 0.0000 -2.9556 0.0000
# 3 41.3141 4.4970 56.7970 0.0000 14.9246 0.0000
# 4 0.0000 0.0000 0.0000 -2.0329 0.0000 12.7222
# 5 8.9467 -2.9556 14.9246 0.0000 20.4516 0.0000
# 6 0.0000 0.0000 0.0000 12.7222 0.0000 -25.0936
#
#
#
# Elastic Compliance Matrix: (Units=1/GPa)
#
#
# Indices 1 2 3 4 5 6 
#
# 1 0.009149 -0.005823 -0.006089 0.000000 -0.000401 0.000000
# 2 -0.005823 0.027776 0.000386 0.000000 0.006280 0.000000
# 3 -0.006089 0.000386 0.026341 0.000000 -0.016503 0.000000
# 4 0.000000 0.000000 0.000000 0.226391 0.000000 0.114778
# 5 -0.000401 0.006280 -0.016503 0.000000 0.062022 0.000000
# 6 0.000000 0.000000 0.000000 0.114778 0.000000 0.018340
#
#
# Mechanical properties :
#
#
# Convention : Reuss Voigt Hill
#
# Bulk Modulus (GPa) = 24.86566 45.34914 35.10740
# Shear Modulus (GPa) = 12.30084 10.67407 11.48746
#
# Velocity S-wave (km/s) = 2.72748 2.54074 2.63576
# Velocity P-wave (km/s) = 4.99568 6.00274 5.52221
#
# Compressibility (1/GPa) = 0.04021610
#
# Stress axis : x y z
#
# Youngs Moduli (GPa) = 109.30256 36.00190 37.96307
#
# Poissons Ratio (x) = 0.20964 0.23114
# Poissons Ratio (y) = 0.63646 -0.01467
# Poissons Ratio (z) = 0.66550 -0.01391
#
# Static dielectric constant tensor:
#      x y z
#    x 1.628870 0.000000 0.014900 
#    y 0.000000 1.581470 0.000000 
#    z 0.014900 0.000000 1.530400 
# 
# From -- ./inp_files/157835.got.cif
#   From: 2010.05.17/outbox.cif.g08.bks.cpg/sg12_79_cif.got.tgz:157835.got - 2010.06.03 13:09:07.
