data_PCOD9219538
_publ_section_title
;
Structure prediction by ZEFSAII (Michael W. Deem and Ramdas Pophale) SiO2 
 PCOD9219538
Probable space group: C 2/M
;
_chemical_formula_sum "Si O2"
_cell_formula_units_Z 48
_cell_length_a 25.520298
_cell_length_b 8.115164
_cell_length_c 25.200864
_cell_angle_alpha 90.000000
_cell_angle_beta 31.551958
_cell_angle_gamma 90.000000
_cell_volume 2731.024532
_symmetry_space_group_name_H-M "C 2/M"
_symmetry_group_IT_number 12
_symmetry_cell_setting 'monoclinic'
loop_
_space_group_symop_operation_xyz
x,y,z
-x,y,-z
-x,-y,-z
x,-y,z
1/2+x,1/2+y,z
1/2-x,1/2+y,-z
1/2-x,1/2-y,-z
1/2+x,1/2-y,z
loop_
_atom_site_type_symbol
_atom_site_label
_atom_site_fract_x
_atom_site_fract_y
_atom_site_fract_z
Si Si1 0.642069 0.188006 0.815378
Si Si2 0.665652 0.500000 0.367187
Si Si3 0.829912 0.188326 0.093918
Si Si4 0.985622 0.000000 0.601785
Si Si5 0.142550 0.809264 0.114645
Si Si6 0.099071 0.311192 0.267264
Si Si7 0.524993 0.190163 0.117672
O O1 0.635154 0.283738 0.876172
O O2 0.574355 0.254386 0.826287
O O3 0.604101 0.000000 0.858687
O O4 0.757710 0.154922 0.700161
O O5 0.592008 0.500000 0.480405
O O6 0.598173 0.500000 0.372649
O O7 0.711380 0.217703 0.192769
O O8 0.848470 0.000000 0.061598
O O9 0.888870 0.299297 0.001450
O O10 0.968649 0.834243 0.650500
O O11 0.110319 0.709099 0.194312
O O12 0.063679 0.786278 0.135317
O O13 0.151370 0.000000 0.122317
O O14 0.250000 0.750000 0.000000
O O15 0.069526 0.500000 0.305724
O O16 0.509199 0.000000 0.146851
#
# Coordination Sequence:
#
# PCOD9219538 Si02
#       7
#     8   4   8   4   8   8   8
#     4   9  19  37  54  78 111 150 188 234 284 345
#     4   9  20  38  64  87 110 143 196 247 297 351
#     4  11  21  32  50  81 121 156 190 227 277 349
#     4  11  20  40  67  88 113 152 191 249 304 346
#     4  12  23  36  54  82 118 154 196 236 279 337
#     4  11  22  37  57  87 120 150 193 239 290 344
#     4  11  22  33  53  79 113 161 190 225 280 345
#
# _framework density 17.575821000000001
#
# number of rings (size 3 to 8) (size 9 to 14) (size 15 to 20)
#    0.500    0.833    4.167    3.000    1.167    3.333 
#    0.000    2.500    0.000    1.000    0.000    0.000 
#    0.000    0.000    0.000    0.000    0.000    0.000 
#
# Total GULP energy -133902.411444 kJ/mol
# GULP energy per Si atom -5579.267143 kJ/mol
# Density = 1.753582 g / cm^3
# Si number density = 17.575821 Si / 1000 Ang^3
#
#
#
# Elastic Constant Matrix: (Units=GPa)
#
#
# Indices 1 2 3 4 5 6 
#
# 1 88.7100 3.0411 13.9847 -0.0018 10.9492 0.0063
# 2 3.0411 60.0137 25.4093 -0.0033 2.9368 0.0138
# 3 13.9847 25.4093 70.3258 0.0010 13.8842 0.0024
# 4 -0.0018 -0.0033 0.0010 12.3220 -0.0012 4.7845
# 5 10.9492 2.9368 13.8842 -0.0012 16.7110 -0.0014
# 6 0.0063 0.0138 0.0024 4.7845 -0.0014 26.8453
#
#
#
# Elastic Compliance Matrix: (Units=1/GPa)
#
#
# Indices 1 2 3 4 5 6 
#
# 1 0.012328 0.000193 -0.001100 0.000003 -0.007197 -0.000004
# 2 0.000193 0.019796 -0.007750 0.000011 0.002834 -0.000011
# 3 -0.001100 -0.007750 0.020129 -0.000006 -0.014641 0.000003
# 4 0.000003 0.000011 -0.000006 0.087190 0.000007 -0.015539
# 5 -0.007197 0.002834 -0.014641 0.000007 0.076223 0.000004
# 6 -0.000004 -0.000011 0.000003 -0.015539 0.000004 0.040020
#
#
# Mechanical properties :
#
#
# Convention : Reuss Voigt Hill
#
# Bulk Modulus (GPa) = 28.62202 33.76886 31.19544
# Shear Modulus (GPa) = 17.56567 22.94995 20.25781
#
# Velocity S-wave (km/s) = 3.16479 3.61746 3.39867
# Velocity P-wave (km/s) = 5.44746 6.05830 5.76098
#
# Compressibility (1/GPa) = 0.03493813
#
# Stress axis : x y z
#
# Youngs Moduli (GPa) = 81.11717 50.51567 49.67917
#
# Poissons Ratio (x) = -0.00977 0.05467
# Poissons Ratio (y) = -0.01569 0.38503
# Poissons Ratio (z) = 0.08927 0.39151
#
# Static dielectric constant tensor:
#      x y z
#    x 1.621640 0.000000 -0.010250 
#    y 0.000000 1.626370 0.000000 
#    z -0.010250 0.000000 1.565420 
# 
# From -- ./inp_files/323526.got.cif
#   From: 2010.05.17/outbox.cif.g08.bks.cpg/sg12_162_cif.got.tgz:323526.got - 2010.06.03 13:09:07.
