data_PCOD9219348
_publ_section_title
;
Structure prediction by ZEFSAII (Michael W. Deem and Ramdas Pophale) SiO2 
 PCOD9219348
Probable space group: C 2/M
;
_chemical_formula_sum "Si O2"
_cell_formula_units_Z 56
_cell_length_a 17.243731
_cell_length_b 17.638781
_cell_length_c 26.417764
_cell_angle_alpha 90.000000
_cell_angle_beta 158.332566
_cell_angle_gamma 90.000000
_cell_volume 2966.739590
_symmetry_space_group_name_H-M "C 2/M"
_symmetry_group_IT_number 12
_symmetry_cell_setting 'monoclinic'
loop_
_space_group_symop_operation_xyz
x,y,z
-x,y,-z
-x,-y,-z
x,-y,z
1/2+x,1/2+y,z
1/2-x,1/2+y,-z
1/2-x,1/2-y,-z
1/2+x,1/2-y,z
loop_
_atom_site_type_symbol
_atom_site_label
_atom_site_fract_x
_atom_site_fract_y
_atom_site_fract_z
Si Si1 0.761484 0.588477 0.121164
Si Si2 0.348978 0.588536 0.341536
Si Si3 0.999781 0.410580 0.439294
Si Si4 0.143946 0.158767 0.158294
Si Si5 0.837325 0.205830 0.602920
Si Si6 0.292906 0.852970 0.639025
Si Si7 0.797474 0.327972 0.842159
O O1 0.709580 0.500000 0.089262
O O2 0.730364 0.621855 0.158463
O O3 0.997591 0.602432 0.247739
O O4 0.597355 0.633164 0.986318
O O5 0.331810 0.500000 0.343452
O O6 0.254355 0.636421 0.330546
O O7 0.593360 0.612289 0.488411
O O8 0.239571 0.608766 0.222698
O O9 0.010073 0.500000 0.433146
O O10 0.188172 0.364306 0.526873
O O11 0.000000 0.402411 0.500000
O O12 0.785739 0.374238 0.288421
O O13 0.165922 0.248311 0.164673
O O14 0.750000 0.250000 0.500000
O O15 0.821722 0.267027 0.638481
O O16 0.078230 0.182282 0.739383
O O17 0.000000 0.341298 0.000000
#
# Coordination Sequence:
#
# PCOD9219348 Si02
#       7
#     8   8   8   8   8   8   8
#     4  11  20  35  65  95 127 160 205 270 323 369
#     4  11  25  41  64  94 127 170 215 265 317 367
#     4  11  25  42  63  94 133 168 206 261 320 379
#     4  11  20  39  62  94 125 162 211 255 322 379
#     4  12  22  41  68  97 121 168 216 254 316 379
#     4  11  21  41  66  96 126 161 213 269 317 372
#     4  12  24  45  64  92 130 168 213 262 316 385
#
# _framework density 18.875941000000001
#
# number of rings (size 3 to 8) (size 9 to 14) (size 15 to 20)
#    0.000    0.714    5.714    3.429    4.000    0.857 
#    2.571    1.429    0.000    0.000    0.000    0.000 
#    0.000    0.000    0.000    0.000    0.000    0.000 
#
# Total GULP energy -156537.767428 kJ/mol
# GULP energy per Si atom -5590.634551 kJ/mol
# Density = 1.883298 g / cm^3
# Si number density = 18.875941 Si / 1000 Ang^3
#
#
#
# Elastic Constant Matrix: (Units=GPa)
#
#
# Indices 1 2 3 4 5 6 
#
# 1 63.6361 22.3648 56.5892 0.0356 0.0760 -0.0002
# 2 22.3648 45.1004 6.8324 0.2020 -8.5686 0.0148
# 3 56.5892 6.8324 129.9659 0.2925 -8.7254 0.0289
# 4 0.0356 0.2020 0.2925 -89.4336 -0.0056 -5.3119
# 5 0.0760 -8.5686 -8.7254 -0.0056 33.3226 -0.0138
# 6 -0.0002 0.0148 0.0289 -5.3119 -0.0138 18.1068
#
#
#
# Elastic Compliance Matrix: (Units=1/GPa)
#
#
# Indices 1 2 3 4 5 6 
#
# 1 0.034666 -0.016508 -0.014776 -0.000072 -0.008193 0.000010
# 2 -0.016508 0.031263 0.006195 0.000084 0.009699 -0.000004
# 3 -0.014776 0.006195 0.014160 0.000055 0.005335 -0.000008
# 4 -0.000072 0.000084 0.000055 -0.010990 0.000033 -0.003224
# 5 -0.008193 0.009699 0.005335 0.000033 0.033919 0.000019
# 6 0.000010 -0.000004 -0.000008 -0.003224 0.000019 0.054282
#
#
# Mechanical properties :
#
#
# Convention : Reuss Voigt Hill
#
# Bulk Modulus (GPa) = 33.43238 45.58613 39.50926
# Shear Modulus (GPa) = 22.99394 2.59355 12.79374
#
# Velocity S-wave (km/s) = 3.49400 1.17345 2.60625
# Velocity P-wave (km/s) = 5.83331 5.10282 5.48025
#
# Compressibility (1/GPa) = 0.02991112
#
# Stress axis : x y z
#
# Youngs Moduli (GPa) = 28.84688 31.98703 70.61944
#
# Poissons Ratio (x) = 0.52805 1.04348
# Poissons Ratio (y) = 0.47621 -0.43751
# Poissons Ratio (z) = 0.42624 -0.19817
#
# Static dielectric constant tensor:
#      x y z
#    x 1.653980 0.000000 0.000730 
#    y 0.000000 1.641000 -0.000010 
#    z 0.000730 -0.000010 1.658810 
# 
# From -- ./inp_files/364491.got.cif
#   From: 2010.05.17/outbox.cif.g08.bks.cpg/sg12_183_cif.got.tgz:364491.got - 2010.06.03 13:09:07.
