data_PCOD9219028
_publ_section_title
;
Structure prediction by ZEFSAII (Michael W. Deem and Ramdas Pophale) SiO2 
 PCOD9219028
Probable space group: C 2/M
;
_chemical_formula_sum "Si O2"
_cell_formula_units_Z 44
_cell_length_a 10.805505
_cell_length_b 24.544404
_cell_length_c 9.737598
_cell_angle_alpha 90.000000
_cell_angle_beta 57.917462
_cell_angle_gamma 90.000000
_cell_volume 2188.156208
_symmetry_space_group_name_H-M "C 2/M"
_symmetry_group_IT_number 12
_symmetry_cell_setting 'monoclinic'
loop_
_space_group_symop_operation_xyz
x,y,z
-x,y,-z
-x,-y,-z
x,-y,z
1/2+x,1/2+y,z
1/2-x,1/2+y,-z
1/2-x,1/2-y,-z
1/2+x,1/2-y,z
loop_
_atom_site_type_symbol
_atom_site_label
_atom_site_fract_x
_atom_site_fract_y
_atom_site_fract_z
Si Si1 0.665880 0.789330 0.942571
Si Si2 0.839395 0.216357 0.557461
Si Si3 0.430804 0.599014 0.401621
Si Si4 0.682996 0.500000 0.898032
Si Si5 0.135959 0.500000 0.814177
Si Si6 0.724752 0.000000 0.456537
Si Si7 0.270530 0.592981 0.912123
O O1 0.753591 0.787522 0.749182
O O2 0.676041 0.852500 0.985420
O O3 0.500000 0.774071 0.000000
O O4 0.750000 0.750000 0.000000
O O5 0.750000 0.250000 0.500000
O O6 0.861521 0.156183 0.483341
O O7 0.000000 0.238736 0.500000
O O8 0.500000 0.575722 0.500000
O O9 0.319533 0.554647 0.415895
O O10 0.562788 0.609287 0.219047
O O11 0.787941 0.500000 0.701810
O O12 0.500000 0.500000 0.000000
O O13 0.725415 0.553190 0.960689
O O14 0.122788 0.500000 0.655331
O O15 0.218276 0.554990 0.815595
O O16 0.000000 0.500000 0.000000
#
# Coordination Sequence:
#
# PCOD9219028 Si02
#       7
#     8   8   8   4   4   4   8
#     4  12  26  43  66  97 136 180 228 289 350 410
#     4  11  23  43  67  96 128 177 233 283 342 405
#     4  11  19  35  67  94 124 167 225 288 322 410
#     4  11  23  35  64 102 140 165 219 290 341 408
#     4  11  22  38  66  90 129 179 224 269 327 420
#     4  12  20  36  62 103 129 166 221 278 345 385
#     4  11  22  41  61  95 131 176 226 273 346 411
#
# _framework density 20.108253000000001
#
# number of rings (size 3 to 8) (size 9 to 14) (size 15 to 20)
#    0.000    0.727    7.273    2.455    0.000    2.182 
#    0.000    1.818    0.000    0.000    0.000    0.000 
#    0.000    0.000    0.000    0.000    0.000    0.000 
#
# Total GULP energy -122714.153247 kJ/mol
# GULP energy per Si atom -5577.916057 kJ/mol
# Density = 2.006249 g / cm^3
# Si number density = 20.108253 Si / 1000 Ang^3
#
#
#
# Elastic Constant Matrix: (Units=GPa)
#
#
# Indices 1 2 3 4 5 6 
#
# 1 114.1973 61.7095 47.0537 0.0000 1.3914 0.0000
# 2 61.7095 110.8515 43.1727 0.0000 14.2949 0.0000
# 3 47.0537 43.1727 147.3269 0.0000 4.5927 0.0000
# 4 0.0000 0.0000 0.0000 95.2597 0.0000 -3.1848
# 5 1.3914 14.2949 4.5927 0.0000 39.6950 0.0000
# 6 0.0000 0.0000 0.0000 -3.1848 0.0000 35.6095
#
#
#
# Elastic Compliance Matrix: (Units=1/GPa)
#
#
# Indices 1 2 3 4 5 6 
#
# 1 0.013386 -0.006831 -0.002344 0.000000 0.002262 0.000000
# 2 -0.006831 0.014128 -0.001814 0.000000 -0.004639 0.000000
# 3 -0.002344 -0.001814 0.008074 0.000000 -0.000199 0.000000
# 4 0.000000 0.000000 0.000000 0.010529 0.000000 0.000942
# 5 0.002262 -0.004639 -0.000199 0.000000 0.026806 0.000000
# 6 0.000000 0.000000 0.000000 0.000942 0.000000 0.028167
#
#
# Mechanical properties :
#
#
# Convention : Reuss Voigt Hill
#
# Bulk Modulus (GPa) = 73.47006 75.13862 74.30434
# Shear Modulus (GPa) = 39.18343 48.80884 43.99613
#
# Velocity S-wave (km/s) = 4.41911 4.93211 4.68264
# Velocity P-wave (km/s) = 7.91547 8.35957 8.14055
#
# Compressibility (1/GPa) = 0.01361099
#
# Stress axis : x y z
#
# Youngs Moduli (GPa) = 74.70368 70.78024 123.85316
#
# Poissons Ratio (x) = 0.48347 0.29034
# Poissons Ratio (y) = 0.51027 0.22466
# Poissons Ratio (z) = 0.17512 0.12839
#
# Static dielectric constant tensor:
#      x y z
#    x 1.827860 0.000000 0.018190 
#    y 0.000000 1.647390 0.000000 
#    z 0.018190 0.000000 1.788400 
# 
# From -- ./inp_files/51261.got.cif
#   From: 2010.05.17/outbox.cif.g08.bks.cpg/sg12_26_cif.got.tgz:51261.got - 2010.06.03 13:09:07.
