data_PCOD9219657
_publ_section_title
;
Structure prediction by ZEFSAII (Michael W. Deem and Ramdas Pophale) SiO2 
 PCOD9219657
Probable space group: C 2/M
;
_chemical_formula_sum "Si O2"
_cell_formula_units_Z 40
_cell_length_a 16.033781
_cell_length_b 8.781863
_cell_length_c 23.968242
_cell_angle_alpha 90.000000
_cell_angle_beta 149.987610
_cell_angle_gamma 90.000000
_cell_volume 1688.073743
_symmetry_space_group_name_H-M "C 2/M"
_symmetry_group_IT_number 12
_symmetry_cell_setting 'monoclinic'
loop_
_space_group_symop_operation_xyz
x,y,z
-x,y,-z
-x,-y,-z
x,-y,z
1/2+x,1/2+y,z
1/2-x,1/2+y,-z
1/2-x,1/2-y,-z
1/2+x,1/2-y,z
loop_
_atom_site_type_symbol
_atom_site_label
_atom_site_fract_x
_atom_site_fract_y
_atom_site_fract_z
Si Si1 0.226979 0.179288 0.425894
Si Si2 0.922867 0.320757 0.764730
Si Si3 0.602909 0.182439 0.638554
Si Si4 0.742823 0.178349 0.831269
Si Si5 0.406198 0.678605 0.033980
O O1 0.250000 0.250000 0.500000
O O2 0.094215 0.253508 0.307226
O O3 0.414396 0.199432 0.509245
O O4 0.195202 0.000000 0.411651
O O5 0.938277 0.500000 0.770152
O O6 0.746699 0.272428 0.690515
O O7 0.060605 0.259485 0.888119
O O8 0.614772 0.234892 0.710466
O O9 0.642470 0.000000 0.659244
O O10 0.917370 0.184359 0.897641
O O11 0.705384 0.000000 0.819073
O O12 0.779194 0.243682 0.913724
O O13 0.371241 0.500000 0.023834
#
# Coordination Sequence:
#
# PCOD9219657 Si02
#       5
#     8   8   8   8   8
#     4  11  23  38  55  73  98 132 169 210 255 303
#     4  11  21  32  50  77 107 135 167 207 245 289
#     4   9  18  34  55  77 101 132 168 205 249 299
#     4   7  11  23  46  73  98 126 161 199 242 293
#     4   8  13  25  46  71 100 131 162 198 243 294
#
# _framework density 23.695647999999998
#
# number of rings (size 3 to 8) (size 9 to 14) (size 15 to 20)
#    0.000    2.800    0.000    5.400    0.000    4.000 
#    0.000    8.000    0.000    1.200    0.000    0.000 
#    0.000    0.000    0.000    0.000    0.000    0.000 
#
# Total GULP energy -111732.794163 kJ/mol
# GULP energy per Si atom -5586.639708 kJ/mol
# Density = 2.364172 g / cm^3
# Si number density = 23.695648 Si / 1000 Ang^3
#
#
#
# Elastic Constant Matrix: (Units=GPa)
#
#
# Indices 1 2 3 4 5 6 
#
# 1 93.5219 30.6683 39.6678 0.0001 -25.5304 0.0000
# 2 30.6683 87.6955 82.1299 0.0000 -18.7962 0.0000
# 3 39.6678 82.1299 240.2915 0.0003 -34.3120 0.0001
# 4 0.0001 0.0000 0.0003 30.8130 0.0001 -15.0826
# 5 -25.5304 -18.7962 -34.3120 0.0001 55.9419 0.0001
# 6 0.0000 0.0000 0.0001 -15.0826 0.0001 16.5225
#
#
#
# Elastic Compliance Matrix: (Units=1/GPa)
#
#
# Indices 1 2 3 4 5 6 
#
# 1 0.013206 -0.003233 -0.000405 0.000000 0.004692 0.000000
# 2 -0.003233 0.017843 -0.005392 0.000000 0.001213 0.000000
# 3 -0.000405 -0.005392 0.006342 0.000000 0.001893 0.000000
# 4 0.000000 0.000000 0.000000 0.058669 0.000000 0.053556
# 5 0.004692 0.001213 0.001893 0.000000 0.021586 0.000000
# 6 0.000000 0.000000 0.000000 0.053556 0.000000 0.109413
#
#
# Mechanical properties :
#
#
# Convention : Reuss Voigt Hill
#
# Bulk Modulus (GPa) = 51.73161 80.71565 66.22363
# Shear Modulus (GPa) = 19.87585 38.59166 29.23375
#
# Velocity S-wave (km/s) = 2.89934 4.04002 3.51624
# Velocity P-wave (km/s) = 5.75216 7.47661 6.67035
#
# Compressibility (1/GPa) = 0.01933054
#
# Stress axis : x y z
#
# Youngs Moduli (GPa) = 75.72566 56.04325 157.68683
#
# Poissons Ratio (x) = 0.18121 0.06385
# Poissons Ratio (y) = 0.24485 0.85022
# Poissons Ratio (z) = 0.03066 0.30217
#
# Static dielectric constant tensor:
#      x y z
#    x 2.026260 0.000000 0.027780 
#    y 0.000000 1.782740 0.000000 
#    z 0.027780 0.000000 1.967390 
# 
# From -- ./inp_files/211356.got.cif
#   From: 2010.05.17/outbox.cif.g08.bks.cpg/sg12_106_cif.got.tgz:211356.got - 2010.06.03 13:09:07.
