data_PCOD9219455
_publ_section_title
;
Structure prediction by ZEFSAII (Michael W. Deem and Ramdas Pophale) SiO2 
 PCOD9219455
Probable space group: C 2/M
;
_chemical_formula_sum "Si O2"
_cell_formula_units_Z 56
_cell_length_a 24.001133
_cell_length_b 15.322598
_cell_length_c 7.695851
_cell_angle_alpha 90.000000
_cell_angle_beta 100.507040
_cell_angle_gamma 90.000000
_cell_volume 2782.768196
_symmetry_space_group_name_H-M "C 2/M"
_symmetry_group_IT_number 12
_symmetry_cell_setting 'monoclinic'
loop_
_space_group_symop_operation_xyz
x,y,z
-x,y,-z
-x,-y,-z
x,-y,z
1/2+x,1/2+y,z
1/2-x,1/2+y,-z
1/2-x,1/2-y,-z
1/2+x,1/2-y,z
loop_
_atom_site_type_symbol
_atom_site_label
_atom_site_fract_x
_atom_site_fract_y
_atom_site_fract_z
Si Si1 0.746219 0.648485 0.945049
Si Si2 0.035111 0.865407 0.671834
Si Si3 0.290097 0.396602 0.457659
Si Si4 0.450687 0.734945 0.860492
Si Si5 0.614368 0.752487 0.504498
Si Si6 0.122332 0.906480 0.990117
Si Si7 0.694084 0.902166 0.691269
O O1 0.744848 0.631553 0.737042
O O2 0.686496 0.610538 0.976579
O O3 0.750000 0.750000 0.000000
O O4 0.792352 0.604451 0.096198
O O5 0.064755 0.780994 0.602482
O O6 0.085768 0.912892 0.794367
O O7 0.000000 0.909283 0.500000
O O8 0.989017 0.837997 0.786903
O O9 0.304762 0.500000 0.450664
O O10 0.343723 0.331086 0.501983
O O11 0.250603 0.386547 0.605771
O O12 0.415657 0.782608 0.690579
O O13 0.500000 0.782745 0.000000
O O14 0.404142 0.679266 0.937954
O O15 0.650506 0.828010 0.611842
O O16 0.117084 0.000000 0.082896
O O17 0.674687 0.000000 0.638569
#
# Coordination Sequence:
#
# PCOD9219455 Si02
#       7
#     8   8   8   8   8   8   8
#     4  12  23  38  61  87 126 165 202 244 299 358
#     4   9  19  35  53  79 107 148 195 240 289 350
#     4  11  23  38  59  91 126 162 202 243 295 365
#     4   9  21  36  57  82 109 150 195 242 299 356
#     4  11  20  38  62  81 117 156 198 242 303 359
#     4  11  21  35  53  81 118 155 196 240 295 358
#     4  11  24  40  60  90 123 157 203 254 302 359
#
# _framework density 20.123846
#
# number of rings (size 3 to 8) (size 9 to 14) (size 15 to 20)
#    0.000    1.429    2.857    2.571    2.000    4.571 
#    0.000    4.286    0.000    4.286    0.000    0.000 
#    0.000    0.000    0.000    0.000    0.000    0.000 
#
# Total GULP energy -156164.136327 kJ/mol
# GULP energy per Si atom -5577.290583 kJ/mol
# Density = 2.007804 g / cm^3
# Si number density = 20.123846 Si / 1000 Ang^3
#
#
#
# Elastic Constant Matrix: (Units=GPa)
#
#
# Indices 1 2 3 4 5 6 
#
# 1 35.6892 12.3582 7.8147 0.0000 15.3317 0.0000
# 2 12.3582 75.6363 5.3893 0.0000 15.5274 0.0000
# 3 7.8147 5.3893 114.8081 0.0000 25.9443 0.0000
# 4 0.0000 0.0000 0.0000 45.5977 0.0000 58.1400
# 5 15.3317 15.5274 25.9443 0.0000 38.8254 0.0000
# 6 0.0000 0.0000 0.0000 58.1400 0.0000 106.3167
#
#
#
# Elastic Compliance Matrix: (Units=1/GPa)
#
#
# Indices 1 2 3 4 5 6 
#
# 1 0.034440 -0.003038 0.000703 0.000000 -0.012855 0.000000
# 2 -0.003038 0.014725 0.000678 0.000000 -0.005142 0.000000
# 3 0.000703 0.000678 0.010312 0.000000 -0.007439 0.000000
# 4 0.000000 0.000000 0.000000 0.072446 0.000000 -0.039617
# 5 -0.012855 -0.005142 -0.007439 0.000000 0.037860 0.000000
# 6 0.000000 0.000000 0.000000 -0.039617 0.000000 0.031071
#
#
# Mechanical properties :
#
#
# Convention : Reuss Voigt Hill
#
# Bulk Modulus (GPa) = 17.80570 30.80644 24.30607
# Shear Modulus (GPa) = 22.43272 51.51939 36.97605
#
# Velocity S-wave (km/s) = 3.34238 5.06525 4.29117
# Velocity P-wave (km/s) = 4.87469 7.03922 6.05447
#
# Compressibility (1/GPa) = 0.05616178
#
# Stress axis : x y z
#
# Youngs Moduli (GPa) = 29.03596 67.91222 96.97792
#
# Poissons Ratio (x) = 0.20634 -0.06821
# Poissons Ratio (y) = 0.08822 -0.06571
# Poissons Ratio (z) = -0.02042 -0.04601
#
# Static dielectric constant tensor:
#      x y z
#    x 1.702140 0.000000 0.003640 
#    y 0.000000 1.715230 0.000000 
#    z 0.003640 0.000000 1.810250 
# 
# From -- ./inp_files/96499.got.cif
#   From: 2010.05.17/outbox.cif.g08.bks.cpg/sg12_49_cif.got.tgz:96499.got - 2010.06.03 13:09:07.
