data_PCOD9219037
_publ_section_title
;
Structure prediction by ZEFSAII (Michael W. Deem and Ramdas Pophale) SiO2 
 PCOD9219037
Probable space group: C 2/M
;
_chemical_formula_sum "Si O2"
_cell_formula_units_Z 60
_cell_length_a 17.812246
_cell_length_b 28.356058
_cell_length_c 11.432128
_cell_angle_alpha 90.000000
_cell_angle_beta 33.898274
_cell_angle_gamma 90.000000
_cell_volume 3220.385921
_symmetry_space_group_name_H-M "C 2/M"
_symmetry_group_IT_number 12
_symmetry_cell_setting 'monoclinic'
loop_
_space_group_symop_operation_xyz
x,y,z
-x,y,-z
-x,-y,-z
x,-y,z
1/2+x,1/2+y,z
1/2-x,1/2+y,-z
1/2-x,1/2-y,-z
1/2+x,1/2-y,z
loop_
_atom_site_type_symbol
_atom_site_label
_atom_site_fract_x
_atom_site_fract_y
_atom_site_fract_z
Si Si1 0.763324 0.209505 0.686751
Si Si2 0.199637 0.300952 0.023606
Si Si3 0.962728 0.445241 0.686830
Si Si4 0.000000 0.223921 0.000000
Si Si5 0.928397 0.699051 0.473378
Si Si6 0.923632 0.147347 0.297168
Si Si7 0.700924 0.609741 0.979477
Si Si8 0.771536 0.609234 0.625831
O O1 0.748364 0.185673 0.832400
O O2 0.877338 0.248812 0.556655
O O3 0.818306 0.174072 0.517939
O O4 0.629324 0.240860 0.834715
O O5 0.250000 0.250000 0.000000
O O6 0.244748 0.338241 0.061323
O O7 0.039144 0.300522 0.229923
O O8 0.962984 0.500000 0.718828
O O9 0.813994 0.422928 0.896079
O O10 0.000000 0.441576 0.500000
O O11 0.088377 0.417481 0.581671
O O12 0.012865 0.188043 0.871554
O O13 0.811437 0.663940 0.590657
O O14 0.000000 0.682269 0.500000
O O15 0.841600 0.109983 0.325206
O O16 0.042806 0.118380 0.207388
O O17 0.713680 0.595027 0.827037
#
# Coordination Sequence:
#
# PCOD9219037 Si02
#       8
#     8   8   8   4   8   8   8   8
#     4  12  26  34  49  79 116 156 205 246 270 322
#     4  12  22  34  53  77 112 151 200 237 282 324
#     4   9  19  36  63  93 114 137 185 245 299 352
#     4  12  22  38  50  72 111 164 205 232 274 340
#     4  12  19  34  52  75 104 152 197 241 275 323
#     4  12  24  37  53  79 117 161 191 233 289 340
#     4  11  20  36  58  82 111 149 186 235 285 344
#     4  11  19  36  57  82 113 148 186 226 292 353
#
# _framework density 18.631305999999999
#
# number of rings (size 3 to 8) (size 9 to 14) (size 15 to 20)
#    0.000    0.667    6.667    3.200    1.867    0.000 
#    0.000    0.667    0.000    3.200    0.000    3.733 
#    0.000    0.000    0.000    0.000    0.000    0.000 
#
# Total GULP energy -167281.461728 kJ/mol
# GULP energy per Si atom -5576.048724 kJ/mol
# Density = 1.858890 g / cm^3
# Si number density = 18.631306 Si / 1000 Ang^3
#
#
#
# Elastic Constant Matrix: (Units=GPa)
#
#
# Indices 1 2 3 4 5 6 
#
# 1 49.5840 19.4059 40.5306 0.0000 -14.9597 0.0000
# 2 19.4059 64.9696 19.8030 0.0000 -10.7287 0.0000
# 3 40.5306 19.8030 87.7870 0.0001 -4.6725 -0.0001
# 4 0.0000 0.0000 0.0001 21.0185 0.0000 -4.0214
# 5 -14.9597 -10.7287 -4.6725 0.0000 36.6149 0.0001
# 6 0.0000 0.0000 -0.0001 -4.0214 0.0001 11.6819
#
#
#
# Elastic Compliance Matrix: (Units=1/GPa)
#
#
# Indices 1 2 3 4 5 6 
#
# 1 0.039135 -0.004632 -0.016356 0.000000 0.012545 0.000000
# 2 -0.004632 0.017811 -0.001714 0.000000 0.003107 0.000000
# 3 -0.016356 -0.001714 0.019076 0.000000 -0.004750 0.000000
# 4 0.000000 0.000000 0.000000 0.050932 0.000000 0.017533
# 5 0.012545 0.003107 -0.004750 0.000000 0.032741 0.000000
# 6 0.000000 0.000000 0.000000 0.017533 0.000000 0.091638
#
#
# Mechanical properties :
#
#
# Convention : Reuss Voigt Hill
#
# Bulk Modulus (GPa) = 32.65981 40.20219 36.43100
# Shear Modulus (GPa) = 16.28970 22.03648 19.16309
#
# Velocity S-wave (km/s) = 2.96010 3.44287 3.21057
# Velocity P-wave (km/s) = 5.40837 6.11793 5.77406
#
# Compressibility (1/GPa) = 0.03061868
#
# Stress axis : x y z
#
# Youngs Moduli (GPa) = 25.55258 56.14518 52.42130
#
# Poissons Ratio (x) = 0.26009 0.85738
# Poissons Ratio (y) = 0.11837 0.08983
# Poissons Ratio (z) = 0.41793 0.09621
#
# Static dielectric constant tensor:
#      x y z
#    x 1.716200 0.000000 -0.038330 
#    y 0.000000 1.614260 0.000000 
#    z -0.038330 0.000000 1.765700 
# 
# From -- ./inp_files/161080.got.cif
#   From: 2010.05.17/outbox.cif.g08.bks.cpg/sg12_81_cif.got.tgz:161080.got - 2010.06.03 13:09:07.
