data_PCOD9219759
_publ_section_title
;
Structure prediction by ZEFSAII (Michael W. Deem and Ramdas Pophale) SiO2 
 PCOD9219759
Probable space group: C 2/M
;
_chemical_formula_sum "Si O2"
_cell_formula_units_Z 56
_cell_length_a 18.502091
_cell_length_b 23.883427
_cell_length_c 9.416901
_cell_angle_alpha 90.000000
_cell_angle_beta 45.122282
_cell_angle_gamma 90.000000
_cell_volume 2948.732449
_symmetry_space_group_name_H-M "C 2/M"
_symmetry_group_IT_number 12
_symmetry_cell_setting 'monoclinic'
loop_
_space_group_symop_operation_xyz
x,y,z
-x,y,-z
-x,-y,-z
x,-y,z
1/2+x,1/2+y,z
1/2-x,1/2+y,-z
1/2-x,1/2-y,-z
1/2+x,1/2-y,z
loop_
_atom_site_type_symbol
_atom_site_label
_atom_site_fract_x
_atom_site_fract_y
_atom_site_fract_z
Si Si1 0.609625 0.316523 0.309685
Si Si2 0.391858 0.060279 0.575413
Si Si3 0.422887 0.777887 0.884034
Si Si4 0.246063 0.256181 0.334964
Si Si5 0.375053 0.847128 0.382257
Si Si6 0.376953 0.935622 0.154518
Si Si7 0.799876 0.612617 0.972062
O O1 0.500000 0.340518 0.500000
O O2 0.584669 0.271039 0.221723
O O3 0.665795 0.282747 0.360648
O O4 0.686578 0.364267 0.153019
O O5 0.500000 0.055112 0.500000
O O6 0.415405 0.100602 0.413785
O O7 0.356089 0.000000 0.573323
O O8 0.316562 0.083495 0.799097
O O9 0.535086 0.801611 0.766643
O O10 0.353554 0.756631 0.111322
O O11 0.367526 0.831063 0.889797
O O12 0.250000 0.250000 0.500000
O O13 0.204458 0.319381 0.396525
O O14 0.335924 0.879867 0.296216
O O15 0.338849 0.926266 0.046803
O O16 0.350112 0.000000 0.234477
O O17 0.500000 0.930940 0.000000
#
# Coordination Sequence:
#
# PCOD9219759 Si02
#       7
#     8   8   8   8   8   8   8
#     4  11  22  39  58  84 118 163 203 238 290 353
#     4  11  21  34  55  86 113 149 196 238 287 352
#     4  11  21  37  55  81 117 161 193 232 289 356
#     4  11  24  36  57  84 116 155 203 237 286 355
#     4  12  21  36  58  81 120 154 190 236 296 344
#     4  11  22  37  57  85 117 155 193 241 305 360
#     4  11  21  36  58  80 119 155 201 243 292 340
#
# _framework density 18.991211
#
# number of rings (size 3 to 8) (size 9 to 14) (size 15 to 20)
#    0.000    0.857    4.286    6.000    0.000    2.286 
#    0.000    0.000    0.000    1.714    0.000    0.000 
#    0.000    4.571    0.000    0.000    0.000    0.000 
#
# Total GULP energy -156132.267323 kJ/mol
# GULP energy per Si atom -5576.152404 kJ/mol
# Density = 1.894799 g / cm^3
# Si number density = 18.991211 Si / 1000 Ang^3
#
#
#
# Elastic Constant Matrix: (Units=GPa)
#
#
# Indices 1 2 3 4 5 6 
#
# 1 65.4142 23.5540 41.6423 0.0000 4.0675 0.0000
# 2 23.5540 84.6279 48.0906 0.0000 -13.2860 0.0000
# 3 41.6423 48.0906 104.2751 0.0000 -1.8603 0.0000
# 4 0.0000 0.0000 0.0000 106.0902 0.0000 19.9348
# 5 4.0675 -13.2860 -1.8603 0.0000 23.8271 0.0000
# 6 0.0000 0.0000 0.0000 19.9348 0.0000 21.5853
#
#
#
# Elastic Compliance Matrix: (Units=1/GPa)
#
#
# Indices 1 2 3 4 5 6 
#
# 1 0.021290 -0.002611 -0.007399 0.000000 -0.005668 0.000000
# 2 -0.002611 0.018191 -0.007168 0.000000 0.010029 0.000000
# 3 -0.007399 -0.007168 0.015824 0.000000 -0.001498 0.000000
# 4 0.000000 0.000000 0.000000 0.011405 0.000000 -0.010533
# 5 -0.005668 0.010029 -0.001498 0.000000 0.048412 0.000000
# 6 0.000000 0.000000 0.000000 -0.010533 0.000000 0.056055
#
#
# Mechanical properties :
#
#
# Convention : Reuss Voigt Hill
#
# Bulk Modulus (GPa) = 47.73478 53.43235 50.58356
# Shear Modulus (GPa) = 23.52765 39.70253 31.61509
#
# Velocity S-wave (km/s) = 3.52358 4.57724 4.08453
# Velocity P-wave (km/s) = 6.46095 7.49208 6.99554
#
# Compressibility (1/GPa) = 0.02094908
#
# Stress axis : x y z
#
# Youngs Moduli (GPa) = 46.97049 54.97283 63.19523
#
# Poissons Ratio (x) = 0.14351 0.46760
# Poissons Ratio (y) = 0.12262 0.45298
# Poissons Ratio (z) = 0.34755 0.39404
#
# Static dielectric constant tensor:
#      x y z
#    x 1.804370 0.000000 0.007120 
#    y 0.000000 1.922700 0.000000 
#    z 0.007120 0.000000 1.742190 
# 
# From -- ./inp_files/79047.got.cif
#   From: 2010.05.17/outbox.cif.g08.bks.cpg/sg12_40_cif.got.tgz:79047.got - 2010.06.03 13:09:07.
