data_PCOD9219833
_publ_section_title
;
Structure prediction by ZEFSAII (Michael W. Deem and Ramdas Pophale) SiO2 
 PCOD9219833
Probable space group: C 2/M
;
_chemical_formula_sum "Si O2"
_cell_formula_units_Z 52
_cell_length_a 14.771622
_cell_length_b 26.757103
_cell_length_c 9.449872
_cell_angle_alpha 90.000000
_cell_angle_beta 140.624595
_cell_angle_gamma 90.000000
_cell_volume 2369.493488
_symmetry_space_group_name_H-M "C 2/M"
_symmetry_group_IT_number 12
_symmetry_cell_setting 'monoclinic'
loop_
_space_group_symop_operation_xyz
x,y,z
-x,y,-z
-x,-y,-z
x,-y,z
1/2+x,1/2+y,z
1/2-x,1/2+y,-z
1/2-x,1/2-y,-z
1/2+x,1/2-y,z
loop_
_atom_site_type_symbol
_atom_site_label
_atom_site_fract_x
_atom_site_fract_y
_atom_site_fract_z
Si Si1 0.425566 0.058971 0.179299
Si Si2 0.829359 0.249870 0.804249
Si Si3 0.451452 0.210572 0.595858
Si Si4 0.281555 0.940751 0.310226
Si Si5 0.000000 0.877014 0.000000
Si Si6 0.094743 0.190538 0.856331
Si Si7 0.330350 0.152992 0.940748
O O1 0.586903 0.070025 0.425408
O O2 0.333956 0.069401 0.212259
O O3 0.372618 0.095175 0.990521
O O4 0.414221 0.000000 0.134055
O O5 0.718743 0.215817 0.584050
O O6 0.799624 0.226251 0.923610
O O7 0.808339 0.309458 0.783091
O O8 0.000000 0.243495 0.000000
O O9 0.500000 0.192037 0.500000
O O10 0.495417 0.268830 0.662137
O O11 0.539249 0.178694 0.814397
O O12 0.142571 0.909758 0.179544
O O13 0.253887 0.000000 0.284510
O O14 0.980838 0.844836 0.120387
O O15 0.186969 0.159303 0.858503
#
# Coordination Sequence:
#
# PCOD9219833 Si02
#       7
#     8   8   8   8   4   8   8
#     4   9  19  34  53  78 105 139 187 223 264 334
#     4  11  23  37  52  83 113 136 187 231 259 326
#     4  11  21  36  58  74 111 152 179 220 265 318
#     4   9  19  32  49  77 109 141 175 221 277 326
#     4  12  21  32  54  78 118 138 177 226 268 326
#     4  11  22  35  52  84 109 147 185 216 268 330
#     4  11  21  35  59  79 105 153 183 214 284 318
#
# _framework density 21.945618
#
# number of rings (size 3 to 8) (size 9 to 14) (size 15 to 20)
#    0.000    1.538    5.385    2.077    4.308    3.692 
#    0.000    0.000    0.000    0.462    0.000    4.308 
#    0.000    0.000    0.000    0.000    0.000    0.000 
#
# Total GULP energy -145104.432364 kJ/mol
# GULP energy per Si atom -5580.939706 kJ/mol
# Density = 2.189567 g / cm^3
# Si number density = 21.945618 Si / 1000 Ang^3
#
#
#
# Elastic Constant Matrix: (Units=GPa)
#
#
# Indices 1 2 3 4 5 6 
#
# 1 85.5239 15.8910 16.3991 0.0000 27.5631 0.0000
# 2 15.8910 96.1728 26.3987 0.0000 22.1607 0.0000
# 3 16.3991 26.3987 49.8277 0.0000 25.7789 0.0000
# 4 0.0000 0.0000 0.0000 23.5854 0.0000 1.3421
# 5 27.5631 22.1607 25.7789 0.0000 37.6147 0.0000
# 6 0.0000 0.0000 0.0000 1.3421 0.0000 30.6287
#
#
#
# Elastic Compliance Matrix: (Units=1/GPa)
#
#
# Indices 1 2 3 4 5 6 
#
# 1 0.015354 -0.000101 0.001224 0.000000 -0.012031 0.000000
# 2 -0.000101 0.012626 -0.004409 0.000000 -0.004343 0.000000
# 3 0.001224 -0.004409 0.032726 0.000000 -0.020728 0.000000
# 4 0.000000 0.000000 0.000000 0.042505 0.000000 -0.001862
# 5 -0.012031 -0.004343 -0.020728 0.000000 0.052166 0.000000
# 6 0.000000 0.000000 0.000000 -0.001862 0.000000 0.032731
#
#
# Mechanical properties :
#
#
# Convention : Reuss Voigt Hill
#
# Bulk Modulus (GPa) = 18.47254 38.76691 28.61972
# Shear Modulus (GPa) = 23.50477 29.88812 26.69645
#
# Velocity S-wave (km/s) = 3.27623 3.69442 3.49159
# Velocity P-wave (km/s) = 4.76941 5.99180 5.41521
#
# Compressibility (1/GPa) = 0.05413440
#
# Stress axis : x y z
#
# Youngs Moduli (GPa) = 65.13002 79.20449 30.55671
#
# Poissons Ratio (x) = 0.00799 -0.03741
# Poissons Ratio (y) = 0.00657 0.13473
# Poissons Ratio (z) = -0.07975 0.34922
#
# Static dielectric constant tensor:
#      x y z
#    x 1.913450 0.000000 -0.014360 
#    y 0.000000 1.817110 0.000000 
#    z -0.014360 0.000000 1.892790 
# 
# From -- ./inp_files/160832.got.cif
#   From: 2010.05.17/outbox.cif.g08.bks.cpg/sg12_81_cif.got.tgz:160832.got - 2010.06.03 13:09:07.
