data_PCOD9219007
_publ_section_title
;
Structure prediction by ZEFSAII (Michael W. Deem and Ramdas Pophale) SiO2 
 PCOD9219007
Probable space group: C 2/M
;
_chemical_formula_sum "Si O2"
_cell_formula_units_Z 44
_cell_length_a 17.601628
_cell_length_b 16.841146
_cell_length_c 15.927900
_cell_angle_alpha 90.000000
_cell_angle_beta 23.875525
_cell_angle_gamma 90.000000
_cell_volume 1911.045112
_symmetry_space_group_name_H-M "C 2/M"
_symmetry_group_IT_number 12
_symmetry_cell_setting 'monoclinic'
loop_
_space_group_symop_operation_xyz
x,y,z
-x,y,-z
-x,-y,-z
x,-y,z
1/2+x,1/2+y,z
1/2-x,1/2+y,-z
1/2-x,1/2-y,-z
1/2+x,1/2-y,z
loop_
_atom_site_type_symbol
_atom_site_label
_atom_site_fract_x
_atom_site_fract_y
_atom_site_fract_z
Si Si1 0.375550 0.775476 0.049442
Si Si2 0.639592 0.907507 0.731499
Si Si3 0.925855 0.370625 0.395955
Si Si4 0.982711 0.196082 0.394900
Si Si5 0.630099 0.364647 0.070287
Si Si6 0.345850 0.500000 0.288942
O O1 0.152446 0.779437 0.284341
O O2 0.500000 0.743198 0.000000
O O3 0.457076 0.862292 0.948325
O O4 0.407840 0.718936 0.937391
O O5 0.647473 0.893842 0.623039
O O6 0.819086 0.862840 0.587738
O O7 0.639059 0.000000 0.749554
O O8 0.812479 0.429930 0.569615
O O9 0.895268 0.278643 0.449535
O O10 0.150313 0.383455 0.165647
O O11 0.083255 0.151120 0.214841
O O12 0.498944 0.430933 0.162435
#
# Coordination Sequence:
#
# PCOD9219007 Si02
#       6
#     8   8   8   8   8   4
#     4  11  25  43  61  83 121 166 204 242 291 357
#     4  12  22  36  62  92 123 152 197 251 301 351
#     4  11  19  34  59  94 123 147 192 251 299 347
#     4  11  21  39  65  90 115 157 203 249 296 349
#     4  11  21  38  64  91 119 157 200 245 298 353
#     4  12  22  32  61 101 124 145 190 259 309 340
#
# _framework density 23.024051
#
# number of rings (size 3 to 8) (size 9 to 14) (size 15 to 20)
#    0.000    0.727    6.364    3.273    0.000    1.818 
#    0.000    1.364    0.000    4.364    0.000    0.000 
#    0.000    0.000    0.000    0.000    0.000    0.000 
#
# Total GULP energy -122611.114908 kJ/mol
# GULP energy per Si atom -5573.232496 kJ/mol
# Density = 2.297165 g / cm^3
# Si number density = 23.024051 Si / 1000 Ang^3
#
#
#
# Elastic Constant Matrix: (Units=GPa)
#
#
# Indices 1 2 3 4 5 6 
#
# 1 45.1790 -5.0922 14.1831 -0.0127 -14.4119 0.0028
# 2 -5.0922 168.0376 54.5492 0.0132 -11.2381 0.0026
# 3 14.1831 54.5492 117.6213 0.0106 -33.6287 0.0018
# 4 -0.0127 0.0132 0.0106 -4.3358 0.0044 -18.5500
# 5 -14.4119 -11.2381 -33.6287 0.0044 27.7759 -0.0022
# 6 0.0028 0.0026 0.0018 -18.5500 -0.0022 1.2028
#
#
#
# Elastic Compliance Matrix: (Units=1/GPa)
#
#
# Indices 1 2 3 4 5 6 
#
# 1 0.027051 0.001753 0.000215 0.000002 0.015006 -0.000014
# 2 0.001753 0.007171 -0.003743 0.000001 -0.000721 0.000001
# 3 0.000215 -0.003743 0.015005 0.000000 0.016764 0.000010
# 4 0.000002 0.000001 0.000000 -0.003443 -0.000003 -0.053104
# 5 0.015006 -0.000721 0.016764 -0.000003 0.063793 0.000014
# 6 -0.000014 0.000001 0.000010 -0.053104 0.000014 0.012412
#
#
# Mechanical properties :
#
#
# Convention : Reuss Voigt Hill
#
# Bulk Modulus (GPa) = 21.89256 50.90201 36.39729
# Shear Modulus (GPa) = 35.52052 22.74176 29.13114
#
# Velocity S-wave (km/s) = 3.93206 3.14624 3.56089
# Velocity P-wave (km/s) = 5.49035 5.94598 5.72270
#
# Compressibility (1/GPa) = 0.04567761
#
# Stress axis : x y z
#
# Youngs Moduli (GPa) = 36.96714 139.44778 66.64562
#
# Poissons Ratio (x) = -0.24452 -0.01434
# Poissons Ratio (y) = -0.06482 0.24947
# Poissons Ratio (z) = -0.00795 0.52199
#
# Static dielectric constant tensor:
#      x y z
#    x 1.954170 0.000000 0.042940 
#    y 0.000000 1.795100 0.000000 
#    z 0.042940 0.000000 1.902830 
# 
# From -- ./inp_files/322386.got.cif
#   From: 2010.05.17/outbox.cif.g08.bks.cpg/sg12_162_cif.got.tgz:322386.got - 2010.06.03 13:09:07.
