data_PCOD9219523
_publ_section_title
;
Structure prediction by ZEFSAII (Michael W. Deem and Ramdas Pophale) SiO2 
 PCOD9219523
Probable space group: C 2/M
;
_chemical_formula_sum "Si O2"
_cell_formula_units_Z 64
_cell_length_a 13.069292
_cell_length_b 27.389142
_cell_length_c 19.434003
_cell_angle_alpha 90.000000
_cell_angle_beta 153.920829
_cell_angle_gamma 90.000000
_cell_volume 3058.179421
_symmetry_space_group_name_H-M "C 2/M"
_symmetry_group_IT_number 12
_symmetry_cell_setting 'monoclinic'
loop_
_space_group_symop_operation_xyz
x,y,z
-x,y,-z
-x,-y,-z
x,-y,z
1/2+x,1/2+y,z
1/2-x,1/2+y,-z
1/2-x,1/2-y,-z
1/2+x,1/2-y,z
loop_
_atom_site_type_symbol
_atom_site_label
_atom_site_fract_x
_atom_site_fract_y
_atom_site_fract_z
Si Si1 0.296554 0.203228 0.115835
Si Si2 0.221908 0.880393 0.333320
Si Si3 0.015893 0.602458 0.281180
Si Si4 0.518960 0.734631 0.653531
Si Si5 0.482497 0.621858 0.643498
Si Si6 0.862548 0.771320 0.759469
Si Si7 0.269215 0.444451 0.311903
Si Si8 0.668601 0.556416 0.167620
O O1 0.346199 0.147536 0.164331
O O2 0.320800 0.234784 0.198462
O O3 0.508285 0.226513 0.199745
O O4 0.056746 0.211764 0.932263
O O5 0.500000 0.889634 0.500000
O O6 0.097074 0.896153 0.328978
O O7 0.185132 0.821783 0.308970
O O8 0.130120 0.907687 0.209075
O O9 0.914233 0.568099 0.279416
O O10 0.254999 0.622793 0.457143
O O11 0.070347 0.575785 0.242393
O O12 0.250000 0.750000 0.500000
O O13 0.558939 0.677961 0.692212
O O14 0.622337 0.750914 0.643609
O O15 0.669882 0.588697 0.716945
O O16 0.500000 0.444638 0.500000
O O17 0.221261 0.500000 0.262571
O O18 0.654146 0.500000 0.181361
O O19 0.500000 0.563107 0.000000
#
# Coordination Sequence:
#
# PCOD9219523 Si02
#       8
#     8   8   8   8   8   8   8   8
#     4  11  23  39  60  92 126 175 218 257 330 389
#     4  12  23  42  64  97 134 171 216 281 339 396
#     4  11  20  40  64  95 126 168 223 272 329 397
#     4  12  22  39  60  90 127 174 219 269 319 397
#     4  11  22  38  62  97 131 165 220 273 343 395
#     4  11  25  39  61  90 132 174 218 266 324 401
#     4   9  20  37  61  91 127 168 214 278 336 393
#     4  11  25  43  66  93 126 173 221 270 333 404
#
# _framework density 20.927482999999999
#
# number of rings (size 3 to 8) (size 9 to 14) (size 15 to 20)
#    0.000    1.000    3.750    3.750    0.000    1.250 
#    0.000    0.000    0.000    0.000    0.000    5.250 
#    0.000    0.000    0.000    0.000    0.000    0.000 
#
# Total GULP energy -178753.902243 kJ/mol
# GULP energy per Si atom -5586.059445 kJ/mol
# Density = 2.087985 g / cm^3
# Si number density = 20.927483 Si / 1000 Ang^3
#
#
#
# Elastic Constant Matrix: (Units=GPa)
#
#
# Indices 1 2 3 4 5 6 
#
# 1 154.6402 58.1496 16.1597 0.0006 -3.7430 0.0004
# 2 58.1496 125.9381 5.4610 -0.0005 -2.6556 -0.0003
# 3 16.1597 5.4610 20.3796 -0.0063 -8.4743 -0.0003
# 4 0.0006 -0.0005 -0.0063 -6.9791 0.0000 -8.1079
# 5 -3.7430 -2.6556 -8.4743 0.0000 24.2775 0.0003
# 6 0.0004 -0.0003 -0.0003 -8.1079 0.0003 31.5950
#
#
#
# Elastic Compliance Matrix: (Units=1/GPa)
#
#
# Indices 1 2 3 4 5 6 
#
# 1 0.008469 -0.003666 -0.006266 0.000005 -0.001283 0.000001
# 2 -0.003666 0.009621 0.000621 -0.000001 0.000704 0.000000
# 3 -0.006266 0.000621 0.062581 -0.000044 0.020946 -0.000011
# 4 0.000005 -0.000001 -0.000044 -0.110379 -0.000014 -0.028325
# 5 -0.001283 0.000704 0.020946 -0.000014 0.048381 -0.000004
# 6 0.000001 0.000000 -0.000011 -0.028325 -0.000004 0.024382
#
#
# Mechanical properties :
#
#
# Convention : Reuss Voigt Hill
#
# Bulk Modulus (GPa) = 16.11625 51.16649 33.64137
# Shear Modulus (GPa) = 60.71058 24.52454 42.61756
#
# Velocity S-wave (km/s) = 5.39193 3.42699 4.51759
# Velocity P-wave (km/s) = 6.81775 6.33731 6.58191
#
# Compressibility (1/GPa) = 0.06204918
#
# Stress axis : x y z
#
# Youngs Moduli (GPa) = 118.08069 103.94090 15.97940
#
# Poissons Ratio (x) = 0.38101 0.10013
# Poissons Ratio (y) = 0.43284 -0.00993
# Poissons Ratio (z) = 0.73992 -0.06458
#
# Static dielectric constant tensor:
#      x y z
#    x 1.827770 0.000000 -0.006440 
#    y 0.000000 1.701690 0.000000 
#    z -0.006440 0.000000 1.771630 
# 
# From -- ./inp_files/266329.got.cif
#   From: 2010.05.17/outbox.cif.g08.bks.cpg/sg12_134_cif.got.tgz:266329.got - 2010.06.03 13:09:07.
