data_PCOD9219506
_publ_section_title
;
Structure prediction by ZEFSAII (Michael W. Deem and Ramdas Pophale) SiO2 
 PCOD9219506
Probable space group: C 2/M
;
_chemical_formula_sum "Si O2"
_cell_formula_units_Z 40
_cell_length_a 8.807306
_cell_length_b 15.173598
_cell_length_c 25.382077
_cell_angle_alpha 90.000000
_cell_angle_beta 34.432099
_cell_angle_gamma 90.000000
_cell_volume 1917.948878
_symmetry_space_group_name_H-M "C 2/M"
_symmetry_group_IT_number 12
_symmetry_cell_setting 'monoclinic'
loop_
_space_group_symop_operation_xyz
x,y,z
-x,y,-z
-x,-y,-z
x,-y,z
1/2+x,1/2+y,z
1/2-x,1/2+y,-z
1/2-x,1/2-y,-z
1/2+x,1/2-y,z
loop_
_atom_site_type_symbol
_atom_site_label
_atom_site_fract_x
_atom_site_fract_y
_atom_site_fract_z
Si Si1 0.577527 0.283571 0.308218
Si Si2 0.167073 0.897894 0.791331
Si Si3 0.122921 0.155401 0.022897
Si Si4 0.459707 0.712851 0.567258
Si Si5 0.805586 0.404601 0.155243
O O1 0.645446 0.178833 0.286342
O O2 0.635978 0.324211 0.348992
O O3 0.262990 0.286918 0.383063
O O4 0.750565 0.330932 0.214423
O O5 0.096189 0.874279 0.871787
O O6 0.887698 0.889241 0.839070
O O7 0.257942 0.000000 0.760595
O O8 0.250000 0.250000 0.000000
O O9 0.386061 0.095201 0.949260
O O10 0.000000 0.156101 0.000000
O O11 0.500000 0.662676 0.500000
O O12 0.750000 0.750000 0.500000
O O13 0.730697 0.500000 0.199286
#
# Coordination Sequence:
#
# PCOD9219506 Si02
#       5
#     8   8   8   8   8
#     4  11  20  39  66  93 123 164 206 255 309 373
#     4  11  24  41  63  93 130 170 211 258 309 363
#     4  12  25  40  61  90 130 174 214 256 306 357
#     4   9  20  38  66  94 121 159 202 250 323 384
#     4  11  24  41  63  93 129 171 212 256 308 365
#
# _framework density 20.855613000000002
#
# number of rings (size 3 to 8) (size 9 to 14) (size 15 to 20)
#    0.000    1.200    4.000    2.400    2.800    3.200 
#    0.000    0.000    0.000   24.000    0.000    0.000 
#    0.000    0.000    0.000    0.000    0.000    0.000 
#
# Total GULP energy -111534.824731 kJ/mol
# GULP energy per Si atom -5576.741237 kJ/mol
# Density = 2.080814 g / cm^3
# Si number density = 20.855613 Si / 1000 Ang^3
#
#
#
# Elastic Constant Matrix: (Units=GPa)
#
#
# Indices 1 2 3 4 5 6 
#
# 1 112.8531 20.0675 26.0639 0.0221 16.4861 0.0040
# 2 20.0675 96.6854 14.7585 0.0034 7.2335 -0.0001
# 3 26.0639 14.7585 81.8524 -0.0433 16.5764 0.0031
# 4 0.0221 0.0034 -0.0433 -0.9999 0.0252 -1.5011
# 5 16.4861 7.2335 16.5764 0.0252 50.0598 0.0009
# 6 0.0040 -0.0001 0.0031 -1.5011 0.0009 13.5475
#
#
#
# Elastic Compliance Matrix: (Units=1/GPa)
#
#
# Indices 1 2 3 4 5 6 
#
# 1 0.010034 -0.001538 -0.002458 0.000231 -0.002268 0.000023
# 2 -0.001538 0.010915 -0.001352 0.000038 -0.000623 0.000005
# 3 -0.002458 -0.001352 0.013977 -0.000645 -0.003623 -0.000074
# 4 0.000231 0.000038 -0.000645 -0.857451 0.000566 -0.095008
# 5 -0.002268 -0.000623 -0.003623 0.000566 0.022013 0.000063
# 6 0.000023 0.000005 -0.000074 -0.095008 0.000063 0.063287
#
#
# Mechanical properties :
#
#
# Convention : Reuss Voigt Hill
#
# Bulk Modulus (GPa) = 41.27195 45.90783 43.58989
# Shear Modulus (GPa) = -6.95940 27.88822 10.46441
#
# Velocity S-wave (km/s) = -1.82871 3.66075 2.24242
# Velocity P-wave (km/s) = 3.92090 6.31887 5.25840
#
# Compressibility (1/GPa) = 0.02422953
#
# Stress axis : x y z
#
# Youngs Moduli (GPa) = 99.66573 91.61718 71.54577
#
# Poissons Ratio (x) = 0.14087 0.17587
# Poissons Ratio (y) = 0.15324 0.09675
# Poissons Ratio (z) = 0.24500 0.12389
#
# Static dielectric constant tensor:
#      x y z
#    x 1.769610 0.000000 0.023490 
#    y 0.000000 1.755130 0.000010 
#    z 0.023490 0.000010 1.801670 
# 
# From -- ./inp_files/211370.got.cif
#   From: 2010.05.17/outbox.cif.g08.bks.cpg/sg12_106_cif.got.tgz:211370.got - 2010.06.03 13:09:07.
