data_PCOD9219625
_publ_section_title
;
Structure prediction by ZEFSAII (Michael W. Deem and Ramdas Pophale) SiO2 
 PCOD9219625
Probable space group: C 2/M
;
_chemical_formula_sum "Si O2"
_cell_formula_units_Z 56
_cell_length_a 30.793685
_cell_length_b 8.088071
_cell_length_c 19.476140
_cell_angle_alpha 90.000000
_cell_angle_beta 141.706820
_cell_angle_gamma 90.000000
_cell_volume 3005.944238
_symmetry_space_group_name_H-M "C 2/M"
_symmetry_group_IT_number 12
_symmetry_cell_setting 'monoclinic'
loop_
_space_group_symop_operation_xyz
x,y,z
-x,y,-z
-x,-y,-z
x,-y,z
1/2+x,1/2+y,z
1/2-x,1/2+y,-z
1/2-x,1/2-y,-z
1/2+x,1/2-y,z
loop_
_atom_site_type_symbol
_atom_site_label
_atom_site_fract_x
_atom_site_fract_y
_atom_site_fract_z
Si Si1 0.062997 0.296661 0.529393
Si Si2 0.929225 0.696476 0.617136
Si Si3 0.283777 0.191462 0.276608
Si Si4 0.874848 0.690435 0.758545
Si Si5 0.505497 0.309450 0.839557
Si Si6 0.131676 0.797264 0.091457
Si Si7 0.777430 0.309001 0.435864
O O1 0.064125 0.500000 0.531424
O O2 0.054053 0.244124 0.438894
O O3 0.140469 0.237913 0.648601
O O4 0.000000 0.243379 0.500000
O O5 0.917714 0.500000 0.597163
O O6 0.988813 0.727319 0.746315
O O7 0.853510 0.763104 0.549440
O O8 0.208522 0.260421 0.161479
O O9 0.280972 0.192390 0.356572
O O10 0.284486 0.000000 0.255410
O O11 0.892225 0.500000 0.767621
O O12 0.934107 0.794771 0.794504
O O13 0.878121 0.731776 0.843519
O O14 0.795016 0.721833 0.635121
O O15 0.521381 0.500000 0.845948
O O16 0.569247 0.242510 0.964409
O O17 0.131889 0.000000 0.095989
O O18 0.771416 0.500000 0.450484
#
# Coordination Sequence:
#
# PCOD9219625 Si02
#       7
#     8   8   8   8   8   8   8
#     4   8  13  24  48  79 100 113 138 183 236 282
#     4   9  18  32  49  70  96 123 153 191 232 274
#     4   7  11  23  44  67  89 114 148 186 220 263
#     4  11  21  31  47  70  92 117 155 203 243 270
#     4  11  22  33  46  63  89 128 165 195 230 274
#     4   9  18  33  49  64  88 126 166 196 225 267
#     4   8  15  30  48  64  89 124 156 188 228 275
#
# _framework density 18.629752
#
# number of rings (size 3 to 8) (size 9 to 14) (size 15 to 20)
#    0.000    3.000    0.000    4.714    0.000    4.000 
#    0.000    0.000    0.000    1.286    0.000    0.000 
#    0.000    0.000    0.000    0.000    0.000    0.143 
#
# Total GULP energy -156016.448215 kJ/mol
# GULP energy per Si atom -5572.016008 kJ/mol
# Density = 1.858735 g / cm^3
# Si number density = 18.629752 Si / 1000 Ang^3
#
#
#
# Elastic Constant Matrix: (Units=GPa)
#
#
# Indices 1 2 3 4 5 6 
#
# 1 97.4777 -6.0369 50.3734 0.0000 16.4497 0.0000
# 2 -6.0369 13.8169 -0.6048 0.0000 -1.7834 0.0000
# 3 50.3734 -0.6048 107.1574 0.0000 6.7124 0.0000
# 4 0.0000 0.0000 0.0000 18.5371 0.0000 -4.2606
# 5 16.4497 -1.7834 6.7124 0.0000 18.8108 0.0000
# 6 0.0000 0.0000 0.0000 -4.2606 0.0000 6.6027
#
#
#
# Elastic Compliance Matrix: (Units=1/GPa)
#
#
# Indices 1 2 3 4 5 6 
#
# 1 0.015946 0.005247 -0.006776 0.000000 -0.011030 0.000000
# 2 0.005247 0.074998 -0.002252 0.000000 0.003325 0.000000
# 3 -0.006776 -0.002252 0.012424 0.000000 0.001278 0.000000
# 4 0.000000 0.000000 0.000000 0.063340 0.000000 0.040873
# 5 -0.011030 0.003325 0.001278 0.000000 0.062665 0.000000
# 6 0.000000 0.000000 0.000000 0.040873 0.000000 0.177829
#
#
# Mechanical properties :
#
#
# Convention : Reuss Voigt Hill
#
# Bulk Modulus (GPa) = 10.43744 33.99060 22.21402
# Shear Modulus (GPa) = 11.19318 20.43813 15.81566
#
# Velocity S-wave (km/s) = 2.45383 3.31580 2.91683
# Velocity P-wave (km/s) = 3.69366 5.73971 4.82635
#
# Compressibility (1/GPa) = 0.09580894
#
# Stress axis : x y z
#
# Youngs Moduli (GPa) = 62.70976 13.33361 80.48626
#
# Poissons Ratio (x) = -0.06996 0.54535
# Poissons Ratio (y) = -0.32904 0.18122
# Poissons Ratio (z) = 0.42490 0.03002
#
# Static dielectric constant tensor:
#      x y z
#    x 1.638960 0.000000 0.024680 
#    y 0.000000 1.661910 0.000000 
#    z 0.024680 0.000000 1.688140 
# 
# From -- ./inp_files/295192.got.cif
#   From: 2010.05.17/outbox.cif.g08.bks.cpg/sg12_148_cif.got.tgz:295192.got - 2010.06.03 13:09:07.
