data_PCOD9219941
_publ_section_title
;
Structure prediction by ZEFSAII (Michael W. Deem and Ramdas Pophale) SiO2 
 PCOD9219941
Probable space group: C 2/M
;
_chemical_formula_sum "Si O2"
_cell_formula_units_Z 60
_cell_length_a 32.206822
_cell_length_b 16.577999
_cell_length_c 19.282893
_cell_angle_alpha 90.000000
_cell_angle_beta 162.158576
_cell_angle_gamma 90.000000
_cell_volume 3154.406718
_symmetry_space_group_name_H-M "C 2/M"
_symmetry_group_IT_number 12
_symmetry_cell_setting 'monoclinic'
loop_
_space_group_symop_operation_xyz
x,y,z
-x,y,-z
-x,-y,-z
x,-y,z
1/2+x,1/2+y,z
1/2-x,1/2+y,-z
1/2-x,1/2-y,-z
1/2+x,1/2-y,z
loop_
_atom_site_type_symbol
_atom_site_label
_atom_site_fract_x
_atom_site_fract_y
_atom_site_fract_z
Si Si1 0.321952 0.095732 0.484460
Si Si2 0.721129 0.154994 0.944649
Si Si3 0.856661 0.845255 0.925703
Si Si4 0.957361 0.906206 0.232893
Si Si5 0.378842 0.904428 0.067298
Si Si6 0.500000 0.788123 0.500000
Si Si7 0.407601 0.592857 0.784281
Si Si8 0.832538 0.806640 0.352067
O O1 0.240205 0.106935 0.282370
O O2 0.473508 0.129505 0.719313
O O3 0.233251 0.125918 0.408714
O O4 0.329976 0.000000 0.508857
O O5 0.656233 0.123747 0.911486
O O6 0.612818 0.154784 0.711563
O O7 0.750000 0.250000 0.000000
O O8 0.852720 0.106894 0.130012
O O9 0.779097 0.760372 0.805757
O O10 0.878894 0.880417 0.038003
O O11 0.006989 0.851719 0.131678
O O12 0.079641 0.845095 0.446285
O O13 0.998282 0.000000 0.293294
O O14 0.388476 0.000000 0.081377
O O15 0.255881 0.875792 0.824353
O O16 0.568236 0.733829 0.548001
O O17 0.394615 0.500000 0.736348
O O18 0.500000 0.586673 0.000000
#
# Coordination Sequence:
#
# PCOD9219941 Si02
#       8
#     8   8   8   8   8   4   8   8
#     4   9  19  36  64  93 119 152 198 255 310 362
#     4  12  22  39  59  86 116 158 199 251 304 351
#     4  11  21  36  64  90 120 154 202 251 304 359
#     4  12  25  40  60  91 125 163 207 248 298 365
#     4  11  23  40  60  85 118 160 208 249 294 359
#     4  12  22  38  58  82 118 156 196 240 310 352
#     4   8  15  33  60  91 120 151 193 248 310 366
#     4  12  24  39  61  83 123 168 204 244 299 361
#
# _framework density 19.021008999999999
#
# number of rings (size 3 to 8) (size 9 to 14) (size 15 to 20)
#    0.000    1.200    4.000    3.600    1.867    0.000 
#    0.000    3.333    2.933    0.000    0.000    3.733 
#    0.000    0.000    0.000    0.000    0.000    0.000 
#
# Total GULP energy -167310.534169 kJ/mol
# GULP energy per Si atom -5577.017806 kJ/mol
# Density = 1.897772 g / cm^3
# Si number density = 19.021009 Si / 1000 Ang^3
#
#
#
# Elastic Constant Matrix: (Units=GPa)
#
#
# Indices 1 2 3 4 5 6 
#
# 1 80.2393 29.5471 35.3834 0.0000 33.4100 0.0000
# 2 29.5471 74.2659 20.9641 0.0000 12.7341 0.0000
# 3 35.3834 20.9641 84.6373 0.0000 10.2443 0.0000
# 4 0.0000 0.0000 0.0000 21.4824 0.0000 3.3263
# 5 33.4100 12.7341 10.2443 0.0000 30.3490 0.0000
# 6 0.0000 0.0000 0.0000 3.3263 0.0000 14.5314
#
#
#
# Elastic Compliance Matrix: (Units=1/GPa)
#
#
# Indices 1 2 3 4 5 6 
#
# 1 0.028908 -0.004669 -0.007626 0.000000 -0.027291 0.000000
# 2 -0.004669 0.016021 -0.001903 0.000000 -0.000940 0.000000
# 3 -0.007626 -0.001903 0.014973 0.000000 0.004139 0.000000
# 4 0.000000 0.000000 0.000000 0.048260 0.000000 -0.011047
# 5 -0.027291 -0.000940 0.004139 0.000000 0.061990 0.000000
# 6 0.000000 0.000000 0.000000 -0.011047 0.000000 0.071345
#
#
# Mechanical properties :
#
#
# Convention : Reuss Voigt Hill
#
# Bulk Modulus (GPa) = 31.73814 45.65907 38.69861
# Shear Modulus (GPa) = 17.83197 23.48910 20.66054
#
# Velocity S-wave (km/s) = 3.06516 3.51793 3.29932
# Velocity P-wave (km/s) = 5.40824 6.36850 5.90791
#
# Compressibility (1/GPa) = 0.03150783
#
# Stress axis : x y z
#
# Youngs Moduli (GPa) = 34.59252 62.41797 66.78533
#
# Poissons Ratio (x) = 0.29144 0.50927
# Poissons Ratio (y) = 0.16152 0.12706
# Poissons Ratio (z) = 0.26379 0.11875
#
# Static dielectric constant tensor:
#      x y z
#    x 1.688740 0.000000 0.022870 
#    y 0.000000 1.666990 0.000000 
#    z 0.022870 0.000000 1.746140 
# 
# From -- ./inp_files/297005.got.cif
#   From: 2010.05.17/outbox.cif.g08.bks.cpg/sg12_149_cif.got.tgz:297005.got - 2010.06.03 13:09:07.
