data_PCOD9219937
_publ_section_title
;
Structure prediction by ZEFSAII (Michael W. Deem and Ramdas Pophale) SiO2 
 PCOD9219937
Probable space group: C 2/M
;
_chemical_formula_sum "Si O2"
_cell_formula_units_Z 58
_cell_length_a 11.561919
_cell_length_b 18.920716
_cell_length_c 21.089995
_cell_angle_alpha 90.000000
_cell_angle_beta 138.191900
_cell_angle_gamma 90.000000
_cell_volume 3075.628922
_symmetry_space_group_name_H-M "C 2/M"
_symmetry_group_IT_number 12
_symmetry_cell_setting 'monoclinic'
loop_
_space_group_symop_operation_xyz
x,y,z
-x,y,-z
-x,-y,-z
x,-y,z
1/2+x,1/2+y,z
1/2-x,1/2+y,-z
1/2-x,1/2-y,-z
1/2+x,1/2-y,z
loop_
_atom_site_type_symbol
_atom_site_label
_atom_site_fract_x
_atom_site_fract_y
_atom_site_fract_z
Si Si1 0.745118 0.377389 0.450778
Si Si2 0.128406 0.172165 0.275343
Si Si3 0.780463 0.084244 0.131849
Si Si4 0.042514 0.415427 0.914108
Si Si5 0.461153 0.189064 0.346599
Si Si6 0.563626 0.344250 0.598712
Si Si7 0.000000 0.500000 0.500000
Si Si8 0.042381 0.327665 0.234903
O O1 0.702442 0.321866 0.377094
O O2 0.563246 0.393906 0.411528
O O3 0.865360 0.343189 0.553332
O O4 0.858195 0.438748 0.465086
O O5 0.292441 0.146744 0.302128
O O6 0.069865 0.247141 0.223599
O O7 0.964229 0.121591 0.211604
O O8 0.643193 0.105143 0.130368
O O9 0.801518 0.000000 0.144541
O O10 0.686109 0.099782 0.026386
O O11 0.041264 0.500000 0.903513
O O12 0.065675 0.372832 0.859095
O O13 0.447978 0.267354 0.371704
O O14 0.465166 0.182693 0.273053
O O15 0.500000 0.339773 0.500000
O O16 0.766659 0.362789 0.681946
#
# Coordination Sequence:
#
# PCOD9219937 Si02
#       8
#     8   8   8   8   8   8   2   8
#     4  12  22  41  56  86 125 165 208 244 294 351
#     4  11  22  35  62  92 118 159 205 254 303 365
#     4   9  20  40  67  87 114 155 209 256 309 370
#     4   9  20  42  64  88 116 156 201 258 314 372
#     4  11  21  37  57  88 127 158 194 250 306 360
#     4  11  21  36  63  89 114 163 209 248 295 358
#     4  12  28  40  58  84 128 176 202 252 298 360
#     4  11  22  37  60  92 125 155 200 252 314 363
#
# _framework density 18.857932000000002
#
# number of rings (size 3 to 8) (size 9 to 14) (size 15 to 20)
#    0.000    1.379    4.138    3.724    2.897    0.552 
#    2.483    1.034    0.000    1.655    0.000    0.000 
#    0.000    0.000    0.000    0.000    0.000    0.000 
#
# Total GULP energy -161541.223971 kJ/mol
# GULP energy per Si atom -5570.387033 kJ/mol
# Density = 1.881501 g / cm^3
# Si number density = 18.857932 Si / 1000 Ang^3
#
#
#
# Elastic Constant Matrix: (Units=GPa)
#
#
# Indices 1 2 3 4 5 6 
#
# 1 102.3493 6.6371 22.0009 0.0000 -2.8388 0.0000
# 2 6.6371 29.4303 13.5199 0.0000 -10.3047 0.0000
# 3 22.0009 13.5199 61.0459 -0.0001 -12.0133 0.0002
# 4 0.0000 0.0000 -0.0001 50.5911 0.0000 -50.3731
# 5 -2.8388 -10.3047 -12.0133 0.0000 37.0142 0.0001
# 6 0.0000 0.0000 0.0002 -50.3731 0.0001 106.8224
#
#
#
# Elastic Compliance Matrix: (Units=1/GPa)
#
#
# Indices 1 2 3 4 5 6 
#
# 1 0.010618 -0.000898 -0.003757 0.000000 -0.000655 0.000000
# 2 -0.000898 0.040481 -0.006877 0.000000 0.008969 0.000000
# 3 -0.003757 -0.006877 0.020109 0.000000 0.004324 0.000000
# 4 0.000000 0.000000 0.000000 0.037262 0.000000 0.017571
# 5 -0.000655 0.008969 0.004324 0.000000 0.030867 0.000000
# 6 0.000000 0.000000 0.000000 0.017571 0.000000 0.017647
#
#
# Mechanical properties :
#
#
# Convention : Reuss Voigt Hill
#
# Bulk Modulus (GPa) = 20.77069 30.79345 25.78207
# Shear Modulus (GPa) = 25.49796 48.93006 37.21401
#
# Velocity S-wave (km/s) = 3.68109 5.09931 4.44710
# Velocity P-wave (km/s) = 5.39495 7.14390 6.33012
#
# Compressibility (1/GPa) = 0.04814477
#
# Stress axis : x y z
#
# Youngs Moduli (GPa) = 94.17900 24.70321 49.72921
#
# Poissons Ratio (x) = 0.02219 0.18682
# Poissons Ratio (y) = 0.08458 0.34197
# Poissons Ratio (z) = 0.35380 0.16987
#
# Static dielectric constant tensor:
#      x y z
#    x 1.689270 0.000000 0.012750 
#    y 0.000000 1.646050 0.000000 
#    z 0.012750 0.000000 1.646500 
# 
# From -- ./inp_files/306350.got.cif
#   From: 2010.05.17/outbox.cif.g08.bks.cpg/sg12_154_cif.got.tgz:306350.got - 2010.06.03 13:09:07.
