data_PCOD9219192
_publ_section_title
;
Structure prediction by ZEFSAII (Michael W. Deem and Ramdas Pophale) SiO2 
 PCOD9219192
Probable space group: C 2/M
;
_chemical_formula_sum "Si O2"
_cell_formula_units_Z 64
_cell_length_a 9.476414
_cell_length_b 28.558855
_cell_length_c 13.934737
_cell_angle_alpha 90.000000
_cell_angle_beta 92.160159
_cell_angle_gamma 90.000000
_cell_volume 3768.555020
_symmetry_space_group_name_H-M "C 2/M"
_symmetry_group_IT_number 12
_symmetry_cell_setting 'monoclinic'
loop_
_space_group_symop_operation_xyz
x,y,z
-x,y,-z
-x,-y,-z
x,-y,z
1/2+x,1/2+y,z
1/2-x,1/2+y,-z
1/2-x,1/2-y,-z
1/2+x,1/2-y,z
loop_
_atom_site_type_symbol
_atom_site_label
_atom_site_fract_x
_atom_site_fract_y
_atom_site_fract_z
Si Si1 0.426741 0.949951 0.102627
Si Si2 0.310275 0.694870 0.592885
Si Si3 0.092147 0.849412 0.906386
Si Si4 0.837852 0.051850 0.027810
Si Si5 0.301901 0.787252 0.809449
Si Si6 0.819996 0.175062 0.796817
Si Si7 0.643582 0.709739 0.611193
Si Si8 0.041400 0.650337 0.888474
O O1 0.484027 0.902580 0.148829
O O2 0.448466 0.000000 0.151953
O O3 0.500000 0.952116 0.000000
O O4 0.263173 0.944512 0.067551
O O5 0.275984 0.664143 0.685685
O O6 0.473974 0.710470 0.615981
O O7 0.315015 0.679474 0.481873
O O8 0.200532 0.737815 0.593339
O O9 0.172488 0.899520 0.913822
O O10 0.200638 0.807275 0.890507
O O11 0.971198 0.847277 0.822531
O O12 0.000000 0.842822 0.000000
O O13 0.805293 0.000000 0.070718
O O14 0.000000 0.050781 0.000000
O O15 0.323025 0.731645 0.806697
O O16 0.224542 0.803575 0.710006
O O17 0.451089 0.811943 0.828895
O O18 0.704916 0.159296 0.871238
O O19 0.000000 0.652872 0.000000
#
# Coordination Sequence:
#
# PCOD9219192 Si02
#       8
#     8   8   8   8   8   8   8   8
#     4   9  17  32  51  68  87 119 160 207 255 280
#     4   9  18  33  52  71  91 120 161 209 257 282
#     4  11  20  32  47  66  96 129 166 196 231 280
#     4   9  17  30  49  68  87 115 156 207 251 280
#     4  11  22  33  46  68  97 134 168 196 230 275
#     4  11  22  33  46  68  97 136 166 196 229 277
#     4   9  18  33  52  71  91 120 160 211 255 284
#     4  11  22  34  47  68 100 135 168 198 230 279
#
# _framework density 16.982637
#
# number of rings (size 3 to 8) (size 9 to 14) (size 15 to 20)
#    0.000    2.000    1.250    4.500    5.250    3.000 
#    0.000    0.000    0.000    0.000    0.000    0.000 
#    0.000    6.000    0.000    0.000    0.000    0.000 
#
# Total GULP energy -178136.079764 kJ/mol
# GULP energy per Si atom -5566.752493 kJ/mol
# Density = 1.694398 g / cm^3
# Si number density = 16.982637 Si / 1000 Ang^3
#
#
#
# Elastic Constant Matrix: (Units=GPa)
#
#
# Indices 1 2 3 4 5 6 
#
# 1 54.4504 -2.4395 -6.0292 0.0000 -4.3500 0.0000
# 2 -2.4395 83.8247 16.4951 0.0000 -0.9695 0.0000
# 3 -6.0292 16.4951 52.4457 0.0000 -4.0723 0.0000
# 4 0.0000 0.0000 0.0000 0.9541 0.0000 6.6462
# 5 -4.3500 -0.9695 -4.0723 0.0000 22.1990 0.0000
# 6 0.0000 0.0000 0.0000 6.6462 0.0000 17.8856
#
#
#
# Elastic Compliance Matrix: (Units=1/GPa)
#
#
# Indices 1 2 3 4 5 6 
#
# 1 0.018978 0.000115 0.002470 0.000000 0.004177 0.000000
# 2 0.000115 0.012718 -0.003999 0.000000 -0.000156 0.000000
# 3 0.002470 -0.003999 0.020931 0.000000 0.004149 0.000000
# 4 0.000000 0.000000 0.000000 -0.659786 0.000000 0.245173
# 5 0.004177 -0.000156 0.004149 0.000000 0.046620 0.000000
# 6 0.000000 0.000000 0.000000 0.245173 0.000000 -0.035194
#
#
# Mechanical properties :
#
#
# Convention : Reuss Voigt Hill
#
# Bulk Modulus (GPa) = 20.08111 22.97485 21.52798
# Shear Modulus (GPa) = -8.67596 20.38737 5.85570
#
# Velocity S-wave (km/s) = -2.26270 3.46856 1.85891
# Velocity P-wave (km/s) = 2.24137 5.44050 4.16069
#
# Compressibility (1/GPa) = 0.04979805
#
# Stress axis : x y z
#
# Youngs Moduli (GPa) = 52.69357 78.62795 47.77554
#
# Poissons Ratio (x) = -0.00901 -0.11800
# Poissons Ratio (y) = -0.00604 0.19105
# Poissons Ratio (z) = -0.13015 0.31443
#
# Static dielectric constant tensor:
#      x y z
#    x 1.744450 0.000000 0.044810 
#    y 0.000000 1.610610 0.000000 
#    z 0.044810 0.000000 1.645780 
# 
# From -- ./inp_files/200620.got.cif
#   From: 2010.05.17/outbox.cif.g08.bks.cpg/sg12_101_cif.got.tgz:200620.got - 2010.06.03 13:09:07.
