data_PCOD9219198
_publ_section_title
;
Structure prediction by ZEFSAII (Michael W. Deem and Ramdas Pophale) SiO2 
 PCOD9219198
Probable space group: C 2/M
;
_chemical_formula_sum "Si O2"
_cell_formula_units_Z 64
_cell_length_a 17.641433
_cell_length_b 31.997006
_cell_length_c 9.823770
_cell_angle_alpha 90.000000
_cell_angle_beta 136.797217
_cell_angle_gamma 90.000000
_cell_volume 3796.183434
_symmetry_space_group_name_H-M "C 2/M"
_symmetry_group_IT_number 12
_symmetry_cell_setting 'monoclinic'
loop_
_space_group_symop_operation_xyz
x,y,z
-x,y,-z
-x,-y,-z
x,-y,z
1/2+x,1/2+y,z
1/2-x,1/2+y,-z
1/2-x,1/2-y,-z
1/2+x,1/2-y,z
loop_
_atom_site_type_symbol
_atom_site_label
_atom_site_fract_x
_atom_site_fract_y
_atom_site_fract_z
Si Si1 0.573082 0.772336 0.727325
Si Si2 0.631916 0.633920 0.642163
Si Si3 0.697727 0.315018 0.471907
Si Si4 0.889314 0.045862 0.948318
Si Si5 0.575246 0.231021 0.230301
Si Si6 0.614900 0.545995 0.732142
Si Si7 0.370123 0.364006 0.870167
Si Si8 0.802004 0.188625 0.031264
O O1 0.500000 0.762225 0.500000
O O2 0.496421 0.790737 0.745585
O O3 0.628488 0.731039 0.864616
O O4 0.677250 0.800869 0.824990
O O5 0.500000 0.636483 0.500000
O O6 0.654058 0.650133 0.519483
O O7 0.669068 0.587380 0.737254
O O8 0.694575 0.667046 0.818267
O O9 0.618217 0.274660 0.351711
O O10 0.817136 0.296180 0.666018
O O11 0.697615 0.336726 0.325196
O O12 0.830148 0.088110 0.824063
O O13 0.835964 0.000000 0.861618
O O14 0.909301 0.051376 0.137533
O O15 0.000000 0.044660 0.000000
O O16 0.500000 0.239034 0.000000
O O17 0.500000 0.543536 0.500000
O O18 0.669777 0.500000 0.788549
O O19 0.500000 0.363496 0.000000
O O20 0.358323 0.342618 0.000217
#
# Coordination Sequence:
#
# PCOD9219198 Si02
#       8
#     8   8   8   8   8   8   8   8
#     4  11  22  35  52  71 100 130 167 213 261 296
#     4  11  20  32  50  75 103 137 169 212 243 296
#     4  11  23  34  53  75 101 132 180 209 251 307
#     4   9  18  31  48  72 105 142 170 199 249 306
#     4  11  22  39  53  71 100 139 169 217 260 300
#     4   9  18  31  47  71 105 142 171 200 248 305
#     4  11  20  32  50  75 105 138 167 207 245 297
#     4  11  21  34  51  74  97 131 173 209 248 303
#
# _framework density 16.859038999999999
#
# number of rings (size 3 to 8) (size 9 to 14) (size 15 to 20)
#    0.000    1.500    1.250    6.000    5.250    4.000 
#    0.000    0.000    0.000    0.000    0.000    0.000 
#    0.000   20.000    0.000    0.000    0.000    0.000 
#
# Total GULP energy -178417.218346 kJ/mol
# GULP energy per Si atom -5575.538073 kJ/mol
# Density = 1.682067 g / cm^3
# Si number density = 16.859039 Si / 1000 Ang^3
#
#
#
# Elastic Constant Matrix: (Units=GPa)
#
#
# Indices 1 2 3 4 5 6 
#
# 1 59.3934 9.6013 17.0846 0.0000 1.2384 0.0000
# 2 9.6013 71.9659 -2.3570 0.0000 12.9133 0.0000
# 3 17.0846 -2.3570 59.4071 0.0000 7.0826 0.0000
# 4 0.0000 0.0000 0.0000 21.9719 0.0000 -3.2769
# 5 1.2384 12.9133 7.0826 0.0000 23.6036 0.0000
# 6 0.0000 0.0000 0.0000 -3.2769 0.0000 18.3257
#
#
#
# Elastic Compliance Matrix: (Units=1/GPa)
#
#
# Indices 1 2 3 4 5 6 
#
# 1 0.018991 -0.003177 -0.005887 0.000000 0.002508 0.000000
# 2 -0.003177 0.016102 0.002679 0.000000 -0.009446 0.000000
# 3 -0.005887 0.002679 0.019466 0.000000 -0.006998 0.000000
# 4 0.000000 0.000000 0.000000 0.046760 0.000000 0.008361
# 5 0.002508 -0.009446 -0.006998 0.000000 0.049503 0.000000
# 6 0.000000 0.000000 0.000000 0.008361 0.000000 0.056063
#
#
# Mechanical properties :
#
#
# Convention : Reuss Voigt Hill
#
# Bulk Modulus (GPa) = 23.92876 26.60269 25.26573
# Shear Modulus (GPa) = 21.40549 23.87607 22.64078
#
# Velocity S-wave (km/s) = 3.56711 3.76735 3.66860
# Velocity P-wave (km/s) = 5.58480 5.89386 5.74141
#
# Compressibility (1/GPa) = 0.04179071
#
# Stress axis : x y z
#
# Youngs Moduli (GPa) = 52.65536 62.10399 51.37033
#
# Poissons Ratio (x) = 0.19728 0.30240
# Poissons Ratio (y) = 0.16726 -0.13760
# Poissons Ratio (z) = 0.30996 -0.16635
#
# Static dielectric constant tensor:
#      x y z
#    x 1.586780 0.000000 0.008620 
#    y 0.000000 1.605890 0.000000 
#    z 0.008620 0.000000 1.578930 
# 
# From -- ./inp_files/80791.got.cif
#   From: 2010.05.17/outbox.cif.g08.bks.cpg/sg12_41_cif.got.tgz:80791.got - 2010.06.03 13:09:07.
