data_PCOD9219466
_publ_section_title
;
Structure prediction by ZEFSAII (Michael W. Deem and Ramdas Pophale) SiO2 
 PCOD9219466
Probable space group: C 2/M
;
_chemical_formula_sum "Si O2"
_cell_formula_units_Z 56
_cell_length_a 8.707582
_cell_length_b 14.931924
_cell_length_c 24.796366
_cell_angle_alpha 90.000000
_cell_angle_beta 59.587910
_cell_angle_gamma 90.000000
_cell_volume 2780.440399
_symmetry_space_group_name_H-M "C 2/M"
_symmetry_group_IT_number 12
_symmetry_cell_setting 'monoclinic'
loop_
_space_group_symop_operation_xyz
x,y,z
-x,y,-z
-x,-y,-z
x,-y,z
1/2+x,1/2+y,z
1/2-x,1/2+y,-z
1/2-x,1/2-y,-z
1/2+x,1/2-y,z
loop_
_atom_site_type_symbol
_atom_site_label
_atom_site_fract_x
_atom_site_fract_y
_atom_site_fract_z
Si Si1 0.565649 0.393790 0.207984
Si Si2 0.190195 0.280620 0.130594
Si Si3 0.017744 0.839919 0.336069
Si Si4 0.445001 0.210198 0.954877
Si Si5 0.757056 0.000000 0.409740
Si Si6 0.173359 0.402245 0.235234
Si Si7 0.846556 0.500000 0.448465
Si Si8 0.660354 0.146898 0.637224
O O1 0.611835 0.500000 0.194555
O O2 0.648459 0.324868 0.149488
O O3 0.602376 0.357771 0.261797
O O4 0.352484 0.385450 0.237206
O O5 0.398866 0.283783 0.078817
O O6 0.076016 0.324116 0.102533
O O7 0.153227 0.329988 0.192448
O O8 0.919030 0.745188 0.358814
O O9 0.170731 0.847775 0.353573
O O10 0.868987 0.915067 0.370835
O O11 0.500000 0.158181 0.000000
O O12 0.250000 0.250000 0.000000
O O13 0.559649 0.000000 0.420252
O O14 0.740610 0.000000 0.477311
O O15 0.194280 0.500000 0.205981
O O16 0.001853 0.400835 0.303065
O O17 0.797724 0.587997 0.422725
#
# Coordination Sequence:
#
# PCOD9219466 Si02
#       8
#     8   8   8   8   4   8   4   8
#     4  11  23  38  61  94 134 166 210 271 333 387
#     4  11  20  38  64  92 122 169 217 258 324 391
#     4  12  25  41  65  96 134 175 217 274 332 386
#     4   9  20  38  64  90 123 169 214 258 315 381
#     4  11  25  47  71  95 131 179 223 267 327 393
#     4  11  23  38  61  94 133 167 211 269 331 390
#     4  11  25  47  71  95 131 179 223 267 325 399
#     4  12  25  41  65  96 134 175 218 273 332 387
#
# _framework density 20.140695999999998
#
# number of rings (size 3 to 8) (size 9 to 14) (size 15 to 20)
#    0.000    1.000    4.286    3.000    2.000    1.714 
#    0.000    0.000    0.000   17.143    0.000    0.000 
#    0.000    0.000    0.000    0.000    0.000    0.000 
#
# Total GULP energy -156259.840087 kJ/mol
# GULP energy per Si atom -5580.708575 kJ/mol
# Density = 2.009485 g / cm^3
# Si number density = 20.140696 Si / 1000 Ang^3
#
#
#
# Elastic Constant Matrix: (Units=GPa)
#
#
# Indices 1 2 3 4 5 6 
#
# 1 93.8634 20.2873 20.8978 0.0000 22.8314 0.0000
# 2 20.2873 111.4929 21.6370 0.0000 15.5405 0.0000
# 3 20.8978 21.6370 78.6493 0.0000 20.6457 0.0000
# 4 0.0000 0.0000 0.0000 -14.3272 0.0000 -4.1464
# 5 22.8314 15.5405 20.6457 0.0000 42.9744 0.0000
# 6 0.0000 0.0000 0.0000 -4.1464 0.0000 17.7791
#
#
#
# Elastic Compliance Matrix: (Units=1/GPa)
#
#
# Indices 1 2 3 4 5 6 
#
# 1 0.012605 -0.001222 -0.001569 0.000000 -0.005501 0.000000
# 2 -0.001222 0.009832 -0.001851 0.000000 -0.002017 0.000000
# 3 -0.001569 -0.001851 0.015158 0.000000 -0.005779 0.000000
# 4 0.000000 0.000000 0.000000 -0.065384 0.000000 -0.015249
# 5 -0.005501 -0.002017 -0.005779 0.000000 0.029698 0.000000
# 6 0.000000 0.000000 0.000000 -0.015249 0.000000 0.052690
#
#
# Mechanical properties :
#
#
# Convention : Reuss Voigt Hill
#
# Bulk Modulus (GPa) = 35.32182 45.51664 40.41923
# Shear Modulus (GPa) = 68.19442 24.03082 46.11262
#
# Velocity S-wave (km/s) = 5.82516 3.45794 4.79009
# Velocity P-wave (km/s) = 7.92584 6.21221 7.12076
#
# Compressibility (1/GPa) = 0.02831111
#
# Stress axis : x y z
#
# Youngs Moduli (GPa) = 79.33091 101.71001 65.97287
#
# Poissons Ratio (x) = 0.12433 0.10351
# Poissons Ratio (y) = 0.09698 0.12209
# Poissons Ratio (z) = 0.12447 0.18822
#
# Static dielectric constant tensor:
#      x y z
#    x 1.730690 0.000000 0.031040 
#    y 0.000000 1.746590 0.000000 
#    z 0.031040 0.000000 1.731250 
# 
# From -- ./inp_files/332891.got.cif
#   From: 2010.05.17/outbox.cif.g08.bks.cpg/sg12_167_cif.got.tgz:332891.got - 2010.06.03 13:09:07.
