data_PCOD9219597
_publ_section_title
;
Structure prediction by ZEFSAII (Michael W. Deem and Ramdas Pophale) SiO2 
 PCOD9219597
Probable space group: C 2/M
;
_chemical_formula_sum "Si O2"
_cell_formula_units_Z 36
_cell_length_a 11.315658
_cell_length_b 15.102701
_cell_length_c 10.284202
_cell_angle_alpha 90.000000
_cell_angle_beta 93.755397
_cell_angle_gamma 90.000000
_cell_volume 1753.765401
_symmetry_space_group_name_H-M "C 2/M"
_symmetry_group_IT_number 12
_symmetry_cell_setting 'monoclinic'
loop_
_space_group_symop_operation_xyz
x,y,z
-x,y,-z
-x,-y,-z
x,-y,z
1/2+x,1/2+y,z
1/2-x,1/2+y,-z
1/2-x,1/2-y,-z
1/2+x,1/2-y,z
loop_
_atom_site_type_symbol
_atom_site_label
_atom_site_fract_x
_atom_site_fract_y
_atom_site_fract_z
Si Si1 0.938171 0.161428 0.207044
Si Si2 0.392426 0.139195 0.246499
Si Si3 0.798373 0.000000 0.298333
Si Si4 0.561944 0.000000 0.144654
Si Si5 0.860666 0.500000 0.457199
Si Si6 0.837191 0.105726 0.925144
O O1 0.918927 0.258141 0.263673
O O2 0.073956 0.141526 0.179541
O O3 0.880525 0.085687 0.290679
O O4 0.872399 0.152130 0.062306
O O5 0.296213 0.125067 0.126025
O O6 0.510062 0.086257 0.213232
O O7 0.341574 0.086697 0.366757
O O8 0.702520 0.000000 0.172362
O O9 0.720606 0.000000 0.422584
O O10 0.500000 0.000000 0.000000
O O11 0.000000 0.500000 0.500000
O O12 0.857355 0.000000 0.937218
#
# Coordination Sequence:
#
# PCOD9219597 Si02
#       6
#     8   8   4   4   4   8
#     4  11  24  38  66 101 128 169 205 272 327 384
#     4  11  24  41  64  93 126 174 220 258 315 379
#     4  12  23  42  66  89 131 170 217 261 321 373
#     4  11  23  37  63  94 125 163 215 265 318 382
#     4  11  24  47  65  86 130 177 218 272 306 362
#     4  11  20  43  64  94 140 164 201 266 340 382
#
# _framework density 20.527260999999999
#
# number of rings (size 3 to 8) (size 9 to 14) (size 15 to 20)
#    0.000    0.889    6.667    2.667    6.222    0.889 
#    0.000    2.222    0.000    0.000    0.000    0.000 
#    0.000    0.000    0.000    0.000    0.000    0.000 
#
# Total GULP energy -100655.190364 kJ/mol
# GULP energy per Si atom -5591.955020 kJ/mol
# Density = 2.048054 g / cm^3
# Si number density = 20.527261 Si / 1000 Ang^3
#
#
#
# Elastic Constant Matrix: (Units=GPa)
#
#
# Indices 1 2 3 4 5 6 
#
# 1 56.3019 33.2872 -10.5460 0.0000 -15.0682 0.0000
# 2 33.2872 203.0968 36.9092 0.0000 -26.8227 0.0000
# 3 -10.5460 36.9092 59.1397 0.0000 -31.0052 0.0000
# 4 0.0000 0.0000 0.0000 4.2724 0.0000 12.0414
# 5 -15.0682 -26.8227 -31.0052 0.0000 40.6217 0.0000
# 6 0.0000 0.0000 0.0000 12.0414 0.0000 9.2935
#
#
#
# Elastic Compliance Matrix: (Units=1/GPa)
#
#
# Indices 1 2 3 4 5 6 
#
# 1 0.032597 -0.006152 0.023109 0.000000 0.025668 0.000000
# 2 -0.006152 0.006786 -0.006968 0.000000 -0.003120 0.000000
# 3 0.023109 -0.006968 0.045780 0.000000 0.038914 0.000000
# 4 0.000000 0.000000 0.000000 -0.088265 0.000000 0.114364
# 5 0.025668 -0.003120 0.038914 0.000000 0.061780 0.000000
# 6 0.000000 0.000000 0.000000 0.114364 0.000000 -0.040577
#
#
# Mechanical properties :
#
#
# Convention : Reuss Voigt Hill
#
# Bulk Modulus (GPa) = 9.51101 48.64882 29.07991
# Shear Modulus (GPa) = 150.73627 28.09672 89.41650
#
# Velocity S-wave (km/s) = 8.57856 3.70368 6.60715
# Velocity P-wave (km/s) = 10.13734 6.48388 8.50900
#
# Compressibility (1/GPa) = 0.10514130
#
# Stress axis : x y z
#
# Youngs Moduli (GPa) = 30.67772 147.35236 21.84355
#
# Poissons Ratio (x) = 0.90657 -0.50479
# Poissons Ratio (y) = 0.18874 0.15221
# Poissons Ratio (z) = -0.70894 1.02676
#
# Static dielectric constant tensor:
#      x y z
#    x 1.711790 0.000000 0.004370 
#    y 0.000000 1.701700 0.000000 
#    z 0.004370 0.000000 1.763380 
# 
# From -- ./inp_files/127898.got.cif
#   From: 2010.05.17/outbox.cif.g08.bks.cpg/sg12_64_cif.got.tgz:127898.got - 2010.06.03 13:09:07.
