data_PCOD9219156
_publ_section_title
;
Structure prediction by ZEFSAII (Michael W. Deem and Ramdas Pophale) SiO2 
 PCOD9219156
Probable space group: C 2/M
;
_chemical_formula_sum "Si O2"
_cell_formula_units_Z 44
_cell_length_a 14.895266
_cell_length_b 17.058674
_cell_length_c 19.571854
_cell_angle_alpha 90.000000
_cell_angle_beta 29.083588
_cell_angle_gamma 90.000000
_cell_volume 2417.340265
_symmetry_space_group_name_H-M "C 2/M"
_symmetry_group_IT_number 12
_symmetry_cell_setting 'monoclinic'
loop_
_space_group_symop_operation_xyz
x,y,z
-x,y,-z
-x,-y,-z
x,-y,z
1/2+x,1/2+y,z
1/2-x,1/2+y,-z
1/2-x,1/2-y,-z
1/2+x,1/2-y,z
loop_
_atom_site_type_symbol
_atom_site_label
_atom_site_fract_x
_atom_site_fract_y
_atom_site_fract_z
Si Si1 0.266932 0.094657 0.725009
Si Si2 0.500000 0.687578 0.000000
Si Si3 0.882151 0.588873 0.150004
Si Si4 0.820327 0.594832 0.531283
Si Si5 0.683427 0.801248 0.981813
Si Si6 0.446045 0.405610 0.722236
O O1 0.108280 0.135379 0.873461
O O2 0.263383 0.115503 0.646936
O O3 0.468621 0.120137 0.619177
O O4 0.252948 0.000000 0.738956
O O5 0.639197 0.743680 0.948297
O O6 0.884215 0.500000 0.175595
O O7 0.675081 0.611254 0.264932
O O8 0.000000 0.587396 0.000000
O O9 0.993971 0.650403 0.120765
O O10 0.826772 0.500000 0.525475
O O11 0.659498 0.618811 0.585972
O O12 0.837244 0.863246 0.855762
O O13 0.750000 0.750000 0.000000
O O14 0.434631 0.500000 0.738525
#
# Coordination Sequence:
#
# PCOD9219156 Si02
#       6
#     8   4   8   8   8   8
#     4   9  18  32  48  71 105 139 172 209 247 305
#     4  12  21  32  47  74 106 138 166 202 265 314
#     4   8  14  28  47  66  91 124 169 216 245 282
#     4   8  15  30  53  75  94 129 180 218 245 286
#     4  11  20  30  45  71 107 136 160 203 264 312
#     4   9  15  29  52  72  90 122 173 220 248 282
#
# _framework density 18.201823000000001
#
# number of rings (size 3 to 8) (size 9 to 14) (size 15 to 20)
#    0.000    2.727    2.727    4.091    0.000    0.000 
#    0.000    3.636    0.000    0.000    0.000    0.000 
#    0.000    5.818    0.000    4.727    0.000    0.000 
#
# Total GULP energy -122498.368600 kJ/mol
# GULP energy per Si atom -5568.107664 kJ/mol
# Density = 1.816040 g / cm^3
# Si number density = 18.201823 Si / 1000 Ang^3
#
#
#
# Elastic Constant Matrix: (Units=GPa)
#
#
# Indices 1 2 3 4 5 6 
#
# 1 79.0860 27.7032 -1.5566 0.0007 -26.1331 -0.0022
# 2 27.7032 51.0779 10.7432 -0.0086 -4.8071 0.0029
# 3 -1.5566 10.7432 48.5649 -0.0040 -14.4821 0.0008
# 4 0.0007 -0.0086 -0.0040 2.8141 0.0030 -4.2143
# 5 -26.1331 -4.8071 -14.4821 0.0030 27.7105 -0.0009
# 6 -0.0022 0.0029 0.0008 -4.2143 -0.0009 32.9024
#
#
#
# Elastic Compliance Matrix: (Units=1/GPa)
#
#
# Indices 1 2 3 4 5 6 
#
# 1 0.028867 -0.015580 0.013841 -0.000079 0.031755 -0.000006
# 2 -0.015580 0.028988 -0.011602 0.000109 -0.015727 0.000010
# 3 0.013841 -0.011602 0.031859 -0.000026 0.027691 -0.000001
# 4 -0.000079 0.000109 -0.000026 0.439686 -0.000116 0.056317
# 5 0.031755 -0.015727 0.027691 -0.000116 0.077779 -0.000010
# 6 -0.000006 0.000010 -0.000001 0.056317 -0.000010 0.037606
#
#
# Mechanical properties :
#
#
# Convention : Reuss Voigt Hill
#
# Bulk Modulus (GPa) = 15.86456 28.05648 21.96052
# Shear Modulus (GPa) = 7.22046 22.14136 14.68091
#
# Velocity S-wave (km/s) = 1.99387 3.49153 2.84309
# Velocity P-wave (km/s) = 3.74640 5.63045 4.78212
#
# Compressibility (1/GPa) = 0.06303360
#
# Stress axis : x y z
#
# Youngs Moduli (GPa) = 34.64104 34.49720 31.38879
#
# Poissons Ratio (x) = 0.53745 -0.43446
# Poissons Ratio (y) = 0.53969 0.36417
# Poissons Ratio (z) = -0.47947 0.40023
#
# Static dielectric constant tensor:
#      x y z
#    x 1.670930 0.000000 -0.041870 
#    y 0.000000 1.634820 0.000000 
#    z -0.041870 0.000000 1.620810 
# 
# From -- ./inp_files/61068.got.cif
#   From: 2010.05.17/outbox.cif.g08.bks.cpg/sg12_31_cif.got.tgz:61068.got - 2010.06.03 13:09:07.
