data_PCOD9219768
_publ_section_title
;
Structure prediction by ZEFSAII (Michael W. Deem and Ramdas Pophale) SiO2 
 PCOD9219768
Probable space group: C 2/M
;
_chemical_formula_sum "Si O2"
_cell_formula_units_Z 40
_cell_length_a 29.795442
_cell_length_b 8.485825
_cell_length_c 24.584347
_cell_angle_alpha 90.000000
_cell_angle_beta 161.023912
_cell_angle_gamma 90.000000
_cell_volume 2021.239392
_symmetry_space_group_name_H-M "C 2/M"
_symmetry_group_IT_number 12
_symmetry_cell_setting 'monoclinic'
loop_
_space_group_symop_operation_xyz
x,y,z
-x,y,-z
-x,-y,-z
x,-y,z
1/2+x,1/2+y,z
1/2-x,1/2+y,-z
1/2-x,1/2-y,-z
1/2+x,1/2-y,z
loop_
_atom_site_type_symbol
_atom_site_label
_atom_site_fract_x
_atom_site_fract_y
_atom_site_fract_z
Si Si1 0.631707 0.173253 0.613853
Si Si2 0.333542 0.188358 0.147591
Si Si3 0.319398 0.813218 0.919066
Si Si4 0.058040 0.188590 0.128186
Si Si5 0.367028 0.679034 0.491613
O O1 0.500000 0.159271 0.500000
O O2 0.751546 0.219812 0.791356
O O3 0.603968 0.309185 0.539463
O O4 0.656377 0.000000 0.616442
O O5 0.255028 0.255242 0.111189
O O6 0.493846 0.241811 0.325779
O O7 0.330882 0.000000 0.148147
O O8 0.250000 0.250000 0.000000
O O9 0.299132 0.000000 0.891636
O O10 0.477198 0.770503 0.085778
O O11 0.218013 0.236145 0.321283
O O12 0.042182 0.000000 0.112909
O O13 0.000000 0.235769 0.000000
O O14 0.355334 0.500000 0.497385
#
# Coordination Sequence:
#
# PCOD9219768 Si02
#       5
#     8   8   8   8   8
#     4  11  21  34  57  90 128 167 207 257 318 378
#     4  12  26  47  70  93 124 166 218 268 318 372
#     4  12  24  39  63  95 130 167 211 262 318 378
#     4  11  23  39  62  93 135 176 210 253 319 387
#     4  12  24  39  63  95 130 167 211 262 318 378
#
# _framework density 19.789838
#
# number of rings (size 3 to 8) (size 9 to 14) (size 15 to 20)
#    0.000    0.400    4.000    6.600    0.000    1.600 
#    0.000    1.000    0.000    0.000    0.000    0.000 
#    0.000    0.000    0.000    0.000    0.000    0.000 
#
# Total GULP energy -111532.897417 kJ/mol
# GULP energy per Si atom -5576.644871 kJ/mol
# Density = 1.974480 g / cm^3
# Si number density = 19.789838 Si / 1000 Ang^3
#
#
#
# Elastic Constant Matrix: (Units=GPa)
#
#
# Indices 1 2 3 4 5 6 
#
# 1 33.6486 12.2872 36.5876 0.0002 12.9463 0.0002
# 2 12.2872 104.4595 23.5542 0.0002 19.8977 0.0002
# 3 36.5876 23.5542 137.3935 0.0003 15.5546 0.0003
# 4 0.0002 0.0002 0.0003 29.6640 0.0001 2.4190
# 5 12.9463 19.8977 15.5546 0.0001 32.6587 0.0001
# 6 0.0002 0.0002 0.0003 2.4190 0.0001 29.2836
#
#
#
# Elastic Compliance Matrix: (Units=1/GPa)
#
#
# Indices 1 2 3 4 5 6 
#
# 1 0.046766 -0.000569 -0.010883 0.000000 -0.013008 0.000000
# 2 -0.000569 0.011019 -0.001060 0.000000 -0.005983 0.000000
# 3 -0.010883 -0.001060 0.010355 0.000000 0.000028 0.000000
# 4 0.000000 0.000000 0.000000 0.033940 0.000000 -0.002804
# 5 -0.013008 -0.005983 0.000028 0.000000 0.039408 0.000000
# 6 0.000000 0.000000 0.000000 -0.002804 0.000000 0.034380
#
#
# Mechanical properties :
#
#
# Convention : Reuss Voigt Hill
#
# Bulk Modulus (GPa) = 23.19410 46.70662 34.95036
# Shear Modulus (GPa) = 23.22734 31.85942 27.54338
#
# Velocity S-wave (km/s) = 3.42965 4.01669 3.73472
# Velocity P-wave (km/s) = 5.23727 6.72044 6.02467
#
# Compressibility (1/GPa) = 0.04311441
#
# Stress axis : x y z
#
# Youngs Moduli (GPa) = 21.38328 90.75489 96.57053
#
# Poissons Ratio (x) = 0.05164 1.05101
# Poissons Ratio (y) = 0.01217 0.10238
# Poissons Ratio (z) = 0.23272 0.09621
#
# Static dielectric constant tensor:
#      x y z
#    x 1.733650 0.000000 0.063280 
#    y 0.000000 1.685920 0.000000 
#    z 0.063280 0.000000 1.770780 
# 
# From -- ./inp_files/353125.got.cif
#   From: 2010.05.17/outbox.cif.g08.bks.cpg/sg12_177_cif.got.tgz:353125.got - 2010.06.03 13:09:07.
