data_PCOD9219193
_publ_section_title
;
Structure prediction by ZEFSAII (Michael W. Deem and Ramdas Pophale) SiO2 
 PCOD9219193
Probable space group: C 2/M
;
_chemical_formula_sum "Si O2"
_cell_formula_units_Z 64
_cell_length_a 10.194331
_cell_length_b 23.031182
_cell_length_c 22.985935
_cell_angle_alpha 90.000000
_cell_angle_beta 44.595062
_cell_angle_gamma 90.000000
_cell_volume 3789.055457
_symmetry_space_group_name_H-M "C 2/M"
_symmetry_group_IT_number 12
_symmetry_cell_setting 'monoclinic'
loop_
_space_group_symop_operation_xyz
x,y,z
-x,y,-z
-x,-y,-z
x,-y,z
1/2+x,1/2+y,z
1/2-x,1/2+y,-z
1/2-x,1/2-y,-z
1/2+x,1/2-y,z
loop_
_atom_site_type_symbol
_atom_site_label
_atom_site_fract_x
_atom_site_fract_y
_atom_site_fract_z
Si Si1 0.966378 0.237903 0.942619
Si Si2 0.078037 0.163832 0.804264
Si Si3 0.425410 0.840520 0.459764
Si Si4 0.996700 0.864634 0.569416
Si Si5 0.235810 0.431441 0.325030
Si Si6 0.900290 0.066214 0.707406
Si Si7 0.229490 0.827221 0.190185
Si Si8 0.123033 0.755478 0.330349
O O1 0.045087 0.183753 0.880360
O O2 0.082848 0.292976 0.882003
O O3 0.750000 0.250000 0.000000
O O4 0.000000 0.230203 0.000000
O O5 0.184214 0.104086 0.755784
O O6 0.196873 0.214700 0.734788
O O7 0.880153 0.163205 0.834674
O O8 0.500000 0.822280 0.500000
O O9 0.206640 0.852741 0.526035
O O10 0.550800 0.896923 0.403688
O O11 0.466738 0.789312 0.400820
O O12 0.000000 0.875889 0.500000
O O13 0.922377 0.916358 0.633287
O O14 0.875074 0.807404 0.623514
O O15 0.204795 0.500000 0.325582
O O16 0.400074 0.425367 0.322012
O O17 0.758273 0.111300 0.781645
O O18 0.845737 0.000000 0.732106
O O19 0.105586 0.788064 0.274027
#
# Coordination Sequence:
#
# PCOD9219193 Si02
#       8
#     8   8   8   8   8   8   8   8
#     4  11  20  34  56  83 113 134 152 195 249 302
#     4   9  18  33  52  78 104 133 169 201 245 305
#     4  11  20  32  48  71  99 132 177 223 260 297
#     4  11  22  32  45  71 102 136 172 217 268 304
#     4   9  18  34  55  74  95 132 180 219 247 286
#     4   9  18  35  54  71  98 137 176 214 251 289
#     4   9  18  33  52  78 104 133 169 203 242 306
#     4   9  20  30  48  70 102 139 170 209 258 307
#
# _framework density 16.890753
#
# number of rings (size 3 to 8) (size 9 to 14) (size 15 to 20)
#    0.000    2.250    2.500    0.750    3.500    1.000 
#    0.000    0.000    0.000    1.500    0.000    0.000 
#    0.000    0.000    0.000    0.000    0.000    0.000 
#
# Total GULP energy -178299.160781 kJ/mol
# GULP energy per Si atom -5571.848774 kJ/mol
# Density = 1.685231 g / cm^3
# Si number density = 16.890753 Si / 1000 Ang^3
#
#
#
# Elastic Constant Matrix: (Units=GPa)
#
#
# Indices 1 2 3 4 5 6 
#
# 1 52.5458 14.1871 31.0681 -0.0001 18.8940 -0.0004
# 2 14.1871 115.2345 44.7010 0.0000 15.1082 -0.0001
# 3 31.0681 44.7010 93.9371 0.0000 19.4379 0.0000
# 4 -0.0001 0.0000 0.0000 15.6981 0.0000 -1.9292
# 5 18.8940 15.1082 19.4379 0.0000 26.5281 0.0000
# 6 -0.0004 -0.0001 0.0000 -1.9292 0.0000 12.3387
#
#
#
# Elastic Compliance Matrix: (Units=1/GPa)
#
#
# Indices 1 2 3 4 5 6 
#
# 1 0.028404 0.001180 -0.006637 0.000000 -0.016039 0.000001
# 2 0.001180 0.010867 -0.004841 0.000000 -0.003483 0.000000
# 3 -0.006637 -0.004841 0.016025 0.000000 -0.004258 0.000000
# 4 0.000000 0.000000 0.000000 0.064950 0.000000 0.010155
# 5 -0.016039 -0.003483 -0.004258 0.000000 0.054223 -0.000001
# 6 0.000001 0.000000 0.000000 0.010155 -0.000001 0.082634
#
#
# Mechanical properties :
#
#
# Convention : Reuss Voigt Hill
#
# Bulk Modulus (GPa) = 28.81759 49.06998 38.94379
# Shear Modulus (GPa) = 17.28524 22.36373 19.82448
#
# Velocity S-wave (km/s) = 3.20246 3.64266 3.42963
# Velocity P-wave (km/s) = 5.54730 6.84152 6.22812
#
# Compressibility (1/GPa) = 0.03470103
#
# Stress axis : x y z
#
# Youngs Moduli (GPa) = 35.20682 92.02080 62.40166
#
# Poissons Ratio (x) = -0.10863 0.41415
# Poissons Ratio (y) = -0.04156 0.30209
# Poissons Ratio (z) = 0.23366 0.44547
#
# Static dielectric constant tensor:
#      x y z
#    x 1.573370 0.000000 0.004430 
#    y 0.000000 1.569990 0.000000 
#    z 0.004430 0.000000 1.580350 
# 
# From -- ./inp_files/208428.got.cif
#   From: 2010.05.17/outbox.cif.g08.bks.cpg/sg12_105_cif.got.tgz:208428.got - 2010.06.03 13:09:07.
