data_PCOD9219757
_publ_section_title
;
Structure prediction by ZEFSAII (Michael W. Deem and Ramdas Pophale) SiO2 
 PCOD9219757
Probable space group: C 2/M
;
_chemical_formula_sum "Si O2"
_cell_formula_units_Z 48
_cell_length_a 20.987194
_cell_length_b 8.433025
_cell_length_c 19.912434
_cell_angle_alpha 90.000000
_cell_angle_beta 130.643473
_cell_angle_gamma 90.000000
_cell_volume 2674.092667
_symmetry_space_group_name_H-M "C 2/M"
_symmetry_group_IT_number 12
_symmetry_cell_setting 'monoclinic'
loop_
_space_group_symop_operation_xyz
x,y,z
-x,y,-z
-x,-y,-z
x,-y,z
1/2+x,1/2+y,z
1/2-x,1/2+y,-z
1/2-x,1/2-y,-z
1/2+x,1/2-y,z
loop_
_atom_site_type_symbol
_atom_site_label
_atom_site_fract_x
_atom_site_fract_y
_atom_site_fract_z
Si Si1 0.779677 0.188555 0.730594
Si Si2 0.220242 0.190367 0.551494
Si Si3 0.739895 0.191128 0.068366
Si Si4 0.862767 0.808277 0.268151
Si Si5 0.030484 0.193215 0.447099
Si Si6 0.596311 0.808132 0.072498
O O1 0.775754 0.248652 0.651733
O O2 0.696735 0.252826 0.711892
O O3 0.857735 0.249629 0.828528
O O4 0.778939 0.000000 0.731159
O O5 0.250000 0.250000 0.500000
O O6 0.124352 0.247309 0.496990
O O7 0.220862 0.000000 0.553314
O O8 0.817538 0.244096 0.168787
O O9 0.655539 0.242030 0.050454
O O10 0.739439 0.000000 0.067054
O O11 0.750000 0.250000 0.000000
O O12 0.958000 0.755686 0.345662
O O13 0.861646 0.000000 0.268424
O O14 0.000000 0.241974 0.500000
O O15 0.032296 0.000000 0.447833
O O16 0.597034 0.000000 0.074313
O O17 0.500000 0.754946 0.000000
#
# Coordination Sequence:
#
# PCOD9219757 Si02
#       6
#     8   8   8   8   8   8
#     4  11  21  34  55  83 112 143 181 225 275 327
#     4  11  22  38  57  79 113 148 183 226 276 328
#     4   9  18  32  53  78 108 139 170 214 270 323
#     4   9  17  34  57  80 103 140 186 223 267 320
#     4   9  16  31  59  83 100 135 184 225 264 319
#     4   9  19  38  61  80 103 141 187 227 270 325
#
# _framework density 17.950015
#
# number of rings (size 3 to 8) (size 9 to 14) (size 15 to 20)
#    0.000    2.333    1.667    3.000    0.000    3.000 
#    3.000    2.500    0.000    0.000    0.000    0.000 
#    0.000    0.000    0.000    0.000    0.000    0.000 
#
# Total GULP energy -133867.130499 kJ/mol
# GULP energy per Si atom -5577.797104 kJ/mol
# Density = 1.790916 g / cm^3
# Si number density = 17.950015 Si / 1000 Ang^3
#
#
#
# Elastic Constant Matrix: (Units=GPa)
#
#
# Indices 1 2 3 4 5 6 
#
# 1 120.6798 15.3582 100.4521 0.0000 -1.1150 0.0000
# 2 15.3582 15.3578 22.9475 0.0000 1.8233 0.0000
# 3 100.4521 22.9475 167.6423 0.0000 -4.5888 0.0000
# 4 0.0000 0.0000 0.0000 16.6444 0.0000 -15.1203
# 5 -1.1150 1.8233 -4.5888 0.0000 38.3819 0.0000
# 6 0.0000 0.0000 0.0000 -15.1203 0.0000 18.0430
#
#
#
# Elastic Compliance Matrix: (Units=1/GPa)
#
#
# Indices 1 2 3 4 5 6 
#
# 1 0.016603 -0.002070 -0.009681 0.000000 -0.000577 0.000000
# 2 -0.002070 0.083180 -0.010289 0.000000 -0.005242 0.000000
# 3 -0.009681 -0.010289 0.013223 0.000000 0.001789 0.000000
# 4 0.000000 0.000000 0.000000 0.251676 0.000000 0.210909
# 5 -0.000577 -0.005242 0.001789 0.000000 0.026500 0.000000
# 6 0.000000 0.000000 0.000000 0.210909 0.000000 0.232169
#
#
# Mechanical properties :
#
#
# Convention : Reuss Voigt Hill
#
# Bulk Modulus (GPa) = 14.50826 64.57728 39.54277
# Shear Modulus (GPa) = 7.24211 25.60865 16.42538
#
# Velocity S-wave (km/s) = 2.01081 3.78122 3.02828
# Velocity P-wave (km/s) = 3.67305 7.42413 5.85701
#
# Compressibility (1/GPa) = 0.06892626
#
# Stress axis : x y z
#
# Youngs Moduli (GPa) = 60.23110 12.02214 75.62373
#
# Poissons Ratio (x) = 0.02488 0.73211
# Poissons Ratio (y) = 0.12465 0.77812
# Poissons Ratio (z) = 0.58309 0.12370
#
# Static dielectric constant tensor:
#      x y z
#    x 1.596380 0.000000 0.018560 
#    y 0.000000 1.618820 0.000000 
#    z 0.018560 0.000000 1.623290 
# 
# From -- ./inp_files/281826.got.cif
#   From: 2010.05.17/outbox.cif.g08.bks.cpg/sg12_141_cif.got.tgz:281826.got - 2010.06.03 13:09:07.
