data_PCOD9219031
_publ_section_title
;
Structure prediction by ZEFSAII (Michael W. Deem and Ramdas Pophale) SiO2 
 PCOD9219031
Probable space group: C 2/M
;
_chemical_formula_sum "Si O2"
_cell_formula_units_Z 44
_cell_length_a 15.071709
_cell_length_b 25.167670
_cell_length_c 17.369777
_cell_angle_alpha 90.000000
_cell_angle_beta 158.302744
_cell_angle_gamma 90.000000
_cell_volume 2435.857389
_symmetry_space_group_name_H-M "C 2/M"
_symmetry_group_IT_number 12
_symmetry_cell_setting 'monoclinic'
loop_
_space_group_symop_operation_xyz
x,y,z
-x,y,-z
-x,-y,-z
x,-y,z
1/2+x,1/2+y,z
1/2-x,1/2+y,-z
1/2-x,1/2-y,-z
1/2+x,1/2-y,z
loop_
_atom_site_type_symbol
_atom_site_label
_atom_site_fract_x
_atom_site_fract_y
_atom_site_fract_z
Si Si1 0.094034 0.364708 0.326170
Si Si2 0.133306 0.192566 0.904546
Si Si3 0.390782 0.821707 0.490649
Si Si4 0.968326 0.797425 0.355139
Si Si5 0.500000 0.864147 0.000000
Si Si6 0.276029 0.062572 0.695319
O O1 0.102760 0.356377 0.425580
O O2 0.268523 0.322881 0.421017
O O3 0.183306 0.419297 0.360201
O O4 0.824259 0.350321 0.085242
O O5 0.063029 0.188755 0.759407
O O6 0.886909 0.190006 0.751626
O O7 0.250000 0.250000 0.000000
O O8 0.500000 0.844003 0.500000
O O9 0.514610 0.764751 0.611324
O O10 0.733749 0.826482 0.198476
O O11 0.464324 0.903731 0.898710
O O12 0.000000 0.073900 0.500000
O O13 0.314809 0.000000 0.736522
#
# Coordination Sequence:
#
# PCOD9219031 Si02
#       6
#     8   8   8   8   4   8
#     4  11  21  40  56  80 118 156 198 240 290 339
#     4  11  19  36  55  76 115 159 192 235 279 341
#     4  11  25  35  53  87 121 158 201 233 279 350
#     4  11  22  32  53  85 118 159 191 228 281 352
#     4  12  23  34  58  88 124 154 193 234 292 356
#     4  11  24  41  62  87 116 152 197 248 301 353
#
# _framework density 18.063455999999999
#
# number of rings (size 3 to 8) (size 9 to 14) (size 15 to 20)
#    0.000    0.909    7.273    1.364    5.091    0.727 
#    0.000    0.000    0.000    0.545    0.000    1.273 
#    0.000    0.000    0.000    0.000    0.000    0.000 
#
# Total GULP energy -122535.306154 kJ/mol
# GULP energy per Si atom -5569.786643 kJ/mol
# Density = 1.802234 g / cm^3
# Si number density = 18.063456 Si / 1000 Ang^3
#
#
#
# Elastic Constant Matrix: (Units=GPa)
#
#
# Indices 1 2 3 4 5 6 
#
# 1 114.6060 32.0311 37.4495 -0.0001 9.3653 0.0000
# 2 32.0311 52.3338 27.8249 -0.0001 10.8114 0.0000
# 3 37.4495 27.8249 93.7422 -0.0039 13.1253 -0.0013
# 4 -0.0001 -0.0001 -0.0039 17.2528 -0.0006 3.2151
# 5 9.3653 10.8114 13.1253 -0.0006 23.2388 -0.0003
# 6 0.0000 0.0000 -0.0013 3.2151 -0.0003 22.1684
#
#
#
# Elastic Compliance Matrix: (Units=1/GPa)
#
#
# Indices 1 2 3 4 5 6 
#
# 1 0.011150 -0.005219 -0.002841 -0.000001 -0.000461 0.000000
# 2 -0.005219 0.026343 -0.004683 -0.000001 -0.007507 0.000000
# 3 -0.002841 -0.004683 0.013820 0.000003 -0.004482 0.000000
# 4 -0.000001 -0.000001 0.000003 0.059571 0.000001 -0.008640
# 5 -0.000461 -0.007507 -0.004482 0.000001 0.049241 0.000000
# 6 0.000000 0.000000 0.000000 -0.008640 0.000000 0.046362
#
#
# Mechanical properties :
#
#
# Convention : Reuss Voigt Hill
#
# Bulk Modulus (GPa) = 38.71810 50.58808 44.65309
# Shear Modulus (GPa) = 20.78282 23.42379 22.10330
#
# Velocity S-wave (km/s) = 3.39565 3.60495 3.50186
# Velocity P-wave (km/s) = 6.07083 6.73751 6.41284
#
# Compressibility (1/GPa) = 0.02582772
#
# Stress axis : x y z
#
# Youngs Moduli (GPa) = 89.68530 37.96039 72.35857
#
# Poissons Ratio (x) = 0.19811 0.20555
# Poissons Ratio (y) = 0.46805 0.33887
# Poissons Ratio (z) = 0.25478 0.17778
#
# Static dielectric constant tensor:
#      x y z
#    x 1.645140 0.000000 0.041290 
#    y 0.000000 1.571290 0.000000 
#    z 0.041290 0.000000 1.643430 
# 
# From -- ./inp_files/12094.got.cif
#   From: 2010.05.17/outbox.cif.g08.bks.cpg/sg12_7_cif.got.tgz:12094.got - 2010.06.03 13:09:07.
