data_PCOD9219950
_publ_section_title
;
Structure prediction by ZEFSAII (Michael W. Deem and Ramdas Pophale) SiO2 
 PCOD9219950
Probable space group: C 2/M
;
_chemical_formula_sum "Si O2"
_cell_formula_units_Z 36
_cell_length_a 15.088034
_cell_length_b 17.850566
_cell_length_c 14.237565
_cell_angle_alpha 90.000000
_cell_angle_beta 27.587086
_cell_angle_gamma 90.000000
_cell_volume 1775.790211
_symmetry_space_group_name_H-M "C 2/M"
_symmetry_group_IT_number 12
_symmetry_cell_setting 'monoclinic'
loop_
_space_group_symop_operation_xyz
x,y,z
-x,y,-z
-x,-y,-z
x,-y,z
1/2+x,1/2+y,z
1/2-x,1/2+y,-z
1/2-x,1/2-y,-z
1/2+x,1/2-y,z
loop_
_atom_site_type_symbol
_atom_site_label
_atom_site_fract_x
_atom_site_fract_y
_atom_site_fract_z
Si Si1 0.000000 0.291577 0.500000
Si Si2 0.357268 0.309337 0.465272
Si Si3 0.438967 0.914359 0.311495
Si Si4 0.880098 0.089071 0.910813
Si Si5 0.279794 0.584996 0.280320
O O1 0.949674 0.237455 0.461523
O O2 0.821477 0.348486 0.680134
O O3 0.250000 0.250000 0.500000
O O4 0.183122 0.366649 0.647799
O O5 0.515496 0.357698 0.261838
O O6 0.330737 0.912145 0.514073
O O7 0.440843 0.000000 0.279147
O O8 0.657426 0.890843 0.122094
O O9 0.000562 0.096454 0.894587
O O10 0.898209 0.000000 0.870049
O O11 0.251261 0.500000 0.269538
#
# Coordination Sequence:
#
# PCOD9219950 Si02
#       5
#     4   8   8   8   8
#     4  12  21  36  53  86 118 148 180 220 279 336
#     4  11  21  37  55  82 118 147 180 224 280 329
#     4   9  18  37  62  81 105 147 191 229 272 323
#     4   9  18  37  62  81 105 147 191 229 272 323
#     4   9  18  35  57  83 112 144 182 226 275 335
#
# _framework density 20.272663999999999
#
# number of rings (size 3 to 8) (size 9 to 14) (size 15 to 20)
#    0.000    2.222    4.444    2.333    0.000    0.889 
#    0.000    6.667    0.000    8.000    0.000    0.000 
#    0.000    0.000    0.000    0.000    0.000    0.000 
#
# Total GULP energy -100489.014320 kJ/mol
# GULP energy per Si atom -5582.723018 kJ/mol
# Density = 2.022652 g / cm^3
# Si number density = 20.272664 Si / 1000 Ang^3
#
#
#
# Elastic Constant Matrix: (Units=GPa)
#
#
# Indices 1 2 3 4 5 6 
#
# 1 130.9053 86.1934 37.3348 -0.0106 -20.2399 0.0032
# 2 86.1934 123.9902 56.9371 -0.0079 -18.0350 0.0091
# 3 37.3348 56.9371 115.5673 -0.0241 -34.1245 0.0170
# 4 -0.0106 -0.0079 -0.0241 21.1810 0.0110 -18.6848
# 5 -20.2399 -18.0350 -34.1245 0.0110 28.6257 -0.0059
# 6 0.0032 0.0091 0.0170 -18.6848 -0.0059 48.4119
#
#
#
# Elastic Compliance Matrix: (Units=1/GPa)
#
#
# Indices 1 2 3 4 5 6 
#
# 1 0.014888 -0.010436 0.002313 0.000005 0.006709 0.000003
# 2 -0.010436 0.017747 -0.006558 -0.000007 -0.004015 -0.000004
# 3 0.002313 -0.006558 0.016049 0.000009 0.016635 0.000001
# 4 0.000005 -0.000007 0.000009 0.071584 -0.000012 0.027628
# 5 0.006709 -0.004015 0.016635 -0.000012 0.056978 -0.000003
# 6 0.000003 -0.000004 0.000001 0.027628 -0.000003 0.031319
#
#
# Mechanical properties :
#
#
# Convention : Reuss Voigt Hill
#
# Bulk Modulus (GPa) = 51.75372 81.26594 66.50983
# Shear Modulus (GPa) = 20.46087 32.31023 26.38555
#
# Velocity S-wave (km/s) = 3.18037 3.99655 3.61159
# Velocity P-wave (km/s) = 6.25065 7.84028 7.09016
#
# Compressibility (1/GPa) = 0.01932228
#
# Stress axis : x y z
#
# Youngs Moduli (GPa) = 67.16696 56.34684 62.31051
#
# Poissons Ratio (x) = 0.58803 -0.14411
# Poissons Ratio (y) = 0.70095 0.40862
# Poissons Ratio (z) = -0.15534 0.36951
#
# Static dielectric constant tensor:
#      x y z
#    x 1.736240 -0.000010 -0.001170 
#    y -0.000010 1.765380 0.000020 
#    z -0.001170 0.000020 1.786190 
# 
# From -- ./inp_files/216178.got.cif
#   From: 2010.05.17/outbox.cif.g08.bks.cpg/sg12_109_cif.got.tgz:216178.got - 2010.06.03 13:09:07.
