data_PCOD9219541
_publ_section_title
;
Structure prediction by ZEFSAII (Michael W. Deem and Ramdas Pophale) SiO2 
 PCOD9219541
Probable space group: C 2/M
;
_chemical_formula_sum "Si O2"
_cell_formula_units_Z 40
_cell_length_a 24.698455
_cell_length_b 18.329659
_cell_length_c 8.736848
_cell_angle_alpha 90.000000
_cell_angle_beta 30.933680
_cell_angle_gamma 90.000000
_cell_volume 2033.202160
_symmetry_space_group_name_H-M "C 2/M"
_symmetry_group_IT_number 12
_symmetry_cell_setting 'monoclinic'
loop_
_space_group_symop_operation_xyz
x,y,z
-x,y,-z
-x,-y,-z
x,-y,z
1/2+x,1/2+y,z
1/2-x,1/2+y,-z
1/2-x,1/2-y,-z
1/2+x,1/2-y,z
loop_
_atom_site_type_symbol
_atom_site_label
_atom_site_fract_x
_atom_site_fract_y
_atom_site_fract_z
Si Si1 0.422462 0.717440 0.321745
Si Si2 0.077858 0.224751 0.182044
Si Si3 0.215259 0.650223 0.683695
Si Si4 0.875305 0.500000 0.974148
Si Si5 0.286064 0.851550 0.683511
Si Si6 0.875307 0.500000 0.607612
O O1 0.500241 0.681697 0.255629
O O2 0.330028 0.669425 0.473392
O O3 0.367121 0.787583 0.531364
O O4 0.500000 0.743369 0.000000
O O5 0.000000 0.254566 0.500000
O O6 0.136909 0.288841 0.945222
O O7 0.170534 0.173083 0.018868
O O8 0.217061 0.651717 0.494947
O O9 0.177048 0.572010 0.830856
O O10 0.861238 0.500000 0.824956
O O11 0.998606 0.500000 0.719596
O O12 0.324606 0.928152 0.654793
#
# Coordination Sequence:
#
# PCOD9219541 Si02
#       6
#     8   8   8   4   8   4
#     4  11  20  40  67  94 126 159 208 261 304 365
#     4  11  24  38  66  98 127 161 206 259 316 359
#     4  11  23  41  66  94 125 165 214 249 307 376
#     4  11  27  43  61  93 125 166 204 260 314 365
#     4  11  23  42  65  95 123 167 211 253 304 379
#     4  11  27  43  63  89 132 160 207 260 315 361
#
# _framework density 19.673400999999998
#
# number of rings (size 3 to 8) (size 9 to 14) (size 15 to 20)
#    0.000    1.000    4.000    3.000    8.400    2.400 
#    0.000    2.000    0.000    0.000    0.000    0.000 
#    0.000    0.000    0.000    0.000    0.000    0.000 
#
# Total GULP energy -111751.632783 kJ/mol
# GULP energy per Si atom -5587.581639 kJ/mol
# Density = 1.962862 g / cm^3
# Si number density = 19.673401 Si / 1000 Ang^3
#
#
#
# Elastic Constant Matrix: (Units=GPa)
#
#
# Indices 1 2 3 4 5 6 
#
# 1 72.9091 29.1422 42.8496 0.0000 -24.7393 0.0000
# 2 29.1422 121.5597 43.4262 0.0000 -19.5252 0.0000
# 3 42.8496 43.4262 125.7250 0.0000 -21.7108 0.0000
# 4 0.0000 0.0000 0.0000 10.5521 0.0000 -1.5955
# 5 -24.7393 -19.5252 -21.7108 0.0000 31.0944 0.0000
# 6 0.0000 0.0000 0.0000 -1.5955 0.0000 13.4004
#
#
#
# Elastic Compliance Matrix: (Units=1/GPa)
#
#
# Indices 1 2 3 4 5 6 
#
# 1 0.021338 -0.001415 -0.004555 0.000000 0.012908 0.000000
# 2 -0.001415 0.009968 -0.002359 0.000000 0.003487 0.000000
# 3 -0.004555 -0.002359 0.010734 0.000000 0.002389 0.000000
# 4 0.000000 0.000000 0.000000 0.096505 0.000000 0.011490
# 5 0.012908 0.003487 0.002389 0.000000 0.046288 0.000000
# 6 0.000000 0.000000 0.000000 0.011490 0.000000 0.075993
#
#
# Mechanical properties :
#
#
# Convention : Reuss Voigt Hill
#
# Bulk Modulus (GPa) = 39.39620 61.22555 50.31088
# Shear Modulus (GPa) = 17.48595 24.66109 21.07352
#
# Velocity S-wave (km/s) = 2.98453 3.54436 3.27642
# Velocity P-wave (km/s) = 5.65200 6.92376 6.31995
#
# Compressibility (1/GPa) = 0.02538316
#
# Stress axis : x y z
#
# Youngs Moduli (GPa) = 46.86438 100.31774 93.16594
#
# Poissons Ratio (x) = 0.14195 0.42434
# Poissons Ratio (y) = 0.06632 0.21976
# Poissons Ratio (z) = 0.21345 0.23662
#
# Static dielectric constant tensor:
#      x y z
#    x 1.734660 0.000000 0.016370 
#    y 0.000000 1.640770 0.000000 
#    z 0.016370 0.000000 1.694960 
# 
# From -- ./inp_files/46984.got.cif
#   From: 2010.05.17/outbox.cif.g08.bks.cpg/sg12_24_cif.got.tgz:46984.got - 2010.06.03 13:09:07.
