data_PCOD9220175
_publ_section_title
;
Structure prediction by ZEFSAII (Michael W. Deem and Ramdas Pophale) SiO2 
 PCOD9220175
Probable space group: C 2/M
;
_chemical_formula_sum "Si O2"
_cell_formula_units_Z 60
_cell_length_a 21.257661
_cell_length_b 22.818954
_cell_length_c 12.186513
_cell_angle_alpha 90.000000
_cell_angle_beta 151.233092
_cell_angle_gamma 90.000000
_cell_volume 2844.848384
_symmetry_space_group_name_H-M "C 2/M"
_symmetry_group_IT_number 12
_symmetry_cell_setting 'monoclinic'
loop_
_space_group_symop_operation_xyz
x,y,z
-x,y,-z
-x,-y,-z
x,-y,z
1/2+x,1/2+y,z
1/2-x,1/2+y,-z
1/2-x,1/2-y,-z
1/2+x,1/2-y,z
loop_
_atom_site_type_symbol
_atom_site_label
_atom_site_fract_x
_atom_site_fract_y
_atom_site_fract_z
Si Si1 0.500000 0.766792 0.000000
Si Si2 0.052807 0.663153 0.285938
Si Si3 0.729247 0.568502 0.368612
Si Si4 0.109233 0.062432 0.762813
Si Si5 0.629786 0.781583 0.630103
Si Si6 0.402478 0.395003 0.609439
Si Si7 0.882410 0.832473 0.957630
Si Si8 0.742740 0.347667 0.822934
O O1 0.574905 0.806623 0.202439
O O2 0.602009 0.724051 0.095824
O O3 0.131602 0.602246 0.414973
O O4 0.098622 0.704047 0.455832
O O5 0.897558 0.657252 0.057351
O O6 0.735042 0.500000 0.346648
O O7 0.666479 0.574304 0.393875
O O8 0.645541 0.609523 0.157447
O O9 0.199857 0.114714 0.862444
O O10 0.000000 0.060898 0.500000
O O11 0.025312 0.070886 0.743984
O O12 0.179306 0.000000 0.872325
O O13 0.500000 0.796383 0.500000
O O14 0.760206 0.820171 0.849878
O O15 0.670563 0.714823 0.714819
O O16 0.305867 0.379720 0.362653
O O17 0.477921 0.338188 0.770724
#
# Coordination Sequence:
#
# PCOD9220175 Si02
#       8
#     4   8   8   8   8   8   8   8
#     4  12  20  44  64 102 132 168 222 268 340 394
#     4  11  26  42  68  95 136 180 217 274 335 408
#     4  11  25  43  64  96 135 177 225 273 330 398
#     4   9  20  37  58  87 123 165 213 264 324 384
#     4  11  25  42  65  97 134 174 219 276 333 401
#     4  11  21  39  66  96 127 170 220 274 332 384
#     4  11  24  40  69  99 130 174 216 281 330 398
#     4  11  23  40  63  96 129 172 217 277 327 398
#
# _framework density 21.090754
#
# number of rings (size 3 to 8) (size 9 to 14) (size 15 to 20)
#    0.000    1.200    2.667    3.200    1.867    4.267 
#    0.000    2.333    0.000    1.600    0.000    0.000 
#    0.000    0.000    0.000    0.000    0.000    0.000 
#
# Total GULP energy -167627.140620 kJ/mol
# GULP energy per Si atom -5587.571354 kJ/mol
# Density = 2.104275 g / cm^3
# Si number density = 21.090754 Si / 1000 Ang^3
#
#
#
# Elastic Constant Matrix: (Units=GPa)
#
#
# Indices 1 2 3 4 5 6 
#
# 1 88.0262 35.6140 9.1806 0.0000 12.2571 0.0000
# 2 35.6140 122.4188 19.7596 0.0000 2.4513 0.0000
# 3 9.1806 19.7596 76.5005 0.0000 13.3543 0.0000
# 4 0.0000 0.0000 0.0000 13.9025 0.0000 3.5775
# 5 12.2571 2.4513 13.3543 0.0000 36.5614 0.0000
# 6 0.0000 0.0000 0.0000 3.5775 0.0000 15.6940
#
#
#
# Elastic Compliance Matrix: (Units=1/GPa)
#
#
# Indices 1 2 3 4 5 6 
#
# 1 0.013512 -0.003865 0.000131 0.000000 -0.004318 0.000000
# 2 -0.003865 0.009632 -0.002283 0.000000 0.001484 0.000000
# 3 0.000131 -0.002283 0.014555 0.000000 -0.005207 0.000000
# 4 0.000000 0.000000 0.000000 0.076412 0.000000 -0.017418
# 5 -0.004318 0.001484 -0.005207 0.000000 0.030601 0.000000
# 6 0.000000 0.000000 0.000000 -0.017418 0.000000 0.067689
#
#
# Mechanical properties :
#
#
# Convention : Reuss Voigt Hill
#
# Bulk Modulus (GPa) = 38.96656 46.22822 42.59739
# Shear Modulus (GPa) = 21.46004 28.05765 24.75885
#
# Velocity S-wave (km/s) = 3.19330 3.65133 3.42997
# Velocity P-wave (km/s) = 5.66675 6.30417 5.99394
#
# Compressibility (1/GPa) = 0.02566303
#
# Stress axis : x y z
#
# Youngs Moduli (GPa) = 74.00911 103.82038 68.70601
#
# Poissons Ratio (x) = 0.40132 -0.00898
# Poissons Ratio (y) = 0.28608 0.15686
# Poissons Ratio (z) = -0.00968 0.23703
#
# Static dielectric constant tensor:
#      x y z
#    x 1.801480 0.000000 -0.021490 
#    y 0.000000 1.788550 0.000000 
#    z -0.021490 0.000000 1.762430 
# 
# From -- ./inp_files/170394.got.cif
#   From: 2010.05.17/outbox.cif.g08.bks.cpg/sg12_86_cif.got.tgz:170394.got - 2010.06.03 13:09:07.
