data_PCOD9220776
_publ_section_title
;
Structure prediction by ZEFSAII (Michael W. Deem and Ramdas Pophale) SiO2 
 PCOD9220776
Probable space group: C 2/M
;
_chemical_formula_sum "Si O2"
_cell_formula_units_Z 48
_cell_length_a 29.029535
_cell_length_b 15.998265
_cell_length_c 13.830406
_cell_angle_alpha 90.000000
_cell_angle_beta 158.642786
_cell_angle_gamma 90.000000
_cell_volume 2339.190915
_symmetry_space_group_name_H-M "C 2/M"
_symmetry_group_IT_number 12
_symmetry_cell_setting 'monoclinic'
loop_
_space_group_symop_operation_xyz
x,y,z
-x,y,-z
-x,-y,-z
x,-y,z
1/2+x,1/2+y,z
1/2-x,1/2+y,-z
1/2-x,1/2-y,-z
1/2+x,1/2-y,z
loop_
_atom_site_type_symbol
_atom_site_label
_atom_site_fract_x
_atom_site_fract_y
_atom_site_fract_z
Si Si1 0.683488 0.408513 0.943289
Si Si2 0.937425 0.670933 0.482513
Si Si3 0.488756 0.902384 0.788389
Si Si4 0.282620 0.405295 0.393025
Si Si5 0.619672 0.750478 0.304479
Si Si6 0.082004 0.133835 0.532234
O O1 0.743252 0.500000 0.063457
O O2 0.554079 0.407977 0.750008
O O3 0.637762 0.388458 0.745835
O O4 0.787710 0.344305 0.180865
O O5 0.987679 0.618108 0.671573
O O6 0.951018 0.768367 0.532611
O O7 0.000000 0.652697 0.500000
O O8 0.401087 0.833632 0.670482
O O9 0.452872 0.000000 0.733443
O O10 0.631942 0.891104 0.108037
O O11 0.309922 0.500000 0.479164
O O12 0.366306 0.333705 0.605586
O O13 0.317974 0.395867 0.349975
O O14 0.750000 0.750000 0.500000
O O15 0.500000 0.745705 0.000000
#
# Coordination Sequence:
#
# PCOD9220776 Si02
#       6
#     8   8   8   8   8   8
#     4  11  23  38  58  92 133 178 230 282 337 398
#     4  12  24  39  66  99 137 183 235 281 335 410
#     4  11  26  46  71 103 143 188 229 284 354 423
#     4  11  24  44  72 103 137 178 231 286 353 425
#     4  12  26  48  77 105 138 180 230 293 357 420
#     4  11  22  38  64  91 132 183 228 279 343 404
#
# _framework density 20.519915000000001
#
# number of rings (size 3 to 8) (size 9 to 14) (size 15 to 20)
#    0.000    0.667    5.000    4.000    2.333    5.333 
#    0.000    1.667    0.000    0.000    0.000    0.000 
#    0.000    0.000    0.000    0.000    0.000    0.000 
#
# Total GULP energy -134093.307441 kJ/mol
# GULP energy per Si atom -5587.221143 kJ/mol
# Density = 2.047321 g / cm^3
# Si number density = 20.519915 Si / 1000 Ang^3
#
#
#
# Elastic Constant Matrix: (Units=GPa)
#
#
# Indices 1 2 3 4 5 6 
#
# 1 75.5289 53.9037 29.6401 0.0000 7.6847 0.0000
# 2 53.9037 158.3380 42.1068 0.0000 0.3649 0.0000
# 3 29.6401 42.1068 85.1639 0.0000 5.5678 0.0000
# 4 0.0000 0.0000 0.0000 28.1577 0.0000 11.4907
# 5 7.6847 0.3649 5.5678 0.0000 24.9293 0.0000
# 6 0.0000 0.0000 0.0000 11.4907 0.0000 3.3473
#
#
#
# Elastic Compliance Matrix: (Units=1/GPa)
#
#
# Indices 1 2 3 4 5 6 
#
# 1 0.019111 -0.005541 -0.003584 0.000000 -0.005010 0.000000
# 2 -0.005541 0.008891 -0.002608 0.000000 0.002161 0.000000
# 3 -0.003584 -0.002608 0.014415 0.000000 -0.002076 0.000000
# 4 0.000000 0.000000 0.000000 -0.088593 0.000000 0.304121
# 5 -0.005010 0.002161 -0.002076 0.000000 0.042090 0.000000
# 6 0.000000 0.000000 0.000000 0.304121 0.000000 -0.745238
#
#
# Mechanical properties :
#
#
# Convention : Reuss Voigt Hill
#
# Bulk Modulus (GPa) = 52.77352 63.37023 58.07188
# Shear Modulus (GPa) = -6.94888 24.17887 8.61499
#
# Velocity S-wave (km/s) = -1.84222 3.43638 2.05121
# Velocity P-wave (km/s) = 4.60967 6.83332 5.82852
#
# Compressibility (1/GPa) = 0.01894890
#
# Stress axis : x y z
#
# Youngs Moduli (GPa) = 52.32600 112.47624 69.37292
#
# Poissons Ratio (x) = 0.62327 0.24863
# Poissons Ratio (y) = 0.28996 0.18095
# Poissons Ratio (z) = 0.18754 0.29339
#
# Static dielectric constant tensor:
#      x y z
#    x 1.766900 0.000000 0.012520 
#    y 0.000000 1.736060 0.000000 
#    z 0.012520 0.000000 1.697420 
# 
# From -- ./inp_files/251495.got.cif
#   From: 2010.05.17/outbox.cif.g08.bks.cpg/sg12_126_cif.got.tgz:251495.got - 2010.06.03 13:09:07.
