data_PCOD9220551
_publ_section_title
;
Structure prediction by ZEFSAII (Michael W. Deem and Ramdas Pophale) SiO2 
 PCOD9220551
Probable space group: C 2/M
;
_chemical_formula_sum "Si O2"
_cell_formula_units_Z 56
_cell_length_a 18.578348
_cell_length_b 8.935863
_cell_length_c 19.001185
_cell_angle_alpha 90.000000
_cell_angle_beta 104.637755
_cell_angle_gamma 90.000000
_cell_volume 3052.070027
_symmetry_space_group_name_H-M "C 2/M"
_symmetry_group_IT_number 12
_symmetry_cell_setting 'monoclinic'
loop_
_space_group_symop_operation_xyz
x,y,z
-x,y,-z
-x,-y,-z
x,-y,z
1/2+x,1/2+y,z
1/2-x,1/2+y,-z
1/2-x,1/2-y,-z
1/2+x,1/2-y,z
loop_
_atom_site_type_symbol
_atom_site_label
_atom_site_fract_x
_atom_site_fract_y
_atom_site_fract_z
Si Si1 0.171559 0.821759 0.001798
Si Si2 0.441052 0.677128 0.426751
Si Si3 0.229019 0.824698 0.567673
Si Si4 0.457258 0.678122 0.144887
Si Si5 0.889935 0.679202 0.870162
Si Si6 0.241526 0.319627 0.271568
Si Si7 0.100194 0.678466 0.726257
O O1 0.140734 0.747623 0.065153
O O2 0.180086 0.000000 0.013748
O O3 0.250000 0.750000 0.000000
O O4 0.111413 0.797074 0.925295
O O5 0.500000 0.724917 0.500000
O O6 0.452496 0.500000 0.414852
O O7 0.358466 0.693897 0.437999
O O8 0.442341 0.767052 0.354471
O O9 0.250000 0.750000 0.500000
O O10 0.268381 0.770902 0.649516
O O11 0.245153 0.000000 0.564832
O O12 0.466675 0.500000 0.155834
O O13 0.531588 0.748748 0.130825
O O14 0.437614 0.753211 0.214163
O O15 0.897237 0.500000 0.878476
O O16 0.829230 0.710742 0.794301
O O17 0.254679 0.500000 0.275199
O O18 0.315875 0.242762 0.260213
O O19 0.101915 0.500000 0.730357
#
# Coordination Sequence:
#
# PCOD9220551 Si02
#       7
#     8   8   8   8   8   8   8
#     4  11  24  41  62  87 115 151 191 232 281 337
#     4   9  19  37  58  79 108 149 191 231 282 340
#     4   9  18  33  53  77 107 141 179 224 272 326
#     4  11  24  41  59  82 117 155 188 228 282 341
#     4  11  23  39  61  88 116 147 187 237 287 335
#     4   9  20  39  58  79 112 151 187 228 283 342
#     4  11  22  36  58  86 113 146 192 240 282 331
#
# _framework density 18.348203000000002
#
# number of rings (size 3 to 8) (size 9 to 14) (size 15 to 20)
#    0.000    1.857    0.000    4.714    0.000   12.286 
#    0.000    2.857    0.000    0.000    0.000    0.000 
#    0.000    0.000    0.000    0.000    0.000    0.000 
#
# Total GULP energy -156433.429123 kJ/mol
# GULP energy per Si atom -5586.908183 kJ/mol
# Density = 1.830644 g / cm^3
# Si number density = 18.348203 Si / 1000 Ang^3
#
#
#
# Elastic Constant Matrix: (Units=GPa)
#
#
# Indices 1 2 3 4 5 6 
#
# 1 125.1689 78.6305 92.1273 0.0000 -13.5728 0.0000
# 2 78.6305 95.6205 95.6613 0.0000 -0.8302 0.0000
# 3 92.1273 95.6613 154.2602 0.0000 -13.7163 0.0000
# 4 0.0000 0.0000 0.0000 32.8291 0.0000 -6.3808
# 5 -13.5728 -0.8302 -13.7163 0.0000 40.2978 0.0000
# 6 0.0000 0.0000 0.0000 -6.3808 0.0000 31.5657
#
#
#
# Elastic Compliance Matrix: (Units=1/GPa)
#
#
# Indices 1 2 3 4 5 6 
#
# 1 0.018254 -0.011835 -0.003132 0.000000 0.004838 0.000000
# 2 -0.011835 0.036417 -0.016296 0.000000 -0.008783 0.000000
# 3 -0.003132 -0.016296 0.018907 0.000000 0.005045 0.000000
# 4 0.000000 0.000000 0.000000 0.031706 0.000000 0.006409
# 5 0.004838 -0.008783 0.005045 0.000000 0.027981 0.000000
# 6 0.000000 0.000000 0.000000 0.006409 0.000000 0.032976
#
#
# Mechanical properties :
#
#
# Convention : Reuss Voigt Hill
#
# Bulk Modulus (GPa) = 90.48325 100.87644 95.67984
# Shear Modulus (GPa) = 21.50988 28.18056 24.84522
#
# Velocity S-wave (km/s) = 3.42762 3.92328 3.68380
# Velocity P-wave (km/s) = 8.06761 8.69604 8.38771
#
# Compressibility (1/GPa) = 0.01105177
#
# Stress axis : x y z
#
# Youngs Moduli (GPa) = 54.78296 27.45981 52.88952
#
# Poissons Ratio (x) = 0.32499 0.16566
# Poissons Ratio (y) = 0.64836 0.86189
# Poissons Ratio (z) = 0.17159 0.44749
#
# Static dielectric constant tensor:
#      x y z
#    x 1.595640 0.000000 0.012180 
#    y 0.000000 1.620200 0.000000 
#    z 0.012180 0.000000 1.628200 
# 
# From -- ./inp_files/275598.got.cif
#   From: 2010.05.17/outbox.cif.g08.bks.cpg/sg12_138_cif.got.tgz:275598.got - 2010.06.03 13:09:07.
