data_PCOD9220631
_publ_section_title
;
Structure prediction by ZEFSAII (Michael W. Deem and Ramdas Pophale) SiO2 
 PCOD9220631
Probable space group: C 2/M
;
_chemical_formula_sum "Si O2"
_cell_formula_units_Z 50
_cell_length_a 14.762122
_cell_length_b 17.354026
_cell_length_c 11.613520
_cell_angle_alpha 90.000000
_cell_angle_beta 107.872285
_cell_angle_gamma 90.000000
_cell_volume 2831.604424
_symmetry_space_group_name_H-M "C 2/M"
_symmetry_group_IT_number 12
_symmetry_cell_setting 'monoclinic'
loop_
_space_group_symop_operation_xyz
x,y,z
-x,y,-z
-x,-y,-z
x,-y,z
1/2+x,1/2+y,z
1/2-x,1/2+y,-z
1/2-x,1/2-y,-z
1/2+x,1/2-y,z
loop_
_atom_site_type_symbol
_atom_site_label
_atom_site_fract_x
_atom_site_fract_y
_atom_site_fract_z
Si Si1 0.109534 0.909246 0.003342
Si Si2 0.063638 0.223208 0.356038
Si Si3 0.000000 0.500000 0.500000
Si Si4 0.658233 0.590155 0.534869
Si Si5 0.153942 0.364233 0.528454
Si Si6 0.284989 0.701504 0.780987
Si Si7 0.641052 0.670436 0.772504
O O1 0.123676 0.879493 0.879283
O O2 0.130468 0.000000 0.020351
O O3 0.176662 0.859478 0.112533
O O4 0.000000 0.897733 0.000000
O O5 0.088813 0.143387 0.431136
O O6 0.099003 0.291886 0.451277
O O7 0.126793 0.226405 0.265304
O O8 0.952806 0.222517 0.284380
O O9 0.917553 0.432708 0.475191
O O10 0.637104 0.500000 0.514447
O O11 0.763466 0.608769 0.527457
O O12 0.652364 0.617778 0.663931
O O13 0.209294 0.336374 0.663753
O O14 0.232528 0.774325 0.816891
#
# Coordination Sequence:
#
# PCOD9220631 Si02
#       7
#     8   8   2   8   8   8   8
#     4  11  25  43  62  89 124 164 218 269 309 374
#     4  11  22  40  64  94 133 162 208 261 319 383
#     4  12  24  36  68  96 128 172 206 248 314 382
#     4  11  22  37  59  93 130 165 204 256 318 377
#     4  11  22  41  61  98 130 166 203 258 315 382
#     4  11  22  41  66  87 128 166 212 257 318 376
#     4  12  22  40  66  90 121 171 207 263 318 374
#
# _framework density 17.657833
#
# number of rings (size 3 to 8) (size 9 to 14) (size 15 to 20)
#    0.000    0.800    5.600    3.360    1.120    2.560 
#    0.000    0.000    0.000    0.000    0.000    2.240 
#    0.000    0.000    0.000    0.000    0.000    0.000 
#
# Total GULP energy -139517.009762 kJ/mol
# GULP energy per Si atom -5580.680390 kJ/mol
# Density = 1.761764 g / cm^3
# Si number density = 17.657833 Si / 1000 Ang^3
#
#
#
# Elastic Constant Matrix: (Units=GPa)
#
#
# Indices 1 2 3 4 5 6 
#
# 1 69.6782 21.5329 5.2937 0.0000 -11.3713 0.0000
# 2 21.5329 102.0192 6.0623 0.0000 0.5412 0.0000
# 3 5.2937 6.0623 43.3349 0.0000 -9.3822 0.0000
# 4 0.0000 0.0000 0.0000 8.8290 0.0000 9.4958
# 5 -11.3713 0.5412 -9.3822 0.0000 27.0478 0.0000
# 6 0.0000 0.0000 0.0000 9.4958 0.0000 30.1722
#
#
#
# Elastic Compliance Matrix: (Units=1/GPa)
#
#
# Indices 1 2 3 4 5 6 
#
# 1 0.016596 -0.003540 -0.000007 0.000000 0.007046 0.000000
# 2 -0.003540 0.010653 -0.001542 0.000000 -0.002236 0.000000
# 3 -0.000007 -0.001542 0.025191 0.000000 0.008766 0.000000
# 4 0.000000 0.000000 0.000000 0.171219 0.000000 -0.053886
# 5 0.007046 -0.002236 0.008766 0.000000 0.043019 0.000000
# 6 0.000000 0.000000 0.000000 -0.053886 0.000000 0.050102
#
#
# Mechanical properties :
#
#
# Convention : Reuss Voigt Hill
#
# Bulk Modulus (GPa) = 23.66182 31.20110 27.43146
# Shear Modulus (GPa) = 14.66087 25.35268 20.00678
#
# Velocity S-wave (km/s) = 2.88458 3.79327 3.36970
# Velocity P-wave (km/s) = 4.95214 6.07400 5.54153
#
# Compressibility (1/GPa) = 0.04226218
#
# Stress axis : x y z
#
# Youngs Moduli (GPa) = 60.25558 93.87281 39.69749
#
# Poissons Ratio (x) = 0.33229 0.00027
# Poissons Ratio (y) = 0.21330 0.06121
# Poissons Ratio (z) = 0.00040 0.14475
#
# Static dielectric constant tensor:
#      x y z
#    x 1.611100 0.000000 -0.016470 
#    y 0.000000 1.578510 0.000000 
#    z -0.016470 0.000000 1.578150 
# 
# From -- ./inp_files/143796.got.cif
#   From: 2010.05.17/outbox.cif.g08.bks.cpg/sg12_72_cif.got.tgz:143796.got - 2010.06.03 13:09:07.
