data_PCOD9220689
_publ_section_title
;
Structure prediction by ZEFSAII (Michael W. Deem and Ramdas Pophale) SiO2 
 PCOD9220689
Probable space group: C 2/M
;
_chemical_formula_sum "Si O2"
_cell_formula_units_Z 64
_cell_length_a 9.895644
_cell_length_b 27.400738
_cell_length_c 14.493326
_cell_angle_alpha 90.000000
_cell_angle_beta 57.937108
_cell_angle_gamma 90.000000
_cell_volume 3330.401704
_symmetry_space_group_name_H-M "C 2/M"
_symmetry_group_IT_number 12
_symmetry_cell_setting 'monoclinic'
loop_
_space_group_symop_operation_xyz
x,y,z
-x,y,-z
-x,-y,-z
x,-y,z
1/2+x,1/2+y,z
1/2-x,1/2+y,-z
1/2-x,1/2-y,-z
1/2+x,1/2-y,z
loop_
_atom_site_type_symbol
_atom_site_label
_atom_site_fract_x
_atom_site_fract_y
_atom_site_fract_z
Si Si1 0.406309 0.688251 0.241204
Si Si2 0.975465 0.792272 0.611093
Si Si3 0.036044 0.323602 0.382027
Si Si4 0.051745 0.283850 0.085959
Si Si5 0.168693 0.446094 0.814083
Si Si6 0.160806 0.349069 0.725844
Si Si7 0.291533 0.054333 0.981056
Si Si8 0.636356 0.654844 0.022447
O O1 0.411797 0.688876 0.349522
O O2 0.223607 0.675028 0.283290
O O3 0.479141 0.740013 0.175624
O O4 0.539841 0.651930 0.153440
O O5 0.997806 0.734352 0.603146
O O6 0.796067 0.808639 0.694128
O O7 0.000000 0.811860 0.500000
O O8 0.000000 0.341677 0.500000
O O9 0.922056 0.345822 0.344391
O O10 0.969802 0.333355 0.152119
O O11 0.236110 0.301073 0.023450
O O12 0.000000 0.276044 0.000000
O O13 0.222916 0.500000 0.765162
O O14 0.224895 0.402054 0.729732
O O15 0.211097 0.440031 0.906636
O O16 0.975626 0.445658 0.883226
O O17 0.207288 0.102235 0.972617
O O18 0.226348 0.000000 0.982385
O O19 0.500000 0.667690 0.000000
#
# Coordination Sequence:
#
# PCOD9220689 Si02
#       8
#     8   8   8   8   8   8   8   8
#     4  12  24  38  54  79 117 156 189 229 282 339
#     4  11  22  38  58  82 109 146 195 245 289 335
#     4  11  23  40  58  82 112 147 194 246 289 334
#     4  12  23  38  54  79 116 160 194 220 262 339
#     4   9  18  34  60  86 109 146 198 239 273 329
#     4  12  21  36  62  83 113 152 192 236 285 338
#     4   9  18  35  56  82 115 149 187 234 275 325
#     4  12  25  35  54  84 121 155 186 224 280 343
#
# _framework density 19.216901
#
# number of rings (size 3 to 8) (size 9 to 14) (size 15 to 20)
#    0.000    1.000    3.750    5.250    0.000    2.250 
#    0.000    0.000    0.000    0.750    0.000    1.750 
#    0.000    0.000    0.000    0.000    0.000    0.000 
#
# Total GULP energy -178506.420950 kJ/mol
# GULP energy per Si atom -5578.325655 kJ/mol
# Density = 1.917316 g / cm^3
# Si number density = 19.216901 Si / 1000 Ang^3
#
#
#
# Elastic Constant Matrix: (Units=GPa)
#
#
# Indices 1 2 3 4 5 6 
#
# 1 76.8112 18.0868 -1.0111 0.0000 9.1256 0.0000
# 2 18.0868 76.5763 6.1459 0.0000 7.6807 0.0000
# 3 -1.0111 6.1459 36.2476 0.0000 12.5710 0.0000
# 4 0.0000 0.0000 0.0000 10.3996 0.0000 7.3436
# 5 9.1256 7.6807 12.5710 0.0000 33.6302 0.0000
# 6 0.0000 0.0000 0.0000 7.3436 0.0000 48.2101
#
#
#
# Elastic Compliance Matrix: (Units=1/GPa)
#
#
# Indices 1 2 3 4 5 6 
#
# 1 0.014270 -0.003154 0.002328 0.000000 -0.004022 0.000000
# 2 -0.003154 0.014123 -0.001908 0.000000 -0.001656 0.000000
# 3 0.002328 -0.001908 0.032222 0.000000 -0.012240 0.000000
# 4 0.000000 0.000000 0.000000 0.107748 0.000000 -0.016413
# 5 -0.004022 -0.001656 -0.012240 0.000000 0.035780 0.000000
# 6 0.000000 0.000000 0.000000 -0.016413 0.000000 0.023243
#
#
# Mechanical properties :
#
#
# Convention : Reuss Voigt Hill
#
# Bulk Modulus (GPa) = 18.13367 26.23093 22.18230
# Shear Modulus (GPa) = 19.90161 29.54221 24.72191
#
# Velocity S-wave (km/s) = 3.22161 3.92510 3.59063
# Velocity P-wave (km/s) = 4.82651 5.84991 5.36268
#
# Compressibility (1/GPa) = 0.05514603
#
# Stress axis : x y z
#
# Youngs Moduli (GPa) = 70.07675 70.80601 31.03511
#
# Poissons Ratio (x) = 0.22332 -0.07224
# Poissons Ratio (y) = 0.22102 0.05922
# Poissons Ratio (z) = -0.16312 0.13511
#
# Static dielectric constant tensor:
#      x y z
#    x 1.759540 0.000000 -0.028860 
#    y 0.000000 1.689990 0.000000 
#    z -0.028860 0.000000 1.891280 
# 
# From -- ./inp_files/200923.got.cif
#   From: 2010.05.17/outbox.cif.g08.bks.cpg/sg12_101_cif.got.tgz:200923.got - 2010.06.03 13:09:07.
