data_PCOD9220003
_publ_section_title
;
Structure prediction by ZEFSAII (Michael W. Deem and Ramdas Pophale) SiO2 
 PCOD9220003
Probable space group: C 2/M
;
_chemical_formula_sum "Si O2"
_cell_formula_units_Z 48
_cell_length_a 9.991416
_cell_length_b 15.167534
_cell_length_c 18.005406
_cell_angle_alpha 90.000000
_cell_angle_beta 72.344794
_cell_angle_gamma 90.000000
_cell_volume 2600.110204
_symmetry_space_group_name_H-M "C 2/M"
_symmetry_group_IT_number 12
_symmetry_cell_setting 'monoclinic'
loop_
_space_group_symop_operation_xyz
x,y,z
-x,y,-z
-x,-y,-z
x,-y,z
1/2+x,1/2+y,z
1/2-x,1/2+y,-z
1/2-x,1/2-y,-z
1/2+x,1/2-y,z
loop_
_atom_site_type_symbol
_atom_site_label
_atom_site_fract_x
_atom_site_fract_y
_atom_site_fract_z
Si Si1 0.172386 0.500000 0.560646
Si Si2 0.159734 0.601538 0.176050
Si Si3 0.637650 0.813559 0.335368
Si Si4 0.342909 0.274079 0.055246
Si Si5 0.648432 0.000000 0.387755
Si Si6 0.304082 0.196959 0.417993
Si Si7 0.418186 0.095584 0.093409
O O1 0.154935 0.500000 0.475129
O O2 0.237347 0.593482 0.571541
O O3 0.011618 0.500000 0.616503
O O4 0.182198 0.500000 0.196818
O O5 0.135131 0.668254 0.248083
O O6 0.287279 0.640954 0.107127
O O7 0.028925 0.600357 0.141526
O O8 0.703813 0.905605 0.354191
O O9 0.475045 0.800722 0.388226
O O10 0.733460 0.739274 0.356916
O O11 0.333956 0.186303 0.107497
O O12 0.500000 0.287308 0.000000
O O13 0.250000 0.250000 0.000000
O O14 0.250000 0.250000 0.500000
O O15 0.344476 0.000000 0.110063
O O16 0.500000 0.096094 0.000000
#
# Coordination Sequence:
#
# PCOD9220003 Si02
#       7
#     4   8   8   8   4   8   8
#     4   9  18  34  62  85 116 153 205 241 284 361
#     4  11  23  39  62  90 121 160 205 255 307 361
#     4  11  23  38  61  90 121 157 201 252 308 355
#     4  11  21  37  62  90 122 158 206 250 301 355
#     4   9  16  36  59  86 109 154 209 242 275 364
#     4  11  22  39  63  90 120 159 205 249 297 362
#     4   9  18  36  60  85 114 158 204 240 288 365
#
# _framework density 18.460756
#
# number of rings (size 3 to 8) (size 9 to 14) (size 15 to 20)
#    0.000    1.667    5.833    0.500    2.333    0.333 
#    0.000    2.500    0.000    0.000    0.000    0.000 
#    0.000    0.000    0.000    0.000    0.000    0.000 
#
# Total GULP energy -133668.334462 kJ/mol
# GULP energy per Si atom -5569.513936 kJ/mol
# Density = 1.841874 g / cm^3
# Si number density = 18.460756 Si / 1000 Ang^3
#
#
#
# Elastic Constant Matrix: (Units=GPa)
#
#
# Indices 1 2 3 4 5 6 
#
# 1 62.5168 35.4865 23.9351 0.0000 6.0691 0.0000
# 2 35.4865 143.7597 38.1007 0.0000 15.2743 0.0000
# 3 23.9351 38.1007 82.2762 0.0000 11.2883 0.0000
# 4 0.0000 0.0000 0.0000 34.9422 0.0000 7.0001
# 5 6.0691 15.2743 11.2883 0.0000 26.3300 0.0000
# 6 0.0000 0.0000 0.0000 7.0001 0.0000 18.0118
#
#
#
# Elastic Compliance Matrix: (Units=1/GPa)
#
#
# Indices 1 2 3 4 5 6 
#
# 1 0.019684 -0.003754 -0.003893 0.000000 -0.000690 0.000000
# 2 -0.003754 0.008910 -0.002596 0.000000 -0.003190 0.000000
# 3 -0.003893 -0.002596 0.015044 0.000000 -0.004046 0.000000
# 4 0.000000 0.000000 0.000000 0.031035 0.000000 -0.012061
# 5 -0.000690 -0.003190 -0.004046 0.000000 0.041724 0.000000
# 6 0.000000 0.000000 0.000000 -0.012061 0.000000 0.060207
#
#
# Mechanical properties :
#
#
# Convention : Reuss Voigt Hill
#
# Bulk Modulus (GPa) = 43.19380 53.73302 48.46341
# Shear Modulus (GPa) = 24.41317 28.59215 26.50266
#
# Velocity S-wave (km/s) = 3.64048 3.93976 3.79307
# Velocity P-wave (km/s) = 6.41242 7.06154 6.74480
#
# Compressibility (1/GPa) = 0.02315147
#
# Stress axis : x y z
#
# Youngs Moduli (GPa) = 50.80262 112.23744 66.47079
#
# Poissons Ratio (x) = 0.42131 0.25879
# Poissons Ratio (y) = 0.19070 0.17257
# Poissons Ratio (z) = 0.19779 0.29139
#
# Static dielectric constant tensor:
#      x y z
#    x 1.612870 0.000000 -0.011160 
#    y 0.000000 1.689120 0.000000 
#    z -0.011160 0.000000 1.658060 
# 
# From -- ./inp_files/255821.got.cif
#   From: 2010.05.17/outbox.cif.g08.bks.cpg/sg12_128_cif.got.tgz:255821.got - 2010.06.03 13:09:07.
