data_PCOD9220483
_publ_section_title
;
Structure prediction by ZEFSAII (Michael W. Deem and Ramdas Pophale) SiO2 
 PCOD9220483
Probable space group: C 2/M
;
_chemical_formula_sum "Si O2"
_cell_formula_units_Z 56
_cell_length_a 19.611980
_cell_length_b 8.784396
_cell_length_c 27.852475
_cell_angle_alpha 90.000000
_cell_angle_beta 140.644077
_cell_angle_gamma 90.000000
_cell_volume 3042.842407
_symmetry_space_group_name_H-M "C 2/M"
_symmetry_group_IT_number 12
_symmetry_cell_setting 'monoclinic'
loop_
_space_group_symop_operation_xyz
x,y,z
-x,y,-z
-x,-y,-z
x,-y,z
1/2+x,1/2+y,z
1/2-x,1/2+y,-z
1/2-x,1/2-y,-z
1/2+x,1/2-y,z
loop_
_atom_site_type_symbol
_atom_site_label
_atom_site_fract_x
_atom_site_fract_y
_atom_site_fract_z
Si Si1 0.565901 0.817480 0.134333
Si Si2 0.364177 0.679426 0.550854
Si Si3 0.882670 0.326243 0.459991
Si Si4 0.714403 0.815729 0.124338
Si Si5 0.831706 0.818724 0.005352
Si Si6 0.089416 0.815066 0.704118
Si Si7 0.268222 0.682539 0.310075
O O1 0.623669 0.777336 0.115003
O O2 0.453930 0.734515 0.081279
O O3 0.652635 0.785482 0.223356
O O4 0.548211 0.000000 0.123571
O O5 0.358593 0.500000 0.555263
O O6 0.250000 0.750000 0.500000
O O7 0.386270 0.717837 0.507598
O O8 0.466745 0.739272 0.636990
O O9 0.858801 0.500000 0.461843
O O10 0.797269 0.268908 0.374309
O O11 0.000000 0.323414 0.500000
O O12 0.829103 0.768025 0.209631
O O13 0.713211 0.000000 0.119065
O O14 0.695428 0.741968 0.062719
O O15 0.824430 0.000000 0.002747
O O16 0.750000 0.750000 0.000000
O O17 0.145533 0.773682 0.684181
O O18 0.088420 0.000000 0.704597
O O19 0.276345 0.500000 0.321848
#
# Coordination Sequence:
#
# PCOD9220483 Si02
#       7
#     8   8   8   8   8   8   8
#     4   9  19  37  63  90 116 145 184 233 283 340
#     4  11  22  38  58  81 114 154 196 239 286 341
#     4  11  22  35  55  85 118 152 192 237 284 334
#     4   9  18  37  64  89 112 144 186 233 284 339
#     4  12  25  40  58  83 117 154 190 230 279 337
#     4   8  16  33  59  85 110 145 188 231 280 336
#     4   9  17  34  60  88 112 144 191 236 281 335
#
# _framework density 18.403846000000001
#
# number of rings (size 3 to 8) (size 9 to 14) (size 15 to 20)
#    0.000    2.143    1.429    4.286    0.000    3.429 
#    2.571    3.571    0.000    0.000    0.000    0.000 
#    0.000    0.000    0.000    0.000    0.000    0.000 
#
# Total GULP energy -156258.986669 kJ/mol
# GULP energy per Si atom -5580.678095 kJ/mol
# Density = 1.836196 g / cm^3
# Si number density = 18.403846 Si / 1000 Ang^3
#
#
#
# Elastic Constant Matrix: (Units=GPa)
#
#
# Indices 1 2 3 4 5 6 
#
# 1 71.8244 32.4885 56.4121 0.0000 21.7011 0.0000
# 2 32.4885 48.8912 43.2334 0.0000 13.6095 0.0000
# 3 56.4121 43.2334 124.2326 0.0000 22.8746 0.0000
# 4 0.0000 0.0000 0.0000 23.8731 0.0000 5.6862
# 5 21.7011 13.6095 22.8746 0.0000 29.3279 0.0000
# 6 0.0000 0.0000 0.0000 5.6862 0.0000 24.9287
#
#
#
# Elastic Compliance Matrix: (Units=1/GPa)
#
#
# Indices 1 2 3 4 5 6 
#
# 1 0.026422 -0.008364 -0.007242 0.000000 -0.010021 0.000000
# 2 -0.008364 0.033346 -0.007119 0.000000 -0.003732 0.000000
# 3 -0.007242 -0.007119 0.014270 0.000000 -0.002468 0.000000
# 4 0.000000 0.000000 0.000000 0.044295 0.000000 -0.010104
# 5 -0.010021 -0.003732 -0.002468 0.000000 0.045169 0.000000
# 6 0.000000 0.000000 0.000000 -0.010104 0.000000 0.042419
#
#
# Mechanical properties :
#
#
# Convention : Reuss Voigt Hill
#
# Bulk Modulus (GPa) = 34.98103 56.57959 45.78031
# Shear Modulus (GPa) = 19.16446 23.14688 21.15567
#
# Velocity S-wave (km/s) = 3.23046 3.55028 3.39414
# Velocity P-wave (km/s) = 5.74136 6.90044 6.34741
#
# Compressibility (1/GPa) = 0.02858693
#
# Stress axis : x y z
#
# Youngs Moduli (GPa) = 37.84745 29.98865 70.07868
#
# Poissons Ratio (x) = 0.25083 0.50750
# Poissons Ratio (y) = 0.31656 0.49891
# Poissons Ratio (z) = 0.27409 0.21350
#
# Static dielectric constant tensor:
#      x y z
#    x 1.640780 0.000000 0.020830 
#    y 0.000000 1.622430 0.000000 
#    z 0.020830 0.000000 1.652850 
# 
# From -- ./inp_files/363100.got.cif
#   From: 2010.05.17/outbox.cif.g08.bks.cpg/sg12_182_cif.got.tgz:363100.got - 2010.06.03 13:09:07.
