data_PCOD9220651
_publ_section_title
;
Structure prediction by ZEFSAII (Michael W. Deem and Ramdas Pophale) SiO2 
 PCOD9220651
Probable space group: C 2/M
;
_chemical_formula_sum "Si O2"
_cell_formula_units_Z 48
_cell_length_a 16.270448
_cell_length_b 28.923643
_cell_length_c 12.795653
_cell_angle_alpha 90.000000
_cell_angle_beta 153.788187
_cell_angle_gamma 90.000000
_cell_volume 2659.704248
_symmetry_space_group_name_H-M "C 2/M"
_symmetry_group_IT_number 12
_symmetry_cell_setting 'monoclinic'
loop_
_space_group_symop_operation_xyz
x,y,z
-x,y,-z
-x,-y,-z
x,-y,z
1/2+x,1/2+y,z
1/2-x,1/2+y,-z
1/2-x,1/2-y,-z
1/2+x,1/2-y,z
loop_
_atom_site_type_symbol
_atom_site_label
_atom_site_fract_x
_atom_site_fract_y
_atom_site_fract_z
Si Si1 0.357730 0.862403 0.144442
Si Si2 0.052527 0.149141 0.271298
Si Si3 0.169988 0.232433 0.265663
Si Si4 0.591777 0.839846 0.212722
Si Si5 0.500000 0.195951 0.500000
Si Si6 0.407909 0.948644 0.508484
Si Si7 0.000000 0.908762 0.000000
O O1 0.450139 0.839881 0.148189
O O2 0.394465 0.835523 0.295236
O O3 0.470635 0.910657 0.289680
O O4 0.136203 0.857535 0.879249
O O5 0.127347 0.199590 0.316628
O O6 0.227161 0.132626 0.539741
O O7 0.005476 0.121665 0.111416
O O8 0.148874 0.286759 0.257614
O O9 0.355941 0.222752 0.410728
O O10 0.000000 0.217978 0.000000
O O11 0.500000 0.857121 0.000000
O O12 0.500000 0.949756 0.500000
O O13 0.192927 0.936169 0.237168
O O14 0.417307 0.000000 0.566760
#
# Coordination Sequence:
#
# PCOD9220651 Si02
#       7
#     8   8   8   8   4   8   4
#     4  12  22  39  65  86 125 169 194 250 321 369
#     4  12  21  37  63  86 123 163 210 248 304 378
#     4  11  22  38  57  90 120 159 216 262 299 359
#     4  11  27  42  56  85 124 167 218 259 294 353
#     4  12  20  36  63  88 118 162 199 250 326 356
#     4  11  22  37  62 104 134 147 190 252 322 389
#     4  12  19  38  66  98 124 168 192 238 325 368
#
# _framework density 18.047118999999999
#
# number of rings (size 3 to 8) (size 9 to 14) (size 15 to 20)
#    0.000    0.500    8.333    0.750    0.000    4.000 
#    0.000    0.000    0.000    0.500    0.000    1.167 
#    0.000    0.000    0.000    0.000    0.000    0.000 
#
# Total GULP energy -133605.864377 kJ/mol
# GULP energy per Si atom -5566.911016 kJ/mol
# Density = 1.800604 g / cm^3
# Si number density = 18.047119 Si / 1000 Ang^3
#
#
#
# Elastic Constant Matrix: (Units=GPa)
#
#
# Indices 1 2 3 4 5 6 
#
# 1 94.6681 35.5585 65.8574 0.0000 21.8779 0.0000
# 2 35.5585 59.5344 10.8521 0.0000 14.7800 0.0000
# 3 65.8574 10.8521 128.4193 0.0001 14.4126 0.0001
# 4 0.0000 0.0000 0.0001 13.2905 0.0000 7.3726
# 5 21.8779 14.7800 14.4126 0.0000 50.6388 0.0000
# 6 0.0000 0.0000 0.0001 7.3726 0.0000 34.5922
#
#
#
# Elastic Compliance Matrix: (Units=1/GPa)
#
#
# Indices 1 2 3 4 5 6 
#
# 1 0.022570 -0.010690 -0.010255 0.000000 -0.003713 0.000000
# 2 -0.010690 0.023289 0.003883 0.000000 -0.003284 0.000000
# 3 -0.010255 0.003883 0.012755 0.000000 -0.000333 0.000000
# 4 0.000000 0.000000 0.000000 0.085331 0.000000 -0.018187
# 5 -0.003713 -0.003284 -0.000333 0.000000 0.022405 0.000000
# 6 0.000000 0.000000 0.000000 -0.018187 0.000000 0.032784
#
#
# Mechanical properties :
#
#
# Convention : Reuss Voigt Hill
#
# Bulk Modulus (GPa) = 40.83140 56.35088 48.59114
# Shear Modulus (GPa) = 20.71060 31.06121 25.88590
#
# Velocity S-wave (km/s) = 3.39128 4.15314 3.79139
# Velocity P-wave (km/s) = 6.16509 7.36818 6.79332
#
# Compressibility (1/GPa) = 0.02449096
#
# Stress axis : x y z
#
# Youngs Moduli (GPa) = 44.30610 42.93814 78.39922
#
# Poissons Ratio (x) = 0.45900 0.80396
# Poissons Ratio (y) = 0.47362 -0.30439
# Poissons Ratio (z) = 0.45435 -0.16671
#
# Static dielectric constant tensor:
#      x y z
#    x 1.645910 0.000000 0.079120 
#    y 0.000000 1.657550 0.000000 
#    z 0.079120 0.000000 1.670710 
# 
# From -- ./inp_files/149890.got.cif
#   From: 2010.05.17/outbox.cif.g08.bks.cpg/sg12_75_cif.got.tgz:149890.got - 2010.06.03 13:09:07.
