data_PCOD9220711
_publ_section_title
;
Structure prediction by ZEFSAII (Michael W. Deem and Ramdas Pophale) SiO2 
 PCOD9220711
Probable space group: C 2/M
;
_chemical_formula_sum "Si O2"
_cell_formula_units_Z 44
_cell_length_a 14.530122
_cell_length_b 8.233997
_cell_length_c 21.427588
_cell_angle_alpha 90.000000
_cell_angle_beta 43.884899
_cell_angle_gamma 90.000000
_cell_volume 1777.130246
_symmetry_space_group_name_H-M "C 2/M"
_symmetry_group_IT_number 12
_symmetry_cell_setting 'monoclinic'
loop_
_space_group_symop_operation_xyz
x,y,z
-x,y,-z
-x,-y,-z
x,-y,z
1/2+x,1/2+y,z
1/2-x,1/2+y,-z
1/2-x,1/2-y,-z
1/2+x,1/2-y,z
loop_
_atom_site_type_symbol
_atom_site_label
_atom_site_fract_x
_atom_site_fract_y
_atom_site_fract_z
Si Si1 0.787762 0.681951 0.211552
Si Si2 0.885296 0.182844 0.281367
Si Si3 0.013574 0.682231 0.331417
Si Si4 0.630028 0.309848 0.479568
Si Si5 0.852527 0.500000 0.926634
Si Si6 0.268098 0.817578 0.079213
O O1 0.734206 0.500000 0.246245
O O2 0.890652 0.706348 0.217438
O O3 0.662042 0.798109 0.284136
O O4 0.825816 0.698213 0.120752
O O5 0.997308 0.208079 0.278486
O O6 0.752303 0.228590 0.384560
O O7 0.879747 0.000000 0.262380
O O8 0.987092 0.500000 0.324132
O O9 0.910182 0.731476 0.435219
O O10 0.500000 0.295491 0.500000
O O11 0.658331 0.500000 0.474785
O O12 0.804235 0.648637 0.902456
O O13 0.870929 0.357872 0.973559
O O14 0.195961 0.000000 0.111274
#
# Coordination Sequence:
#
# PCOD9220711 Si02
#       6
#     8   8   8   8   4   8
#     4  11  22  38  59  89 120 153 192 242 295 344
#     4  12  25  40  59  84 116 155 198 244 292 347
#     4  12  25  40  59  84 116 155 198 244 292 347
#     4  11  22  39  62  82 111 153 195 243 292 344
#     4   8  14  30  52  86 116 150 194 228 282 350
#     4   8  16  29  53  84 120 150 190 237 281 348
#
# _framework density 24.759018000000001
#
# number of rings (size 3 to 8) (size 9 to 14) (size 15 to 20)
#    0.545    0.909    1.818    4.909    2.545    0.727 
#    0.000    0.000    0.000    0.000    0.000    7.636 
#    0.000    0.000    0.000    0.000    0.000    0.000 
#
# Total GULP energy -122477.667320 kJ/mol
# GULP energy per Si atom -5567.166696 kJ/mol
# Density = 2.470267 g / cm^3
# Si number density = 24.759018 Si / 1000 Ang^3
#
#
#
# Elastic Constant Matrix: (Units=GPa)
#
#
# Indices 1 2 3 4 5 6 
#
# 1 86.1862 14.8666 29.7777 0.0000 21.7212 0.0000
# 2 14.8666 100.2317 21.0169 0.0000 11.9537 0.0000
# 3 29.7777 21.0169 121.7019 0.0000 24.0394 0.0000
# 4 0.0000 0.0000 0.0000 30.7752 0.0000 25.9736
# 5 21.7212 11.9537 24.0394 0.0000 46.5586 0.0000
# 6 0.0000 0.0000 0.0000 25.9736 0.0000 25.3762
#
#
#
# Elastic Compliance Matrix: (Units=1/GPa)
#
#
# Indices 1 2 3 4 5 6 
#
# 1 0.013809 -0.000982 -0.002212 0.000000 -0.005048 0.000000
# 2 -0.000982 0.010580 -0.001270 0.000000 -0.001602 0.000000
# 3 -0.002212 -0.001270 0.009698 0.000000 -0.003649 0.000000
# 4 0.000000 0.000000 0.000000 0.238655 0.000000 -0.244273
# 5 -0.005048 -0.001602 -0.003649 0.000000 0.026129 0.000000
# 6 0.000000 0.000000 0.000000 -0.244273 0.000000 0.289431
#
#
# Mechanical properties :
#
#
# Convention : Reuss Voigt Hill
#
# Bulk Modulus (GPa) = 39.74890 48.82690 44.28790
# Shear Modulus (GPa) = 8.25604 36.70590 22.48097
#
# Velocity S-wave (km/s) = 1.82806 3.85454 3.01656
# Velocity P-wave (km/s) = 4.53265 6.29076 5.48263
#
# Compressibility (1/GPa) = 0.02515793
#
# Stress axis : x y z
#
# Youngs Moduli (GPa) = 72.41823 94.51782 103.11174
#
# Poissons Ratio (x) = 0.09285 0.22808
# Poissons Ratio (y) = 0.07114 0.13098
# Poissons Ratio (z) = 0.16018 0.12006
#
# Static dielectric constant tensor:
#      x y z
#    x 1.975110 0.000000 -0.034530 
#    y 0.000000 1.872680 0.000000 
#    z -0.034530 0.000000 2.013810 
# 
# From -- ./inp_files/308021.got.cif
#   From: 2010.05.17/outbox.cif.g08.bks.cpg/sg12_155_cif.got.tgz:308021.got - 2010.06.03 13:09:07.
