data_PCOD9220245
_publ_section_title
;
Structure prediction by ZEFSAII (Michael W. Deem and Ramdas Pophale) SiO2 
 PCOD9220245
Probable space group: C 2/M
;
_chemical_formula_sum "Si O2"
_cell_formula_units_Z 48
_cell_length_a 12.189207
_cell_length_b 15.989513
_cell_length_c 11.874029
_cell_angle_alpha 90.000000
_cell_angle_beta 113.192785
_cell_angle_gamma 90.000000
_cell_volume 2127.216505
_symmetry_space_group_name_H-M "C 2/M"
_symmetry_group_IT_number 12
_symmetry_cell_setting 'monoclinic'
loop_
_space_group_symop_operation_xyz
x,y,z
-x,y,-z
-x,-y,-z
x,-y,z
1/2+x,1/2+y,z
1/2-x,1/2+y,-z
1/2-x,1/2-y,-z
1/2+x,1/2-y,z
loop_
_atom_site_type_symbol
_atom_site_label
_atom_site_fract_x
_atom_site_fract_y
_atom_site_fract_z
Si Si1 0.252251 0.652952 0.361251
Si Si2 0.407316 0.332689 0.050637
Si Si3 0.767731 0.847303 0.610985
Si Si4 0.031441 0.095996 0.693921
Si Si5 0.712533 0.092450 0.833964
Si Si6 0.489268 0.146077 0.869144
O O1 0.271752 0.752244 0.383553
O O2 0.217328 0.621031 0.471581
O O3 0.375009 0.614056 0.366764
O O4 0.145003 0.642025 0.230108
O O5 0.400226 0.383174 0.162644
O O6 0.462403 0.241891 0.100993
O O7 0.500000 0.373124 0.000000
O O8 0.284573 0.336756 0.932524
O O9 0.734568 0.895749 0.710636
O O10 0.910944 0.849802 0.650076
O O11 0.993465 0.000000 0.675155
O O12 0.576453 0.101977 0.816368
O O13 0.755656 0.000000 0.884933
O O14 0.500000 0.111051 0.000000
#
# Coordination Sequence:
#
# PCOD9220245 Si02
#       6
#     8   8   8   8   8   8
#     4  11  25  44  69  96 132 185 227 279 340 408
#     4  11  21  40  68  98 130 176 224 283 336 401
#     4  11  24  44  67  97 135 178 235 277 333 410
#     4  12  24  42  70 104 140 176 228 291 345 402
#     4  12  25  41  67 101 141 178 221 283 349 410
#     4  11  23  44  69  98 134 182 232 282 335 416
#
# _framework density 22.564699999999998
#
# number of rings (size 3 to 8) (size 9 to 14) (size 15 to 20)
#    0.000    0.667    3.333    5.000    0.000    4.333 
#    0.000    0.833    0.000    0.000    0.000    0.000 
#    0.000    0.000    0.000    0.000    0.000    0.000 
#
# Total GULP energy -134248.006805 kJ/mol
# GULP energy per Si atom -5593.666950 kJ/mol
# Density = 2.251334 g / cm^3
# Si number density = 22.564700 Si / 1000 Ang^3
#
#
#
# Elastic Constant Matrix: (Units=GPa)
#
#
# Indices 1 2 3 4 5 6 
#
# 1 82.3335 2.2592 24.7633 0.0000 -6.0929 0.0000
# 2 2.2592 48.7573 6.9858 0.0000 2.3377 0.0000
# 3 24.7633 6.9858 131.7322 0.0000 -16.8497 0.0000
# 4 0.0000 0.0000 0.0000 1094.1910 0.0000-3070.5210
# 5 -6.0929 2.3377 -16.8497 0.0000 24.4435 0.0000
# 6 0.0000 0.0000 0.0000-3070.5210 0.0000 8704.5646
#
#
#
# Elastic Compliance Matrix: (Units=1/GPa)
#
#
# Indices 1 2 3 4 5 6 
#
# 1 0.012944 -0.000370 -0.002189 0.000000 0.001753 0.000000
# 2 -0.000370 0.020879 -0.001431 0.000000 -0.003076 0.000000
# 3 -0.002189 -0.001431 0.008802 0.000000 0.005659 0.000000
# 4 0.000000 0.000000 0.000000 0.090337 0.000000 0.031866
# 5 0.001753 -0.003076 0.005659 0.000000 0.045542 0.000000
# 6 0.000000 0.000000 0.000000 0.031866 0.000000 0.011356
#
#
# Mechanical properties :
#
#
# Convention : Reuss Voigt Hill
#
# Bulk Modulus (GPa) = 28.86443 36.75996 32.81220
# Shear Modulus (GPa) = 23.87886 1979.89414 1001.88650
#
# Velocity S-wave (km/s) = 3.25659 29.65358 21.09431
# Velocity P-wave (km/s) = 5.19231 34.47858 24.65495
#
# Compressibility (1/GPa) = 0.03464471
#
# Stress axis : x y z
#
# Youngs Moduli (GPa) = 77.25527 47.89413 113.60468
#
# Poissons Ratio (x) = 0.01773 0.24873
# Poissons Ratio (y) = 0.02859 0.16258
# Poissons Ratio (z) = 0.16915 0.06854
#
# Static dielectric constant tensor:
#      x y z
#    x 1.827720 0.000000 0.014630 
#    y 0.000000 1.822870 0.000000 
#    z 0.014630 0.000000 1.867110 
# 
# From -- ./inp_files/131764.got.cif
#   From: 2010.05.17/outbox.cif.g08.bks.cpg/sg12_66_cif.got.tgz:131764.got - 2010.06.03 13:09:07.
