data_PCOD9220431
_publ_section_title
;
Structure prediction by ZEFSAII (Michael W. Deem and Ramdas Pophale) SiO2 
 PCOD9220431
Probable space group: C 2/M
;
_chemical_formula_sum "Si O2"
_cell_formula_units_Z 48
_cell_length_a 16.412619
_cell_length_b 7.639770
_cell_length_c 15.054568
_cell_angle_alpha 90.000000
_cell_angle_beta 102.182595
_cell_angle_gamma 90.000000
_cell_volume 1845.161437
_symmetry_space_group_name_H-M "C 2/M"
_symmetry_group_IT_number 12
_symmetry_cell_setting 'monoclinic'
loop_
_space_group_symop_operation_xyz
x,y,z
-x,y,-z
-x,-y,-z
x,-y,z
1/2+x,1/2+y,z
1/2-x,1/2+y,-z
1/2-x,1/2-y,-z
1/2+x,1/2-y,z
loop_
_atom_site_type_symbol
_atom_site_label
_atom_site_fract_x
_atom_site_fract_y
_atom_site_fract_z
Si Si1 0.616714 0.294355 0.970044
Si Si2 0.376731 0.786741 0.535158
Si Si3 0.824126 0.298843 0.190461
Si Si4 0.937124 0.212445 0.855897
Si Si5 0.062765 0.713942 0.635762
Si Si6 0.694010 0.798723 0.306461
O O1 0.605887 0.500000 0.981143
O O2 0.686019 0.275261 0.910171
O O3 0.530502 0.232831 0.903911
O O4 0.617917 0.226953 0.070949
O O5 0.377109 0.732710 0.432499
O O6 0.469367 0.735545 0.589915
O O7 0.313000 0.722480 0.595718
O O8 0.372933 0.000000 0.536236
O O9 0.841654 0.500000 0.176917
O O10 0.900810 0.217729 0.263789
O O11 0.750422 0.291254 0.245221
O O12 0.898281 0.291158 0.758372
O O13 0.934615 0.000000 0.845866
O O14 0.064433 0.500000 0.638489
O O15 0.720093 0.000000 0.317096
#
# Coordination Sequence:
#
# PCOD9220431 Si02
#       6
#     8   8   8   8   8   8
#     4   9  19  37  59  80 103 133 169 212 263 314
#     4   8  15  30  52  76 101 131 170 215 260 306
#     4  11  22  34  51  77 108 142 177 213 256 305
#     4   9  19  37  59  80 103 133 169 212 263 314
#     4   8  15  30  52  76 101 131 170 215 260 306
#     4  11  22  34  51  77 108 142 177 213 256 305
#
# _framework density 26.013983
#
# number of rings (size 3 to 8) (size 9 to 14) (size 15 to 20)
#    0.000    2.667    0.000    4.000    0.000    4.000 
#    0.000    1.667    0.000    3.000    0.000   11.667 
#    0.000    0.000    0.000    0.000    0.000    0.000 
#
# Total GULP energy -134110.238237 kJ/mol
# GULP energy per Si atom -5587.926593 kJ/mol
# Density = 2.595477 g / cm^3
# Si number density = 26.013983 Si / 1000 Ang^3
#
#
#
# Elastic Constant Matrix: (Units=GPa)
#
#
# Indices 1 2 3 4 5 6 
#
# 1 61.9548 -1.9195 21.9180 0.0000 -23.8938 0.0000
# 2 -1.9195 64.6727 -0.2423 0.0000 -1.9873 0.0000
# 3 21.9180 -0.2423 180.0174 0.0000 -33.0345 0.0000
# 4 0.0000 0.0000 0.0000 6.4194 0.0000 2.0993
# 5 -23.8938 -1.9873 -33.0345 0.0000 52.9271 0.0000
# 6 0.0000 0.0000 0.0000 2.0993 0.0000 17.2660
#
#
#
# Elastic Compliance Matrix: (Units=1/GPa)
#
#
# Indices 1 2 3 4 5 6 
#
# 1 0.019707 0.000840 -0.000858 0.000000 0.008393 0.000000
# 2 0.000840 0.015519 0.000107 0.000000 0.001029 0.000000
# 3 -0.000858 0.000107 0.006312 0.000000 0.003556 0.000000
# 4 0.000000 0.000000 0.000000 0.162227 0.000000 -0.019724
# 5 0.008393 0.001029 0.003556 0.000000 0.024941 0.000000
# 6 0.000000 0.000000 0.000000 -0.019724 0.000000 0.060316
#
#
# Mechanical properties :
#
#
# Convention : Reuss Voigt Hill
#
# Bulk Modulus (GPa) = 23.97130 38.46192 31.21661
# Shear Modulus (GPa) = 16.51525 34.44840 25.48183
#
# Velocity S-wave (km/s) = 2.52238 3.64294 3.13316
# Velocity P-wave (km/s) = 4.20927 5.70192 5.01148
#
# Compressibility (1/GPa) = 0.04171655
#
# Stress axis : x y z
#
# Youngs Moduli (GPa) = 50.74293 64.43545 158.42131
#
# Poissons Ratio (x) = -0.05410 0.13596
# Poissons Ratio (y) = -0.04260 -0.01702
# Poissons Ratio (z) = 0.04355 -0.00692
#
# Static dielectric constant tensor:
#      x y z
#    x 2.151860 0.000000 -0.035100 
#    y 0.000000 1.938620 0.000000 
#    z -0.035100 0.000000 2.025500 
# 
# From -- ./inp_files/195946.got.cif
#   From: 2010.05.17/outbox.cif.g08.bks.cpg/sg12_98_cif.got.tgz:195946.got - 2010.06.03 13:09:07.
