data_PCOD9220407
_publ_section_title
;
Structure prediction by ZEFSAII (Michael W. Deem and Ramdas Pophale) SiO2 
 PCOD9220407
Probable space group: C 2/M
;
_chemical_formula_sum "Si O2"
_cell_formula_units_Z 48
_cell_length_a 29.029951
_cell_length_b 7.723893
_cell_length_c 11.851078
_cell_angle_alpha 90.000000
_cell_angle_beta 101.839559
_cell_angle_gamma 90.000000
_cell_volume 2600.767430
_symmetry_space_group_name_H-M "C 2/M"
_symmetry_group_IT_number 12
_symmetry_cell_setting 'monoclinic'
loop_
_space_group_symop_operation_xyz
x,y,z
-x,y,-z
-x,-y,-z
x,-y,z
1/2+x,1/2+y,z
1/2-x,1/2+y,-z
1/2-x,1/2-y,-z
1/2+x,1/2-y,z
loop_
_atom_site_type_symbol
_atom_site_label
_atom_site_fract_x
_atom_site_fract_y
_atom_site_fract_z
Si Si1 0.678244 0.708844 0.411491
Si Si2 0.205515 0.294064 0.900090
Si Si3 0.407991 0.287116 0.780093
Si Si4 0.273306 0.792726 0.338599
Si Si5 0.990315 0.200344 0.130439
Si Si6 0.391241 0.293218 0.027189
O O1 0.678433 0.500000 0.405519
O O2 0.629718 0.769251 0.331505
O O3 0.688402 0.757269 0.545491
O O4 0.723218 0.773157 0.361422
O O5 0.202990 0.500000 0.890384
O O6 0.213439 0.223340 0.777657
O O7 0.157182 0.236687 0.933528
O O8 0.250000 0.250000 0.000000
O O9 0.409034 0.500000 0.780133
O O10 0.461869 0.225571 0.792595
O O11 0.390877 0.232772 0.896789
O O12 0.268342 0.000000 0.326369
O O13 0.938051 0.277747 0.113321
O O14 0.988016 0.000000 0.167271
O O15 0.000000 0.199506 0.000000
O O16 0.398279 0.500000 0.023673
#
# Coordination Sequence:
#
# PCOD9220407 Si02
#       6
#     8   8   8   8   8   8
#     4   9  16  28  48  68  86 112 148 188 222 258
#     4  11  22  34  48  66  91 121 150 181 220 268
#     4   8  13  24  45  72  96 117 147 186 226 264
#     4   9  19  33  45  62  90 119 145 179 225 268
#     4   7  11  21  41  68  93 118 147 180 220 264
#     4   9  16  28  47  70  96 122 148 181 222 267
#
# _framework density 18.456091000000001
#
# number of rings (size 3 to 8) (size 9 to 14) (size 15 to 20)
#    0.000    3.167    0.000    3.500    0.000    4.000 
#    0.000    4.167    0.000    6.500    0.000    7.000 
#    0.000    0.000    0.000    0.000    0.000    0.000 
#
# Total GULP energy -133674.895286 kJ/mol
# GULP energy per Si atom -5569.787304 kJ/mol
# Density = 1.841408 g / cm^3
# Si number density = 18.456091 Si / 1000 Ang^3
#
#
#
# Elastic Constant Matrix: (Units=GPa)
#
#
# Indices 1 2 3 4 5 6 
#
# 1 157.8038 -2.8912 91.5636 0.0000 25.4162 0.0000
# 2 -2.8912 24.0238 -2.3585 0.0000 -0.5914 0.0000
# 3 91.5636 -2.3585 128.4900 0.0000 20.8458 0.0000
# 4 0.0000 0.0000 0.0000 15.2246 0.0000 -2.3238
# 5 25.4162 -0.5914 20.8458 0.0000 33.4268 0.0000
# 6 0.0000 0.0000 0.0000 -2.3238 0.0000 15.5812
#
#
#
# Elastic Compliance Matrix: (Units=1/GPa)
#
#
# Indices 1 2 3 4 5 6 
#
# 1 0.011263 0.000534 -0.007375 0.000000 -0.003955 0.000000
# 2 0.000534 0.041728 0.000369 0.000000 0.000102 0.000000
# 3 -0.007375 0.000369 0.013500 0.000000 -0.002805 0.000000
# 4 0.000000 0.000000 0.000000 0.067213 0.000000 0.010024
# 5 -0.003955 0.000102 -0.002805 0.000000 0.034675 0.000000
# 6 0.000000 0.000000 0.000000 0.010024 0.000000 0.065675
#
#
# Mechanical properties :
#
#
# Convention : Reuss Voigt Hill
#
# Bulk Modulus (GPa) = 18.67499 53.66062 36.16781
# Shear Modulus (GPa) = 18.87888 27.78008 23.32948
#
# Velocity S-wave (km/s) = 3.20176 3.88390 3.55921
# Velocity P-wave (km/s) = 4.87944 7.01789 6.04399
#
# Compressibility (1/GPa) = 0.05354754
#
# Stress axis : x y z
#
# Youngs Moduli (GPa) = 88.78799 23.96454 74.07564
#
# Poissons Ratio (x) = -0.01280 0.54627
# Poissons Ratio (y) = -0.04742 -0.02731
# Poissons Ratio (z) = 0.65477 -0.00884
#
# Static dielectric constant tensor:
#      x y z
#    x 1.642520 0.000000 0.019300 
#    y 0.000000 1.730220 0.000000 
#    z 0.019300 0.000000 1.623610 
# 
# From -- ./inp_files/179156.got.cif
#   From: 2010.05.17/outbox.cif.g08.bks.cpg/sg12_90_cif.got.tgz:179156.got - 2010.06.03 13:09:07.
