data_PCOD9220350
_publ_section_title
;
Structure prediction by ZEFSAII (Michael W. Deem and Ramdas Pophale) SiO2 
 PCOD9220350
Probable space group: C 2/M
;
_chemical_formula_sum "Si O2"
_cell_formula_units_Z 32
_cell_length_a 15.875953
_cell_length_b 15.472149
_cell_length_c 11.719335
_cell_angle_alpha 90.000000
_cell_angle_beta 26.677095
_cell_angle_gamma 90.000000
_cell_volume 1292.417482
_symmetry_space_group_name_H-M "C 2/M"
_symmetry_group_IT_number 12
_symmetry_cell_setting 'monoclinic'
loop_
_space_group_symop_operation_xyz
x,y,z
-x,y,-z
-x,-y,-z
x,-y,z
1/2+x,1/2+y,z
1/2-x,1/2+y,-z
1/2-x,1/2-y,-z
1/2+x,1/2-y,z
loop_
_atom_site_type_symbol
_atom_site_label
_atom_site_fract_x
_atom_site_fract_y
_atom_site_fract_z
Si Si1 0.121679 0.100367 0.027469
Si Si2 0.223630 0.000000 0.325880
Si Si3 0.713800 0.141470 0.411442
Si Si4 0.490760 0.000000 0.807662
Si Si5 0.530893 0.315288 0.592059
O O1 0.908630 0.114938 0.237361
O O2 0.135972 0.164788 0.117007
O O3 0.145006 0.000000 0.030303
O O4 0.253846 0.120077 0.760661
O O5 0.120228 0.910075 0.470573
O O6 0.377228 0.000000 0.240099
O O7 0.292809 0.000000 0.110787
O O8 0.549313 0.083086 0.663433
O O9 0.665693 0.242073 0.480261
O O10 0.500000 0.286373 0.500000
#
# Coordination Sequence:
#
# PCOD9220350 Si02
#       5
#     8   4   8   4   8
#     4  11  21  42  72  93 123 167 219 265 314 374
#     4  11  25  41  67  97 130 165 209 271 320 379
#     4  11  22  41  68  98 123 162 216 269 313 372
#     4  11  22  42  69  99 126 153 220 273 322 361
#     4  12  26  43  62  93 134 175 211 256 323 386
#
# _framework density 24.759801
#
# number of rings (size 3 to 8) (size 9 to 14) (size 15 to 20)
#    0.000    0.750    6.250    1.875    3.500    3.000 
#    0.000    0.625    0.000    0.000    0.000    0.000 
#    0.000    0.000    0.000    0.000    0.000    0.000 
#
# Total GULP energy -89589.630311 kJ/mol
# GULP energy per Si atom -5599.351894 kJ/mol
# Density = 2.470345 g / cm^3
# Si number density = 24.759801 Si / 1000 Ang^3
#
#
#
# Elastic Constant Matrix: (Units=GPa)
#
#
# Indices 1 2 3 4 5 6 
#
# 1 95.4965 28.4601 41.9995 0.0181 36.2046 0.0073
# 2 28.4601 184.7667 69.4598 0.0115 4.4223 0.0083
# 3 41.9995 69.4598 150.9766 0.0119 60.6125 0.0106
# 4 0.0181 0.0115 0.0119 19.5366 -0.0143 25.4227
# 5 36.2046 4.4223 60.6125 -0.0143 51.9990 -0.0085
# 6 0.0073 0.0083 0.0106 25.4227 -0.0085 139.0400
#
#
#
# Elastic Compliance Matrix: (Units=1/GPa)
#
#
# Indices 1 2 3 4 5 6 
#
# 1 0.015295 -0.002940 0.002392 -0.000028 -0.013187 0.000004
# 2 -0.002940 0.008089 -0.006483 0.000010 0.008916 -0.000001
# 3 0.002392 -0.006483 0.017646 -0.000029 -0.021683 0.000003
# 4 -0.000028 0.000010 -0.000029 0.067168 0.000069 -0.012281
# 5 -0.013187 0.008916 -0.021683 0.000069 0.052929 -0.000008
# 6 0.000004 -0.000001 0.000003 -0.012281 -0.000008 0.009438
#
#
# Mechanical properties :
#
#
# Convention : Reuss Voigt Hill
#
# Bulk Modulus (GPa) = 37.08041 79.00872 58.04456
# Shear Modulus (GPa) = 25.82437 61.53648 43.68042
#
# Velocity S-wave (km/s) = 3.23305 4.99073 4.20476
# Velocity P-wave (km/s) = 5.38009 8.07398 6.86056
#
# Compressibility (1/GPa) = 0.02696842
#
# Stress axis : x y z
#
# Youngs Moduli (GPa) = 65.37942 123.62746 56.67063
#
# Poissons Ratio (x) = 0.36340 -0.13555
# Poissons Ratio (y) = 0.19218 0.36740
# Poissons Ratio (z) = -0.15638 0.80149
#
# Static dielectric constant tensor:
#      x y z
#    x 2.049100 0.000000 -0.011940 
#    y 0.000000 1.857320 0.000000 
#    z -0.011940 0.000000 1.956510 
# 
# From -- ./inp_files/128913.got.cif
#   From: 2010.05.17/outbox.cif.g08.bks.cpg/sg12_65_cif.got.tgz:128913.got - 2010.06.03 13:09:07.
