data_PCOD9220165
_publ_section_title
;
Structure prediction by ZEFSAII (Michael W. Deem and Ramdas Pophale) SiO2 
 PCOD9220165
Probable space group: C 2/M
;
_chemical_formula_sum "Si O2"
_cell_formula_units_Z 44
_cell_length_a 19.396793
_cell_length_b 13.204887
_cell_length_c 7.871943
_cell_angle_alpha 90.000000
_cell_angle_beta 70.996087
_cell_angle_gamma 90.000000
_cell_volume 1906.366565
_symmetry_space_group_name_H-M "C 2/M"
_symmetry_group_IT_number 12
_symmetry_cell_setting 'monoclinic'
loop_
_space_group_symop_operation_xyz
x,y,z
-x,y,-z
-x,-y,-z
x,-y,z
1/2+x,1/2+y,z
1/2-x,1/2+y,-z
1/2-x,1/2-y,-z
1/2+x,1/2-y,z
loop_
_atom_site_type_symbol
_atom_site_label
_atom_site_fract_x
_atom_site_fract_y
_atom_site_fract_z
Si Si1 0.450643 0.115416 0.711445
Si Si2 0.185328 0.500000 0.535625
Si Si3 0.770047 0.000000 0.127702
Si Si4 0.205823 0.224062 0.864192
Si Si5 0.591621 0.187459 0.742013
Si Si6 0.194336 0.000000 0.272279
Si Si7 0.647129 0.282885 0.380887
O O1 0.500000 0.108781 0.500000
O O2 0.507843 0.156952 0.803436
O O3 0.390797 0.199396 0.710348
O O4 0.427381 0.000000 0.772177
O O5 0.207395 0.500000 0.320831
O O6 0.136392 0.595248 0.622593
O O7 0.256314 0.500000 0.598374
O O8 0.810773 0.105382 0.125978
O O9 0.754553 0.000000 0.937533
O O10 0.133748 0.286334 0.880267
O O11 0.267792 0.251719 0.676226
O O12 0.250000 0.250000 0.000000
O O13 0.607236 0.277184 0.594079
O O14 0.148022 0.103102 0.309611
#
# Coordination Sequence:
#
# PCOD9220165 Si02
#       7
#     8   4   4   8   8   4   8
#     4   9  20  37  64  95 128 165 216 276 328 392
#     4  12  20  36  68  98 128 164 215 273 344 389
#     4  12  24  36  62  99 126 172 210 270 340 380
#     4  12  23  39  61  91 131 166 216 270 332 387
#     4  11  21  39  64  97 126 164 217 277 328 391
#     4  12  24  42  60  96 139 169 219 277 318 399
#     4  11  22  38  61  94 128 173 212 267 330 387
#
# _framework density 23.080556999999999
#
# number of rings (size 3 to 8) (size 9 to 14) (size 15 to 20)
#    0.000    0.909    6.364    1.636    2.545    0.000 
#    0.000    5.909    0.000    2.182    0.000    0.000 
#    0.000    0.000    0.000    0.000    0.000    0.000 
#
# Total GULP energy -122998.988817 kJ/mol
# GULP energy per Si atom -5590.863128 kJ/mol
# Density = 2.302802 g / cm^3
# Si number density = 23.080557 Si / 1000 Ang^3
#
#
#
# Elastic Constant Matrix: (Units=GPa)
#
#
# Indices 1 2 3 4 5 6 
#
# 1 154.4435 65.0664 35.2704 0.0000 29.8244 0.0000
# 2 65.0664 182.5618 27.6062 0.0000 7.2331 0.0000
# 3 35.2704 27.6062 108.7907 0.0000 19.5713 0.0000
# 4 0.0000 0.0000 0.0000 17.3614 0.0000 0.5372
# 5 29.8244 7.2331 19.5713 0.0000 35.7779 0.0000
# 6 0.0000 0.0000 0.0000 0.5372 0.0000 33.5301
#
#
#
# Elastic Compliance Matrix: (Units=1/GPa)
#
#
# Indices 1 2 3 4 5 6 
#
# 1 0.009174 -0.002849 -0.001086 0.000000 -0.006477 0.000000
# 2 -0.002849 0.006586 -0.001037 0.000000 0.001611 0.000000
# 3 -0.001086 -0.001037 0.010655 0.000000 -0.004714 0.000000
# 4 0.000000 0.000000 0.000000 0.057627 0.000000 -0.000923
# 5 -0.006477 0.001611 -0.004714 0.000000 0.035603 0.000000
# 6 0.000000 0.000000 0.000000 -0.000923 0.000000 0.029839
#
#
# Mechanical properties :
#
#
# Convention : Reuss Voigt Hill
#
# Bulk Modulus (GPa) = 60.71406 77.96467 69.33936
# Shear Modulus (GPa) = 30.31798 38.52408 34.42103
#
# Velocity S-wave (km/s) = 3.62826 4.08991 3.86598
# Velocity P-wave (km/s) = 6.62682 7.49372 7.07356
#
# Compressibility (1/GPa) = 0.01647065
#
# Stress axis : x y z
#
# Youngs Moduli (GPa) = 109.00499 151.83765 93.85009
#
# Poissons Ratio (x) = 0.43255 0.10193
# Poissons Ratio (y) = 0.31053 0.09736
# Poissons Ratio (z) = 0.11839 0.15752
#
# Static dielectric constant tensor:
#      x y z
#    x 1.842310 0.000000 0.031960 
#    y 0.000000 1.887650 0.000000 
#    z 0.031960 0.000000 1.962960 
# 
# From -- ./inp_files/84106.got.cif
#   From: 2010.05.17/outbox.cif.g08.bks.cpg/sg12_43_cif.got.tgz:84106.got - 2010.06.03 13:09:07.
