data_PCOD9220622
_publ_section_title
;
Structure prediction by ZEFSAII (Michael W. Deem and Ramdas Pophale) SiO2 
 PCOD9220622
Probable space group: C 2/M
;
_chemical_formula_sum "Si O2"
_cell_formula_units_Z 48
_cell_length_a 9.303035
_cell_length_b 22.408565
_cell_length_c 13.323168
_cell_angle_alpha 90.000000
_cell_angle_beta 107.316471
_cell_angle_gamma 90.000000
_cell_volume 2651.562566
_symmetry_space_group_name_H-M "C 2/M"
_symmetry_group_IT_number 12
_symmetry_cell_setting 'monoclinic'
loop_
_space_group_symop_operation_xyz
x,y,z
-x,y,-z
-x,-y,-z
x,-y,z
1/2+x,1/2+y,z
1/2-x,1/2+y,-z
1/2-x,1/2-y,-z
1/2+x,1/2-y,z
loop_
_atom_site_type_symbol
_atom_site_label
_atom_site_fract_x
_atom_site_fract_y
_atom_site_fract_z
Si Si1 0.377972 0.430553 0.898174
Si Si2 0.903654 0.769240 0.581283
Si Si3 0.282104 0.615937 0.668970
Si Si4 0.177508 0.933143 0.528289
Si Si5 0.550539 0.142102 0.319745
Si Si6 0.032673 0.430514 0.890503
O O1 0.416482 0.500000 0.889411
O O2 0.366333 0.400345 0.788251
O O3 0.212052 0.427818 0.911180
O O4 0.500000 0.404753 0.000000
O O5 0.750000 0.750000 0.500000
O O6 0.864798 0.826685 0.639043
O O7 0.950483 0.713371 0.661377
O O8 0.000000 0.779365 0.500000
O O9 0.291461 0.567466 0.583765
O O10 0.104979 0.623117 0.657511
O O11 0.298659 0.887498 0.601308
O O12 0.000000 0.917941 0.500000
O O13 0.199632 0.000000 0.574737
O O14 0.538382 0.115444 0.204530
O O15 0.986256 0.500000 0.860348
O O16 0.000000 0.417392 0.000000
#
# Coordination Sequence:
#
# PCOD9220622 Si02
#       6
#     8   8   8   8   8   8
#     4   9  19  37  59  84 114 148 187 234 289 344
#     4  12  22  39  59  84 117 155 194 238 289 342
#     4  11  22  37  59  83 112 153 196 233 285 348
#     4  11  23  35  52  84 118 145 184 238 292 345
#     4  11  22  38  59  82 112 153 194 234 288 347
#     4   9  19  37  60  85 112 146 189 235 287 346
#
# _framework density 18.102533000000001
#
# number of rings (size 3 to 8) (size 9 to 14) (size 15 to 20)
#    0.000    1.500    3.333    2.000    0.000    4.000 
#    0.000    4.167    0.000    4.000    0.000    0.000 
#    0.000    0.000    0.000    0.000    0.000    0.000 
#
# Total GULP energy -133741.946777 kJ/mol
# GULP energy per Si atom -5572.581116 kJ/mol
# Density = 1.806133 g / cm^3
# Si number density = 18.102533 Si / 1000 Ang^3
#
#
#
# Elastic Constant Matrix: (Units=GPa)
#
#
# Indices 1 2 3 4 5 6 
#
# 1 86.2302 37.7119 56.3151 0.0000 -6.6171 0.0000
# 2 37.7119 106.5635 55.7092 0.0000 -8.6758 0.0000
# 3 56.3151 55.7092 135.3375 0.0000 -10.5129 0.0000
# 4 0.0000 0.0000 0.0000 30.8451 0.0000 -5.0679
# 5 -6.6171 -8.6758 -10.5129 0.0000 35.8035 0.0000
# 6 0.0000 0.0000 0.0000 -5.0679 0.0000 16.8267
#
#
#
# Elastic Compliance Matrix: (Units=1/GPa)
#
#
# Indices 1 2 3 4 5 6 
#
# 1 0.016609 -0.002849 -0.005683 0.000000 0.000711 0.000000
# 2 -0.002849 0.012524 -0.003863 0.000000 0.001374 0.000000
# 3 -0.005683 -0.003863 0.011451 0.000000 0.001376 0.000000
# 4 0.000000 0.000000 0.000000 0.034108 0.000000 0.010273
# 5 0.000711 0.001374 0.001376 0.000000 0.028798 0.000000
# 6 0.000000 0.000000 0.000000 0.010273 0.000000 0.062523
#
#
# Mechanical properties :
#
#
# Convention : Reuss Voigt Hill
#
# Bulk Modulus (GPa) = 63.31838 69.73372 66.52605
# Shear Modulus (GPa) = 25.50145 28.58806 27.04476
#
# Velocity S-wave (km/s) = 3.75737 3.97826 3.86939
# Velocity P-wave (km/s) = 7.34012 7.72705 7.53607
#
# Compressibility (1/GPa) = 0.01579320
#
# Stress axis : x y z
#
# Youngs Moduli (GPa) = 60.20863 79.84934 87.33028
#
# Poissons Ratio (x) = 0.22748 0.49632
# Poissons Ratio (y) = 0.17152 0.33735
# Poissons Ratio (z) = 0.34218 0.30845
#
# Static dielectric constant tensor:
#      x y z
#    x 1.607070 0.000000 0.014330 
#    y 0.000000 1.630680 0.000000 
#    z 0.014330 0.000000 1.594660 
# 
# From -- ./inp_files/121864.got.cif
#   From: 2010.05.17/outbox.cif.g08.bks.cpg/sg12_61_cif.got.tgz:121864.got - 2010.06.03 13:09:07.
