data_PCOD9220115
_publ_section_title
;
Structure prediction by ZEFSAII (Michael W. Deem and Ramdas Pophale) SiO2 
 PCOD9220115
Probable space group: C 2/M
;
_chemical_formula_sum "Si O2"
_cell_formula_units_Z 42
_cell_length_a 14.391367
_cell_length_b 7.477018
_cell_length_c 15.428011
_cell_angle_alpha 90.000000
_cell_angle_beta 71.429426
_cell_angle_gamma 90.000000
_cell_volume 1573.684412
_symmetry_space_group_name_H-M "C 2/M"
_symmetry_group_IT_number 12
_symmetry_cell_setting 'monoclinic'
loop_
_space_group_symop_operation_xyz
x,y,z
-x,y,-z
-x,-y,-z
x,-y,z
1/2+x,1/2+y,z
1/2-x,1/2+y,-z
1/2-x,1/2-y,-z
1/2+x,1/2-y,z
loop_
_atom_site_type_symbol
_atom_site_label
_atom_site_fract_x
_atom_site_fract_y
_atom_site_fract_z
Si Si1 0.929485 0.291856 0.233745
Si Si2 0.500000 0.000000 0.000000
Si Si3 0.625456 0.216013 0.380829
Si Si4 0.609010 0.306405 0.077026
Si Si5 0.607127 0.785360 0.571915
Si Si6 0.249119 0.214531 0.820030
O O1 0.956017 0.500000 0.241165
O O2 0.873604 0.221661 0.335969
O O3 0.857597 0.282947 0.173721
O O4 0.027678 0.193780 0.178686
O O5 0.567853 0.154425 0.027965
O O6 0.509735 0.250386 0.402885
O O7 0.654578 0.283947 0.468553
O O8 0.684560 0.281492 0.280501
O O9 0.634666 0.000000 0.379510
O O10 0.612115 0.500000 0.032781
O O11 0.791691 0.227018 0.898998
O O12 0.621585 0.000000 0.566824
O O13 0.249896 0.000000 0.817664
#
# Coordination Sequence:
#
# PCOD9220115 Si02
#       6
#     8   2   8   8   8   8
#     4  11  21  38  64  97 137 181 226 278 329 394
#     4  12  26  52  80 102 134 170 206 272 348 414
#     4   8  14  27  52  86 126 179 232 276 325 377
#     4  12  25  47  76 103 134 170 218 268 337 413
#     4   8  14  27  52  86 126 179 232 276 325 377
#     4  11  21  38  64  97 137 181 226 278 329 394
#
# _framework density 26.688960000000002
#
# number of rings (size 3 to 8) (size 9 to 14) (size 15 to 20)
#    0.000    1.905    3.810    2.571    0.000    0.762 
#    0.000    0.952    0.000    4.571    0.000    0.000 
#    0.000    0.000    0.000    0.000    0.000    0.000 
#
# Total GULP energy -117362.537864 kJ/mol
# GULP energy per Si atom -5588.692279 kJ/mol
# Density = 2.662821 g / cm^3
# Si number density = 26.688960 Si / 1000 Ang^3
#
#
#
# Elastic Constant Matrix: (Units=GPa)
#
#
# Indices 1 2 3 4 5 6 
#
# 1 121.0128 9.1810 31.3517 0.0000 40.6186 0.0000
# 2 9.1810 147.7359 4.0832 0.0000 20.1861 0.0000
# 3 31.3517 4.0832 174.6735 0.0000 24.9377 0.0000
# 4 0.0000 0.0000 0.0000 9.4411 0.0000 -0.7006
# 5 40.6186 20.1861 24.9377 0.0000 51.9035 0.0000
# 6 0.0000 0.0000 0.0000 -0.7006 0.0000 -37.5053
#
#
#
# Elastic Compliance Matrix: (Units=1/GPa)
#
#
# Indices 1 2 3 4 5 6 
#
# 1 0.011352 0.000504 -0.000808 0.000000 -0.008692 0.000000
# 2 0.000504 0.007181 0.000211 0.000000 -0.003289 0.000000
# 3 -0.000808 0.000211 0.006213 0.000000 -0.002434 0.000000
# 4 0.000000 0.000000 0.000000 0.105774 0.000000 -0.001976
# 5 -0.008692 -0.003289 -0.002434 0.000000 0.028517 0.000000
# 6 0.000000 0.000000 0.000000 -0.001976 0.000000 -0.026626
#
#
# Mechanical properties :
#
#
# Convention : Reuss Voigt Hill
#
# Bulk Modulus (GPa) = 40.71610 59.18377 49.94994
# Shear Modulus (GPa) = 35.51559 31.35494 33.43526
#
# Velocity S-wave (km/s) = 3.65186 3.43129 3.54330
# Velocity P-wave (km/s) = 5.75069 6.15808 5.95786
#
# Compressibility (1/GPa) = 0.02456031
#
# Stress axis : x y z
#
# Youngs Moduli (GPa) = 88.08848 139.25529 160.96073
#
# Poissons Ratio (x) = -0.07025 0.13013
# Poissons Ratio (y) = -0.04444 -0.03399
# Poissons Ratio (z) = 0.07122 -0.02941
#
# Static dielectric constant tensor:
#      x y z
#    x 2.035510 0.000000 0.004240 
#    y 0.000000 1.995300 0.000000 
#    z 0.004240 0.000000 2.197640 
# 
# From -- ./inp_files/280016.got.cif
#   From: 2010.05.17/outbox.cif.g08.bks.cpg/sg12_141_cif.got.tgz:280016.got - 2010.06.03 13:09:07.
