data_PCOD9220143
_publ_section_title
;
Structure prediction by ZEFSAII (Michael W. Deem and Ramdas Pophale) SiO2 
 PCOD9220143
Probable space group: C 2/M
;
_chemical_formula_sum "Si O2"
_cell_formula_units_Z 36
_cell_length_a 11.411743
_cell_length_b 27.392685
_cell_length_c 5.450129
_cell_angle_alpha 90.000000
_cell_angle_beta 101.059294
_cell_angle_gamma 90.000000
_cell_volume 1672.061859
_symmetry_space_group_name_H-M "C 2/M"
_symmetry_group_IT_number 12
_symmetry_cell_setting 'monoclinic'
loop_
_space_group_symop_operation_xyz
x,y,z
-x,y,-z
-x,-y,-z
x,-y,z
1/2+x,1/2+y,z
1/2-x,1/2+y,-z
1/2-x,1/2-y,-z
1/2+x,1/2-y,z
loop_
_atom_site_type_symbol
_atom_site_label
_atom_site_fract_x
_atom_site_fract_y
_atom_site_fract_z
Si Si1 0.104445 0.206264 0.355815
Si Si2 0.252083 0.600915 0.075340
Si Si3 0.500000 0.623780 0.000000
Si Si4 0.695827 0.209184 0.162826
Si Si5 0.639396 0.941424 0.533466
O O1 0.088902 0.160936 0.172857
O O2 0.222673 0.202390 0.563109
O O3 0.087935 0.259413 0.228669
O O4 0.000000 0.199723 0.500000
O O5 0.398861 0.597850 0.126456
O O6 0.196456 0.656111 0.046685
O O7 0.201341 0.579187 0.310835
O O8 0.205431 0.574563 0.810578
O O9 0.750000 0.250000 0.000000
O O10 0.500000 0.925747 0.500000
O O11 0.641353 0.000000 0.517356
#
# Coordination Sequence:
#
# PCOD9220143 Si02
#       5
#     8   8   4   8   8
#     4  11  21  39  60  87 145 204 226 279 337 405
#     4  12  25  45  77 110 141 190 241 294 360 444
#     4  12  24  42  67 108 152 200 221 284 374 436
#     4  11  23  38  60  98 141 187 245 270 327 418
#     4  11  27  54  78 102 137 182 241 312 375 420
#
# _framework density 21.530304000000001
#
# number of rings (size 3 to 8) (size 9 to 14) (size 15 to 20)
#    0.000    0.667    4.444    2.667    3.111    2.667 
#    8.000    3.333    0.000    0.000    0.000    0.000 
#    0.000    0.000    0.000    0.000    0.000    0.000 
#
# Total GULP energy -100326.832962 kJ/mol
# GULP energy per Si atom -5573.712942 kJ/mol
# Density = 2.148130 g / cm^3
# Si number density = 21.530304 Si / 1000 Ang^3
#
#
#
# Elastic Constant Matrix: (Units=GPa)
#
#
# Indices 1 2 3 4 5 6 
#
# 1 88.4450 30.2985 43.6029 0.0000 -14.7791 0.0000
# 2 30.2985 90.0655 35.6975 0.0000 -16.7097 0.0000
# 3 43.6029 35.6975 140.8491 0.0000 -4.9612 0.0000
# 4 0.0000 0.0000 0.0000 45.6081 0.0000 -3.6166
# 5 -14.7791 -16.7097 -4.9612 0.0000 46.6554 0.0000
# 6 0.0000 0.0000 0.0000 -3.6166 0.0000 33.8176
#
#
#
# Elastic Compliance Matrix: (Units=1/GPa)
#
#
# Indices 1 2 3 4 5 6 
#
# 1 0.014648 -0.002866 -0.003695 0.000000 0.003221 0.000000
# 2 -0.002866 0.013739 -0.002463 0.000000 0.003751 0.000000
# 3 -0.003695 -0.002463 0.008829 0.000000 -0.001114 0.000000
# 4 0.000000 0.000000 0.000000 0.022113 0.000000 0.002365
# 5 0.003221 0.003751 -0.001114 0.000000 0.023679 0.000000
# 6 0.000000 0.000000 0.000000 0.002365 0.000000 0.029823
#
#
# Mechanical properties :
#
#
# Convention : Reuss Voigt Hill
#
# Bulk Modulus (GPa) = 52.16777 59.83971 56.00374
# Shear Modulus (GPa) = 36.42518 39.20027 37.81273
#
# Velocity S-wave (km/s) = 4.11762 4.27160 4.19532
# Velocity P-wave (km/s) = 6.84755 7.22373 7.03816
#
# Compressibility (1/GPa) = 0.01916892
#
# Stress axis : x y z
#
# Youngs Moduli (GPa) = 68.26933 72.78481 113.26842
#
# Poissons Ratio (x) = 0.20857 0.41851
# Poissons Ratio (y) = 0.19563 0.27897
# Poissons Ratio (z) = 0.25224 0.17926
#
# Static dielectric constant tensor:
#      x y z
#    x 1.732100 0.000000 -0.049000 
#    y 0.000000 2.044120 0.000000 
#    z -0.049000 0.000000 1.823570 
# 
# From -- ./inp_files/7077.got.cif
#   From: 2010.05.17/outbox.cif.g08.bks.cpg/sg12_4_cif.got.tgz:7077.got - 2010.06.03 13:09:07.
