data_PCOD9220998
_publ_section_title
;
Structure prediction by ZEFSAII (Michael W. Deem and Ramdas Pophale) SiO2 
 PCOD9220998
Probable space group: C 2/M
;
_chemical_formula_sum "Si O2"
_cell_formula_units_Z 40
_cell_length_a 16.414801
_cell_length_b 14.963925
_cell_length_c 12.158292
_cell_angle_alpha 90.000000
_cell_angle_beta 41.513467
_cell_angle_gamma 90.000000
_cell_volume 1979.400324
_symmetry_space_group_name_H-M "C 2/M"
_symmetry_group_IT_number 12
_symmetry_cell_setting 'monoclinic'
loop_
_space_group_symop_operation_xyz
x,y,z
-x,y,-z
-x,-y,-z
x,-y,z
1/2+x,1/2+y,z
1/2-x,1/2+y,-z
1/2-x,1/2-y,-z
1/2+x,1/2-y,z
loop_
_atom_site_type_symbol
_atom_site_label
_atom_site_fract_x
_atom_site_fract_y
_atom_site_fract_z
Si Si1 0.722744 0.741300 0.155447
Si Si2 0.478793 0.402633 0.649328
Si Si3 0.270505 0.644086 0.481526
Si Si4 0.646999 0.603747 0.848166
Si Si5 0.142315 0.401911 0.825502
O O1 0.592364 0.691435 0.276944
O O2 0.765258 0.835486 0.164578
O O3 0.793294 0.672329 0.165104
O O4 0.750000 0.750000 0.000000
O O5 0.500000 0.414173 0.500000
O O6 0.427423 0.500000 0.742742
O O7 0.605817 0.385970 0.582550
O O8 0.250000 0.750000 0.500000
O O9 0.293383 0.612203 0.333920
O O10 0.164938 0.610215 0.672038
O O11 0.647478 0.500000 0.881049
O O12 0.500000 0.632226 0.000000
O O13 0.192235 0.500000 0.804459
O O14 0.000000 0.398934 0.000000
#
# Coordination Sequence:
#
# PCOD9220998 Si02
#       5
#     8   8   8   8   8
#     4  12  25  40  65  95 136 171 216 273 333 392
#     4  11  22  40  67  98 130 167 219 275 328 392
#     4  12  23  41  73  97 133 173 223 274 333 393
#     4  11  24  44  69 100 136 176 224 277 333 398
#     4  11  24  43  67  95 131 174 222 272 326 391
#
# _framework density 20.20814
#
# number of rings (size 3 to 8) (size 9 to 14) (size 15 to 20)
#    0.000    0.600    4.000    4.200    2.800    3.200 
#    0.000    0.000    0.000    1.800    0.000    0.000 
#    0.000    0.000    0.000    0.000    0.000    0.000 
#
# Total GULP energy -111364.786890 kJ/mol
# GULP energy per Si atom -5568.239345 kJ/mol
# Density = 2.016215 g / cm^3
# Si number density = 20.208140 Si / 1000 Ang^3
#
#
#
# Elastic Constant Matrix: (Units=GPa)
#
#
# Indices 1 2 3 4 5 6 
#
# 1 79.7609 25.9056 43.6775 0.0000 24.3679 0.0000
# 2 25.9056 123.5445 30.2280 0.0000 3.2231 0.0000
# 3 43.6775 30.2280 140.4943 0.0000 18.3254 0.0000
# 4 0.0000 0.0000 0.0000 26.0030 0.0000 2.7539
# 5 24.3679 3.2231 18.3254 0.0000 39.6422 0.0000
# 6 0.0000 0.0000 0.0000 2.7539 0.0000 13.3521
#
#
#
# Elastic Compliance Matrix: (Units=1/GPa)
#
#
# Indices 1 2 3 4 5 6 
#
# 1 0.018385 -0.002650 -0.003937 0.000000 -0.009266 0.000000
# 2 -0.002650 0.008927 -0.001293 0.000000 0.001501 0.000000
# 3 -0.003937 -0.001293 0.008822 0.000000 -0.001553 0.000000
# 4 0.000000 0.000000 0.000000 0.039316 0.000000 -0.008109
# 5 -0.009266 0.001501 -0.001553 0.000000 0.031517 0.000000
# 6 0.000000 0.000000 0.000000 -0.008109 0.000000 0.076567
#
#
# Mechanical properties :
#
#
# Convention : Reuss Voigt Hill
#
# Bulk Modulus (GPa) = 49.07915 60.38021 54.72968
# Shear Modulus (GPa) = 24.26183 32.06538 28.16361
#
# Velocity S-wave (km/s) = 3.46872 3.98773 3.73725
# Velocity P-wave (km/s) = 6.35470 7.15169 6.76494
#
# Compressibility (1/GPa) = 0.02037525
#
# Stress axis : x y z
#
# Youngs Moduli (GPa) = 54.39284 112.01926 113.34899
#
# Poissons Ratio (x) = 0.29686 0.44623
# Poissons Ratio (y) = 0.14415 0.14651
# Poissons Ratio (z) = 0.21413 0.14479
#
# Static dielectric constant tensor:
#      x y z
#    x 1.648480 0.000000 -0.110230 
#    y 0.000000 1.908440 0.000000 
#    z -0.110230 0.000000 1.597710 
# 
# From -- ./inp_files/142514.got.cif
#   From: 2010.05.17/outbox.cif.g08.bks.cpg/sg12_72_cif.got.tgz:142514.got - 2010.06.03 13:09:07.
