data_PCOD9220854
_publ_section_title
;
Structure prediction by ZEFSAII (Michael W. Deem and Ramdas Pophale) SiO2 
 PCOD9220854
Probable space group: C 2/M
;
_chemical_formula_sum "Si O2"
_cell_formula_units_Z 32
_cell_length_a 14.072489
_cell_length_b 22.058677
_cell_length_c 8.497290
_cell_angle_alpha 90.000000
_cell_angle_beta 31.540379
_cell_angle_gamma 90.000000
_cell_volume 1379.796324
_symmetry_space_group_name_H-M "C 2/M"
_symmetry_group_IT_number 12
_symmetry_cell_setting 'monoclinic'
loop_
_space_group_symop_operation_xyz
x,y,z
-x,y,-z
-x,-y,-z
x,-y,z
1/2+x,1/2+y,z
1/2-x,1/2+y,-z
1/2-x,1/2-y,-z
1/2+x,1/2-y,z
loop_
_atom_site_type_symbol
_atom_site_label
_atom_site_fract_x
_atom_site_fract_y
_atom_site_fract_z
Si Si1 0.877109 0.395034 0.804673
Si Si2 0.555749 0.215984 0.743180
Si Si3 0.214760 0.433514 0.732067
Si Si4 0.517009 0.344880 0.164816
O O1 0.000000 0.426882 0.500000
O O2 0.000642 0.340209 0.708803
O O3 0.790690 0.430019 0.072523
O O4 0.701661 0.374574 0.957293
O O5 0.750000 0.250000 0.500000
O O6 0.456685 0.275463 0.817108
O O7 0.500000 0.200238 0.000000
O O8 0.277987 0.500000 0.586958
O O9 0.343671 0.381065 0.479914
O O10 0.000000 0.428979 0.000000
O O11 0.500000 0.344825 0.000000
#
# Coordination Sequence:
#
# PCOD9220854 Si02
#       4
#     8   8   8   8
#     4  12  24  40  65  96 132 173 219 267 327 392
#     4  11  22  39  63  93 133 170 212 267 327 392
#     4  11  25  46  69  94 129 173 222 275 330 392
#     4  11  24  42  65  96 132 172 217 270 329 392
#
# _framework density 23.19183
#
# number of rings (size 3 to 8) (size 9 to 14) (size 15 to 20)
#    0.000    0.750    0.000    9.750    0.000    5.000 
#    0.000    0.000    0.000    0.000    0.000    0.000 
#    0.000    0.000    0.000    0.000    0.000    0.000 
#
# Total GULP energy -89240.596907 kJ/mol
# GULP energy per Si atom -5577.537307 kJ/mol
# Density = 2.313904 g / cm^3
# Si number density = 23.191830 Si / 1000 Ang^3
#
#
#
# Elastic Constant Matrix: (Units=GPa)
#
#
# Indices 1 2 3 4 5 6 
#
# 1 88.4636 13.4155 23.4141 -0.0002 -9.6327 0.0002
# 2 13.4155 130.3070 32.8253 0.0000 15.5675 0.0001
# 3 23.4141 32.8253 119.4826 0.0000 15.7613 0.0004
# 4 -0.0002 0.0000 0.0000 16.1251 0.0001 14.6055
# 5 -9.6327 15.5675 15.7613 0.0001 47.0459 -0.0002
# 6 0.0002 0.0001 0.0004 14.6055 -0.0002 2.3677
#
#
#
# Elastic Compliance Matrix: (Units=1/GPa)
#
#
# Indices 1 2 3 4 5 6 
#
# 1 0.012594 -0.001080 -0.002677 0.000000 0.003833 0.000000
# 2 -0.001080 0.008533 -0.001811 0.000000 -0.002438 0.000000
# 3 -0.002677 -0.001811 0.009819 0.000000 -0.003238 0.000000
# 4 0.000000 0.000000 0.000000 -0.013519 0.000000 0.083393
# 5 0.003833 -0.002438 -0.003238 0.000000 0.023932 -0.000001
# 6 0.000000 0.000000 0.000000 0.083393 -0.000001 -0.092070
#
#
# Mechanical properties :
#
#
# Convention : Reuss Voigt Hill
#
# Bulk Modulus (GPa) = 50.48080 53.06255 51.77167
# Shear Modulus (GPa) = -151.64215 31.01430 -60.31392
#
# Velocity S-wave (km/s) = -8.09493 3.66087 -5.10519
# Velocity P-wave (km/s) = 8.09671 6.38739 3.51838
#
# Compressibility (1/GPa) = 0.01980951
#
# Stress axis : x y z
#
# Youngs Moduli (GPa) = 79.40480 117.19431 101.84704
#
# Poissons Ratio (x) = 0.12659 0.27262
# Poissons Ratio (y) = 0.08577 0.18444
# Poissons Ratio (z) = 0.21254 0.21223
#
# Static dielectric constant tensor:
#      x y z
#    x 1.986730 0.000000 -0.027820 
#    y 0.000000 2.009590 0.000000 
#    z -0.027820 0.000000 1.951630 
# 
# From -- ./inp_files/38703.got.cif
#   From: 2010.05.17/outbox.cif.g08.bks.cpg/sg12_20_cif.got.tgz:38703.got - 2010.06.03 13:09:07.
