data_PCOD9220808
_publ_section_title
;
Structure prediction by ZEFSAII (Michael W. Deem and Ramdas Pophale) SiO2 
 PCOD9220808
Probable space group: C 2/M
;
_chemical_formula_sum "Si O2"
_cell_formula_units_Z 56
_cell_length_a 22.736517
_cell_length_b 21.608264
_cell_length_c 16.745712
_cell_angle_alpha 90.000000
_cell_angle_beta 21.667434
_cell_angle_gamma 90.000000
_cell_volume 3037.602871
_symmetry_space_group_name_H-M "C 2/M"
_symmetry_group_IT_number 12
_symmetry_cell_setting 'monoclinic'
loop_
_space_group_symop_operation_xyz
x,y,z
-x,y,-z
-x,-y,-z
x,-y,z
1/2+x,1/2+y,z
1/2-x,1/2+y,-z
1/2-x,1/2-y,-z
1/2+x,1/2-y,z
loop_
_atom_site_type_symbol
_atom_site_label
_atom_site_fract_x
_atom_site_fract_y
_atom_site_fract_z
Si Si1 0.119694 0.930807 0.203492
Si Si2 0.239356 0.569641 0.668600
Si Si3 0.180639 0.730636 0.287809
Si Si4 0.638073 0.700107 0.095988
Si Si5 0.778311 0.368917 0.144995
Si Si6 0.873039 0.658215 0.320904
Si Si7 0.288539 0.239065 0.566979
O O1 0.164743 0.868931 0.096969
O O2 0.181763 0.917896 0.214658
O O3 0.928996 0.930803 0.441778
O O4 0.173244 0.000000 0.109918
O O5 0.179541 0.500000 0.745845
O O6 0.177230 0.607444 0.823124
O O7 0.200192 0.601083 0.634087
O O8 0.184283 0.804856 0.270037
O O9 0.223084 0.721502 0.326527
O O10 0.000000 0.708704 0.500000
O O11 0.304908 0.702820 0.067681
O O12 0.455803 0.723045 0.340773
O O13 0.750000 0.750000 0.000000
O O14 0.943655 0.354202 0.893008
O O15 0.849731 0.715492 0.289077
O O16 0.790799 0.680523 0.505534
#
# Coordination Sequence:
#
# PCOD9220808 Si02
#       7
#     8   8   8   8   8   8   8
#     4  11  23  40  61  85 122 164 200 250 307 365
#     4  11  23  38  58  86 125 166 200 240 303 376
#     4  12  22  34  64  93 120 154 199 260 304 348
#     4  12  20  38  63  92 118 154 204 251 303 354
#     4  12  21  35  58  91 121 159 200 244 302 365
#     4  11  23  37  57  81 129 162 194 243 295 361
#     4  11  22  39  56  89 126 157 198 251 305 357
#
# _framework density 18.435589
#
# number of rings (size 3 to 8) (size 9 to 14) (size 15 to 20)
#    0.000    0.571    7.143    2.143    0.000    2.857 
#    0.000    0.000    0.000    1.286    0.000    2.000 
#    0.000    0.000    0.000    0.000    0.000    0.000 
#
# Total GULP energy -156438.985087 kJ/mol
# GULP energy per Si atom -5587.106610 kJ/mol
# Density = 1.839363 g / cm^3
# Si number density = 18.435589 Si / 1000 Ang^3
#
#
#
# Elastic Constant Matrix: (Units=GPa)
#
#
# Indices 1 2 3 4 5 6 
#
# 1 103.2547 23.8114 24.1061 0.0047 17.1388 -0.0041
# 2 23.8114 102.2596 16.8750 0.0041 12.7516 -0.0026
# 3 24.1061 16.8750 44.3652 0.0025 0.1517 0.0079
# 4 0.0047 0.0041 0.0025 15.2769 -0.0035 -1.0929
# 5 17.1388 12.7516 0.1517 -0.0035 38.9228 -0.0026
# 6 -0.0041 -0.0026 0.0079 -1.0929 -0.0026 16.6783
#
#
#
# Elastic Compliance Matrix: (Units=1/GPa)
#
#
# Indices 1 2 3 4 5 6 
#
# 1 0.012227 -0.001211 -0.006166 -0.000003 -0.004963 0.000005
# 2 -0.001211 0.011025 -0.003525 -0.000003 -0.003065 0.000002
# 3 -0.006166 -0.003525 0.027219 -0.000002 0.003764 -0.000015
# 4 -0.000003 -0.000003 -0.000002 0.065767 0.000008 0.004310
# 5 -0.004963 -0.003065 0.003764 0.000008 0.028867 0.000001
# 6 0.000005 0.000002 -0.000015 0.004310 0.000001 0.060241
#
#
# Mechanical properties :
#
#
# Convention : Reuss Voigt Hill
#
# Bulk Modulus (GPa) = 34.88386 42.16275 38.52330
# Shear Modulus (GPa) = 21.12331 26.51473 23.81902
#
# Velocity S-wave (km/s) = 3.38862 3.79652 3.59836
# Velocity P-wave (km/s) = 5.85435 6.49138 6.18108
#
# Compressibility (1/GPa) = 0.02866655
#
# Stress axis : x y z
#
# Youngs Moduli (GPa) = 81.78305 90.70398 36.73937
#
# Poissons Ratio (x) = 0.10981 0.22655
# Poissons Ratio (y) = 0.09901 0.12951
# Poissons Ratio (z) = 0.50431 0.31975
#
# Static dielectric constant tensor:
#      x y z
#    x 1.650360 0.000000 -0.016370 
#    y 0.000000 1.639460 0.000010 
#    z -0.016370 0.000010 1.664120 
# 
# From -- ./inp_files/89511.got.cif
#   From: 2010.05.17/outbox.cif.g08.bks.cpg/sg12_45_cif.got.tgz:89511.got - 2010.06.03 13:09:07.
