data_PCOD9220922
_publ_section_title
;
Structure prediction by ZEFSAII (Michael W. Deem and Ramdas Pophale) SiO2 
 PCOD9220922
Probable space group: C 2/M
;
_chemical_formula_sum "Si O2"
_cell_formula_units_Z 48
_cell_length_a 9.755255
_cell_length_b 24.985932
_cell_length_c 13.775944
_cell_angle_alpha 90.000000
_cell_angle_beta 135.059443
_cell_angle_gamma 90.000000
_cell_volume 2371.862522
_symmetry_space_group_name_H-M "C 2/M"
_symmetry_group_IT_number 12
_symmetry_cell_setting 'monoclinic'
loop_
_space_group_symop_operation_xyz
x,y,z
-x,y,-z
-x,-y,-z
x,-y,z
1/2+x,1/2+y,z
1/2-x,1/2+y,-z
1/2-x,1/2-y,-z
1/2+x,1/2-y,z
loop_
_atom_site_type_symbol
_atom_site_label
_atom_site_fract_x
_atom_site_fract_y
_atom_site_fract_z
Si Si1 0.015151 0.127492 0.268764
Si Si2 0.865605 0.802456 0.028278
Si Si3 0.165247 0.560015 0.164641
Si Si4 0.810513 0.804667 0.475340
Si Si5 0.159248 0.937485 0.166975
Si Si6 0.468114 0.126491 0.221706
O O1 0.989581 0.176222 0.180459
O O2 0.816454 0.106127 0.214764
O O3 0.141302 0.150112 0.419833
O O4 0.079515 0.078695 0.231995
O O5 0.750000 0.750000 0.000000
O O6 0.699439 0.846397 0.926472
O O7 0.000000 0.795790 0.000000
O O8 0.249076 0.500000 0.211945
O O9 0.066638 0.577735 0.214804
O O10 0.000000 0.559524 0.000000
O O11 0.750000 0.750000 0.500000
O O12 0.626079 0.828729 0.326046
O O13 0.000000 0.797519 0.500000
O O14 0.345446 0.899811 0.246395
O O15 0.205289 0.000000 0.183606
O O16 0.000000 0.927131 0.000000
#
# Coordination Sequence:
#
# PCOD9220922 Si02
#       6
#     8   8   8   8   8   8
#     4  12  23  45  67 100 137 175 224 281 334 397
#     4  12  26  42  67 100 132 170 227 286 337 398
#     4  11  22  39  70 105 135 177 221 271 340 403
#     4  12  30  48  69  96 136 184 229 282 343 404
#     4  11  22  43  74 107 139 177 223 277 338 401
#     4  12  23  45  67 100 137 175 224 281 334 397
#
# _framework density 20.237262000000001
#
# number of rings (size 3 to 8) (size 9 to 14) (size 15 to 20)
#    0.000    0.333    6.667    2.000    4.667    5.333 
#    0.000    5.000    0.000    0.000    0.000    0.000 
#    0.000    0.000    0.000    0.000    0.000    0.000 
#
# Total GULP energy -134030.070362 kJ/mol
# GULP energy per Si atom -5584.586265 kJ/mol
# Density = 2.019120 g / cm^3
# Si number density = 20.237262 Si / 1000 Ang^3
#
#
#
# Elastic Constant Matrix: (Units=GPa)
#
#
# Indices 1 2 3 4 5 6 
#
# 1 87.3094 4.3043 14.0328 0.0000 8.2556 0.0000
# 2 4.3043 77.4293 -5.1635 0.0000 6.1487 0.0000
# 3 14.0328 -5.1635 39.1296 0.0000 0.5003 0.0000
# 4 0.0000 0.0000 0.0000 11.4819 0.0000 20.1540
# 5 8.2556 6.1487 0.5003 0.0000 25.1913 0.0000
# 6 0.0000 0.0000 0.0000 20.1540 0.0000 5.8392
#
#
#
# Elastic Compliance Matrix: (Units=1/GPa)
#
#
# Indices 1 2 3 4 5 6 
#
# 1 0.012585 -0.000697 -0.004556 0.000000 -0.003864 0.000000
# 2 -0.000697 0.013334 0.002049 0.000000 -0.003067 0.000000
# 3 -0.004556 0.002049 0.027455 0.000000 0.000448 0.000000
# 4 0.000000 0.000000 0.000000 -0.017218 0.000000 0.059427
# 5 -0.003864 -0.003067 0.000448 0.000000 0.041702 0.000000
# 6 0.000000 0.000000 0.000000 0.059427 0.000000 -0.033856
#
#
# Mechanical properties :
#
#
# Convention : Reuss Voigt Hill
#
# Bulk Modulus (GPa) = 21.29206 25.57952 23.43579
# Shear Modulus (GPa) = 75.68184 21.21546 48.44865
#
# Velocity S-wave (km/s) = 6.12197 3.24131 4.89819
# Velocity P-wave (km/s) = 7.77916 5.16482 6.60268
#
# Compressibility (1/GPa) = 0.04696586
#
# Stress axis : x y z
#
# Youngs Moduli (GPa) = 79.45665 74.99686 36.42380
#
# Poissons Ratio (x) = 0.05224 0.16595
# Poissons Ratio (y) = 0.05535 -0.07462
# Poissons Ratio (z) = 0.36200 -0.15363
#
# Static dielectric constant tensor:
#      x y z
#    x 1.767690 0.000000 -0.002270 
#    y 0.000000 1.696290 0.000000 
#    z -0.002270 0.000000 1.679240 
# 
# From -- ./inp_files/200230.got.cif
#   From: 2010.05.17/outbox.cif.g08.bks.cpg/sg12_101_cif.got.tgz:200230.got - 2010.06.03 13:09:07.
