data_PCOD9220103
_publ_section_title
;
Structure prediction by ZEFSAII (Michael W. Deem and Ramdas Pophale) SiO2 
 PCOD9220103
Probable space group: C 2/M
;
_chemical_formula_sum "Si O2"
_cell_formula_units_Z 28
_cell_length_a 10.872586
_cell_length_b 14.662275
_cell_length_c 6.909232
_cell_angle_alpha 90.000000
_cell_angle_beta 118.770153
_cell_angle_gamma 90.000000
_cell_volume 965.482504
_symmetry_space_group_name_H-M "C 2/M"
_symmetry_group_IT_number 12
_symmetry_cell_setting 'monoclinic'
loop_
_space_group_symop_operation_xyz
x,y,z
-x,y,-z
-x,-y,-z
x,-y,z
1/2+x,1/2+y,z
1/2-x,1/2+y,-z
1/2-x,1/2-y,-z
1/2+x,1/2-y,z
loop_
_atom_site_type_symbol
_atom_site_label
_atom_site_fract_x
_atom_site_fract_y
_atom_site_fract_z
Si Si1 0.250000 0.750000 0.500000
Si Si2 0.219446 0.648801 0.038838
Si Si3 0.586451 0.105779 0.340708
Si Si4 0.978034 0.901780 0.714448
O O1 0.360897 0.821041 0.467476
O O2 0.387726 0.687163 0.687912
O O3 0.198097 0.645438 0.260502
O O4 0.362094 0.599455 0.090010
O O5 0.250000 0.750000 0.000000
O O6 0.070379 0.611194 0.857081
O O7 0.612018 0.000000 0.400684
O O8 0.000000 0.901443 0.500000
O O9 0.913715 0.000000 0.716841
#
# Coordination Sequence:
#
# PCOD9220103 Si02
#       4
#     4   8   8   8
#     4  12  22  36  62  96 120 152 210 254 294 354
#     4  11  21  38  63  92 122 155 202 249 299 361
#     4  11  23  40  64  92 121 160 205 248 298 362
#     4  11  22  39  63  89 119 160 205 248 299 360
#
# _framework density 29.001045999999999
#
# number of rings (size 3 to 8) (size 9 to 14) (size 15 to 20)
#    0.000    0.857    5.714    4.286    0.000    0.000 
#    0.000    0.000    0.000   24.000    0.000    0.000 
#    0.000    0.000    0.000    0.000    0.000    0.000 
#
# Total GULP energy -78074.641783 kJ/mol
# GULP energy per Si atom -5576.760127 kJ/mol
# Density = 2.893504 g / cm^3
# Si number density = 29.001046 Si / 1000 Ang^3
#
#
#
# Elastic Constant Matrix: (Units=GPa)
#
#
# Indices 1 2 3 4 5 6 
#
# 1 130.3395 48.9613 76.7961 0.0000 34.9084 0.0000
# 2 48.9613 261.0850 49.2684 0.0000 40.5789 0.0000
# 3 76.7961 49.2684 131.0771 0.0000 65.1856 0.0000
# 4 0.0000 0.0000 0.0000 10.9584 0.0000 8.5815
# 5 34.9084 40.5789 65.1856 0.0000 101.5214 0.0000
# 6 0.0000 0.0000 0.0000 8.5815 0.0000 31.0793
#
#
#
# Elastic Compliance Matrix: (Units=1/GPa)
#
#
# Indices 1 2 3 4 5 6 
#
# 1 0.011995 -0.001048 -0.007039 0.000000 0.000814 0.000000
# 2 -0.001048 0.004279 -0.000475 0.000000 -0.001045 0.000000
# 3 -0.007039 -0.000475 0.015622 0.000000 -0.007420 0.000000
# 4 0.000000 0.000000 0.000000 0.116429 0.000000 -0.032148
# 5 0.000814 -0.001045 -0.007420 0.000000 0.014753 0.000000
# 6 0.000000 0.000000 0.000000 -0.032148 0.000000 0.041052
#
#
# Mechanical properties :
#
#
# Convention : Reuss Voigt Hill
#
# Bulk Modulus (GPa) = 67.68847 96.95037 82.31942
# Shear Modulus (GPa) = 22.10673 51.87688 36.99180
#
# Velocity S-wave (km/s) = 2.76393 4.23400 3.57534
# Velocity P-wave (km/s) = 5.79451 7.57660 6.74467
#
# Compressibility (1/GPa) = 0.01477356
#
# Stress axis : x y z
#
# Youngs Moduli (GPa) = 83.36792 233.71826 64.01434
#
# Poissons Ratio (x) = 0.24486 0.45057
# Poissons Ratio (y) = 0.08734 0.03038
# Poissons Ratio (z) = 0.58679 0.11093
#
# Static dielectric constant tensor:
#      x y z
#    x 2.141060 0.000000 0.148620 
#    y 0.000000 1.589410 0.000000 
#    z 0.148620 0.000000 1.775950 
# 
# From -- ./inp_files/128795.got.cif
#   From: 2010.05.17/outbox.cif.g08.bks.cpg/sg12_65_cif.got.tgz:128795.got - 2010.06.03 13:09:07.
