data_PCOD9220945
_publ_section_title
;
Structure prediction by ZEFSAII (Michael W. Deem and Ramdas Pophale) SiO2 
 PCOD9220945
Probable space group: C 2/M
;
_chemical_formula_sum "Si O2"
_cell_formula_units_Z 40
_cell_length_a 19.022510
_cell_length_b 11.209538
_cell_length_c 21.640844
_cell_angle_alpha 90.000000
_cell_angle_beta 28.345425
_cell_angle_gamma 90.000000
_cell_volume 2190.926155
_symmetry_space_group_name_H-M "C 2/M"
_symmetry_group_IT_number 12
_symmetry_cell_setting 'monoclinic'
loop_
_space_group_symop_operation_xyz
x,y,z
-x,y,-z
-x,-y,-z
x,-y,z
1/2+x,1/2+y,z
1/2-x,1/2+y,-z
1/2-x,1/2-y,-z
1/2+x,1/2-y,z
loop_
_atom_site_type_symbol
_atom_site_label
_atom_site_fract_x
_atom_site_fract_y
_atom_site_fract_z
Si Si1 0.266986 0.762330 0.384485
Si Si2 0.177997 0.500000 0.861669
Si Si3 0.082338 0.142158 0.848174
Si Si4 0.959000 0.357601 0.348396
Si Si5 0.220235 0.237017 0.867966
Si Si6 0.670045 0.500000 0.388765
O O1 0.341187 0.683578 0.273798
O O2 0.136047 0.692507 0.520559
O O3 0.386727 0.799682 0.343406
O O4 0.205608 0.882538 0.400657
O O5 0.232412 0.379469 0.852100
O O6 0.232405 0.500000 0.748925
O O7 0.000000 0.500000 0.000000
O O8 0.178961 0.187213 0.831754
O O9 0.067581 0.000000 0.863011
O O10 0.921029 0.201623 0.981316
O O11 0.946264 0.500000 0.355024
O O12 0.128696 0.319518 0.225234
O O13 0.500000 0.500000 0.500000
#
# Coordination Sequence:
#
# PCOD9220945 Si02
#       6
#     8   4   8   8   8   4
#     4  11  24  41  63  90 123 164 206 254 309 364
#     4  12  20  40  66  94 126 151 206 261 301 364
#     4  11  22  40  63  93 124 156 206 254 306 367
#     4  11  24  43  61  88 127 165 205 252 310 370
#     4  11  22  40  65  93 121 164 200 255 313 361
#     4  12  22  40  64  92 124 155 207 259 304 363
#
# _framework density 18.257118999999999
#
# number of rings (size 3 to 8) (size 9 to 14) (size 15 to 20)
#    0.000    0.800    5.000    4.200    0.000    0.800 
#    3.600    2.000    0.000    0.000    0.000    0.000 
#    0.000    0.000    0.000    0.000    0.000    0.000 
#
# Total GULP energy -111854.415305 kJ/mol
# GULP energy per Si atom -5592.720765 kJ/mol
# Density = 1.821557 g / cm^3
# Si number density = 18.257119 Si / 1000 Ang^3
#
#
#
# Elastic Constant Matrix: (Units=GPa)
#
#
# Indices 1 2 3 4 5 6 
#
# 1 59.6151 8.4859 53.5080 0.0000 -10.4585 0.0000
# 2 8.4859 98.6032 -12.2846 0.0001 3.3468 0.0000
# 3 53.5080 -12.2846 68.9298 0.0000 -5.9136 -0.0001
# 4 0.0000 0.0001 0.0000 27.7525 -0.0001 -2.7744
# 5 -10.4585 3.3468 -5.9136 -0.0001 35.4450 0.0000
# 6 0.0000 0.0000 -0.0001 -2.7744 0.0000 31.1127
#
#
#
# Elastic Compliance Matrix: (Units=1/GPa)
#
#
# Indices 1 2 3 4 5 6 
#
# 1 0.073675 -0.014088 -0.058561 0.000000 0.013299 0.000000
# 2 -0.014088 0.013082 0.012991 0.000000 -0.003225 0.000000
# 3 -0.058561 0.012991 0.061575 0.000000 -0.008233 0.000000
# 4 0.000000 0.000000 0.000000 0.036357 0.000000 0.003242
# 5 0.013299 -0.003225 -0.008233 0.000000 0.031068 0.000000
# 6 0.000000 0.000000 0.000000 0.003242 0.000000 0.032430
#
#
# Mechanical properties :
#
#
# Convention : Reuss Voigt Hill
#
# Bulk Modulus (GPa) = 34.46397 36.28520 35.37459
# Shear Modulus (GPa) = 13.25645 30.69129 21.97387
#
# Velocity S-wave (km/s) = 2.69754 4.10452 3.47303
# Velocity P-wave (km/s) = 5.34979 6.51003 5.95822
#
# Compressibility (1/GPa) = 0.02901581
#
# Stress axis : x y z
#
# Youngs Moduli (GPa) = 13.57321 76.44100 16.24023
#
# Poissons Ratio (x) = 1.07688 0.95104
# Poissons Ratio (y) = 0.19122 -0.21097
# Poissons Ratio (z) = 0.79486 -0.99302
#
# Static dielectric constant tensor:
#      x y z
#    x 1.593610 0.000000 0.006260 
#    y 0.000000 1.615480 0.000000 
#    z 0.006260 0.000000 1.599830 
# 
# From -- ./inp_files/102880.got.cif
#   From: 2010.05.17/outbox.cif.g08.bks.cpg/sg12_52_cif.got.tgz:102880.got - 2010.06.03 13:09:07.
