data_PCOD9220460
_publ_section_title
;
Structure prediction by ZEFSAII (Michael W. Deem and Ramdas Pophale) SiO2 
 PCOD9220460
Probable space group: C 2/M
;
_chemical_formula_sum "Si O2"
_cell_formula_units_Z 48
_cell_length_a 18.684959
_cell_length_b 8.432093
_cell_length_c 21.670338
_cell_angle_alpha 90.000000
_cell_angle_beta 130.751844
_cell_angle_gamma 90.000000
_cell_volume 2586.432037
_symmetry_space_group_name_H-M "C 2/M"
_symmetry_group_IT_number 12
_symmetry_cell_setting 'monoclinic'
loop_
_space_group_symop_operation_xyz
x,y,z
-x,y,-z
-x,-y,-z
x,-y,z
1/2+x,1/2+y,z
1/2-x,1/2+y,-z
1/2-x,1/2-y,-z
1/2+x,1/2-y,z
loop_
_atom_site_type_symbol
_atom_site_label
_atom_site_fract_x
_atom_site_fract_y
_atom_site_fract_z
Si Si1 0.468166 0.808771 0.234585
Si Si2 0.104037 0.694077 0.080380
Si Si3 0.862112 0.309573 0.761246
Si Si4 0.769560 0.688083 0.411299
Si Si5 0.733978 0.689189 0.922009
Si Si6 0.892534 0.307715 0.586658
O O1 0.548212 0.757313 0.229973
O O2 0.367598 0.739502 0.160932
O O3 0.508747 0.765810 0.325282
O O4 0.462158 0.000000 0.228016
O O5 0.104473 0.500000 0.081261
O O6 0.127013 0.747543 0.162763
O O7 0.183276 0.747588 0.076817
O O8 0.000000 0.743259 0.000000
O O9 0.865297 0.500000 0.763511
O O10 0.765809 0.261120 0.672523
O O11 0.773105 0.500000 0.405562
O O12 0.864722 0.739238 0.501290
O O13 0.686631 0.734048 0.412924
O O14 0.739103 0.500000 0.926271
O O15 0.750000 0.750000 0.000000
O O16 0.883448 0.500000 0.585243
#
# Coordination Sequence:
#
# PCOD9220460 Si02
#       6
#     8   8   8   8   8   8
#     4   9  17  31  51  73  98 128 161 197 237 281
#     4   9  18  34  54  71  90 123 164 197 230 284
#     4   9  17  31  51  72  96 129 165 198 237 285
#     4   9  15  24  42  70 100 126 159 203 242 275
#     4  11  22  35  53  75  97 123 157 197 241 288
#     4   8  15  27  43  65  96 134 167 193 230 282
#
# _framework density 18.558382999999999
#
# number of rings (size 3 to 8) (size 9 to 14) (size 15 to 20)
#    0.000    2.833    0.000    3.000    0.000    6.000 
#    0.000    1.667    0.000    4.500    0.000    7.000 
#    0.000    0.000    0.000    0.000    0.000    0.000 
#
# Total GULP energy -133681.464931 kJ/mol
# GULP energy per Si atom -5570.061039 kJ/mol
# Density = 1.851614 g / cm^3
# Si number density = 18.558383 Si / 1000 Ang^3
#
#
#
# Elastic Constant Matrix: (Units=GPa)
#
#
# Indices 1 2 3 4 5 6 
#
# 1 84.2280 15.4693 89.0388 0.0000 -1.7228 0.0000
# 2 15.4693 5.7431 27.7250 0.0000 1.3163 0.0000
# 3 89.0388 27.7250 225.5198 0.0000 -7.5106 0.0000
# 4 0.0000 0.0000 0.0000 32.8412 0.0000 2.5681
# 5 -1.7228 1.3163 -7.5106 0.0000 24.7284 0.0000
# 6 0.0000 0.0000 0.0000 2.5681 0.0000 15.3049
#
#
#
# Elastic Compliance Matrix: (Units=1/GPa)
#
#
# Indices 1 2 3 4 5 6 
#
# 1 0.025074 -0.051912 -0.003402 0.000000 0.003477 0.000000
# 2 -0.051912 0.577014 -0.052112 0.000000 -0.050159 0.000000
# 3 -0.003402 -0.052112 0.012394 0.000000 0.006301 0.000000
# 4 0.000000 0.000000 0.000000 0.030854 0.000000 -0.005177
# 5 0.003477 -0.050159 0.006301 0.000000 0.045265 0.000000
# 6 0.000000 0.000000 0.000000 -0.005177 0.000000 0.066207
#
#
# Mechanical properties :
#
#
# Convention : Reuss Voigt Hill
#
# Bulk Modulus (GPa) = 2.50231 64.43968 33.47099
# Shear Modulus (GPa) = 4.52542 26.79209 15.65875
#
# Velocity S-wave (km/s) = 1.56326 3.80368 2.90790
# Velocity P-wave (km/s) = 2.14701 7.35450 5.41749
#
# Compressibility (1/GPa) = 0.39963060
#
# Stress axis : x y z
#
# Youngs Moduli (GPa) = 39.88217 1.73306 80.68596
#
# Poissons Ratio (x) = 0.08997 0.27448
# Poissons Ratio (y) = 2.07035 4.20471
# Poissons Ratio (z) = 0.13567 0.09031
#
# Static dielectric constant tensor:
#      x y z
#    x 1.627380 0.000000 -0.006680 
#    y 0.000000 1.657670 0.000000 
#    z -0.006680 0.000000 1.684550 
# 
# From -- ./inp_files/313603.got.cif
#   From: 2010.05.17/outbox.cif.g08.bks.cpg/sg12_157_cif.got.tgz:313603.got - 2010.06.03 13:09:07.
