data_PCOD9220054
_publ_section_title
;
Structure prediction by ZEFSAII (Michael W. Deem and Ramdas Pophale) SiO2 
 PCOD9220054
Probable space group: C 2/M
;
_chemical_formula_sum "Si O2"
_cell_formula_units_Z 64
_cell_length_a 14.247205
_cell_length_b 18.794379
_cell_length_c 26.114993
_cell_angle_alpha 90.000000
_cell_angle_beta 35.082591
_cell_angle_gamma 90.000000
_cell_volume 4019.125441
_symmetry_space_group_name_H-M "C 2/M"
_symmetry_group_IT_number 12
_symmetry_cell_setting 'monoclinic'
loop_
_space_group_symop_operation_xyz
x,y,z
-x,y,-z
-x,-y,-z
x,-y,z
1/2+x,1/2+y,z
1/2-x,1/2+y,-z
1/2-x,1/2-y,-z
1/2+x,1/2-y,z
loop_
_atom_site_type_symbol
_atom_site_label
_atom_site_fract_x
_atom_site_fract_y
_atom_site_fract_z
Si Si1 0.954888 0.416443 0.604611
Si Si2 0.919345 0.177605 0.758330
Si Si3 0.955519 0.795249 0.862983
Si Si4 0.305639 0.177617 0.758344
Si Si5 0.404910 0.916632 0.094337
Si Si6 0.669975 0.137573 0.053353
Si Si7 0.187924 0.083365 0.905660
Si Si8 0.768702 0.083557 0.395412
O O1 0.945870 0.500000 0.622919
O O2 0.916195 0.366490 0.669481
O O3 0.821504 0.405091 0.618991
O O4 0.130573 0.403660 0.500013
O O5 0.947911 0.193991 0.805613
O O6 0.888218 0.249995 0.741186
O O7 0.756387 0.130033 0.827235
O O8 0.075376 0.133506 0.669458
O O9 0.895637 0.715853 0.902895
O O10 0.135222 0.805993 0.805632
O O11 0.829760 0.849363 0.946824
O O12 0.261899 0.130046 0.827244
O O13 0.531397 0.902574 0.083516
O O14 0.363743 0.000000 0.108940
O O15 0.500000 0.895204 0.000000
O O16 0.718065 0.097411 0.083509
O O17 0.190582 0.000000 0.891038
O O18 0.000000 0.104783 0.000000
O O19 0.814603 0.000000 0.377110
#
# Coordination Sequence:
#
# PCOD9220054 Si02
#       8
#     8   8   8   8   8   8   8   8
#     4   9  19  37  60  84 110 139 175 226 283 334
#     4  12  22  36  57  81 112 143 186 227 275 328
#     4  11  22  34  55  79 108 147 186 230 268 318
#     4  12  22  36  57  81 112 143 186 227 275 328
#     4  11  23  36  52  79 110 147 190 229 271 321
#     4  11  21  38  54  72 113 154 188 228 268 310
#     4  11  23  36  52  79 110 147 190 229 271 321
#     4   9  19  37  60  84 110 139 175 226 283 334
#
# _framework density 15.923863000000001
#
# number of rings (size 3 to 8) (size 9 to 14) (size 15 to 20)
#    0.000    1.250    6.250    1.875    0.000    1.000 
#    0.000    0.000    0.000    0.000    0.000    0.000 
#    0.000    6.000    0.000    0.000    0.000    0.000 
#
# Total GULP energy -178695.223537 kJ/mol
# GULP energy per Si atom -5584.225736 kJ/mol
# Density = 1.588762 g / cm^3
# Si number density = 15.923863 Si / 1000 Ang^3
#
#
#
# Elastic Constant Matrix: (Units=GPa)
#
#
# Indices 1 2 3 4 5 6 
#
# 1 118.5515 45.6994 63.0827 -0.0003 1.0549 0.0002
# 2 45.6994 99.3850 85.7431 -0.0003 -2.9546 -0.0005
# 3 63.0827 85.7431 121.4437 -0.0001 -1.3037 0.0014
# 4 -0.0003 -0.0003 -0.0001 25.5844 0.0005 -0.5333
# 5 1.0549 -2.9546 -1.3037 0.0005 20.6417 -0.0004
# 6 0.0002 -0.0005 0.0014 -0.5333 -0.0004 18.3988
#
#
#
# Elastic Compliance Matrix: (Units=1/GPa)
#
#
# Indices 1 2 3 4 5 6 
#
# 1 0.011683 -0.000403 -0.005795 0.000000 -0.001021 0.000000
# 2 -0.000403 0.025889 -0.018042 0.000000 0.002587 0.000002
# 3 -0.005795 -0.018042 0.023974 0.000000 -0.000772 -0.000002
# 4 0.000000 0.000000 0.000000 0.039110 -0.000001 0.001134
# 5 -0.001021 0.002587 -0.000772 -0.000001 0.048819 0.000001
# 6 0.000000 0.000002 -0.000002 0.001134 0.000001 0.054384
#
#
# Mechanical properties :
#
#
# Convention : Reuss Voigt Hill
#
# Bulk Modulus (GPa) = 76.52689 80.93674 78.73182
# Shear Modulus (GPa) = 19.47838 22.58198 21.03018
#
# Velocity S-wave (km/s) = 3.50125 3.76988 3.63805
# Velocity P-wave (km/s) = 8.03164 8.35985 8.19739
#
# Compressibility (1/GPa) = 0.01306730
#
# Stress axis : x y z
#
# Youngs Moduli (GPa) = 85.59250 38.62648 41.71147
#
# Poissons Ratio (x) = 0.01555 0.24174
# Poissons Ratio (y) = 0.03446 0.75254
# Poissons Ratio (z) = 0.49605 0.69688
#
# Static dielectric constant tensor:
#      x y z
#    x 1.511510 0.000000 0.000080 
#    y 0.000000 1.520280 0.000000 
#    z 0.000080 0.000000 1.510340 
# 
# From -- ./inp_files/170582.got.cif
#   From: 2010.05.17/outbox.cif.g08.bks.cpg/sg12_86_cif.got.tgz:170582.got - 2010.06.03 13:09:07.
