data_PCOD9220786
_publ_section_title
;
Structure prediction by ZEFSAII (Michael W. Deem and Ramdas Pophale) SiO2 
 PCOD9220786
Probable space group: C 2/M
;
_chemical_formula_sum "Si O2"
_cell_formula_units_Z 48
_cell_length_a 20.841220
_cell_length_b 7.947828
_cell_length_c 22.841957
_cell_angle_alpha 90.000000
_cell_angle_beta 42.335956
_cell_angle_gamma 90.000000
_cell_volume 2548.164011
_symmetry_space_group_name_H-M "C 2/M"
_symmetry_group_IT_number 12
_symmetry_cell_setting 'monoclinic'
loop_
_space_group_symop_operation_xyz
x,y,z
-x,y,-z
-x,-y,-z
x,-y,z
1/2+x,1/2+y,z
1/2-x,1/2+y,-z
1/2-x,1/2-y,-z
1/2+x,1/2-y,z
loop_
_atom_site_type_symbol
_atom_site_label
_atom_site_fract_x
_atom_site_fract_y
_atom_site_fract_z
Si Si1 0.890729 0.301254 0.065697
Si Si2 0.650186 0.297805 0.038552
Si Si3 0.049283 0.000000 0.559947
Si Si4 0.210395 0.191086 0.752789
Si Si5 0.042469 0.201491 0.773136
Si Si6 0.148011 0.811764 0.590154
Si Si7 0.151075 0.000000 0.366496
O O1 0.887548 0.500000 0.081726
O O2 0.823716 0.209816 0.157437
O O3 0.859660 0.272617 0.020216
O O4 0.000000 0.243154 0.000000
O O5 0.643531 0.500000 0.039098
O O6 0.560409 0.233460 0.137516
O O7 0.750000 0.250000 0.000000
O O8 0.079437 0.157063 0.580736
O O9 0.112181 0.000000 0.459035
O O10 0.940302 0.000000 0.614482
O O11 0.117459 0.222244 0.775110
O O12 0.286697 0.333768 0.686536
O O13 0.243476 0.000000 0.719139
O O14 0.091513 0.274126 0.681350
O O15 0.028210 0.000000 0.773399
O O16 0.250000 0.750000 0.500000
O O17 0.170124 0.000000 0.598007
#
# Coordination Sequence:
#
# PCOD9220786 Si02
#       7
#     8   8   4   8   8   8   4
#     4  11  22  39  61  90 122 163 215 267 321 385
#     4  11  23  39  58  85 125 169 209 264 323 377
#     4   9  22  38  64  86 138 162 198 260 331 376
#     4  11  22  38  65  92 119 166 214 262 311 377
#     4   9  19  36  59  84 116 156 207 255 317 370
#     4   9  18  36  59  87 113 157 202 250 306 372
#     4  11  22  42  59  98 128 168 205 258 322 388
#
# _framework density 18.837091999999998
#
# number of rings (size 3 to 8) (size 9 to 14) (size 15 to 20)
#    0.500    1.333    2.500    2.000    0.000    2.000 
#    1.500    2.500    0.000    0.000    0.000    0.000 
#    0.000    0.000    0.000    0.000    0.000    0.000 
#
# Total GULP energy -133841.791837 kJ/mol
# GULP energy per Si atom -5576.741327 kJ/mol
# Density = 1.879422 g / cm^3
# Si number density = 18.837092 Si / 1000 Ang^3
#
#
#
# Elastic Constant Matrix: (Units=GPa)
#
#
# Indices 1 2 3 4 5 6 
#
# 1 118.4311 18.9015 71.9106 0.0000 -0.2541 -0.0002
# 2 18.9015 63.9296 35.5279 0.0003 -15.5027 0.0000
# 3 71.9106 35.5279 152.2444 0.0001 -3.7272 -0.0002
# 4 0.0000 0.0003 0.0001 15.4570 0.0000 -9.1263
# 5 -0.2541 -15.5027 -3.7272 0.0000 31.3993 0.0000
# 6 -0.0002 0.0000 -0.0002 -9.1263 0.0000 19.6756
#
#
#
# Elastic Compliance Matrix: (Units=1/GPa)
#
#
# Indices 1 2 3 4 5 6 
#
# 1 0.011872 -0.000687 -0.005469 0.000000 -0.000892 0.000000
# 2 -0.000687 0.020532 -0.004231 -0.000001 0.009629 0.000000
# 3 -0.005469 -0.004231 0.010116 0.000000 -0.000932 0.000000
# 4 0.000000 -0.000001 0.000000 0.089096 0.000000 0.041326
# 5 -0.000892 0.009629 -0.000932 0.000000 0.036484 0.000000
# 6 0.000000 0.000000 0.000000 0.041326 0.000000 0.069993
#
#
# Mechanical properties :
#
#
# Convention : Reuss Voigt Hill
#
# Bulk Modulus (GPa) = 45.98640 65.25392 55.62016
# Shear Modulus (GPa) = 18.78871 27.19070 22.98970
#
# Velocity S-wave (km/s) = 3.16164 3.80342 3.49728
# Velocity P-wave (km/s) = 6.14765 7.34877 6.77488
#
# Compressibility (1/GPa) = 0.02174556
#
# Stress axis : x y z
#
# Youngs Moduli (GPa) = 84.22906 48.70501 98.85090
#
# Poissons Ratio (x) = 0.03347 0.54064
# Poissons Ratio (y) = 0.05788 0.41824
# Poissons Ratio (z) = 0.46067 0.20607
#
# Static dielectric constant tensor:
#      x y z
#    x 1.615750 0.000000 0.014550 
#    y 0.000000 1.691680 0.000000 
#    z 0.014550 0.000000 1.680380 
# 
# From -- ./inp_files/319591.got.cif
#   From: 2010.05.17/outbox.cif.g08.bks.cpg/sg12_160_cif.got.tgz:319591.got - 2010.06.03 13:09:07.
