data_PCOD9220235
_publ_section_title
;
Structure prediction by ZEFSAII (Michael W. Deem and Ramdas Pophale) SiO2 
 PCOD9220235
Probable space group: C 2/M
;
_chemical_formula_sum "Si O2"
_cell_formula_units_Z 48
_cell_length_a 16.872315
_cell_length_b 18.403141
_cell_length_c 19.245883
_cell_angle_alpha 90.000000
_cell_angle_beta 22.616688
_cell_angle_gamma 90.000000
_cell_volume 2298.123286
_symmetry_space_group_name_H-M "C 2/M"
_symmetry_group_IT_number 12
_symmetry_cell_setting 'monoclinic'
loop_
_space_group_symop_operation_xyz
x,y,z
-x,y,-z
-x,-y,-z
x,-y,z
1/2+x,1/2+y,z
1/2-x,1/2+y,-z
1/2-x,1/2-y,-z
1/2+x,1/2-y,z
loop_
_atom_site_type_symbol
_atom_site_label
_atom_site_fract_x
_atom_site_fract_y
_atom_site_fract_z
Si Si1 0.331763 0.688714 0.812813
Si Si2 0.304728 0.646574 0.568521
Si Si3 0.860971 0.193240 0.308718
Si Si4 0.571008 0.914526 0.623922
Si Si5 0.860725 0.842313 0.047890
Si Si6 0.020279 0.583049 0.900575
O O1 0.465789 0.644969 0.647905
O O2 0.489565 0.709026 0.746581
O O3 0.233569 0.761784 0.862001
O O4 0.151563 0.638356 0.988699
O O5 0.251420 0.731745 0.618693
O O6 0.159835 0.611347 0.626308
O O7 0.238447 0.606596 0.692178
O O8 0.698855 0.132970 0.464799
O O9 0.997895 0.166179 0.134319
O O10 0.331841 0.894369 0.810281
O O11 0.605618 0.000000 0.587481
O O12 0.000000 0.864920 0.000000
O O13 0.976844 0.500000 0.916629
O O14 0.000000 0.589840 0.000000
#
# Coordination Sequence:
#
# PCOD9220235 Si02
#       6
#     8   8   8   8   8   8
#     4  11  21  40  67  92 123 165 217 262 311 368
#     4  11  21  41  69  93 123 168 215 264 313 372
#     4  11  22  41  69  94 125 160 217 270 313 367
#     4  11  24  43  65  96 128 164 216 272 319 373
#     4  12  24  40  65  97 127 171 212 256 318 389
#     4  11  25  41  58  95 139 168 203 257 315 380
#
# _framework density 20.886607999999999
#
# number of rings (size 3 to 8) (size 9 to 14) (size 15 to 20)
#    0.000    0.833    5.000    3.500    0.000    5.667 
#    0.000    2.500    0.000    0.000    0.000    0.000 
#    0.000    0.000    0.000    0.000    0.000    0.000 
#
# Total GULP energy -134286.241590 kJ/mol
# GULP energy per Si atom -5595.260066 kJ/mol
# Density = 2.083907 g / cm^3
# Si number density = 20.886608 Si / 1000 Ang^3
#
#
#
# Elastic Constant Matrix: (Units=GPa)
#
#
# Indices 1 2 3 4 5 6 
#
# 1 58.1719 -1.5393 22.7270 -0.0064 1.1769 0.0119
# 2 -1.5393 113.1194 9.9047 -0.0104 1.2191 0.0306
# 3 22.7270 9.9047 102.9453 -0.0489 17.4702 0.0420
# 4 -0.0064 -0.0104 -0.0489 29.4373 0.0315 6.9762
# 5 1.1769 1.2191 17.4702 0.0315 26.5229 -0.0199
# 6 0.0119 0.0306 0.0420 6.9762 -0.0199 6.6336
#
#
#
# Elastic Compliance Matrix: (Units=1/GPa)
#
#
# Indices 1 2 3 4 5 6 
#
# 1 0.018967 0.000639 -0.004617 -0.000007 0.002170 0.000006
# 2 0.000639 0.008938 -0.001043 0.000013 0.000248 -0.000048
# 3 -0.004617 -0.001043 0.012149 0.000064 -0.007750 -0.000154
# 4 -0.000007 0.000013 0.000064 0.045248 -0.000132 -0.047586
# 5 0.002170 0.000248 -0.007750 -0.000132 0.042701 0.000311
# 6 0.000006 -0.000048 -0.000154 -0.047586 0.000311 0.200795
#
#
# Mechanical properties :
#
#
# Convention : Reuss Voigt Hill
#
# Bulk Modulus (GPa) = 33.32078 37.38018 35.35048
# Shear Modulus (GPa) = 14.33310 28.72834 21.53072
#
# Velocity S-wave (km/s) = 2.62245 3.71272 3.21415
# Velocity P-wave (km/s) = 5.01572 6.02616 5.54401
#
# Compressibility (1/GPa) = 0.03001130
#
# Stress axis : x y z
#
# Youngs Moduli (GPa) = 52.72232 111.88708 82.31265
#
# Poissons Ratio (x) = -0.07149 0.38005
# Poissons Ratio (y) = -0.03369 0.08585
# Poissons Ratio (z) = 0.24343 0.11670
#
# Static dielectric constant tensor:
#      x y z
#    x 1.763900 -0.000020 0.010480 
#    y -0.000020 1.712850 0.000010 
#    z 0.010480 0.000010 1.747260 
# 
# From -- ./inp_files/285355.got.cif
#   From: 2010.05.17/outbox.cif.g08.bks.cpg/sg12_143_cif.got.tgz:285355.got - 2010.06.03 13:09:07.
