data_PCOD9220839
_publ_section_title
;
Structure prediction by ZEFSAII (Michael W. Deem and Ramdas Pophale) SiO2 
 PCOD9220839
Probable space group: C 2/M
;
_chemical_formula_sum "Si O2"
_cell_formula_units_Z 40
_cell_length_a 14.138715
_cell_length_b 23.628676
_cell_length_c 4.726887
_cell_angle_alpha 90.000000
_cell_angle_beta 87.637691
_cell_angle_gamma 90.000000
_cell_volume 1577.812203
_symmetry_space_group_name_H-M "C 2/M"
_symmetry_group_IT_number 12
_symmetry_cell_setting 'monoclinic'
loop_
_space_group_symop_operation_xyz
x,y,z
-x,y,-z
-x,-y,-z
x,-y,z
1/2+x,1/2+y,z
1/2-x,1/2+y,-z
1/2-x,1/2-y,-z
1/2+x,1/2-y,z
loop_
_atom_site_type_symbol
_atom_site_label
_atom_site_fract_x
_atom_site_fract_y
_atom_site_fract_z
Si Si1 0.300232 0.935758 0.671743
Si Si2 0.837878 0.749992 0.201657
Si Si3 0.395970 0.124237 0.153523
Si Si4 0.594499 0.684508 0.303419
Si Si5 0.394007 0.439069 0.642776
O O1 0.321325 0.892181 0.918635
O O2 0.192713 0.934928 0.568540
O O3 0.320189 0.000000 0.764870
O O4 0.371499 0.918385 0.410283
O O5 0.830507 0.789915 0.477893
O O6 0.750000 0.750000 0.000000
O O7 0.875406 0.687493 0.266679
O O8 0.908582 0.777875 0.969475
O O9 0.500000 0.120033 0.000000
O O10 0.500000 0.685388 0.500000
O O11 0.612425 0.620475 0.199761
O O12 0.500000 0.440224 0.500000
O O13 0.381746 0.500000 0.795714
#
# Coordination Sequence:
#
# PCOD9220839 Si02
#       5
#     8   8   8   8   8
#     4  11  24  43  66  94 128 167 215 268 320 378
#     4  12  24  41  64  91 125 164 210 262 315 371
#     4  12  25  42  65  94 130 172 216 262 315 375
#     4  11  22  39  62  90 124 160 201 250 310 377
#     4   9  20  41  68  97 129 166 210 264 326 387
#
# _framework density 25.351558000000001
#
# number of rings (size 3 to 8) (size 9 to 14) (size 15 to 20)
#    0.000    1.000    0.000    7.200    0.000    2.400 
#    0.000    6.000    0.000   14.400    0.000    0.000 
#    0.000    0.000    0.000    0.000    0.000    0.000 
#
# Total GULP energy -111923.959397 kJ/mol
# GULP energy per Si atom -5596.197970 kJ/mol
# Density = 2.529386 g / cm^3
# Si number density = 25.351558 Si / 1000 Ang^3
#
#
#
# Elastic Constant Matrix: (Units=GPa)
#
#
# Indices 1 2 3 4 5 6 
#
# 1 126.4763 32.1661 10.0908 0.0000 -13.0981 0.0000
# 2 32.1661 149.3894 8.7235 0.0000 -8.2485 0.0000
# 3 10.0908 8.7235 89.7054 0.0000 -15.0275 0.0000
# 4 0.0000 0.0000 0.0000 -205.7159 0.0000 -108.6336
# 5 -13.0981 -8.2485 -15.0275 0.0000 29.9905 0.0000
# 6 0.0000 0.0000 0.0000 -108.6336 0.0000 -26.4708
#
#
#
# Elastic Compliance Matrix: (Units=1/GPa)
#
#
# Indices 1 2 3 4 5 6 
#
# 1 0.008686 -0.001678 -0.000279 0.000000 0.003192 0.000000
# 2 -0.001678 0.007133 -0.000326 0.000000 0.001066 0.000000
# 3 -0.000279 -0.000326 0.012199 0.000000 0.005901 0.000000
# 4 0.000000 0.000000 0.000000 0.004165 0.000000 -0.017092
# 5 0.003192 0.001066 0.005901 0.000000 0.037988 0.000000
# 6 0.000000 0.000000 0.000000 -0.017092 0.000000 0.032367
#
#
# Mechanical properties :
#
#
# Convention : Reuss Voigt Hill
#
# Bulk Modulus (GPa) = 42.64050 51.94799 47.29424
# Shear Modulus (GPa) = 43.50778 -19.46653 12.02062
#
# Velocity S-wave (km/s) = 4.14717 -2.77404 2.17988
# Velocity P-wave (km/s) = 6.30779 3.20548 5.00317
#
# Compressibility (1/GPa) = 0.02345188
#
# Stress axis : x y z
#
# Youngs Moduli (GPa) = 115.12544 140.19235 81.97195
#
# Poissons Ratio (x) = 0.23520 0.02288
# Poissons Ratio (y) = 0.19315 0.02676
# Poissons Ratio (z) = 0.03214 0.04576
#
# Static dielectric constant tensor:
#      x y z
#    x 2.166710 0.000000 -0.067640 
#    y 0.000000 1.987060 0.000000 
#    z -0.067640 0.000000 2.114410 
# 
# From -- ./inp_files/11322.got.cif
#   From: 2010.05.17/outbox.cif.g08.bks.cpg/sg12_6_cif.got.tgz:11322.got - 2010.06.03 13:09:07.
