data_PCOD9220934
_publ_section_title
;
Structure prediction by ZEFSAII (Michael W. Deem and Ramdas Pophale) SiO2 
 PCOD9220934
Probable space group: C 2/M
;
_chemical_formula_sum "Si O2"
_cell_formula_units_Z 48
_cell_length_a 15.094606
_cell_length_b 7.448709
_cell_length_c 22.155034
_cell_angle_alpha 90.000000
_cell_angle_beta 74.023907
_cell_angle_gamma 90.000000
_cell_volume 2394.797346
_symmetry_space_group_name_H-M "C 2/M"
_symmetry_group_IT_number 12
_symmetry_cell_setting 'monoclinic'
loop_
_space_group_symop_operation_xyz
x,y,z
-x,y,-z
-x,-y,-z
x,-y,z
1/2+x,1/2+y,z
1/2-x,1/2+y,-z
1/2-x,1/2-y,-z
1/2+x,1/2-y,z
loop_
_atom_site_type_symbol
_atom_site_label
_atom_site_fract_x
_atom_site_fract_y
_atom_site_fract_z
Si Si1 0.572439 0.286828 0.182529
Si Si2 0.213948 0.217485 0.596495
Si Si3 0.354906 0.000000 0.060400
Si Si4 0.057504 0.500000 0.081196
Si Si5 0.599468 0.711542 0.502273
Si Si6 0.777136 0.789799 0.160248
Si Si7 0.622343 0.282492 0.736827
O O1 0.568046 0.500000 0.171534
O O2 0.669669 0.238735 0.193531
O O3 0.485310 0.236234 0.240102
O O4 0.566716 0.172909 0.122255
O O5 0.319102 0.268891 0.562127
O O6 0.147002 0.282991 0.554856
O O7 0.175966 0.281162 0.667860
O O8 0.211512 0.000000 0.596250
O O9 0.457108 0.000000 0.069890
O O10 0.303629 0.827373 0.097343
O O11 0.367997 0.000000 0.986353
O O12 0.500000 0.784957 0.500000
O O13 0.584916 0.500000 0.515945
O O14 0.833848 0.725326 0.207852
O O15 0.795695 0.000000 0.146586
O O16 0.628557 0.500000 0.735026
#
# Coordination Sequence:
#
# PCOD9220934 Si02
#       7
#     8   8   4   4   8   8   8
#     4  11  22  40  62  87 121 157 196 248 301 351
#     4   9  18  35  55  78 112 152 188 234 288 337
#     4  11  24  42  64  89 117 157 197 246 305 351
#     4  11  24  42  64  89 119 155 199 246 299 361
#     4   9  18  33  53  80 116 147 187 238 281 337
#     4  11  22  40  61  86 121 156 198 249 298 355
#     4   9  20  37  58  81 114 154 195 242 296 349
#
# _framework density 20.04345
#
# number of rings (size 3 to 8) (size 9 to 14) (size 15 to 20)
#    0.000    2.000    3.333    0.000    0.000    3.000 
#    3.000    3.333    0.000    0.000    0.000    0.000 
#    0.000    0.000    0.000    0.000    0.000    0.000 
#
# Total GULP energy -133976.431880 kJ/mol
# GULP energy per Si atom -5582.351328 kJ/mol
# Density = 1.999783 g / cm^3
# Si number density = 20.043450 Si / 1000 Ang^3
#
#
#
# Elastic Constant Matrix: (Units=GPa)
#
#
# Indices 1 2 3 4 5 6 
#
# 1 111.4675 1.5697 23.7690 0.0000 -25.7431 0.0000
# 2 1.5697 87.1807 14.7792 0.0000 -0.2079 0.0000
# 3 23.7690 14.7792 114.5577 0.0000 -27.2091 0.0000
# 4 0.0000 0.0000 0.0000 19.7717 0.0000 -11.0545
# 5 -25.7431 -0.2079 -27.2091 0.0000 18.0414 0.0000
# 6 0.0000 0.0000 0.0000 -11.0545 0.0000 -153.6681
#
#
#
# Elastic Compliance Matrix: (Units=1/GPa)
#
#
# Indices 1 2 3 4 5 6 
#
# 1 0.013998 -0.000703 0.003005 0.000000 0.024497 0.000000
# 2 -0.000703 0.011893 -0.002484 0.000000 -0.004612 0.000000
# 3 0.003005 -0.002484 0.014705 0.000000 0.026437 0.000000
# 4 0.000000 0.000000 0.000000 0.048622 0.000000 -0.003498
# 5 0.024497 -0.004612 0.026437 0.000000 0.130199 0.000000
# 6 0.000000 0.000000 0.000000 -0.003498 0.000000 -0.006256
#
#
# Mechanical properties :
#
#
# Convention : Reuss Voigt Hill
#
# Bulk Modulus (GPa) = 24.85592 43.71576 34.28584
# Shear Modulus (GPa) = 22.03258 -4.96513 8.53373
#
# Velocity S-wave (km/s) = 3.31908 -1.57561 2.06564
# Velocity P-wave (km/s) = 5.20733 4.30671 4.77829
#
# Compressibility (1/GPa) = 0.04023187
#
# Stress axis : x y z
#
# Youngs Moduli (GPa) = 71.43942 84.08180 68.00256
#
# Poissons Ratio (x) = 0.05911 -0.20433
# Poissons Ratio (y) = 0.05022 0.16892
# Poissons Ratio (z) = -0.21465 0.20886
#
# Static dielectric constant tensor:
#      x y z
#    x 1.711610 0.000000 0.000170 
#    y 0.000000 1.744650 0.000000 
#    z 0.000170 0.000000 1.683230 
# 
# From -- ./inp_files/308327.got.cif
#   From: 2010.05.17/outbox.cif.g08.bks.cpg/sg12_155_cif.got.tgz:308327.got - 2010.06.03 13:09:07.
