data_PCOD9220453
_publ_section_title
;
Structure prediction by ZEFSAII (Michael W. Deem and Ramdas Pophale) SiO2 
 PCOD9220453
Probable space group: C 2/M
;
_chemical_formula_sum "Si O2"
_cell_formula_units_Z 48
_cell_length_a 13.755454
_cell_length_b 31.807483
_cell_length_c 7.124810
_cell_angle_alpha 90.000000
_cell_angle_beta 134.526487
_cell_angle_gamma 90.000000
_cell_volume 2222.399795
_symmetry_space_group_name_H-M "C 2/M"
_symmetry_group_IT_number 12
_symmetry_cell_setting 'monoclinic'
loop_
_space_group_symop_operation_xyz
x,y,z
-x,y,-z
-x,-y,-z
x,-y,z
1/2+x,1/2+y,z
1/2-x,1/2+y,-z
1/2-x,1/2-y,-z
1/2+x,1/2-y,z
loop_
_atom_site_type_symbol
_atom_site_label
_atom_site_fract_x
_atom_site_fract_y
_atom_site_fract_z
Si Si1 0.409673 0.236850 0.689059
Si Si2 0.958139 0.357829 0.719929
Si Si3 0.958549 0.952317 0.222192
Si Si4 0.816726 0.889666 0.548734
Si Si5 0.025319 0.823848 0.745002
Si Si6 0.252290 0.118049 0.990433
O O1 0.250000 0.250000 0.500000
O O2 0.422392 0.190441 0.620707
O O3 0.487216 0.275392 0.695983
O O4 0.500000 0.234190 0.000000
O O5 0.821649 0.385446 0.524003
O O6 0.000000 0.357164 0.000000
O O7 0.086962 0.375780 0.783848
O O8 0.828634 0.921485 0.032872
O O9 0.000000 0.953072 0.500000
O O10 0.087773 0.930083 0.298440
O O11 0.933667 0.000000 0.129178
O O12 0.774121 0.886846 0.270909
O O13 0.914122 0.849297 0.714385
O O14 0.178044 0.840493 0.975988
O O15 0.000000 0.839256 0.500000
#
# Coordination Sequence:
#
# PCOD9220453 Si02
#       6
#     8   8   8   8   8   8
#     4  11  22  35  51  72 101 136 174 215 252 290
#     4   9  16  27  43  61  89 122 163 195 246 297
#     4   8  13  22  37  58  86 119 158 198 241 292
#     4   8  13  25  42  59  86 122 157 195 244 300
#     4   9  17  31  49  67  94 128 172 203 246 294
#     4   8  15  25  41  64  86 123 157 201 244 300
#
# _framework density 21.598275000000001
#
# number of rings (size 3 to 8) (size 9 to 14) (size 15 to 20)
#    0.000    3.167    1.667    2.000    2.333    0.667 
#    0.000    0.833    0.000    5.000    0.000    0.000 
#    0.000   10.667    0.000    6.000    0.000    8.667 
#
# Total GULP energy -133837.258288 kJ/mol
# GULP energy per Si atom -5576.552429 kJ/mol
# Density = 2.154912 g / cm^3
# Si number density = 21.598275 Si / 1000 Ang^3
#
#
#
# Elastic Constant Matrix: (Units=GPa)
#
#
# Indices 1 2 3 4 5 6 
#
# 1 145.4210 75.3582 61.1766 0.0000 62.9181 0.0000
# 2 75.3582 158.7544 48.6500 0.0000 54.5763 0.0000
# 3 61.1766 48.6500 118.1081 0.0000 30.1352 0.0000
# 4 0.0000 0.0000 0.0000 13.5596 0.0000 1.0806
# 5 62.9181 54.5763 30.1352 0.0000 56.2033 0.0000
# 6 0.0000 0.0000 0.0000 1.0806 0.0000 16.5810
#
#
#
# Elastic Compliance Matrix: (Units=1/GPa)
#
#
# Indices 1 2 3 4 5 6 
#
# 1 0.014970 -0.001326 -0.003777 0.000000 -0.013446 0.000000
# 2 -0.001326 0.009915 -0.001528 0.000000 -0.007323 0.000000
# 3 -0.003777 -0.001528 0.011116 0.000000 -0.000248 0.000000
# 4 0.000000 0.000000 0.000000 0.074133 0.000000 -0.004831
# 5 -0.013446 -0.007323 -0.000248 0.000000 0.040089 0.000000
# 6 0.000000 0.000000 0.000000 -0.004831 0.000000 0.060625
#
#
# Mechanical properties :
#
#
# Convention : Reuss Voigt Hill
#
# Bulk Modulus (GPa) = 43.98097 88.07257 66.02677
# Shear Modulus (GPa) = 21.58047 33.07535 27.32791
#
# Velocity S-wave (km/s) = 3.16440 3.91754 3.56094
# Velocity P-wave (km/s) = 5.81022 7.83128 6.89520
#
# Compressibility (1/GPa) = 0.02273711
#
# Stress axis : x y z
#
# Youngs Moduli (GPa) = 66.79854 100.86154 89.96002
#
# Poissons Ratio (x) = 0.13378 0.33980
# Poissons Ratio (y) = 0.08860 0.13749
# Poissons Ratio (z) = 0.25231 0.15416
#
# Static dielectric constant tensor:
#      x y z
#    x 1.752540 0.000000 0.047980 
#    y 0.000000 1.761510 0.000000 
#    z 0.047980 0.000000 1.676680 
# 
# From -- ./inp_files/68362.got.cif
#   From: 2010.05.17/outbox.cif.g08.bks.cpg/sg12_35_cif.got.tgz:68362.got - 2010.06.03 13:09:07.
