data_PCOD9220055
_publ_section_title
;
Structure prediction by ZEFSAII (Michael W. Deem and Ramdas Pophale) SiO2 
 PCOD9220055
Probable space group: C 2/M
;
_chemical_formula_sum "Si O2"
_cell_formula_units_Z 56
_cell_length_a 8.889568
_cell_length_b 28.000394
_cell_length_c 17.754405
_cell_angle_alpha 90.000000
_cell_angle_beta 45.491215
_cell_angle_gamma 90.000000
_cell_volume 3151.574139
_symmetry_space_group_name_H-M "C 2/M"
_symmetry_group_IT_number 12
_symmetry_cell_setting 'monoclinic'
loop_
_space_group_symop_operation_xyz
x,y,z
-x,y,-z
-x,-y,-z
x,-y,z
1/2+x,1/2+y,z
1/2-x,1/2+y,-z
1/2-x,1/2-y,-z
1/2+x,1/2-y,z
loop_
_atom_site_type_symbol
_atom_site_label
_atom_site_fract_x
_atom_site_fract_y
_atom_site_fract_z
Si Si1 0.599017 0.635513 0.820095
Si Si2 0.119368 0.602618 0.024658
Si Si3 0.787785 0.772854 0.117759
Si Si4 0.715997 0.812612 0.388103
Si Si5 0.232035 0.054103 0.879896
Si Si6 0.611710 0.189274 0.824937
Si Si7 0.560245 0.708527 0.394264
O O1 0.657669 0.680430 0.852856
O O2 0.669387 0.652438 0.712124
O O3 0.721800 0.590370 0.813391
O O4 0.351600 0.621758 0.918527
O O5 0.133115 0.574401 0.098135
O O6 0.968063 0.647090 0.095958
O O7 0.000000 0.574991 0.000000
O O8 0.596668 0.783735 0.129998
O O9 0.740677 0.726432 0.183081
O O10 0.000000 0.760335 0.000000
O O11 0.500000 0.833037 0.500000
O O12 0.644623 0.763362 0.371289
O O13 0.866292 0.797924 0.405065
O O14 0.286644 0.000000 0.839766
O O15 0.000000 0.053685 0.000000
O O16 0.747708 0.176498 0.704307
O O17 0.500000 0.695137 0.500000
#
# Coordination Sequence:
#
# PCOD9220055 Si02
#       7
#     8   8   8   8   8   8   8
#     4  11  21  38  54  80 108 141 189 222 268 331
#     4  11  22  34  53  83 115 141 179 226 271 328
#     4  12  22  33  48  75 109 150 180 214 266 321
#     4  11  23  36  54  75 107 148 190 234 266 314
#     4   9  19  38  60  79 105 142 179 224 278 327
#     4  12  23  33  50  74 112 150 181 226 264 316
#     4  11  23  36  51  74 106 153 196 223 266 316
#
# _framework density 17.768899000000001
#
# number of rings (size 3 to 8) (size 9 to 14) (size 15 to 20)
#    0.000    1.000    4.286    4.714    4.000    0.286 
#    0.000    0.000    0.000    0.429    0.000    0.000 
#    0.000    3.429    0.000    0.000    0.000    0.000 
#
# Total GULP energy -156285.945596 kJ/mol
# GULP energy per Si atom -5581.640914 kJ/mol
# Density = 1.772846 g / cm^3
# Si number density = 17.768899 Si / 1000 Ang^3
#
#
#
# Elastic Constant Matrix: (Units=GPa)
#
#
# Indices 1 2 3 4 5 6 
#
# 1 107.5071 38.5433 26.2106 0.0000 16.3792 0.0000
# 2 38.5433 76.2379 27.2179 0.0000 16.6596 0.0000
# 3 26.2106 27.2179 115.7251 0.0000 10.6074 0.0000
# 4 0.0000 0.0000 0.0000 11.1199 0.0000 9.0353
# 5 16.3792 16.6596 10.6074 0.0000 28.1335 0.0000
# 6 0.0000 0.0000 0.0000 9.0353 0.0000 8.4050
#
#
#
# Elastic Compliance Matrix: (Units=1/GPa)
#
#
# Indices 1 2 3 4 5 6 
#
# 1 0.011863 -0.004766 -0.001234 0.000000 -0.003619 0.000000
# 2 -0.004766 0.017928 -0.002505 0.000000 -0.006897 0.000000
# 3 -0.001234 -0.002505 0.009641 0.000000 -0.001433 0.000000
# 4 0.000000 0.000000 0.000000 0.710708 0.000000 -0.764003
# 5 -0.003619 -0.006897 -0.001433 0.000000 0.042276 0.000000
# 6 0.000000 0.000000 0.000000 -0.764003 0.000000 0.940272
#
#
# Mechanical properties :
#
#
# Convention : Reuss Voigt Hill
#
# Bulk Modulus (GPa) = 44.59978 53.71264 49.15621
# Shear Modulus (GPa) = 2.84548 23.36491 13.10520
#
# Velocity S-wave (km/s) = 1.26683 3.63013 2.71871
# Velocity P-wave (km/s) = 5.22439 6.91842 6.13020
#
# Compressibility (1/GPa) = 0.02242164
#
# Stress axis : x y z
#
# Youngs Moduli (GPa) = 84.29844 55.77947 103.72160
#
# Poissons Ratio (x) = 0.26584 0.12801
# Poissons Ratio (y) = 0.40176 0.25981
# Poissons Ratio (z) = 0.10404 0.13972
#
# Static dielectric constant tensor:
#      x y z
#    x 1.654890 0.000000 0.012940 
#    y 0.000000 1.595280 0.000000 
#    z 0.012940 0.000000 1.666000 
# 
# From -- ./inp_files/259128.got.cif
#   From: 2010.05.17/outbox.cif.g08.bks.cpg/sg12_130_cif.got.tgz:259128.got - 2010.06.03 13:09:07.
