data_PCOD9220675
_publ_section_title
;
Structure prediction by ZEFSAII (Michael W. Deem and Ramdas Pophale) SiO2 
 PCOD9220675
Probable space group: C 2/M
;
_chemical_formula_sum "Si O2"
_cell_formula_units_Z 40
_cell_length_a 9.019854
_cell_length_b 19.012718
_cell_length_c 12.168876
_cell_angle_alpha 90.000000
_cell_angle_beta 95.175210
_cell_angle_gamma 90.000000
_cell_volume 2078.357097
_symmetry_space_group_name_H-M "C 2/M"
_symmetry_group_IT_number 12
_symmetry_cell_setting 'monoclinic'
loop_
_space_group_symop_operation_xyz
x,y,z
-x,y,-z
-x,-y,-z
x,-y,z
1/2+x,1/2+y,z
1/2-x,1/2+y,-z
1/2-x,1/2-y,-z
1/2+x,1/2-y,z
loop_
_atom_site_type_symbol
_atom_site_label
_atom_site_fract_x
_atom_site_fract_y
_atom_site_fract_z
Si Si1 0.825157 0.421396 0.519436
Si Si2 0.752755 0.161487 0.696722
Si Si3 0.165940 0.683820 0.047553
Si Si4 0.102807 0.309042 0.296724
Si Si5 0.347505 0.417017 0.923636
O O1 0.774705 0.500000 0.545764
O O2 0.746936 0.391886 0.405354
O O3 0.821863 0.365390 0.617301
O O4 0.000000 0.425386 0.500000
O O5 0.845313 0.230558 0.669896
O O6 0.577686 0.180947 0.709773
O O7 0.825056 0.126373 0.809714
O O8 0.165829 0.681043 0.178396
O O9 0.250000 0.750000 0.000000
O O10 0.223648 0.612259 0.997860
O O11 0.000000 0.695200 0.000000
O O12 0.335528 0.500000 0.901163
O O13 0.500000 0.403017 0.000000
#
# Coordination Sequence:
#
# PCOD9220675 Si02
#       5
#     8   8   8   8   8
#     4   9  20  39  62  89 122 159 202 253 308 361
#     4  11  22  40  63  92 121 159 206 254 305 365
#     4  12  22  39  61  92 125 161 203 254 305 362
#     4  11  22  37  65  92 119 161 205 252 302 364
#     4  11  25  41  61  88 124 166 204 251 315 372
#
# _framework density 19.245971999999998
#
# number of rings (size 3 to 8) (size 9 to 14) (size 15 to 20)
#    0.000    1.200    4.000    1.800    2.800    2.000 
#    0.000    0.000    0.000    1.200    0.000    0.000 
#    0.000    0.000    0.000    0.000    0.000    0.000 
#
# Total GULP energy -111676.624661 kJ/mol
# GULP energy per Si atom -5583.831233 kJ/mol
# Density = 1.920217 g / cm^3
# Si number density = 19.245972 Si / 1000 Ang^3
#
#
#
# Elastic Constant Matrix: (Units=GPa)
#
#
# Indices 1 2 3 4 5 6 
#
# 1 82.6701 53.3709 34.5395 0.0000 10.9738 0.0000
# 2 53.3709 151.0592 66.0935 0.0000 19.4018 0.0000
# 3 34.5395 66.0935 113.2485 0.0000 16.9080 0.0000
# 4 0.0000 0.0000 0.0000 42.8014 0.0000 6.1385
# 5 10.9738 19.4018 16.9080 0.0000 26.2540 0.0000
# 6 0.0000 0.0000 0.0000 6.1385 0.0000 42.5306
#
#
#
# Elastic Compliance Matrix: (Units=1/GPa)
#
#
# Indices 1 2 3 4 5 6 
#
# 1 0.016146 -0.004588 -0.001931 0.000000 -0.002115 0.000000
# 2 -0.004588 0.010507 -0.004270 0.000000 -0.003097 0.000000
# 3 -0.001931 -0.004270 0.012524 0.000000 -0.004103 0.000000
# 4 0.000000 0.000000 0.000000 0.023858 0.000000 -0.003443
# 5 -0.002115 -0.003097 -0.004103 0.000000 0.043904 0.000000
# 6 0.000000 0.000000 0.000000 -0.003443 0.000000 0.024009
#
#
# Mechanical properties :
#
#
# Convention : Reuss Voigt Hill
#
# Bulk Modulus (GPa) = 56.82497 72.77617 64.80057
# Shear Modulus (GPa) = 31.56718 35.18214 33.37466
#
# Velocity S-wave (km/s) = 4.05433 4.28018 4.16878
# Velocity P-wave (km/s) = 7.17680 7.89445 7.54417
#
# Compressibility (1/GPa) = 0.01759790
#
# Stress axis : x y z
#
# Youngs Moduli (GPa) = 61.93614 95.17332 79.84758
#
# Poissons Ratio (x) = 0.43666 0.15418
# Poissons Ratio (y) = 0.28416 0.34099
# Poissons Ratio (z) = 0.11959 0.40644
#
# Static dielectric constant tensor:
#      x y z
#    x 1.656460 0.000000 -0.008660 
#    y 0.000000 1.673710 0.000000 
#    z -0.008660 0.000000 1.620470 
# 
# From -- ./inp_files/118907.got.cif
#   From: 2010.05.17/outbox.cif.g08.bks.cpg/sg12_60_cif.got.tgz:118907.got - 2010.06.03 13:09:07.
