data_PCOD9220886
_publ_section_title
;
Structure prediction by ZEFSAII (Michael W. Deem and Ramdas Pophale) SiO2 
 PCOD9220886
Probable space group: C 2/M
;
_chemical_formula_sum "Si O2"
_cell_formula_units_Z 48
_cell_length_a 12.214850
_cell_length_b 23.681945
_cell_length_c 9.207332
_cell_angle_alpha 90.000000
_cell_angle_beta 110.274185
_cell_angle_gamma 90.000000
_cell_volume 2498.406227
_symmetry_space_group_name_H-M "C 2/M"
_symmetry_group_IT_number 12
_symmetry_cell_setting 'monoclinic'
loop_
_space_group_symop_operation_xyz
x,y,z
-x,y,-z
-x,-y,-z
x,-y,z
1/2+x,1/2+y,z
1/2-x,1/2+y,-z
1/2-x,1/2-y,-z
1/2+x,1/2-y,z
loop_
_atom_site_type_symbol
_atom_site_label
_atom_site_fract_x
_atom_site_fract_y
_atom_site_fract_z
Si Si1 0.966692 0.500000 0.239278
Si Si2 0.743767 0.698998 0.882090
Si Si3 0.813628 0.500000 0.466872
Si Si4 0.513548 0.319708 0.342714
Si Si5 0.742067 0.622556 0.368902
Si Si6 0.606364 0.121927 0.854786
Si Si7 0.386589 0.801654 0.662331
O O1 0.892264 0.500000 0.355863
O O2 0.934323 0.557622 0.143981
O O3 0.099420 0.500000 0.356196
O O4 0.610544 0.682264 0.792977
O O5 0.801780 0.715118 0.755654
O O6 0.750000 0.750000 0.000000
O O7 0.820878 0.648102 0.980722
O O8 0.744483 0.558478 0.428590
O O9 0.500000 0.342538 0.500000
O O10 0.611295 0.354518 0.302294
O O11 0.561452 0.255807 0.377131
O O12 0.809818 0.624332 0.247736
O O13 0.814561 0.662149 0.512858
O O14 0.493894 0.160524 0.769332
#
# Coordination Sequence:
#
# PCOD9220886 Si02
#       7
#     4   8   4   8   8   8   8
#     4   9  18  36  63  92 126 156 201 258 308 359
#     4  12  26  42  59  90 131 165 201 250 312 369
#     4   9  18  36  63  95 118 159 209 253 300 358
#     4  12  25  41  63  89 126 167 205 245 306 376
#     4  11  22  40  66  91 123 161 210 254 298 368
#     4  11  22  39  65  95 123 158 205 259 312 355
#     4  12  23  39  64  92 125 159 205 255 305 370
#
# _framework density 19.212247000000001
#
# number of rings (size 3 to 8) (size 9 to 14) (size 15 to 20)
#    0.000    0.833    5.000    3.500    0.000    2.000 
#    0.000    3.750    0.000    3.000    0.000    0.000 
#    0.000    0.000    0.000    0.000    0.000    0.000 
#
# Total GULP energy -134256.561356 kJ/mol
# GULP energy per Si atom -5594.023390 kJ/mol
# Density = 1.916852 g / cm^3
# Si number density = 19.212247 Si / 1000 Ang^3
#
#
#
# Elastic Constant Matrix: (Units=GPa)
#
#
# Indices 1 2 3 4 5 6 
#
# 1 119.9305 20.1002 24.0087 0.0000 14.9669 0.0000
# 2 20.1002 75.6545 -3.2331 0.0000 3.5088 0.0000
# 3 24.0087 -3.2331 61.4872 0.0000 10.4550 0.0000
# 4 0.0000 0.0000 0.0000 28.0818 0.0000 3.7326
# 5 14.9669 3.5088 10.4550 0.0000 39.8225 0.0000
# 6 0.0000 0.0000 0.0000 3.7326 0.0000 24.5565
#
#
#
# Elastic Compliance Matrix: (Units=1/GPa)
#
#
# Indices 1 2 3 4 5 6 
#
# 1 0.009804 -0.002639 -0.003538 0.000000 -0.002523 0.000000
# 2 -0.002639 0.014034 0.001895 0.000000 -0.000742 0.000000
# 3 -0.003538 0.001895 0.018367 0.000000 -0.003659 0.000000
# 4 0.000000 0.000000 0.000000 0.036345 0.000000 -0.005524
# 5 -0.002523 -0.000742 -0.003659 0.000000 0.027086 0.000000
# 6 0.000000 0.000000 0.000000 -0.005524 0.000000 0.041562
#
#
# Mechanical properties :
#
#
# Convention : Reuss Voigt Hill
#
# Bulk Modulus (GPa) = 29.72581 37.64711 33.68646
# Shear Modulus (GPa) = 29.94466 32.90527 31.42496
#
# Velocity S-wave (km/s) = 3.95222 4.14300 4.04873
# Velocity P-wave (km/s) = 6.02766 6.52103 6.27919
#
# Compressibility (1/GPa) = 0.03364080
#
# Stress axis : x y z
#
# Youngs Moduli (GPa) = 102.00417 71.25320 54.44634
#
# Poissons Ratio (x) = 0.18802 0.19261
# Poissons Ratio (y) = 0.26917 -0.10315
# Poissons Ratio (z) = 0.36086 -0.13499
#
# Static dielectric constant tensor:
#      x y z
#    x 1.661290 0.000000 -0.017130 
#    y 0.000000 1.716040 0.000000 
#    z -0.017130 0.000000 1.654940 
# 
# From -- ./inp_files/51368.got.cif
#   From: 2010.05.17/outbox.cif.g08.bks.cpg/sg12_26_cif.got.tgz:51368.got - 2010.06.03 13:09:07.
