data_PCOD9220263
_publ_section_title
;
Structure prediction by ZEFSAII (Michael W. Deem and Ramdas Pophale) SiO2 
 PCOD9220263
Probable space group: C 2/M
;
_chemical_formula_sum "Si O2"
_cell_formula_units_Z 48
_cell_length_a 14.182041
_cell_length_b 18.734251
_cell_length_c 14.386011
_cell_angle_alpha 90.000000
_cell_angle_beta 138.960562
_cell_angle_gamma 90.000000
_cell_volume 2509.585650
_symmetry_space_group_name_H-M "C 2/M"
_symmetry_group_IT_number 12
_symmetry_cell_setting 'monoclinic'
loop_
_space_group_symop_operation_xyz
x,y,z
-x,y,-z
-x,-y,-z
x,-y,z
1/2+x,1/2+y,z
1/2-x,1/2+y,-z
1/2-x,1/2-y,-z
1/2+x,1/2-y,z
loop_
_atom_site_type_symbol
_atom_site_label
_atom_site_fract_x
_atom_site_fract_y
_atom_site_fract_z
Si Si1 0.913714 0.308821 0.676917
Si Si2 0.084810 0.082739 0.657364
Si Si3 0.157297 0.307892 0.157379
Si Si4 0.740605 0.192551 0.910367
Si Si5 0.141961 0.144341 0.375843
Si Si6 0.512539 0.582346 0.898500
O O1 0.863212 0.305953 0.746687
O O2 0.908161 0.225716 0.643049
O O3 0.802384 0.355514 0.534733
O O4 0.076774 0.332814 0.784689
O O5 0.221365 0.133352 0.773283
O O6 0.000000 0.102878 0.500000
O O7 0.967511 0.094563 0.649871
O O8 0.127680 0.000000 0.682875
O O9 0.207766 0.234775 0.143881
O O10 0.000000 0.325152 0.000000
O O11 0.750000 0.250000 0.000000
O O12 0.847008 0.129168 0.016604
O O13 0.118220 0.121001 0.252107
O O14 0.523508 0.500000 0.877714
O O15 0.500000 0.583785 0.000000
#
# Coordination Sequence:
#
# PCOD9220263 Si02
#       6
#     8   8   8   8   8   8
#     4  11  23  36  63  96 126 160 216 269 320 374
#     4  11  23  40  60  88 131 174 208 252 316 387
#     4  12  22  38  62  93 131 166 214 267 317 374
#     4  12  21  39  65  97 129 167 213 275 321 375
#     4  11  21  41  61  92 125 164 214 264 320 378
#     4  11  24  44  67  92 126 173 218 261 328 397
#
# _framework density 19.126663000000001
#
# number of rings (size 3 to 8) (size 9 to 14) (size 15 to 20)
#    0.000    0.667    6.667    2.000    0.000    0.333 
#    0.000    5.000    0.000    2.000    0.000    0.000 
#    0.000    0.000    0.000    0.000    0.000    0.000 
#
# Total GULP energy -134067.044957 kJ/mol
# GULP energy per Si atom -5586.126873 kJ/mol
# Density = 1.908313 g / cm^3
# Si number density = 19.126663 Si / 1000 Ang^3
#
#
#
# Elastic Constant Matrix: (Units=GPa)
#
#
# Indices 1 2 3 4 5 6 
#
# 1 68.8776 29.5731 65.0039 0.0000 5.3455 0.0000
# 2 29.5731 80.2747 45.9409 0.0000 13.4413 0.0000
# 3 65.0039 45.9409 157.1022 0.0000 13.9937 0.0000
# 4 0.0000 0.0000 0.0000 25.7652 0.0000 -5.0813
# 5 5.3455 13.4413 13.9937 0.0000 38.6843 0.0000
# 6 0.0000 0.0000 0.0000 -5.0813 0.0000 24.9169
#
#
#
# Elastic Compliance Matrix: (Units=1/GPa)
#
#
# Indices 1 2 3 4 5 6 
#
# 1 0.024870 -0.004116 -0.009205 0.000000 0.001323 0.000000
# 2 -0.004116 0.016184 -0.002665 0.000000 -0.004090 0.000000
# 3 -0.009205 -0.002665 0.011116 0.000000 -0.001823 0.000000
# 4 0.000000 0.000000 0.000000 0.040438 0.000000 0.008247
# 5 0.001323 -0.004090 -0.001823 0.000000 0.027748 0.000000
# 6 0.000000 0.000000 0.000000 0.008247 0.000000 0.041815
#
#
# Mechanical properties :
#
#
# Convention : Reuss Voigt Hill
#
# Bulk Modulus (GPa) = 49.51016 65.25449 57.38233
# Shear Modulus (GPa) = 24.89108 28.92238 26.90673
#
# Velocity S-wave (km/s) = 3.61138 3.89286 3.75476
# Velocity P-wave (km/s) = 6.58263 7.37542 6.99028
#
# Compressibility (1/GPa) = 0.02019787
#
# Stress axis : x y z
#
# Youngs Moduli (GPa) = 40.20901 61.79067 89.96313
#
# Poissons Ratio (x) = 0.25432 0.82809
# Poissons Ratio (y) = 0.16549 0.23977
# Poissons Ratio (z) = 0.37011 0.16468
#
# Static dielectric constant tensor:
#      x y z
#    x 1.695220 0.000000 -0.043670 
#    y 0.000000 1.644780 0.000000 
#    z -0.043670 0.000000 1.701030 
# 
# From -- ./inp_files/216492.got.cif
#   From: 2010.05.17/outbox.cif.g08.bks.cpg/sg12_109_cif.got.tgz:216492.got - 2010.06.03 13:09:07.
