data_PCOD9220362
_publ_section_title
;
Structure prediction by ZEFSAII (Michael W. Deem and Ramdas Pophale) SiO2 
 PCOD9220362
Probable space group: C 2/M
;
_chemical_formula_sum "Si O2"
_cell_formula_units_Z 48
_cell_length_a 20.565683
_cell_length_b 15.335853
_cell_length_c 17.867778
_cell_angle_alpha 90.000000
_cell_angle_beta 21.641545
_cell_angle_gamma 90.000000
_cell_volume 2078.312865
_symmetry_space_group_name_H-M "C 2/M"
_symmetry_group_IT_number 12
_symmetry_cell_setting 'monoclinic'
loop_
_space_group_symop_operation_xyz
x,y,z
-x,y,-z
-x,-y,-z
x,-y,z
1/2+x,1/2+y,z
1/2-x,1/2+y,-z
1/2-x,1/2-y,-z
1/2+x,1/2-y,z
loop_
_atom_site_type_symbol
_atom_site_label
_atom_site_fract_x
_atom_site_fract_y
_atom_site_fract_z
Si Si1 0.064525 0.406520 0.620843
Si Si2 0.273242 0.658347 0.934116
Si Si3 0.710890 0.263985 0.685715
Si Si4 0.831044 0.904753 0.471831
Si Si5 0.924569 0.901069 0.995383
Si Si6 0.189699 0.252416 0.260378
O O1 0.061776 0.500000 0.583261
O O2 0.115951 0.324982 0.513753
O O3 0.226240 0.409207 0.506436
O O4 0.890454 0.395446 0.857538
O O5 0.460784 0.615959 0.754273
O O6 0.274677 0.685215 0.844854
O O7 0.250000 0.750000 0.000000
O O8 0.740579 0.175853 0.609986
O O9 0.550355 0.324210 0.829892
O O10 0.690977 0.240759 0.793625
O O11 0.810458 0.000000 0.530457
O O12 0.928145 0.000000 0.960850
O O13 0.735497 0.853677 0.190858
O O14 0.000000 0.909480 0.000000
O O15 0.000000 0.238558 0.500000
#
# Coordination Sequence:
#
# PCOD9220362 Si02
#       6
#     8   8   8   8   8   8
#     4  11  24  43  72 102 137 183 230 285 347 420
#     4  12  24  44  68  96 138 183 230 283 345 408
#     4  11  21  43  67  96 137 173 226 283 345 407
#     4  11  24  42  69 100 133 179 233 281 341 409
#     4   9  20  36  61  95 133 176 217 269 337 411
#     4  11  22  40  64  96 134 185 223 279 348 407
#
# _framework density 23.095656999999999
#
# number of rings (size 3 to 8) (size 9 to 14) (size 15 to 20)
#    0.000    1.167    3.333    2.500    2.333    1.000 
#    0.000    5.000    0.000    6.500    0.000    0.000 
#    0.000    0.000    0.000    0.000    0.000    0.000 
#
# Total GULP energy -134041.758040 kJ/mol
# GULP energy per Si atom -5585.073252 kJ/mol
# Density = 2.304309 g / cm^3
# Si number density = 23.095657 Si / 1000 Ang^3
#
#
#
# Elastic Constant Matrix: (Units=GPa)
#
#
# Indices 1 2 3 4 5 6 
#
# 1 69.3292 8.6885 19.6852 -0.0006 6.7467 0.0016
# 2 8.6885 143.0972 24.1334 -0.0130 10.9891 0.0062
# 3 19.6852 24.1334 111.2998 -0.0062 -1.9835 0.0030
# 4 -0.0006 -0.0130 -0.0062 11.1165 0.0036 -7.6100
# 5 6.7467 10.9891 -1.9835 0.0036 33.0775 -0.0006
# 6 0.0016 0.0062 0.0030 -7.6100 -0.0006 7.6921
#
#
#
# Elastic Compliance Matrix: (Units=1/GPa)
#
#
# Indices 1 2 3 4 5 6 
#
# 1 0.015554 -0.000228 -0.002759 -0.000005 -0.003262 -0.000007
# 2 -0.000228 0.007471 -0.001625 0.000015 -0.002533 0.000009
# 3 -0.002759 -0.001625 0.009855 0.000005 0.001694 0.000003
# 4 -0.000005 0.000015 0.000005 0.278723 -0.000029 0.275746
# 5 -0.003262 -0.002533 0.001694 -0.000029 0.031840 -0.000024
# 6 -0.000007 0.000009 0.000003 0.275746 -0.000024 0.402804
#
#
# Mechanical properties :
#
#
# Convention : Reuss Voigt Hill
#
# Bulk Modulus (GPa) = 42.27566 47.63781 44.95674
# Shear Modulus (GPa) = 6.55002 28.45850 17.50426
#
# Velocity S-wave (km/s) = 1.68588 3.51408 2.75599
# Velocity P-wave (km/s) = 4.70467 6.09394 5.44381
#
# Compressibility (1/GPa) = 0.02365427
#
# Stress axis : x y z
#
# Youngs Moduli (GPa) = 64.29412 133.85763 101.46879
#
# Poissons Ratio (x) = 0.03058 0.28000
# Poissons Ratio (y) = 0.01469 0.16485
# Poissons Ratio (z) = 0.17742 0.21747
#
# Static dielectric constant tensor:
#      x y z
#    x 1.914830 0.000010 -0.012060 
#    y 0.000010 1.970810 0.000020 
#    z -0.012060 0.000020 2.010730 
# 
# From -- ./inp_files/325643.got.cif
#   From: 2010.05.17/outbox.cif.g08.bks.cpg/sg12_163_cif.got.tgz:325643.got - 2010.06.03 13:09:07.
