data_PCOD9220931
_publ_section_title
;
Structure prediction by ZEFSAII (Michael W. Deem and Ramdas Pophale) SiO2 
 PCOD9220931
Probable space group: C 2/M
;
_chemical_formula_sum "Si O2"
_cell_formula_units_Z 56
_cell_length_a 24.848800
_cell_length_b 17.264747
_cell_length_c 9.608274
_cell_angle_alpha 90.000000
_cell_angle_beta 40.843351
_cell_angle_gamma 90.000000
_cell_volume 2695.778673
_symmetry_space_group_name_H-M "C 2/M"
_symmetry_group_IT_number 12
_symmetry_cell_setting 'monoclinic'
loop_
_space_group_symop_operation_xyz
x,y,z
-x,y,-z
-x,-y,-z
x,-y,z
1/2+x,1/2+y,z
1/2-x,1/2+y,-z
1/2-x,1/2-y,-z
1/2+x,1/2-y,z
loop_
_atom_site_type_symbol
_atom_site_label
_atom_site_fract_x
_atom_site_fract_y
_atom_site_fract_z
Si Si1 0.812876 0.412406 0.067392
Si Si2 0.486310 0.855630 0.683919
Si Si3 0.918840 0.592588 0.251717
Si Si4 0.216511 0.911339 0.991754
Si Si5 0.638288 0.588353 0.870964
Si Si6 0.562375 0.323055 0.260073
Si Si7 0.246610 0.337561 0.557390
O O1 0.789181 0.500000 0.154646
O O2 0.792837 0.401810 0.943420
O O3 0.763487 0.352053 0.258648
O O4 0.909477 0.401726 0.897442
O O5 0.500000 0.882998 0.500000
O O6 0.563250 0.868813 0.633640
O O7 0.458313 0.765995 0.728294
O O8 0.913375 0.500000 0.277284
O O9 0.836179 0.623762 0.342615
O O10 0.000000 0.610806 0.000000
O O11 0.151263 0.843821 0.151330
O O12 0.184632 0.000000 0.082180
O O13 0.217744 0.908474 0.821941
O O14 0.613722 0.500000 0.901344
O O15 0.671263 0.623677 0.664992
O O16 0.570200 0.633392 0.095782
O O17 0.500000 0.352323 0.500000
O O18 0.250000 0.250000 0.500000
#
# Coordination Sequence:
#
# PCOD9220931 Si02
#       7
#     8   8   8   8   8   8   8
#     4  11  22  40  60  86 123 161 204 254 313 376
#     4  11  24  37  59  91 122 159 203 256 309 364
#     4  11  24  43  64  89 124 168 211 253 309 371
#     4   8  19  35  59  87 114 153 201 252 306 365
#     4   9  19  37  60  89 116 156 207 253 303 370
#     4   9  19  37  59  86 123 157 202 257 314 367
#     4  12  25  40  63  92 125 165 205 256 318 375
#
# _framework density 20.773219000000001
#
# number of rings (size 3 to 8) (size 9 to 14) (size 15 to 20)
#    0.857    1.000    1.429    2.571    2.000    5.143 
#    0.000    0.000    0.000    0.000    0.000    4.000 
#    0.000    0.000    0.000    0.000    0.000    0.000 
#
# Total GULP energy -155985.387831 kJ/mol
# GULP energy per Si atom -5570.906708 kJ/mol
# Density = 2.072594 g / cm^3
# Si number density = 20.773219 Si / 1000 Ang^3
#
#
#
# Elastic Constant Matrix: (Units=GPa)
#
#
# Indices 1 2 3 4 5 6 
#
# 1 28.9422 -6.0651 -19.7532 0.0000 5.3688 0.0000
# 2 -6.0651 68.3009 19.8630 0.0000 0.8997 0.0000
# 3 -19.7532 19.8630 87.0196 0.0000 10.6933 0.0000
# 4 0.0000 0.0000 0.0000 31.3447 0.0000 0.7167
# 5 5.3688 0.8997 10.6933 0.0000 25.6744 0.0000
# 6 0.0000 0.0000 0.0000 0.7167 0.0000 25.1210
#
#
#
# Elastic Compliance Matrix: (Units=1/GPa)
#
#
# Indices 1 2 3 4 5 6 
#
# 1 0.045567 0.000761 0.011956 0.000000 -0.014535 0.000000
# 2 0.000761 0.015719 -0.003508 0.000000 0.000751 0.000000
# 3 0.011956 -0.003508 0.016124 0.000000 -0.009093 0.000000
# 4 0.000000 0.000000 0.000000 0.031924 0.000000 -0.000911
# 5 -0.014535 0.000751 -0.009093 0.000000 0.045749 0.000000
# 6 0.000000 0.000000 0.000000 -0.000911 0.000000 0.039833
#
#
# Mechanical properties :
#
#
# Convention : Reuss Voigt Hill
#
# Bulk Modulus (GPa) = 10.43532 19.15024 14.79278
# Shear Modulus (GPa) = 23.98764 29.10921 26.54843
#
# Velocity S-wave (km/s) = 3.40183 3.74744 3.57881
# Velocity P-wave (km/s) = 4.52375 5.28801 4.92074
#
# Compressibility (1/GPa) = 0.09582839
#
# Stress axis : x y z
#
# Youngs Moduli (GPa) = 21.94558 63.61805 62.02083
#
# Poissons Ratio (x) = -0.04840 -0.74152
# Poissons Ratio (y) = -0.01670 0.21754
# Poissons Ratio (z) = -0.26238 0.22314
#
# Static dielectric constant tensor:
#      x y z
#    x 1.751330 0.000000 0.015370 
#    y 0.000000 1.739610 0.000000 
#    z 0.015370 0.000000 1.765960 
# 
# From -- ./inp_files/105920.got.cif
#   From: 2010.05.17/outbox.cif.g08.bks.cpg/sg12_53_cif.got.tgz:105920.got - 2010.06.03 13:09:07.
