data_PCOD9220088
_publ_section_title
;
Structure prediction by ZEFSAII (Michael W. Deem and Ramdas Pophale) SiO2 
 PCOD9220088
Probable space group: C 2/M
;
_chemical_formula_sum "Si O2"
_cell_formula_units_Z 48
_cell_length_a 16.271747
_cell_length_b 28.086743
_cell_length_c 10.010131
_cell_angle_alpha 90.000000
_cell_angle_beta 34.783501
_cell_angle_gamma 90.000000
_cell_volume 2609.837868
_symmetry_space_group_name_H-M "C 2/M"
_symmetry_group_IT_number 12
_symmetry_cell_setting 'monoclinic'
loop_
_space_group_symop_operation_xyz
x,y,z
-x,y,-z
-x,-y,-z
x,-y,z
1/2+x,1/2+y,z
1/2-x,1/2+y,-z
1/2-x,1/2-y,-z
1/2+x,1/2-y,z
loop_
_atom_site_type_symbol
_atom_site_label
_atom_site_fract_x
_atom_site_fract_y
_atom_site_fract_z
Si Si1 0.168291 0.265326 0.744169
Si Si2 0.442354 0.125185 0.715145
Si Si3 0.628604 0.874173 0.731575
Si Si4 0.375219 0.554660 0.470194
Si Si5 0.809559 0.945358 0.874649
Si Si6 0.845899 0.270305 0.752312
O O1 0.250000 0.250000 0.500000
O O2 0.174650 0.323110 0.732102
O O3 0.250793 0.237443 0.749322
O O4 0.000000 0.254974 0.000000
O O5 0.500000 0.103543 0.500000
O O6 0.559535 0.131648 0.676461
O O7 0.382467 0.176623 0.751760
O O8 0.315667 0.091738 0.934485
O O9 0.763862 0.909535 0.550996
O O10 0.500000 0.892755 0.000000
O O11 0.356517 0.500000 0.448884
O O12 0.544619 0.567197 0.239088
O O13 0.342324 0.555278 0.672799
O O14 0.771025 0.000000 0.960198
O O15 0.000000 0.248239 0.500000
O O16 0.750000 0.250000 0.000000
#
# Coordination Sequence:
#
# PCOD9220088 Si02
#       6
#     8   8   8   8   8   8
#     4  11  23  40  59  85 118 154 201 249 293 350
#     4  11  23  40  58  85 125 158 192 241 300 355
#     4  11  21  38  61  89 115 153 203 246 287 346
#     4   9  19  36  61  92 119 146 195 254 291 338
#     4   9  19  37  60  89 121 152 192 242 296 352
#     4  11  23  40  59  85 118 158 198 246 299 352
#
# _framework density 18.391946999999998
#
# number of rings (size 3 to 8) (size 9 to 14) (size 15 to 20)
#    0.000    1.667    1.667    6.000    0.000    4.000 
#    0.000    0.833    0.000    2.000    0.000    0.000 
#    0.000    0.000    0.000    0.000    0.000    0.000 
#
# Total GULP energy -133748.032170 kJ/mol
# GULP energy per Si atom -5572.834674 kJ/mol
# Density = 1.835009 g / cm^3
# Si number density = 18.391947 Si / 1000 Ang^3
#
#
#
# Elastic Constant Matrix: (Units=GPa)
#
#
# Indices 1 2 3 4 5 6 
#
# 1 145.6245 59.4311 24.4602 0.0000 -7.8783 0.0000
# 2 59.4311 70.3875 23.0339 0.0000 -21.0346 0.0000
# 3 24.4602 23.0339 85.7596 0.0000 -0.9656 0.0000
# 4 0.0000 0.0000 0.0000 20.3895 0.0000 -4.8353
# 5 -7.8783 -21.0346 -0.9656 0.0000 36.3165 0.0000
# 6 0.0000 0.0000 0.0000 -4.8353 0.0000 27.4264
#
#
#
# Elastic Compliance Matrix: (Units=1/GPa)
#
#
# Indices 1 2 3 4 5 6 
#
# 1 0.010861 -0.010072 -0.000432 0.000000 -0.003489 0.000000
# 2 -0.010072 0.028456 -0.004611 0.000000 0.014174 0.000000
# 3 -0.000432 -0.004611 0.012995 0.000000 -0.002419 0.000000
# 4 0.000000 0.000000 0.000000 0.051185 0.000000 0.009024
# 5 -0.003489 0.014174 -0.002419 0.000000 0.034924 0.000000
# 6 0.000000 0.000000 0.000000 0.009024 0.000000 0.038052
#
#
# Mechanical properties :
#
#
# Convention : Reuss Voigt Hill
#
# Bulk Modulus (GPa) = 45.28361 57.29133 51.28747
# Shear Modulus (GPa) = 23.35764 29.81624 26.58694
#
# Velocity S-wave (km/s) = 3.56756 4.03073 3.80620
# Velocity P-wave (km/s) = 6.45328 7.27188 6.87478
#
# Compressibility (1/GPa) = 0.02208304
#
# Stress axis : x y z
#
# Youngs Moduli (GPa) = 92.07049 35.14226 76.95389
#
# Poissons Ratio (x) = 0.35395 0.03324
# Poissons Ratio (y) = 0.92733 0.35480
# Poissons Ratio (z) = 0.03977 0.16202
#
# Static dielectric constant tensor:
#      x y z
#    x 1.634780 0.000000 -0.020930 
#    y 0.000000 1.625800 0.000000 
#    z -0.020930 0.000000 1.736100 
# 
# From -- ./inp_files/52423.got.cif
#   From: 2010.05.17/outbox.cif.g08.bks.cpg/sg12_27_cif.got.tgz:52423.got - 2010.06.03 13:09:07.
