data_PCOD9220717
_publ_section_title
;
Structure prediction by ZEFSAII (Michael W. Deem and Ramdas Pophale) SiO2 
 PCOD9220717
Probable space group: C 2/M
;
_chemical_formula_sum "Si O2"
_cell_formula_units_Z 40
_cell_length_a 14.912893
_cell_length_b 8.354400
_cell_length_c 31.086327
_cell_angle_alpha 90.000000
_cell_angle_beta 146.670411
_cell_angle_gamma 90.000000
_cell_volume 2128.032298
_symmetry_space_group_name_H-M "C 2/M"
_symmetry_group_IT_number 12
_symmetry_cell_setting 'monoclinic'
loop_
_space_group_symop_operation_xyz
x,y,z
-x,y,-z
-x,-y,-z
x,-y,z
1/2+x,1/2+y,z
1/2-x,1/2+y,-z
1/2-x,1/2-y,-z
1/2+x,1/2-y,z
loop_
_atom_site_type_symbol
_atom_site_label
_atom_site_fract_x
_atom_site_fract_y
_atom_site_fract_z
Si Si1 0.145747 0.693092 0.498781
Si Si2 0.612224 0.688696 0.085817
Si Si3 0.460017 0.310283 0.197163
Si Si4 0.784047 0.695054 0.376189
Si Si5 0.920724 0.313399 0.087381
O O1 0.146412 0.500000 0.498514
O O2 0.250000 0.750000 0.500000
O O3 0.215940 0.743959 0.573615
O O4 0.955615 0.745799 0.423472
O O5 0.585823 0.500000 0.082928
O O6 0.798940 0.723250 0.149718
O O7 0.553148 0.784725 0.103535
O O8 0.500000 0.735059 0.000000
O O9 0.442006 0.500000 0.197631
O O10 0.624152 0.252821 0.286516
O O11 0.467363 0.278601 0.149300
O O12 0.785346 0.500000 0.376332
O O13 0.902806 0.500000 0.090495
O O14 0.750000 0.250000 0.000000
#
# Coordination Sequence:
#
# PCOD9220717 Si02
#       5
#     8   8   8   8   8
#     4   9  17  35  60  84 114 150 187 226 275 335
#     4  11  23  39  59  82 111 149 194 239 288 341
#     4  11  22  38  60  86 117 152 193 241 290 339
#     4   8  18  36  57  82 115 153 186 224 280 341
#     4  12  24  39  59  83 111 149 193 239 290 342
#
# _framework density 18.796707000000001
#
# number of rings (size 3 to 8) (size 9 to 14) (size 15 to 20)
#    0.000    1.800    2.000    4.200    0.000    2.400 
#    0.000   10.000    0.000    0.000    0.000    0.000 
#    0.000    0.000    0.000    0.000    0.000    0.000 
#
# Total GULP energy -111701.120783 kJ/mol
# GULP energy per Si atom -5585.056039 kJ/mol
# Density = 1.875393 g / cm^3
# Si number density = 18.796707 Si / 1000 Ang^3
#
#
#
# Elastic Constant Matrix: (Units=GPa)
#
#
# Indices 1 2 3 4 5 6 
#
# 1 135.3165 -4.4061 69.7140 0.0000 6.1456 0.0000
# 2 -4.4061 21.0468 3.4223 0.0000 2.2467 0.0000
# 3 69.7140 3.4223 172.3085 0.0000 7.3633 0.0000
# 4 0.0000 0.0000 0.0000 8.7865 0.0000 0.8943
# 5 6.1456 2.2467 7.3633 0.0000 17.0065 0.0000
# 6 0.0000 0.0000 0.0000 0.8943 0.0000 36.4673
#
#
#
# Elastic Compliance Matrix: (Units=1/GPa)
#
#
# Indices 1 2 3 4 5 6 
#
# 1 0.009555 0.002855 -0.003830 0.000000 -0.002172 0.000000
# 2 0.002855 0.049128 -0.001843 0.000000 -0.006724 0.000000
# 3 -0.003830 -0.001843 0.007458 0.000000 -0.001602 0.000000
# 4 0.000000 0.000000 0.000000 0.114095 0.000000 -0.002798
# 5 -0.002172 -0.006724 -0.001602 0.000000 0.061168 0.000000
# 6 0.000000 0.000000 0.000000 -0.002798 0.000000 0.027490
#
#
# Mechanical properties :
#
#
# Convention : Reuss Voigt Hill
#
# Bulk Modulus (GPa) = 16.52771 51.79246 34.16008
# Shear Modulus (GPa) = 16.96647 29.78150 23.37398
#
# Velocity S-wave (km/s) = 3.00764 3.98477 3.53018
# Velocity P-wave (km/s) = 4.56871 6.98463 5.90162
#
# Compressibility (1/GPa) = 0.06050445
#
# Stress axis : x y z
#
# Youngs Moduli (GPa) = 104.66109 20.35487 134.08397
#
# Poissons Ratio (x) = -0.05811 0.51349
# Poissons Ratio (y) = -0.29879 0.24718
# Poissons Ratio (z) = 0.40081 0.03752
#
# Static dielectric constant tensor:
#      x y z
#    x 1.626730 0.000000 0.006930 
#    y 0.000000 1.650830 0.000000 
#    z 0.006930 0.000000 1.634520 
# 
# From -- ./inp_files/211365.got.cif
#   From: 2010.05.17/outbox.cif.g08.bks.cpg/sg12_106_cif.got.tgz:211365.got - 2010.06.03 13:09:07.
