data_PCOD9220961
_publ_section_title
;
Structure prediction by ZEFSAII (Michael W. Deem and Ramdas Pophale) SiO2 
 PCOD9220961
Probable space group: C 2/M
;
_chemical_formula_sum "Si O2"
_cell_formula_units_Z 58
_cell_length_a 8.644813
_cell_length_b 20.345085
_cell_length_c 24.513037
_cell_angle_alpha 90.000000
_cell_angle_beta 137.669331
_cell_angle_gamma 90.000000
_cell_volume 2903.291967
_symmetry_space_group_name_H-M "C 2/M"
_symmetry_group_IT_number 12
_symmetry_cell_setting 'monoclinic'
loop_
_space_group_symop_operation_xyz
x,y,z
-x,y,-z
-x,-y,-z
x,-y,z
1/2+x,1/2+y,z
1/2-x,1/2+y,-z
1/2-x,1/2-y,-z
1/2+x,1/2-y,z
loop_
_atom_site_type_symbol
_atom_site_label
_atom_site_fract_x
_atom_site_fract_y
_atom_site_fract_z
Si Si1 0.000000 0.000000 0.000000
Si Si2 0.049435 0.303420 0.950512
Si Si3 0.687382 0.670237 0.281759
Si Si4 0.116465 0.579655 0.407791
Si Si5 0.458452 0.421127 0.401283
Si Si6 0.392596 0.573643 0.264123
Si Si7 0.628143 0.895442 0.875385
Si Si8 0.853113 0.719642 0.208607
O O1 0.842623 0.943168 0.928334
O O2 0.129654 0.364493 0.936012
O O3 0.829111 0.270664 0.864460
O O4 0.250000 0.250000 0.000000
O O5 0.000000 0.319806 0.000000
O O6 0.484882 0.617841 0.239305
O O7 0.749767 0.688893 0.236360
O O8 0.586578 0.738598 0.279827
O O9 0.905626 0.629231 0.361463
O O10 0.063554 0.500000 0.393873
O O11 0.310427 0.590844 0.504369
O O12 0.241292 0.596710 0.382629
O O13 0.439896 0.500000 0.390599
O O14 0.463304 0.395047 0.341046
O O15 0.487701 0.500000 0.284073
O O16 0.118886 0.570759 0.194172
O O17 0.623807 0.837154 0.830211
#
# Coordination Sequence:
#
# PCOD9220961 Si02
#       8
#     2   8   8   8   8   8   8   8
#     4  12  28  48  70 100 128 168 208 276 352 394
#     4  12  22  41  69  95 120 164 222 264 313 385
#     4  12  23  40  65  96 130 172 228 272 322 386
#     4   9  18  36  66 104 136 169 225 276 326 386
#     4   8  17  36  65  98 135 182 219 268 329 392
#     4  11  22  40  64  95 137 173 214 273 331 387
#     4  12  24  46  67  97 134 163 216 266 332 400
#     4  12  24  42  65  93 126 179 220 264 318 403
#
# _framework density 19.977322000000001
#
# number of rings (size 3 to 8) (size 9 to 14) (size 15 to 20)
#    0.000    1.103    4.828    2.897    0.000    0.552 
#    2.483    2.414    0.000   17.379    0.000    0.000 
#    0.000    0.000    0.000    0.000    0.000    0.000 
#
# Total GULP energy -161542.600356 kJ/mol
# GULP energy per Si atom -5570.434495 kJ/mol
# Density = 1.993185 g / cm^3
# Si number density = 19.977322 Si / 1000 Ang^3
#
#
#
# Elastic Constant Matrix: (Units=GPa)
#
#
# Indices 1 2 3 4 5 6 
#
# 1 97.9962 47.6893 36.6908 0.0001 -7.3566 0.0000
# 2 47.6893 100.5184 36.4501 -0.0003 3.2991 0.0000
# 3 36.6908 36.4501 70.3908 -0.0010 7.1983 0.0003
# 4 0.0001 -0.0003 -0.0010 15.4407 -0.0004 36.5224
# 5 -7.3566 3.2991 7.1983 -0.0004 38.7173 0.0003
# 6 0.0000 0.0000 0.0003 36.5224 0.0003 0.4726
#
#
#
# Elastic Compliance Matrix: (Units=1/GPa)
#
#
# Indices 1 2 3 4 5 6 
#
# 1 0.015237 -0.005331 -0.005631 0.000000 0.004396 0.000000
# 2 -0.005331 0.014114 -0.004387 0.000000 -0.001400 0.000000
# 3 -0.005631 -0.004387 0.019862 0.000000 -0.004389 0.000001
# 4 0.000000 0.000000 0.000000 -0.000356 0.000000 0.027531
# 5 0.004396 -0.001400 -0.004389 0.000000 0.027599 0.000000
# 6 0.000000 0.000000 0.000001 0.027531 0.000000 -0.011639
#
#
# Mechanical properties :
#
#
# Convention : Reuss Voigt Hill
#
# Bulk Modulus (GPa) = 54.00971 56.72954 55.36963
# Shear Modulus (GPa) = 49.17015 20.79779 34.98397
#
# Velocity S-wave (km/s) = 4.96653 3.23006 4.18926
# Velocity P-wave (km/s) = 7.74485 6.50920 7.15376
#
# Compressibility (1/GPa) = 0.01851519
#
# Stress axis : x y z
#
# Youngs Moduli (GPa) = 65.62776 70.84919 50.34739
#
# Poissons Ratio (x) = 0.37773 0.28352
# Poissons Ratio (y) = 0.34989 0.22086
# Poissons Ratio (z) = 0.36957 0.31079
#
# Static dielectric constant tensor:
#      x y z
#    x 1.727890 0.000000 0.020530 
#    y 0.000000 1.724480 0.000000 
#    z 0.020530 0.000000 1.712040 
# 
# From -- ./inp_files/333865.got.cif
#   From: 2010.05.17/outbox.cif.g08.bks.cpg/sg12_167_cif.got.tgz:333865.got - 2010.06.03 13:09:07.
