data_PCOD9220822
_publ_section_title
;
Structure prediction by ZEFSAII (Michael W. Deem and Ramdas Pophale) SiO2 
 PCOD9220822
Probable space group: C 2/M
;
_chemical_formula_sum "Si O2"
_cell_formula_units_Z 40
_cell_length_a 8.169165
_cell_length_b 29.297630
_cell_length_c 13.846770
_cell_angle_alpha 90.000000
_cell_angle_beta 32.286233
_cell_angle_gamma 90.000000
_cell_volume 1770.195560
_symmetry_space_group_name_H-M "C 2/M"
_symmetry_group_IT_number 12
_symmetry_cell_setting 'monoclinic'
loop_
_space_group_symop_operation_xyz
x,y,z
-x,y,-z
-x,-y,-z
x,-y,z
1/2+x,1/2+y,z
1/2-x,1/2+y,-z
1/2-x,1/2-y,-z
1/2+x,1/2-y,z
loop_
_atom_site_type_symbol
_atom_site_label
_atom_site_fract_x
_atom_site_fract_y
_atom_site_fract_z
Si Si1 0.134147 0.631258 0.696983
Si Si2 0.637954 0.698895 0.689147
Si Si3 0.749713 0.103001 0.298201
Si Si4 0.611976 0.217955 0.834040
Si Si5 0.638149 0.948249 0.038894
O O1 0.500000 0.632913 0.500000
O O2 0.027134 0.677462 0.803952
O O3 0.944976 0.623578 0.693232
O O4 0.046863 0.588170 0.806270
O O5 0.570325 0.646132 0.745307
O O6 0.544026 0.733240 0.821631
O O7 0.476594 0.713582 0.671041
O O8 0.000000 0.701856 0.500000
O O9 0.500000 0.085621 0.500000
O O10 0.005794 0.066930 0.140530
O O11 0.500000 0.211401 0.000000
O O12 0.608490 0.000000 0.090184
O O13 0.500000 0.946786 0.000000
#
# Coordination Sequence:
#
# PCOD9220822 Si02
#       5
#     8   8   8   8   8
#     4  12  24  42  67  95 131 172 216 264 319 378
#     4  11  22  39  60  89 129 171 215 258 311 374
#     4  11  24  43  68  97 130 170 215 264 320 381
#     4  12  24  39  62  93 131 170 215 262 315 376
#     4  11  25  46  70  97 129 165 210 265 324 386
#
# _framework density 22.596374999999998
#
# number of rings (size 3 to 8) (size 9 to 14) (size 15 to 20)
#    0.000    0.600    0.000   10.200    0.000    4.000 
#    0.000    0.000    0.000    0.000    0.000    0.000 
#    0.000    0.000    0.000    0.000    0.000    0.000 
#
# Total GULP energy -112021.830109 kJ/mol
# GULP energy per Si atom -5601.091505 kJ/mol
# Density = 2.254494 g / cm^3
# Si number density = 22.596375 Si / 1000 Ang^3
#
#
#
# Elastic Constant Matrix: (Units=GPa)
#
#
# Indices 1 2 3 4 5 6 
#
# 1 92.0221 -11.3440 -5.5246 0.0000 -7.0104 0.0000
# 2 -11.3440 96.8230 36.4403 0.0000 11.1441 0.0000
# 3 -5.5246 36.4403 100.6792 0.0000 8.6792 0.0000
# 4 0.0000 0.0000 0.0000 24.9356 0.0000 -3.1945
# 5 -7.0104 11.1441 8.6792 0.0000 35.3652 0.0000
# 6 0.0000 0.0000 0.0000 -3.1945 0.0000 32.4742
#
#
#
# Elastic Compliance Matrix: (Units=1/GPa)
#
#
# Indices 1 2 3 4 5 6 
#
# 1 0.011144 0.001067 0.000065 0.000000 0.001857 0.000000
# 2 0.001067 0.012330 -0.004176 0.000000 -0.002649 0.000000
# 3 0.000065 -0.004176 0.011578 0.000000 -0.001513 0.000000
# 4 0.000000 0.000000 0.000000 0.040615 0.000000 0.003995
# 5 0.001857 -0.002649 -0.001513 0.000000 0.029850 0.000000
# 6 0.000000 0.000000 0.000000 0.003995 0.000000 0.031187
#
#
# Mechanical properties :
#
#
# Convention : Reuss Voigt Hill
#
# Bulk Modulus (GPa) = 34.52435 36.51861 35.52148
# Shear Modulus (GPa) = 32.79871 36.55184 34.67528
#
# Velocity S-wave (km/s) = 3.81399 4.02630 3.92158
# Velocity P-wave (km/s) = 5.89129 6.14908 6.02156
#
# Compressibility (1/GPa) = 0.02896507
#
# Stress axis : x y z
#
# Youngs Moduli (GPa) = 89.73518 81.10532 86.37147
#
# Poissons Ratio (x) = -0.08658 -0.00562
# Poissons Ratio (y) = -0.09579 0.36066
# Poissons Ratio (z) = -0.00584 0.33867
#
# Static dielectric constant tensor:
#      x y z
#    x 1.872380 0.000000 -0.038030 
#    y 0.000000 1.797570 0.000000 
#    z -0.038030 0.000000 1.955780 
# 
# From -- ./inp_files/201104.got.cif
#   From: 2010.05.17/outbox.cif.g08.bks.cpg/sg12_101_cif.got.tgz:201104.got - 2010.06.03 13:09:07.
