data_PCOD9220561
_publ_section_title
;
Structure prediction by ZEFSAII (Michael W. Deem and Ramdas Pophale) SiO2 
 PCOD9220561
Probable space group: C 2/M
;
_chemical_formula_sum "Si O2"
_cell_formula_units_Z 32
_cell_length_a 8.880901
_cell_length_b 20.510925
_cell_length_c 15.174925
_cell_angle_alpha 90.000000
_cell_angle_beta 39.886720
_cell_angle_gamma 90.000000
_cell_volume 1772.600925
_symmetry_space_group_name_H-M "C 2/M"
_symmetry_group_IT_number 12
_symmetry_cell_setting 'monoclinic'
loop_
_space_group_symop_operation_xyz
x,y,z
-x,y,-z
-x,-y,-z
x,-y,z
1/2+x,1/2+y,z
1/2-x,1/2+y,-z
1/2-x,1/2-y,-z
1/2+x,1/2-y,z
loop_
_atom_site_type_symbol
_atom_site_label
_atom_site_fract_x
_atom_site_fract_y
_atom_site_fract_z
Si Si1 0.518031 0.074060 0.597250
Si Si2 0.898332 0.816237 0.449146
Si Si3 0.229268 0.202725 0.139256
Si Si4 0.384498 0.658775 0.137154
O O1 0.500000 0.072473 0.500000
O O2 0.733069 0.120963 0.523115
O O3 0.288742 0.109769 0.737307
O O4 0.542285 0.000000 0.618808
O O5 0.750000 0.750000 0.500000
O O6 0.000000 0.808093 0.500000
O O7 0.095809 0.825015 0.284940
O O8 0.249087 0.279391 0.154968
O O9 0.070322 0.187037 0.125158
O O10 0.500000 0.181533 0.000000
O O11 0.500000 0.625940 0.000000
#
# Coordination Sequence:
#
# PCOD9220561 Si02
#       4
#     8   8   8   8
#     4  11  24  43  63  87 123 167 210 255 306 364
#     4  12  23  38  67  94 121 158 207 257 307 364
#     4  11  22  36  59  97 124 154 196 256 313 354
#     4  11  22  37  63  91 124 159 201 252 310 367
#
# _framework density 18.052569999999999
#
# number of rings (size 3 to 8) (size 9 to 14) (size 15 to 20)
#    0.000    0.750    5.000    5.250    3.500    1.000 
#    0.000    0.000    0.000    1.500    0.000    0.000 
#    0.000    0.000    0.000    0.000    0.000    0.000 
#
# Total GULP energy -89325.469071 kJ/mol
# GULP energy per Si atom -5582.841817 kJ/mol
# Density = 1.801148 g / cm^3
# Si number density = 18.052570 Si / 1000 Ang^3
#
#
#
# Elastic Constant Matrix: (Units=GPa)
#
#
# Indices 1 2 3 4 5 6 
#
# 1 126.2857 71.6552 67.8884 0.0000 15.0006 0.0000
# 2 71.6552 126.1828 64.7808 0.0001 -17.7716 0.0000
# 3 67.8884 64.7808 181.0353 0.0000 4.2004 -0.0001
# 4 0.0000 0.0001 0.0000 6.0255 0.0000 7.2192
# 5 15.0006 -17.7716 4.2004 0.0000 31.6068 0.0000
# 6 0.0000 0.0000 -0.0001 7.2192 0.0000 16.2081
#
#
#
# Elastic Compliance Matrix: (Units=1/GPa)
#
#
# Indices 1 2 3 4 5 6 
#
# 1 0.016328 -0.009948 -0.002260 0.000000 -0.013042 0.000000
# 2 -0.009948 0.017025 -0.002701 0.000000 0.014653 0.000000
# 3 -0.002260 -0.002701 0.007371 0.000000 -0.001426 0.000000
# 4 0.000000 0.000000 0.000000 0.355868 0.000000 -0.158506
# 5 -0.013042 0.014653 -0.001426 0.000000 0.046257 0.000000
# 6 0.000000 0.000000 0.000000 -0.158506 0.000000 0.132297
#
#
# Mechanical properties :
#
#
# Convention : Reuss Voigt Hill
#
# Bulk Modulus (GPa) = 91.71478 93.57253 92.64365
# Shear Modulus (GPa) = 8.21555 26.04670 17.13113
#
# Velocity S-wave (km/s) = 2.13560 3.80257 3.08386
# Velocity P-wave (km/s) = 7.54954 8.43951 8.00690
#
# Compressibility (1/GPa) = 0.01090337
#
# Stress axis : x y z
#
# Youngs Moduli (GPa) = 61.24552 58.73681 135.66301
#
# Poissons Ratio (x) = 0.58434 0.30665
# Poissons Ratio (y) = 0.60930 0.36649
# Poissons Ratio (z) = 0.13844 0.15868
#
# Static dielectric constant tensor:
#      x y z
#    x 1.596620 0.000000 -0.012630 
#    y 0.000000 1.596280 0.000000 
#    z -0.012630 0.000000 1.680650 
# 
# From -- ./inp_files/37508.got.cif
#   From: 2010.05.17/outbox.cif.g08.bks.cpg/sg12_19_cif.got.tgz:37508.got - 2010.06.03 13:09:07.
