data_PCOD9220873
_publ_section_title
;
Structure prediction by ZEFSAII (Michael W. Deem and Ramdas Pophale) SiO2 
 PCOD9220873
Probable space group: C 2/M
;
_chemical_formula_sum "Si O2"
_cell_formula_units_Z 40
_cell_length_a 26.937136
_cell_length_b 8.526549
_cell_length_c 22.170781
_cell_angle_alpha 90.000000
_cell_angle_beta 158.764928
_cell_angle_gamma 90.000000
_cell_volume 1844.371452
_symmetry_space_group_name_H-M "C 2/M"
_symmetry_group_IT_number 12
_symmetry_cell_setting 'monoclinic'
loop_
_space_group_symop_operation_xyz
x,y,z
-x,y,-z
-x,-y,-z
x,-y,z
1/2+x,1/2+y,z
1/2-x,1/2+y,-z
1/2-x,1/2-y,-z
1/2+x,1/2-y,z
loop_
_atom_site_type_symbol
_atom_site_label
_atom_site_fract_x
_atom_site_fract_y
_atom_site_fract_z
Si Si1 0.280422 0.812069 0.244391
Si Si2 0.884408 0.185379 0.684715
Si Si3 0.094917 0.311264 0.829370
Si Si4 0.492924 0.815546 0.923652
Si Si5 0.466673 0.812570 0.560500
O O1 0.339644 0.754973 0.376231
O O2 0.400100 0.790711 0.330981
O O3 0.252226 0.000000 0.215201
O O4 0.146251 0.719144 0.074443
O O5 0.750000 0.250000 0.500000
O O6 0.015830 0.255454 0.799047
O O7 0.890624 0.233374 0.761746
O O8 0.887471 0.000000 0.683384
O O9 0.098417 0.500000 0.831646
O O10 0.004893 0.253020 0.669859
O O11 0.250000 0.250000 0.000000
O O12 0.463752 0.000000 0.891895
O O13 0.500000 0.753280 0.000000
O O14 0.445504 0.000000 0.541817
#
# Coordination Sequence:
#
# PCOD9220873 Si02
#       5
#     8   8   8   8   8
#     4   9  17  35  61  90 122 161 210 259 312 380
#     4  12  27  47  69  96 132 177 225 279 337 400
#     4  11  22  39  64  97 134 177 222 271 330 394
#     4  11  25  43  63  92 129 166 211 270 326 389
#     4   8  17  33  58  90 124 160 204 258 313 377
#
# _framework density 21.687605999999999
#
# number of rings (size 3 to 8) (size 9 to 14) (size 15 to 20)
#    0.000    1.800    0.000    5.400    2.800    3.200 
#    0.000    4.000    0.000    0.000    0.000    0.000 
#    0.000    0.000    0.000    0.000    0.000    0.000 
#
# Total GULP energy -111804.011823 kJ/mol
# GULP energy per Si atom -5590.200591 kJ/mol
# Density = 2.163824 g / cm^3
# Si number density = 21.687606 Si / 1000 Ang^3
#
#
#
# Elastic Constant Matrix: (Units=GPa)
#
#
# Indices 1 2 3 4 5 6 
#
# 1 91.9292 26.3110 40.5924 0.0000 -31.4101 0.0000
# 2 26.3110 68.5795 26.6322 0.0000 -9.2281 0.0000
# 3 40.5924 26.6322 116.9122 0.0000 -27.6875 0.0000
# 4 0.0000 0.0000 0.0000 31.1412 0.0000 0.7905
# 5 -31.4101 -9.2281 -27.6875 0.0000 42.7637 0.0000
# 6 0.0000 0.0000 0.0000 0.7905 0.0000 25.0774
#
#
#
# Elastic Compliance Matrix: (Units=1/GPa)
#
#
# Indices 1 2 3 4 5 6 
#
# 1 0.016406 -0.004032 -0.002516 0.000000 0.009552 0.000000
# 2 -0.004032 0.017048 -0.002733 0.000000 -0.001052 0.000000
# 3 -0.002516 -0.002733 0.011188 0.000000 0.004806 0.000000
# 4 0.000000 0.000000 0.000000 0.032137 0.000000 -0.001013
# 5 0.009552 -0.001052 0.004806 0.000000 0.033285 0.000000
# 6 0.000000 0.000000 0.000000 -0.001013 0.000000 0.039908
#
#
# Mechanical properties :
#
#
# Convention : Reuss Voigt Hill
#
# Bulk Modulus (GPa) = 38.34229 51.61023 44.97626
# Shear Modulus (GPa) = 28.21226 32.05547 30.13387
#
# Velocity S-wave (km/s) = 3.61064 3.84872 3.73158
# Velocity P-wave (km/s) = 5.92453 6.60295 6.27292
#
# Compressibility (1/GPa) = 0.02608086
#
# Stress axis : x y z
#
# Youngs Moduli (GPa) = 60.95160 58.65703 89.38492
#
# Poissons Ratio (x) = 0.23652 0.22488
# Poissons Ratio (y) = 0.24577 0.24426
# Poissons Ratio (z) = 0.15334 0.16029
#
# Static dielectric constant tensor:
#      x y z
#    x 1.839550 0.000000 -0.032150 
#    y 0.000000 1.719900 0.000000 
#    z -0.032150 0.000000 1.793490 
# 
# From -- ./inp_files/353128.got.cif
#   From: 2010.05.17/outbox.cif.g08.bks.cpg/sg12_177_cif.got.tgz:353128.got - 2010.06.03 13:09:07.
