data_PCOD9220253
_publ_section_title
;
Structure prediction by ZEFSAII (Michael W. Deem and Ramdas Pophale) SiO2 
 PCOD9220253
Probable space group: C 2/M
;
_chemical_formula_sum "Si O2"
_cell_formula_units_Z 48
_cell_length_a 13.987935
_cell_length_b 22.280478
_cell_length_c 11.598326
_cell_angle_alpha 90.000000
_cell_angle_beta 146.480240
_cell_angle_gamma 90.000000
_cell_volume 1996.131387
_symmetry_space_group_name_H-M "C 2/M"
_symmetry_group_IT_number 12
_symmetry_cell_setting 'monoclinic'
loop_
_space_group_symop_operation_xyz
x,y,z
-x,y,-z
-x,-y,-z
x,-y,z
1/2+x,1/2+y,z
1/2-x,1/2+y,-z
1/2-x,1/2-y,-z
1/2+x,1/2-y,z
loop_
_atom_site_type_symbol
_atom_site_label
_atom_site_fract_x
_atom_site_fract_y
_atom_site_fract_z
Si Si1 0.228218 0.129063 0.942121
Si Si2 0.384820 0.500000 0.209001
Si Si3 0.787681 0.312520 0.772145
Si Si4 0.325097 0.687682 0.893479
Si Si5 0.228412 0.500000 0.299145
Si Si6 0.367137 0.887902 0.656737
Si Si7 0.197907 0.565928 0.659321
O O1 0.153133 0.181379 0.947728
O O2 0.435546 0.130171 0.170265
O O3 0.204027 0.143551 0.782698
O O4 0.155306 0.062685 0.894169
O O5 0.259173 0.500000 0.194386
O O6 0.580882 0.500000 0.451117
O O7 0.726309 0.246341 0.748178
O O8 0.763157 0.334897 0.616888
O O9 0.000000 0.316146 0.000000
O O10 0.258929 0.622446 0.792709
O O11 0.500000 0.693100 0.000000
O O12 0.132527 0.441589 0.250213
O O13 0.289580 0.913954 0.461378
O O14 0.279935 0.500000 0.756761
O O15 0.000000 0.559619 0.500000
#
# Coordination Sequence:
#
# PCOD9220253 Si02
#       7
#     8   4   8   8   4   8   8
#     4  11  22  40  67  94 124 166 216 252 314 379
#     4  11  25  37  63 101 133 164 200 261 325 370
#     4   9  21  41  65  93 121 163 215 263 309 372
#     4  11  25  42  62  91 129 168 207 260 319 375
#     4  11  23  41  59 101 137 157 206 264 317 360
#     4  11  21  40  69  90 125 170 214 258 304 377
#     4  11  24  41  61  92 127 165 210 262 308 376
#
# _framework density 24.046513000000001
#
# number of rings (size 3 to 8) (size 9 to 14) (size 15 to 20)
#    0.000    1.333    4.167    1.000    3.500    1.667 
#    0.000    1.667    0.000    0.000    0.000    0.000 
#    0.000    0.000    0.000    0.000    0.000    0.000 
#
# Total GULP energy -134146.480067 kJ/mol
# GULP energy per Si atom -5589.436669 kJ/mol
# Density = 2.399178 g / cm^3
# Si number density = 24.046513 Si / 1000 Ang^3
#
#
#
# Elastic Constant Matrix: (Units=GPa)
#
#
# Indices 1 2 3 4 5 6 
#
# 1 118.4942 35.2453 13.3324 0.0000 -18.6853 0.0000
# 2 35.2453 159.0233 19.6805 0.0000 -21.1620 0.0000
# 3 13.3324 19.6805 24.2313 0.0000 -4.9264 0.0000
# 4 0.0000 0.0000 0.0000 -12.9266 0.0000 -0.1657
# 5 -18.6853 -21.1620 -4.9264 0.0000 27.6310 0.0000
# 6 0.0000 0.0000 0.0000 -0.1657 0.0000 17.1871
#
#
#
# Elastic Compliance Matrix: (Units=1/GPa)
#
#
# Indices 1 2 3 4 5 6 
#
# 1 0.009994 -0.001069 -0.003551 0.000000 0.005306 0.000000
# 2 -0.001069 0.007691 -0.004781 0.000000 0.004315 0.000000
# 3 -0.003551 -0.004781 0.047599 0.000000 0.002423 0.000000
# 4 0.000000 0.000000 0.000000 -0.077350 0.000000 -0.000746
# 5 0.005306 0.004315 0.002423 0.000000 0.043516 0.000000
# 6 0.000000 0.000000 0.000000 -0.000746 0.000000 0.058176
#
#
# Mechanical properties :
#
#
# Convention : Reuss Voigt Hill
#
# Bulk Modulus (GPa) = 21.51460 48.69610 35.10535
# Shear Modulus (GPa) = 40.34769 21.94433 31.14601
#
# Velocity S-wave (km/s) = 4.10066 3.02417 3.60285
# Velocity P-wave (km/s) = 5.60242 5.69990 5.65137
#
# Compressibility (1/GPa) = 0.04648006
#
# Stress axis : x y z
#
# Youngs Moduli (GPa) = 100.06434 130.01654 21.00889
#
# Poissons Ratio (x) = 0.13903 0.07461
# Poissons Ratio (y) = 0.10700 0.10045
# Poissons Ratio (z) = 0.35536 0.62163
#
# Static dielectric constant tensor:
#      x y z
#    x 1.868410 0.000000 -0.025340 
#    y 0.000000 2.002300 0.000000 
#    z -0.025340 0.000000 1.946390 
# 
# From -- ./inp_files/148052.got.cif
#   From: 2010.05.17/outbox.cif.g08.bks.cpg/sg12_75_cif.got.tgz:148052.got - 2010.06.03 13:09:07.
