data_PCOD9220150
_publ_section_title
;
Structure prediction by ZEFSAII (Michael W. Deem and Ramdas Pophale) SiO2 
 PCOD9220150
Probable space group: C 2/M
;
_chemical_formula_sum "Si O2"
_cell_formula_units_Z 60
_cell_length_a 10.739776
_cell_length_b 32.271001
_cell_length_c 12.228850
_cell_angle_alpha 90.000000
_cell_angle_beta 133.092349
_cell_angle_gamma 90.000000
_cell_volume 3095.044744
_symmetry_space_group_name_H-M "C 2/M"
_symmetry_group_IT_number 12
_symmetry_cell_setting 'monoclinic'
loop_
_space_group_symop_operation_xyz
x,y,z
-x,y,-z
-x,-y,-z
x,-y,z
1/2+x,1/2+y,z
1/2-x,1/2+y,-z
1/2-x,1/2-y,-z
1/2+x,1/2-y,z
loop_
_atom_site_type_symbol
_atom_site_label
_atom_site_fract_x
_atom_site_fract_y
_atom_site_fract_z
Si Si1 0.714882 0.660716 0.930514
Si Si2 0.160600 0.863899 0.345206
Si Si3 0.756662 0.453364 0.735968
Si Si4 0.000000 0.395382 0.000000
Si Si5 0.685203 0.225316 0.165311
Si Si6 0.298426 0.319944 0.842195
Si Si7 0.620930 0.452382 0.407461
Si Si8 0.678852 0.711020 0.532783
O O1 0.535269 0.638309 0.812658
O O2 0.693973 0.703418 0.850851
O O3 0.783156 0.668291 0.092463
O O4 0.851817 0.633589 0.952494
O O5 0.253466 0.847382 0.292071
O O6 0.196369 0.911687 0.394547
O O7 0.173392 0.830134 0.452168
O O8 0.809979 0.500000 0.793716
O O9 0.911002 0.423533 0.855719
O O10 0.698600 0.451650 0.575769
O O11 0.582996 0.445276 0.700285
O O12 0.735363 0.272820 0.209636
O O13 0.691769 0.204913 0.288136
O O14 0.500000 0.223765 0.000000
O O15 0.500000 0.321831 0.000000
O O16 0.645538 0.500000 0.379857
O O17 0.500000 0.716608 0.500000
O O18 0.750000 0.750000 0.500000
#
# Coordination Sequence:
#
# PCOD9220150 Si02
#       8
#     8   8   8   4   8   8   8   8
#     4  11  22  35  57  88 118 160 196 245 299 371
#     4  11  21  39  63  84 120 161 201 256 302 353
#     4   9  19  34  55  85 120 151 187 249 311 365
#     4  12  21  34  56  92 116 148 196 248 309 360
#     4  11  22  39  59  85 118 163 204 250 305 360
#     4   9  21  38  56  79 116 159 201 241 297 352
#     4   9  19  35  60  87 115 156 202 242 304 371
#     4  12  26  42  63  94 127 164 211 260 312 367
#
# _framework density 19.385825000000001
#
# number of rings (size 3 to 8) (size 9 to 14) (size 15 to 20)
#    0.000    1.600    4.667    1.400    3.733    1.067 
#    0.000    0.000    0.000    5.200    0.000    1.867 
#    0.000    0.000    0.000    0.000    0.000    0.000 
#
# Total GULP energy -167125.402695 kJ/mol
# GULP energy per Si atom -5570.846757 kJ/mol
# Density = 1.934170 g / cm^3
# Si number density = 19.385825 Si / 1000 Ang^3
#
#
#
# Elastic Constant Matrix: (Units=GPa)
#
#
# Indices 1 2 3 4 5 6 
#
# 1 23.2187 19.9917 17.8813 0.0000 -23.0865 0.0000
# 2 19.9917 133.5278 38.1545 0.0000 -26.0272 0.0000
# 3 17.8813 38.1545 84.8117 0.0000 -23.5539 0.0000
# 4 0.0000 0.0000 0.0000 141.7750 0.0000 23.1009
# 5 -23.0865 -26.0272 -23.5539 0.0000 35.0266 0.0000
# 6 0.0000 0.0000 0.0000 23.1009 0.0000 -1.2102
#
#
#
# Elastic Compliance Matrix: (Units=1/GPa)
#
#
# Indices 1 2 3 4 5 6 
#
# 1 0.126912 -0.002504 -0.003586 0.000000 0.079376 0.000000
# 2 -0.002504 0.009308 -0.002702 0.000000 0.003449 0.000000
# 3 -0.003586 -0.002702 0.015430 0.000000 0.006005 0.000000
# 4 0.000000 0.000000 0.000000 0.001716 0.000000 0.032757
# 5 0.079376 0.003449 0.006005 0.000000 0.087469 0.000000
# 6 0.000000 0.000000 0.000000 0.032757 0.000000 -0.201034
#
#
# Mechanical properties :
#
#
# Convention : Reuss Voigt Hill
#
# Bulk Modulus (GPa) = 7.45905 43.73478 25.59691
# Shear Modulus (GPa) = 48.98423 46.15368 47.56895
#
# Velocity S-wave (km/s) = 5.03219 4.88463 4.95896
# Velocity P-wave (km/s) = 6.13351 7.37713 6.78388
#
# Compressibility (1/GPa) = 0.13406536
#
# Stress axis : x y z
#
# Youngs Moduli (GPa) = 7.87950 107.43058 64.80894
#
# Poissons Ratio (x) = 0.26904 0.23243
# Poissons Ratio (y) = 0.01973 0.17509
# Poissons Ratio (z) = 0.02826 0.29023
#
# Static dielectric constant tensor:
#      x y z
#    x 1.824380 0.000000 -0.028560 
#    y 0.000000 1.700760 0.000000 
#    z -0.028560 0.000000 1.713720 
# 
# From -- ./inp_files/137616.got.cif
#   From: 2010.05.17/outbox.cif.g08.bks.cpg/sg12_69_cif.got.tgz:137616.got - 2010.06.03 13:09:07.
