data_PCOD9220557
_publ_section_title
;
Structure prediction by ZEFSAII (Michael W. Deem and Ramdas Pophale) SiO2 
 PCOD9220557
Probable space group: C 2/M
;
_chemical_formula_sum "Si O2"
_cell_formula_units_Z 64
_cell_length_a 27.521585
_cell_length_b 14.806568
_cell_length_c 9.062806
_cell_angle_alpha 90.000000
_cell_angle_beta 113.114781
_cell_angle_gamma 90.000000
_cell_volume 3396.614668
_symmetry_space_group_name_H-M "C 2/M"
_symmetry_group_IT_number 12
_symmetry_cell_setting 'monoclinic'
loop_
_space_group_symop_operation_xyz
x,y,z
-x,y,-z
-x,-y,-z
x,-y,z
1/2+x,1/2+y,z
1/2-x,1/2+y,-z
1/2-x,1/2-y,-z
1/2+x,1/2-y,z
loop_
_atom_site_type_symbol
_atom_site_label
_atom_site_fract_x
_atom_site_fract_y
_atom_site_fract_z
Si Si1 0.229171 0.103681 0.632584
Si Si2 0.004928 0.711732 0.169835
Si Si3 0.322428 0.393801 0.741265
Si Si4 0.386262 0.599601 0.356134
Si Si5 0.562003 0.602947 0.263222
Si Si6 0.443373 0.104099 0.518394
Si Si7 0.895937 0.713923 0.208952
Si Si8 0.208367 0.264566 0.082578
O O1 0.213989 0.126812 0.445693
O O2 0.173421 0.104863 0.653738
O O3 0.267558 0.171121 0.762795
O O4 0.248525 0.000000 0.658154
O O5 0.021879 0.816651 0.184596
O O6 0.047259 0.659518 0.321082
O O7 0.948332 0.700468 0.177089
O O8 0.000000 0.675138 0.000000
O O9 0.315972 0.500000 0.768047
O O10 0.383296 0.381332 0.761228
O O11 0.307379 0.329145 0.857110
O O12 0.394708 0.500000 0.300265
O O13 0.422809 0.607499 0.544970
O O14 0.395347 0.681924 0.258938
O O15 0.544137 0.500000 0.211586
O O16 0.500000 0.106436 0.500000
O O17 0.401869 0.153519 0.362685
O O18 0.429896 0.000000 0.528633
O O19 0.843966 0.694573 0.053792
O O20 0.250000 0.250000 0.000000
#
# Coordination Sequence:
#
# PCOD9220557 Si02
#       8
#     8   8   8   8   8   8   8   8
#     4   9  19  38  60  83 116 157 197 241 291 347
#     4  11  22  36  59  87 118 152 195 241 284 348
#     4   9  20  39  62  87 118 158 197 235 290 354
#     4   9  17  33  58  85 115 152 192 230 281 348
#     4   9  18  35  60  88 121 155 188 230 283 350
#     4   9  20  40  61  79 109 150 191 239 294 344
#     4  11  22  37  56  87 117 153 194 239 293 343
#     4  12  23  35  58  86 117 154 195 247 294 341
#
# _framework density 18.842290999999999
#
# number of rings (size 3 to 8) (size 9 to 14) (size 15 to 20)
#    0.000    2.125    2.500    2.625    0.000    2.500 
#    0.000    1.250    0.000    5.250    0.000    0.000 
#    0.000    0.000    0.000    0.000    0.000    0.000 
#
# Total GULP energy -178640.191079 kJ/mol
# GULP energy per Si atom -5582.505971 kJ/mol
# Density = 1.879941 g / cm^3
# Si number density = 18.842291 Si / 1000 Ang^3
#
#
#
# Elastic Constant Matrix: (Units=GPa)
#
#
# Indices 1 2 3 4 5 6 
#
# 1 37.9251 12.0963 35.6849 0.0000 6.7360 0.0000
# 2 12.0963 59.9784 37.5151 0.0000 4.1986 0.0000
# 3 35.6849 37.5151 102.8660 0.0000 10.8774 0.0000
# 4 0.0000 0.0000 0.0000 7.1918 0.0000 0.0458
# 5 6.7360 4.1986 10.8774 0.0000 30.5336 0.0000
# 6 0.0000 0.0000 0.0000 0.0458 0.0000 20.6131
#
#
#
# Elastic Compliance Matrix: (Units=1/GPa)
#
#
# Indices 1 2 3 4 5 6 
#
# 1 0.039639 0.000806 -0.013622 0.000000 -0.004003 0.000000
# 2 0.000806 0.021617 -0.008137 0.000000 -0.000252 0.000000
# 3 -0.013622 -0.008137 0.017643 0.000000 -0.002161 0.000000
# 4 0.000000 0.000000 0.000000 0.139049 0.000000 -0.000309
# 5 -0.004003 -0.000252 -0.002161 0.000000 0.034438 0.000000
# 6 0.000000 0.000000 0.000000 -0.000309 0.000000 0.048514
#
#
# Mechanical properties :
#
#
# Convention : Reuss Voigt Hill
#
# Bulk Modulus (GPa) = 27.03154 41.26247 34.14701
# Shear Modulus (GPa) = 14.07914 19.36591 16.72252
#
# Velocity S-wave (km/s) = 2.73648 3.20939 2.98232
# Velocity P-wave (km/s) = 4.93576 5.97327 5.47913
#
# Compressibility (1/GPa) = 0.03699382
#
# Stress axis : x y z
#
# Youngs Moduli (GPa) = 25.22789 46.25986 56.68048
#
# Poissons Ratio (x) = -0.03728 0.77208
# Poissons Ratio (y) = -0.02033 0.46119
# Poissons Ratio (z) = 0.34364 0.37640
#
# Static dielectric constant tensor:
#      x y z
#    x 1.639250 0.000000 0.008780 
#    y 0.000000 1.642480 0.000000 
#    z 0.008780 0.000000 1.663980 
# 
# From -- ./inp_files/104665.got.cif
#   From: 2010.05.17/outbox.cif.g08.bks.cpg/sg12_53_cif.got.tgz:104665.got - 2010.06.03 13:09:07.
