data_PCOD9220640
_publ_section_title
;
Structure prediction by ZEFSAII (Michael W. Deem and Ramdas Pophale) SiO2 
 PCOD9220640
Probable space group: C 2/M
;
_chemical_formula_sum "Si O2"
_cell_formula_units_Z 48
_cell_length_a 9.050798
_cell_length_b 27.386217
_cell_length_c 14.153106
_cell_angle_alpha 90.000000
_cell_angle_beta 135.503887
_cell_angle_gamma 90.000000
_cell_volume 2458.682744
_symmetry_space_group_name_H-M "C 2/M"
_symmetry_group_IT_number 12
_symmetry_cell_setting 'monoclinic'
loop_
_space_group_symop_operation_xyz
x,y,z
-x,y,-z
-x,-y,-z
x,-y,z
1/2+x,1/2+y,z
1/2-x,1/2+y,-z
1/2-x,1/2-y,-z
1/2+x,1/2-y,z
loop_
_atom_site_type_symbol
_atom_site_label
_atom_site_fract_x
_atom_site_fract_y
_atom_site_fract_z
Si Si1 0.808852 0.304925 0.487913
Si Si2 0.605581 0.944666 0.152691
Si Si3 0.314005 0.602501 0.971355
Si Si4 0.602470 0.638001 0.776878
Si Si5 0.900736 0.310313 0.227016
Si Si6 0.119101 0.730303 0.145509
O O1 0.750000 0.250000 0.500000
O O2 0.613460 0.336141 0.356237
O O3 0.000000 0.304231 0.500000
O O4 0.901032 0.330447 0.624697
O O5 0.803237 0.907737 0.239219
O O6 0.666507 0.000000 0.203476
O O7 0.500000 0.944180 0.000000
O O8 0.406553 0.926074 0.122031
O O9 0.389257 0.620608 0.109772
O O10 0.500000 0.575571 0.000000
O O11 0.255096 0.649018 0.880885
O O12 0.775246 0.680307 0.840092
O O13 0.788094 0.271518 0.243502
O O14 0.978705 0.280499 0.171362
O O15 0.000000 0.749941 0.000000
#
# Coordination Sequence:
#
# PCOD9220640 Si02
#       6
#     8   8   8   8   8   8
#     4  12  26  40  56  85 124 170 211 247 299 361
#     4   9  19  40  67  91 116 154 203 257 317 365
#     4  11  22  37  60  92 122 156 198 253 311 361
#     4  11  22  41  60  85 124 157 206 254 300 367
#     4  12  24  36  56  82 121 166 205 246 296 359
#     4  12  22  36  56  86 118 161 208 249 291 359
#
# _framework density 19.522649000000001
#
# number of rings (size 3 to 8) (size 9 to 14) (size 15 to 20)
#    0.000    0.833    5.000    3.500    2.333    0.333 
#    0.000    0.000    0.000    2.500    0.000    0.000 
#    0.000    0.000    0.000    0.000    0.000    0.000 
#
# Total GULP energy -133934.377733 kJ/mol
# GULP energy per Si atom -5580.599072 kJ/mol
# Density = 1.947821 g / cm^3
# Si number density = 19.522649 Si / 1000 Ang^3
#
#
#
# Elastic Constant Matrix: (Units=GPa)
#
#
# Indices 1 2 3 4 5 6 
#
# 1 108.5083 42.5892 26.8838 0.0000 23.4555 0.0000
# 2 42.5892 101.4292 31.3567 0.0000 18.6840 0.0000
# 3 26.8838 31.3567 117.1257 0.0000 7.9121 0.0000
# 4 0.0000 0.0000 0.0000 18.3379 0.0000 9.8292
# 5 23.4555 18.6840 7.9121 0.0000 28.1660 0.0000
# 6 0.0000 0.0000 0.0000 9.8292 0.0000 13.7084
#
#
#
# Elastic Compliance Matrix: (Units=1/GPa)
#
#
# Indices 1 2 3 4 5 6 
#
# 1 0.012604 -0.003400 -0.001454 0.000000 -0.007832 0.000000
# 2 -0.003400 0.012950 -0.002342 0.000000 -0.005101 0.000000
# 3 -0.001454 -0.002342 0.009492 0.000000 0.000098 0.000000
# 4 0.000000 0.000000 0.000000 0.088572 0.000000 -0.063508
# 5 -0.007832 -0.005101 0.000098 0.000000 0.045383 0.000000
# 6 0.000000 0.000000 0.000000 -0.063508 0.000000 0.118485
#
#
# Mechanical properties :
#
#
# Convention : Reuss Voigt Hill
#
# Bulk Modulus (GPa) = 48.41541 58.74696 53.58118
# Shear Modulus (GPa) = 16.19371 27.12469 21.65920
#
# Velocity S-wave (km/s) = 2.88320 3.73150 3.33444
# Velocity P-wave (km/s) = 5.99477 6.98015 6.50614
#
# Compressibility (1/GPa) = 0.02065458
#
# Stress axis : x y z
#
# Youngs Moduli (GPa) = 79.34296 77.21713 105.35320
#
# Poissons Ratio (x) = 0.26254 0.15314
# Poissons Ratio (y) = 0.26977 0.24674
# Poissons Ratio (z) = 0.11533 0.18085
#
# Static dielectric constant tensor:
#      x y z
#    x 1.768680 0.000000 0.018700 
#    y 0.000000 1.670270 0.000000 
#    z 0.018700 0.000000 1.771410 
# 
# From -- ./inp_files/123512.got.cif
#   From: 2010.05.17/outbox.cif.g08.bks.cpg/sg12_62_cif.got.tgz:123512.got - 2010.06.03 13:09:07.
