data_PCOD9220229
_publ_section_title
;
Structure prediction by ZEFSAII (Michael W. Deem and Ramdas Pophale) SiO2 
 PCOD9220229
Probable space group: C 2/M
;
_chemical_formula_sum "Si O2"
_cell_formula_units_Z 48
_cell_length_a 12.003528
_cell_length_b 18.240506
_cell_length_c 12.491333
_cell_angle_alpha 90.000000
_cell_angle_beta 109.239508
_cell_angle_gamma 90.000000
_cell_volume 2582.232179
_symmetry_space_group_name_H-M "C 2/M"
_symmetry_group_IT_number 12
_symmetry_cell_setting 'monoclinic'
loop_
_space_group_symop_operation_xyz
x,y,z
-x,y,-z
-x,-y,-z
x,-y,z
1/2+x,1/2+y,z
1/2-x,1/2+y,-z
1/2-x,1/2-y,-z
1/2+x,1/2-y,z
loop_
_atom_site_type_symbol
_atom_site_label
_atom_site_fract_x
_atom_site_fract_y
_atom_site_fract_z
Si Si1 0.539840 0.647958 0.392578
Si Si2 0.138764 0.585740 0.019684
Si Si3 0.862979 0.650929 0.213314
Si Si4 0.781691 0.583916 0.409771
Si Si5 0.708160 0.315964 0.772596
Si Si6 0.121294 0.687556 0.374743
O O1 0.500000 0.630589 0.500000
O O2 0.642480 0.595042 0.385505
O O3 0.421942 0.650507 0.284444
O O4 0.594812 0.730141 0.406089
O O5 0.166108 0.500000 0.044514
O O6 0.214951 0.636185 0.122341
O O7 0.159590 0.609216 0.903890
O O8 0.000000 0.596470 0.000000
O O9 0.811969 0.609387 0.300021
O O10 0.808242 0.732518 0.193514
O O11 0.002802 0.659969 0.278985
O O12 0.816303 0.500000 0.437998
O O13 0.847477 0.636356 0.515328
O O14 0.773604 0.313218 0.678300
#
# Coordination Sequence:
#
# PCOD9220229 Si02
#       6
#     8   8   8   8   8   8
#     4  11  22  40  64  90 125 167 206 250 303 368
#     4  11  24  42  64  91 125 161 204 259 314 365
#     4  11  23  42  66  91 123 163 210 257 305 363
#     4  12  25  39  61  95 132 164 200 250 314 372
#     4  11  22  41  68  92 122 162 212 259 299 366
#     4  11  21  40  66  93 124 159 209 259 301 362
#
# _framework density 18.588569
#
# number of rings (size 3 to 8) (size 9 to 14) (size 15 to 20)
#    0.000    0.833    5.000    4.000    0.000    3.667 
#    0.000    0.833    0.000    2.000    0.000    0.000 
#    0.000    0.000    0.000    0.000    0.000    0.000 
#
# Total GULP energy -134250.139709 kJ/mol
# GULP energy per Si atom -5593.755821 kJ/mol
# Density = 1.854626 g / cm^3
# Si number density = 18.588569 Si / 1000 Ang^3
#
#
#
# Elastic Constant Matrix: (Units=GPa)
#
#
# Indices 1 2 3 4 5 6 
#
# 1 72.8240 41.6868 45.2672 0.0000 0.9912 0.0000
# 2 41.6868 88.8756 54.4998 0.0000 12.9018 0.0000
# 3 45.2672 54.4998 105.6998 0.0000 -5.0404 0.0000
# 4 0.0000 0.0000 0.0000 18.2249 0.0000 2.2337
# 5 0.9912 12.9018 -5.0404 0.0000 29.1727 0.0000
# 6 0.0000 0.0000 0.0000 2.2337 0.0000 2.2469
#
#
#
# Elastic Compliance Matrix: (Units=1/GPa)
#
#
# Indices 1 2 3 4 5 6 
#
# 1 0.020918 -0.006641 -0.005473 0.000000 0.001281 0.000000
# 2 -0.006641 0.021167 -0.008576 0.000000 -0.010617 0.000000
# 3 -0.005473 -0.008576 0.016553 0.000000 0.006839 0.000000
# 4 0.000000 0.000000 0.000000 0.062483 0.000000 -0.062115
# 5 0.001281 -0.010617 0.006839 0.000000 0.040112 0.000000
# 6 0.000000 0.000000 0.000000 -0.062115 0.000000 0.506811
#
#
# Mechanical properties :
#
#
# Convention : Reuss Voigt Hill
#
# Bulk Modulus (GPa) = 57.94745 61.14521 59.54633
# Shear Modulus (GPa) = 6.99128 18.32527 12.65828
#
# Velocity S-wave (km/s) = 1.94145 3.14321 2.61237
# Velocity P-wave (km/s) = 6.02221 6.79253 6.41893
#
# Compressibility (1/GPa) = 0.01725701
#
# Stress axis : x y z
#
# Youngs Moduli (GPa) = 47.80568 47.24342 60.41361
#
# Poissons Ratio (x) = 0.31376 0.33064
# Poissons Ratio (y) = 0.31749 0.51810
# Poissons Ratio (z) = 0.26164 0.40516
#
# Static dielectric constant tensor:
#      x y z
#    x 1.643580 0.000000 0.011450 
#    y 0.000000 1.616360 0.000000 
#    z 0.011450 0.000000 1.606500 
# 
# From -- ./inp_files/131015.got.cif
#   From: 2010.05.17/outbox.cif.g08.bks.cpg/sg12_66_cif.got.tgz:131015.got - 2010.06.03 13:09:07.
