data_PCOD9220270
_publ_section_title
;
Structure prediction by ZEFSAII (Michael W. Deem and Ramdas Pophale) SiO2 
 PCOD9220270
Probable space group: C 2/M
;
_chemical_formula_sum "Si O2"
_cell_formula_units_Z 56
_cell_length_a 17.091511
_cell_length_b 20.788394
_cell_length_c 14.476886
_cell_angle_alpha 90.000000
_cell_angle_beta 30.283176
_cell_angle_gamma 90.000000
_cell_volume 2593.840089
_symmetry_space_group_name_H-M "C 2/M"
_symmetry_group_IT_number 12
_symmetry_cell_setting 'monoclinic'
loop_
_space_group_symop_operation_xyz
x,y,z
-x,y,-z
-x,-y,-z
x,-y,z
1/2+x,1/2+y,z
1/2-x,1/2+y,-z
1/2-x,1/2-y,-z
1/2+x,1/2-y,z
loop_
_atom_site_type_symbol
_atom_site_label
_atom_site_fract_x
_atom_site_fract_y
_atom_site_fract_z
Si Si1 0.184475 0.428051 0.419307
Si Si2 0.795547 0.650398 0.983266
Si Si3 0.179677 0.570969 0.204650
Si Si4 0.988035 0.236267 0.745519
Si Si5 0.177165 0.575749 0.854781
Si Si6 0.660609 0.701539 0.392085
Si Si7 0.612246 0.313610 0.807108
O O1 0.244461 0.500000 0.379145
O O2 0.187991 0.418102 0.304660
O O3 0.284849 0.368171 0.347501
O O4 0.004353 0.427447 0.630443
O O5 0.735811 0.616964 0.951369
O O6 0.947856 0.688806 0.795883
O O7 0.664973 0.702330 0.141321
O O8 0.818333 0.601111 0.043766
O O9 0.239635 0.500000 0.126016
O O10 0.121775 0.214196 0.539615
O O11 0.018767 0.217609 0.819122
O O12 0.227433 0.500000 0.796591
O O13 0.274377 0.630461 0.699320
O O14 0.000000 0.578588 0.000000
O O15 0.500000 0.712140 0.500000
O O16 0.785257 0.758167 0.246906
O O17 0.500000 0.341774 0.000000
#
# Coordination Sequence:
#
# PCOD9220270 Si02
#       7
#     8   8   8   8   8   8   8
#     4   9  20  37  58  90 129 169 210 259 325 401
#     4  11  21  41  64  93 129 163 221 272 330 399
#     4   9  18  34  60  88 118 162 209 254 315 391
#     4  11  25  40  63  96 129 171 217 274 330 397
#     4  11  25  46  71  97 133 180 228 282 339 399
#     4  12  25  44  67  97 132 177 224 281 337 397
#     4  12  25  40  65  96 132 170 216 274 341 398
#
# _framework density 21.589611000000001
#
# number of rings (size 3 to 8) (size 9 to 14) (size 15 to 20)
#    0.000    1.286    1.429    5.571    6.000    1.714 
#    0.000    3.571    0.000    0.000    0.000    0.000 
#    0.000    0.000    0.000    0.000    0.000    0.000 
#
# Total GULP energy -156240.969781 kJ/mol
# GULP energy per Si atom -5580.034635 kJ/mol
# Density = 2.154047 g / cm^3
# Si number density = 21.589611 Si / 1000 Ang^3
#
#
#
# Elastic Constant Matrix: (Units=GPa)
#
#
# Indices 1 2 3 4 5 6 
#
# 1 59.3091 23.2035 -0.0706 0.0021 -5.0091 -0.0055
# 2 23.2035 94.6000 25.9388 -0.0044 1.7005 0.0046
# 3 -0.0706 25.9388 62.4408 -0.0009 10.4466 -0.0049
# 4 0.0021 -0.0044 -0.0009 26.2688 0.0021 4.3067
# 5 -5.0091 1.7005 10.4466 0.0021 31.9392 0.0029
# 6 -0.0055 0.0046 -0.0049 4.3067 0.0029 11.1361
#
#
#
# Elastic Compliance Matrix: (Units=1/GPa)
#
#
# Indices 1 2 3 4 5 6 
#
# 1 0.019133 -0.005218 0.001736 -0.000005 0.002711 0.000014
# 2 -0.005218 0.013385 -0.005618 0.000004 0.000306 -0.000012
# 3 0.001736 -0.005618 0.019312 -0.000002 -0.005745 0.000014
# 4 -0.000005 0.000004 -0.000002 0.040645 -0.000001 -0.015719
# 5 0.002711 0.000306 -0.005745 -0.000001 0.033597 -0.000010
# 6 0.000014 -0.000012 0.000014 -0.015719 -0.000010 0.095877
#
#
# Mechanical properties :
#
#
# Convention : Reuss Voigt Hill
#
# Bulk Modulus (GPa) = 29.73431 34.94368 32.33900
# Shear Modulus (GPa) = 19.89177 25.02069 22.45623
#
# Velocity S-wave (km/s) = 3.03868 3.40799 3.22862
# Velocity P-wave (km/s) = 5.11017 5.63084 5.37681
#
# Compressibility (1/GPa) = 0.03363118
#
# Stress axis : x y z
#
# Youngs Moduli (GPa) = 52.26544 74.70822 51.78126
#
# Poissons Ratio (x) = 0.38980 -0.08987
# Poissons Ratio (y) = 0.27270 0.29089
# Poissons Ratio (z) = -0.09071 0.41969
#
# Static dielectric constant tensor:
#      x y z
#    x 1.501060 0.000010 -0.018380 
#    y 0.000010 1.805290 0.000000 
#    z -0.018380 0.000000 1.809260 
# 
# From -- ./inp_files/227595.got.cif
#   From: 2010.05.17/outbox.cif.g08.bks.cpg/sg12_114_cif.got.tgz:227595.got - 2010.06.03 13:09:07.
