data_PCOD9220757
_publ_section_title
;
Structure prediction by ZEFSAII (Michael W. Deem and Ramdas Pophale) SiO2 
 PCOD9220757
Probable space group: C 2/M
;
_chemical_formula_sum "Si O2"
_cell_formula_units_Z 56
_cell_length_a 22.203117
_cell_length_b 20.230004
_cell_length_c 18.719928
_cell_angle_alpha 90.000000
_cell_angle_beta 161.635731
_cell_angle_gamma 90.000000
_cell_volume 2649.131680
_symmetry_space_group_name_H-M "C 2/M"
_symmetry_group_IT_number 12
_symmetry_cell_setting 'monoclinic'
loop_
_space_group_symop_operation_xyz
x,y,z
-x,y,-z
-x,-y,-z
x,-y,z
1/2+x,1/2+y,z
1/2-x,1/2+y,-z
1/2-x,1/2-y,-z
1/2+x,1/2-y,z
loop_
_atom_site_type_symbol
_atom_site_label
_atom_site_fract_x
_atom_site_fract_y
_atom_site_fract_z
Si Si1 0.638196 0.799807 0.553952
Si Si2 0.849303 0.616700 0.563989
Si Si3 0.764250 0.923648 0.088206
Si Si4 0.555542 0.575623 0.851545
Si Si5 0.354638 0.206375 0.693930
Si Si6 0.525027 0.923495 0.943425
Si Si7 0.707320 0.695811 0.115490
O O1 0.652647 0.865176 0.521326
O O2 0.713532 0.740464 0.590334
O O3 0.763279 0.807372 0.766142
O O4 0.417436 0.787492 0.323146
O O5 0.668465 0.574530 0.383363
O O6 0.817565 0.686729 0.569934
O O7 0.053356 0.587362 0.816137
O O8 0.902559 0.896549 0.181675
O O9 0.724118 0.904138 0.125952
O O10 0.820125 0.000000 0.155866
O O11 0.630538 0.500000 0.940903
O O12 0.645653 0.626835 0.009432
O O13 0.384723 0.132206 0.757604
O O14 0.548984 0.249631 0.917579
O O15 0.487023 0.000000 0.879581
O O16 0.500000 0.921539 0.000000
#
# Coordination Sequence:
#
# PCOD9220757 Si02
#       7
#     8   8   8   8   8   8   8
#     4  11  23  40  61  92 126 163 213 267 311 373
#     4  11  22  38  62  93 119 162 215 261 311 376
#     4   9  19  37  58  87 126 162 204 258 309 363
#     4  11  23  40  63  92 128 172 217 261 313 373
#     4  11  23  39  65  90 126 165 206 265 320 376
#     4   9  18  35  61  90 118 159 204 248 315 381
#     4  11  24  41  63  89 129 170 212 262 318 373
#
# _framework density 21.139001
#
# number of rings (size 3 to 8) (size 9 to 14) (size 15 to 20)
#    0.000    1.571    2.857    2.143    0.000    3.429 
#    0.000    3.571    0.000    3.429    0.000   21.000 
#    0.000    0.000    0.000    0.000    0.000    0.000 
#
# Total GULP energy -156027.760659 kJ/mol
# GULP energy per Si atom -5572.420024 kJ/mol
# Density = 2.109089 g / cm^3
# Si number density = 21.139001 Si / 1000 Ang^3
#
#
#
# Elastic Constant Matrix: (Units=GPa)
#
#
# Indices 1 2 3 4 5 6 
#
# 1 158.7184 29.4371 36.4782 -0.0030 -4.8305 -0.0017
# 2 29.4371 75.4128 13.2385 0.0005 -8.2137 0.0010
# 3 36.4782 13.2385 61.8447 0.0061 12.4894 0.0024
# 4 -0.0030 0.0005 0.0061 19.0263 0.0038 -1.5597
# 5 -4.8305 -8.2137 12.4894 0.0038 31.5900 -0.0004
# 6 -0.0017 0.0010 0.0024 -1.5597 -0.0004 30.3331
#
#
#
# Elastic Compliance Matrix: (Units=1/GPa)
#
#
# Indices 1 2 3 4 5 6 
#
# 1 0.007823 -0.001948 -0.004712 0.000002 0.002553 0.000001
# 2 -0.001948 0.015083 -0.003055 -0.000001 0.004832 0.000000
# 3 -0.004712 -0.003055 0.021637 -0.000006 -0.010069 -0.000002
# 4 0.000002 -0.000001 -0.000006 0.052781 -0.000004 0.002714
# 5 0.002553 0.004832 -0.010069 -0.000004 0.037283 0.000001
# 6 0.000001 0.000000 -0.000002 0.002714 0.000001 0.033107
#
#
# Mechanical properties :
#
#
# Convention : Reuss Voigt Hill
#
# Bulk Modulus (GPa) = 39.82422 50.47595 45.15008
# Shear Modulus (GPa) = 25.57327 30.64469 28.10898
#
# Velocity S-wave (km/s) = 3.48194 3.81159 3.65049
# Velocity P-wave (km/s) = 5.91991 6.58034 6.25884
#
# Compressibility (1/GPa) = 0.02511035
#
# Stress axis : x y z
#
# Youngs Moduli (GPa) = 127.83547 66.29765 46.21788
#
# Poissons Ratio (x) = 0.12916 0.21780
# Poissons Ratio (y) = 0.24905 0.14122
# Poissons Ratio (z) = 0.60242 0.20257
#
# Static dielectric constant tensor:
#      x y z
#    x 1.848950 0.000000 -0.013810 
#    y 0.000000 1.774930 0.000000 
#    z -0.013810 0.000000 1.780540 
# 
# From -- ./inp_files/286080.got.cif
#   From: 2010.05.17/outbox.cif.g08.bks.cpg/sg12_144_cif.got.tgz:286080.got - 2010.06.03 13:09:07.
