data_PCOD9220442
_publ_section_title
;
Structure prediction by ZEFSAII (Michael W. Deem and Ramdas Pophale) SiO2 
 PCOD9220442
Probable space group: C 2/M
;
_chemical_formula_sum "Si O2"
_cell_formula_units_Z 56
_cell_length_a 14.005632
_cell_length_b 23.793074
_cell_length_c 23.112936
_cell_angle_alpha 90.000000
_cell_angle_beta 21.161429
_cell_angle_gamma 90.000000
_cell_volume 2780.428957
_symmetry_space_group_name_H-M "C 2/M"
_symmetry_group_IT_number 12
_symmetry_cell_setting 'monoclinic'
loop_
_space_group_symop_operation_xyz
x,y,z
-x,y,-z
-x,-y,-z
x,-y,z
1/2+x,1/2+y,z
1/2-x,1/2+y,-z
1/2-x,1/2-y,-z
1/2+x,1/2-y,z
loop_
_atom_site_type_symbol
_atom_site_label
_atom_site_fract_x
_atom_site_fract_y
_atom_site_fract_z
Si Si1 0.004002 0.173295 0.644353
Si Si2 0.827040 0.184974 0.961177
Si Si3 0.705593 0.064544 0.427573
Si Si4 0.093643 0.704934 0.330561
Si Si5 0.738409 0.124135 0.894821
Si Si6 0.204630 0.635530 0.154080
Si Si7 0.257228 0.064869 0.460871
O O1 0.294290 0.183323 0.509421
O O2 0.033946 0.114127 0.593122
O O3 0.931783 0.227942 0.648444
O O4 0.792640 0.170994 0.815096
O O5 0.710953 0.150356 0.973104
O O6 0.149729 0.182627 0.780566
O O7 0.750000 0.250000 0.000000
O O8 0.714562 0.160209 0.084394
O O9 0.500000 0.092075 0.500000
O O10 0.622103 0.064827 0.541963
O O11 0.992642 0.089996 0.258912
O O12 0.734351 0.000000 0.393925
O O13 0.148252 0.684655 0.233357
O O14 0.500000 0.090374 0.000000
O O15 0.980096 0.589012 0.292254
O O16 0.500000 0.613201 0.000000
O O17 0.177848 0.000000 0.493572
#
# Coordination Sequence:
#
# PCOD9220442 Si02
#       7
#     8   8   8   8   8   8   8
#     4   9  18  34  56  79 115 148 199 245 298 351
#     4  11  22  34  54  82 122 161 196 236 303 362
#     4   9  20  37  62  89 114 150 204 255 295 348
#     4   9  18  34  56  82 112 157 198 250 295 357
#     4  11  23  35  56  84 120 157 192 246 300 358
#     4   9  19  33  52  82 119 156 194 244 296 359
#     4   9  18  34  57  84 117 154 192 243 304 356
#
# _framework density 20.140777
#
# number of rings (size 3 to 8) (size 9 to 14) (size 15 to 20)
#    0.000    2.429    0.000    1.714    8.000    1.714 
#    0.000    0.714    0.000   19.714    0.000   11.000 
#    0.000    0.000    0.000    0.000    0.000    0.143 
#
# Total GULP energy -155955.316546 kJ/mol
# GULP energy per Si atom -5569.832734 kJ/mol
# Density = 2.009494 g / cm^3
# Si number density = 20.140777 Si / 1000 Ang^3
#
#
#
# Elastic Constant Matrix: (Units=GPa)
#
#
# Indices 1 2 3 4 5 6 
#
# 1 90.8954 19.9677 43.1949 0.0420 -7.9093 0.0301
# 2 19.9677 106.6912 11.9319 -0.0918 6.3945 0.0003
# 3 43.1949 11.9319 79.6682 0.4615 0.1477 0.0020
# 4 0.0420 -0.0918 0.4615 9.0623 -0.1622 -1.0213
# 5 -7.9093 6.3945 0.1477 -0.1622 30.7730 0.0341
# 6 0.0301 0.0003 0.0020 -1.0213 0.0341 16.6133
#
#
#
# Elastic Compliance Matrix: (Units=1/GPa)
#
#
# Indices 1 2 3 4 5 6 
#
# 1 0.015828 -0.002315 -0.008246 0.000404 0.004591 -0.000012
# 2 -0.002315 0.009993 -0.000237 0.000078 -0.002670 0.000014
# 3 -0.008246 -0.000237 0.017067 -0.000876 -0.002157 -0.000037
# 4 0.000404 0.000078 -0.000876 0.111173 0.000670 0.006832
# 5 0.004591 -0.002670 -0.002157 0.000670 0.034245 -0.000037
# 6 -0.000012 0.000014 -0.000037 0.006832 -0.000037 0.060613
#
#
# Mechanical properties :
#
#
# Convention : Reuss Voigt Hill
#
# Bulk Modulus (GPa) = 46.96472 47.49377 47.22924
# Shear Modulus (GPa) = 18.01076 24.76706 21.38891
#
# Velocity S-wave (km/s) = 2.99363 3.51051 3.26232
# Velocity P-wave (km/s) = 5.94289 6.32959 6.13928
#
# Compressibility (1/GPa) = 0.02129258
#
# Stress axis : x y z
#
# Youngs Moduli (GPa) = 63.17887 100.07325 58.59110
#
# Poissons Ratio (x) = 0.23166 0.48314
# Poissons Ratio (y) = 0.14625 0.01389
# Poissons Ratio (z) = 0.52097 0.02372
#
# Static dielectric constant tensor:
#      x y z
#    x 1.757970 -0.000060 -0.033460 
#    y -0.000060 1.748360 0.000370 
#    z -0.033460 0.000370 1.768910 
# 
# From -- ./inp_files/341458.got.cif
#   From: 2010.05.17/outbox.cif.g08.bks.cpg/sg12_171_cif.got.tgz:341458.got - 2010.06.03 13:09:07.
