data_PCOD9220959
_publ_section_title
;
Structure prediction by ZEFSAII (Michael W. Deem and Ramdas Pophale) SiO2 
 PCOD9220959
Probable space group: C 2/M
;
_chemical_formula_sum "Si O2"
_cell_formula_units_Z 40
_cell_length_a 27.402316
_cell_length_b 8.273487
_cell_length_c 8.110454
_cell_angle_alpha 90.000000
_cell_angle_beta 119.663787
_cell_angle_gamma 90.000000
_cell_volume 1597.765567
_symmetry_space_group_name_H-M "C 2/M"
_symmetry_group_IT_number 12
_symmetry_cell_setting 'monoclinic'
loop_
_space_group_symop_operation_xyz
x,y,z
-x,y,-z
-x,-y,-z
x,-y,z
1/2+x,1/2+y,z
1/2-x,1/2+y,-z
1/2-x,1/2-y,-z
1/2+x,1/2-y,z
loop_
_atom_site_type_symbol
_atom_site_label
_atom_site_fract_x
_atom_site_fract_y
_atom_site_fract_z
Si Si1 0.714989 0.813209 0.597734
Si Si2 0.381076 0.687497 0.358618
Si Si3 0.484008 0.187056 0.716758
Si Si4 0.684905 0.186839 0.061060
Si Si5 0.081548 0.810661 0.080160
O O1 0.750000 0.750000 0.500000
O O2 0.659943 0.712134 0.552308
O O3 0.759520 0.792501 0.822132
O O4 0.699740 0.000000 0.551558
O O5 0.383129 0.500000 0.317496
O O6 0.442744 0.751898 0.505180
O O7 0.349519 0.784562 0.163120
O O8 0.539481 0.287832 0.853870
O O9 0.498696 0.000000 0.718750
O O10 0.446299 0.211031 0.818717
O O11 0.700449 0.000000 0.104961
O O12 0.641148 0.241037 0.128635
O O13 0.083699 0.000000 0.126614
#
# Coordination Sequence:
#
# PCOD9220959 Si02
#       5
#     8   8   8   8   8
#     4  12  25  44  67  94 124 162 206 254 305 364
#     4  12  25  43  64  92 126 164 205 254 309 368
#     4  11  22  40  64  93 125 164 208 256 306 363
#     4  12  25  43  64  92 126 164 205 254 309 368
#     4  11  22  40  64  93 125 164 208 256 306 363
#
# _framework density 25.034962
#
# number of rings (size 3 to 8) (size 9 to 14) (size 15 to 20)
#    0.000    0.400    0.000   12.000    0.000    0.800 
#    0.000    4.000    0.000    0.000    0.000    0.000 
#    0.000    0.000    0.000    0.000    0.000    0.000 
#
# Total GULP energy -112233.138478 kJ/mol
# GULP energy per Si atom -5611.656924 kJ/mol
# Density = 2.497798 g / cm^3
# Si number density = 25.034962 Si / 1000 Ang^3
#
#
#
# Elastic Constant Matrix: (Units=GPa)
#
#
# Indices 1 2 3 4 5 6 
#
# 1 84.7129 -4.6498 -1.9516 0.0000 14.1410 0.0000
# 2 -4.6498 129.0785 -17.2265 0.0000 7.0086 0.0000
# 3 -1.9516 -17.2265 104.5113 0.0000 15.5110 0.0000
# 4 0.0000 0.0000 0.0000 39.1182 0.0000 4.9356
# 5 14.1410 7.0086 15.5110 0.0000 48.2495 0.0000
# 6 0.0000 0.0000 0.0000 4.9356 0.0000 29.9929
#
#
#
# Elastic Compliance Matrix: (Units=1/GPa)
#
#
# Indices 1 2 3 4 5 6 
#
# 1 0.012558 0.000806 0.000978 0.000000 -0.004112 0.000000
# 2 0.000806 0.008100 0.001638 0.000000 -0.001939 0.000000
# 3 0.000978 0.001638 0.010432 0.000000 -0.003878 0.000000
# 4 0.000000 0.000000 0.000000 0.026106 0.000000 -0.004296
# 5 -0.004112 -0.001939 -0.003878 0.000000 0.023459 0.000000
# 6 0.000000 0.000000 0.000000 -0.004296 0.000000 0.034048
#
#
# Mechanical properties :
#
#
# Convention : Reuss Voigt Hill
#
# Bulk Modulus (GPa) = 26.36188 30.07188 28.21688
# Shear Modulus (GPa) = 41.49244 46.28083 43.88664
#
# Velocity S-wave (km/s) = 4.07551 4.30426 4.19144
# Velocity P-wave (km/s) = 5.71833 6.06137 5.89234
#
# Compressibility (1/GPa) = 0.03793357
#
# Stress axis : x y z
#
# Youngs Moduli (GPa) = 79.63226 123.45403 95.85738
#
# Poissons Ratio (x) = -0.09952 -0.09371
# Poissons Ratio (y) = -0.06419 -0.15702
# Poissons Ratio (z) = -0.07785 -0.20222
#
# Static dielectric constant tensor:
#      x y z
#    x 1.993950 0.000000 -0.078410 
#    y 0.000000 1.810170 0.000000 
#    z -0.078410 0.000000 2.090000 
# 
# From -- ./inp_files/108350.got.cif
#   From: 2010.05.17/outbox.cif.g08.bks.cpg/sg12_55_cif.got.tgz:108350.got - 2010.06.03 13:09:07.
