data_PCOD9220278
_publ_section_title
;
Structure prediction by ZEFSAII (Michael W. Deem and Ramdas Pophale) SiO2 
 PCOD9220278
Probable space group: C 2/M
;
_chemical_formula_sum "Si O2"
_cell_formula_units_Z 48
_cell_length_a 12.194589
_cell_length_b 22.028323
_cell_length_c 16.995882
_cell_angle_alpha 90.000000
_cell_angle_beta 147.865662
_cell_angle_gamma 90.000000
_cell_volume 2428.439799
_symmetry_space_group_name_H-M "C 2/M"
_symmetry_group_IT_number 12
_symmetry_cell_setting 'monoclinic'
loop_
_space_group_symop_operation_xyz
x,y,z
-x,y,-z
-x,-y,-z
x,-y,z
1/2+x,1/2+y,z
1/2-x,1/2+y,-z
1/2-x,1/2-y,-z
1/2+x,1/2-y,z
loop_
_atom_site_type_symbol
_atom_site_label
_atom_site_fract_x
_atom_site_fract_y
_atom_site_fract_z
Si Si1 0.965635 0.625661 0.651372
Si Si2 0.240789 0.162086 0.665881
Si Si3 0.707129 0.205755 0.679879
Si Si4 0.284366 0.929865 0.824011
Si Si5 0.169103 0.500000 0.819599
Si Si6 0.959985 0.000000 0.843243
Si Si7 0.091015 0.886797 0.302341
O O1 0.863979 0.664827 0.659099
O O2 0.789078 0.610746 0.479904
O O3 0.143246 0.664194 0.715056
O O4 0.043131 0.562199 0.734223
O O5 0.263821 0.224490 0.728500
O O6 0.310053 0.104370 0.757699
O O7 0.000000 0.154029 0.500000
O O8 0.500000 0.207869 0.500000
O O9 0.880546 0.173138 0.732860
O O10 0.111416 0.893752 0.767992
O O11 0.216697 0.000000 0.773827
O O12 0.500000 0.929586 0.000000
O O13 0.317941 0.500000 0.833756
O O14 0.306722 0.500000 0.982120
O O15 0.912716 0.057905 0.761124
#
# Coordination Sequence:
#
# PCOD9220278 Si02
#       7
#     8   8   8   8   4   4   8
#     4  11  23  39  66  99 125 165 211 269 308 372
#     4  11  24  41  64  93 129 165 211 259 309 379
#     4   9  22  39  65  94 125 162 207 263 316 368
#     4  11  26  43  62  89 127 172 207 255 319 381
#     4  11  25  39  63  99 133 161 216 260 319 364
#     4  11  23  41  61  95 133 176 200 261 321 372
#     4  11  21  41  66  91 125 167 215 256 316 371
#
# _framework density 19.765777
#
# number of rings (size 3 to 8) (size 9 to 14) (size 15 to 20)
#    0.000    1.333    4.167    0.500    5.833    3.000 
#    0.000    2.500    0.000    0.000    0.000    0.000 
#    0.000    0.000    0.000    0.000    0.000    0.000 
#
# Total GULP energy -134061.322623 kJ/mol
# GULP energy per Si atom -5585.888443 kJ/mol
# Density = 1.972079 g / cm^3
# Si number density = 19.765777 Si / 1000 Ang^3
#
#
#
# Elastic Constant Matrix: (Units=GPa)
#
#
# Indices 1 2 3 4 5 6 
#
# 1 90.4009 35.4862 29.6685 0.0015 -11.9085 0.0007
# 2 35.4862 96.4424 39.6218 -0.0001 -3.1942 -0.0001
# 3 29.6685 39.6218 54.7459 0.0053 -2.1487 0.0053
# 4 0.0015 -0.0001 0.0053 -0.8906 0.0023 0.1877
# 5 -11.9085 -3.1942 -2.1487 0.0023 20.2945 0.0017
# 6 0.0007 -0.0001 0.0053 0.1877 0.0017 22.5219
#
#
#
# Elastic Compliance Matrix: (Units=1/GPa)
#
#
# Indices 1 2 3 4 5 6 
#
# 1 0.015138 -0.002942 -0.005768 0.000011 0.007809 0.000000
# 2 -0.002942 0.015357 -0.009533 -0.000063 -0.000318 0.000003
# 3 -0.005768 -0.009533 0.028217 0.000152 -0.001898 -0.000008
# 4 0.000011 -0.000063 0.000152 -1.120818 0.000138 0.009343
# 5 0.007809 -0.000318 -0.001898 0.000138 0.053606 -0.000005
# 6 0.000000 0.000003 -0.000008 0.009343 -0.000005 0.044323
#
#
# Mechanical properties :
#
#
# Convention : Reuss Voigt Hill
#
# Bulk Modulus (GPa) = 44.99101 50.12692 47.55897
# Shear Modulus (GPa) = -5.43312 17.50600 6.03644
#
# Velocity S-wave (km/s) = -1.65973 2.97925 1.74946
# Velocity P-wave (km/s) = 4.37476 6.10329 5.30983
#
# Compressibility (1/GPa) = 0.02222666
#
# Stress axis : x y z
#
# Youngs Moduli (GPa) = 66.05701 65.11602 35.43937
#
# Poissons Ratio (x) = 0.19155 0.20443
# Poissons Ratio (y) = 0.19432 0.33784
# Poissons Ratio (z) = 0.38105 0.62075
#
# Static dielectric constant tensor:
#      x y z
#    x 1.711580 0.000000 -0.000780 
#    y 0.000000 1.681320 0.000000 
#    z -0.000780 0.000000 1.667290 
# 
# From -- ./inp_files/207952.got.cif
#   From: 2010.05.17/outbox.cif.g08.bks.cpg/sg12_104_cif.got.tgz:207952.got - 2010.06.03 13:09:07.
