data_PCOD9220905
_publ_section_title
;
Structure prediction by ZEFSAII (Michael W. Deem and Ramdas Pophale) SiO2 
 PCOD9220905
Probable space group: C 2/M
;
_chemical_formula_sum "Si O2"
_cell_formula_units_Z 48
_cell_length_a 9.131047
_cell_length_b 17.105252
_cell_length_c 15.830253
_cell_angle_alpha 90.000000
_cell_angle_beta 122.836197
_cell_angle_gamma 90.000000
_cell_volume 2077.462058
_symmetry_space_group_name_H-M "C 2/M"
_symmetry_group_IT_number 12
_symmetry_cell_setting 'monoclinic'
loop_
_space_group_symop_operation_xyz
x,y,z
-x,y,-z
-x,-y,-z
x,-y,z
1/2+x,1/2+y,z
1/2-x,1/2+y,-z
1/2-x,1/2-y,-z
1/2+x,1/2-y,z
loop_
_atom_site_type_symbol
_atom_site_label
_atom_site_fract_x
_atom_site_fract_y
_atom_site_fract_z
Si Si1 0.286483 0.410700 0.767179
Si Si2 0.402089 0.850298 0.820744
Si Si3 0.759060 0.086284 0.959486
Si Si4 0.897023 0.190705 0.145649
Si Si5 0.487253 0.189342 0.593151
Si Si6 0.157991 0.148843 0.598781
O O1 0.271841 0.500000 0.736468
O O2 0.302163 0.408222 0.873881
O O3 0.453199 0.369289 0.778771
O O4 0.117093 0.363228 0.687880
O O5 0.549967 0.907598 0.900836
O O6 0.273264 0.817241 0.851134
O O7 0.513311 0.775042 0.824172
O O8 0.280923 0.886965 0.709567
O O9 0.816841 0.000000 0.008846
O O10 0.840038 0.158156 0.036142
O O11 0.500000 0.162455 0.500000
O O12 0.296558 0.181064 0.573431
O O13 0.563252 0.277225 0.614080
O O14 0.000000 0.106431 0.500000
#
# Coordination Sequence:
#
# PCOD9220905 Si02
#       6
#     8   8   8   8   8   8
#     4  11  24  43  66  92 130 175 219 268 327 389
#     4  12  24  42  69  99 132 169 217 276 321 383
#     4  11  25  46  66  92 135 178 216 266 327 386
#     4  12  25  41  67  98 130 171 223 268 320 385
#     4  11  22  39  67  95 130 165 213 271 327 389
#     4  11  22  39  67 100 129 166 209 265 331 379
#
# _framework density 23.105115000000001
#
# number of rings (size 3 to 8) (size 9 to 14) (size 15 to 20)
#    0.000    0.667    3.333    6.000    2.333    5.000 
#    0.000    0.000    0.000    1.000    0.000    0.000 
#    0.000    0.000    0.000    0.000    0.000    0.000 
#
# Total GULP energy -134317.237080 kJ/mol
# GULP energy per Si atom -5596.551545 kJ/mol
# Density = 2.305253 g / cm^3
# Si number density = 23.105115 Si / 1000 Ang^3
#
#
#
# Elastic Constant Matrix: (Units=GPa)
#
#
# Indices 1 2 3 4 5 6 
#
# 1 132.7325 4.3626 -6.1656 0.0000 25.6576 0.0000
# 2 4.3626 68.9413 16.0947 0.0000 6.8372 0.0000
# 3 -6.1656 16.0947 109.2295 0.0000 20.1145 0.0000
# 4 0.0000 0.0000 0.0000 17.9052 0.0000 0.8684
# 5 25.6576 6.8372 20.1145 0.0000 44.6563 0.0000
# 6 0.0000 0.0000 0.0000 0.8684 0.0000 13.5751
#
#
#
# Elastic Compliance Matrix: (Units=1/GPa)
#
#
# Indices 1 2 3 4 5 6 
#
# 1 0.008715 -0.000360 0.001589 0.000000 -0.005668 0.000000
# 2 -0.000360 0.015120 -0.002028 0.000000 -0.001194 0.000000
# 3 0.001589 -0.002028 0.010528 0.000000 -0.005344 0.000000
# 4 0.000000 0.000000 0.000000 0.056023 0.000000 -0.003584
# 5 -0.005668 -0.001194 -0.005344 0.000000 0.028240 0.000000
# 6 0.000000 0.000000 0.000000 -0.003584 0.000000 0.073893
#
#
# Mechanical properties :
#
#
# Convention : Reuss Voigt Hill
#
# Bulk Modulus (GPa) = 30.52213 37.72076 34.12145
# Shear Modulus (GPa) = 24.38549 35.00145 29.69347
#
# Velocity S-wave (km/s) = 3.25224 3.89637 3.58878
# Velocity P-wave (km/s) = 5.22891 6.05007 5.65442
#
# Compressibility (1/GPa) = 0.03276311
#
# Stress axis : x y z
#
# Youngs Moduli (GPa) = 114.74214 66.13824 94.98740
#
# Poissons Ratio (x) = 0.02383 -0.15091
# Poissons Ratio (y) = 0.04134 0.19266
# Poissons Ratio (z) = -0.18230 0.13415
#
# Static dielectric constant tensor:
#      x y z
#    x 1.859490 0.000000 -0.007830 
#    y 0.000000 1.818160 0.000000 
#    z -0.007830 0.000000 1.945590 
# 
# From -- ./inp_files/258287.got.cif
#   From: 2010.05.17/outbox.cif.g08.bks.cpg/sg12_130_cif.got.tgz:258287.got - 2010.06.03 13:09:07.
