data_PCOD9220241
_publ_section_title
;
Structure prediction by ZEFSAII (Michael W. Deem and Ramdas Pophale) SiO2 
 PCOD9220241
Probable space group: C 2/M
;
_chemical_formula_sum "Si O2"
_cell_formula_units_Z 36
_cell_length_a 16.821014
_cell_length_b 17.706266
_cell_length_c 6.467991
_cell_angle_alpha 90.000000
_cell_angle_beta 96.669791
_cell_angle_gamma 90.000000
_cell_volume 1913.371400
_symmetry_space_group_name_H-M "C 2/M"
_symmetry_group_IT_number 12
_symmetry_cell_setting 'monoclinic'
loop_
_space_group_symop_operation_xyz
x,y,z
-x,y,-z
-x,-y,-z
x,-y,z
1/2+x,1/2+y,z
1/2-x,1/2+y,-z
1/2-x,1/2-y,-z
1/2+x,1/2-y,z
loop_
_atom_site_type_symbol
_atom_site_label
_atom_site_fract_x
_atom_site_fract_y
_atom_site_fract_z
Si Si1 0.290667 0.587538 0.205203
Si Si2 0.215552 0.826015 0.391376
Si Si3 0.148146 0.363134 0.895855
Si Si4 0.406853 0.301398 0.985730
Si Si5 0.465065 0.000000 0.240317
O O1 0.305834 0.500000 0.166321
O O2 0.296522 0.609147 0.445577
O O3 0.354530 0.641189 0.108891
O O4 0.199818 0.607151 0.106651
O O5 0.250000 0.750000 0.500000
O O6 0.281937 0.850476 0.248025
O O7 0.133880 0.806797 0.250418
O O8 0.107142 0.283477 0.935122
O O9 0.086978 0.424121 0.790243
O O10 0.500000 0.319464 0.000000
O O11 0.500000 0.000000 0.500000
O O12 0.500000 0.000000 0.000000
#
# Coordination Sequence:
#
# PCOD9220241 Si02
#       5
#     8   8   8   8   4
#     4  11  23  42  68  95 130 175 234 287 344 422
#     4  11  21  40  68  94 123 177 241 279 344 427
#     4  11  23  42  69  97 135 183 228 285 350 435
#     4  11  24  42  64  98 134 174 225 291 358 418
#     4  12  30  46  68 116 155 186 229 294 372 432
#
# _framework density 18.814955999999999
#
# number of rings (size 3 to 8) (size 9 to 14) (size 15 to 20)
#    0.000    0.889    5.556    2.000    4.667    4.000 
#    0.000    1.111    0.000    0.000    0.000    0.000 
#    0.000    0.000    0.000    0.000    0.000    0.000 
#
# Total GULP energy -100318.247222 kJ/mol
# GULP energy per Si atom -5573.235957 kJ/mol
# Density = 1.877213 g / cm^3
# Si number density = 18.814956 Si / 1000 Ang^3
#
#
#
# Elastic Constant Matrix: (Units=GPa)
#
#
# Indices 1 2 3 4 5 6 
#
# 1 78.7212 9.7175 33.0984 0.0000 21.7558 0.0000
# 2 9.7175 108.7564 12.6890 0.0000 12.1360 0.0000
# 3 33.0984 12.6890 98.6356 0.0000 17.1474 0.0000
# 4 0.0000 0.0000 0.0000 29.2672 0.0000 6.0181
# 5 21.7558 12.1360 17.1474 0.0000 22.5310 0.0000
# 6 0.0000 0.0000 0.0000 6.0181 0.0000 18.5580
#
#
#
# Elastic Compliance Matrix: (Units=1/GPa)
#
#
# Indices 1 2 3 4 5 6 
#
# 1 0.018366 0.000480 -0.003569 0.000000 -0.015277 0.000000
# 2 0.000480 0.009809 -0.000488 0.000000 -0.005375 0.000000
# 3 -0.003569 -0.000488 0.012394 0.000000 -0.005723 0.000000
# 4 0.000000 0.000000 0.000000 0.036609 0.000000 -0.011872
# 5 -0.015277 -0.005375 -0.005723 0.000000 0.066385 0.000000
# 6 0.000000 0.000000 0.000000 -0.011872 0.000000 0.057735
#
#
# Mechanical properties :
#
#
# Convention : Reuss Voigt Hill
#
# Bulk Modulus (GPa) = 29.92754 44.12476 37.02615
# Shear Modulus (GPa) = 22.76959 29.44512 26.10736
#
# Velocity S-wave (km/s) = 3.48255 3.96028 3.72907
# Velocity P-wave (km/s) = 5.66671 6.66443 6.18572
#
# Compressibility (1/GPa) = 0.03341404
#
# Stress axis : x y z
#
# Youngs Moduli (GPa) = 54.44735 101.94953 80.68597
#
# Poissons Ratio (x) = -0.04894 0.28797
# Poissons Ratio (y) = -0.02614 0.03941
# Poissons Ratio (z) = 0.19432 0.04980
#
# Static dielectric constant tensor:
#      x y z
#    x 1.632200 0.000000 0.009800 
#    y 0.000000 1.678540 0.000000 
#    z 0.009800 0.000000 1.776760 
# 
# From -- ./inp_files/15058.got.cif
#   From: 2010.05.17/outbox.cif.g08.bks.cpg/sg12_8_cif.got.tgz:15058.got - 2010.06.03 13:09:07.
