data_PCOD9220062
_publ_section_title
;
Structure prediction by ZEFSAII (Michael W. Deem and Ramdas Pophale) SiO2 
 PCOD9220062
Probable space group: C 2/M
;
_chemical_formula_sum "Si O2"
_cell_formula_units_Z 48
_cell_length_a 17.398471
_cell_length_b 33.200718
_cell_length_c 8.871103
_cell_angle_alpha 90.000000
_cell_angle_beta 24.223435
_cell_angle_gamma 90.000000
_cell_volume 2102.488076
_symmetry_space_group_name_H-M "C 2/M"
_symmetry_group_IT_number 12
_symmetry_cell_setting 'monoclinic'
loop_
_space_group_symop_operation_xyz
x,y,z
-x,y,-z
-x,-y,-z
x,-y,z
1/2+x,1/2+y,z
1/2-x,1/2+y,-z
1/2-x,1/2-y,-z
1/2+x,1/2-y,z
loop_
_atom_site_type_symbol
_atom_site_label
_atom_site_fract_x
_atom_site_fract_y
_atom_site_fract_z
Si Si1 0.974750 0.211955 0.728807
Si Si2 0.624953 0.627869 0.065651
Si Si3 0.038124 0.956774 0.107869
Si Si4 0.185380 0.375104 0.962899
Si Si5 0.604881 0.043787 0.973282
Si Si6 0.890064 0.707393 0.040980
O O1 0.853975 0.175140 0.014117
O O2 0.170028 0.208397 0.466410
O O3 0.000000 0.206636 0.500000
O O4 0.910290 0.256641 0.883970
O O5 0.640625 0.585652 0.950368
O O6 0.769825 0.624527 0.942436
O O7 0.401389 0.626619 0.511400
O O8 0.830502 0.956373 0.550625
O O9 0.126411 0.000000 0.997324
O O10 0.000000 0.958704 0.000000
O O11 0.076031 0.415133 0.112953
O O12 0.079316 0.336045 0.090241
O O13 0.552711 0.000000 0.131878
O O14 0.500000 0.046457 0.000000
O O15 0.000000 0.712683 0.000000
#
# Coordination Sequence:
#
# PCOD9220062 Si02
#       6
#     8   8   8   8   8   8
#     4  11  21  38  58  77 110 147 178 226 276 322
#     4   9  17  32  53  74 102 139 171 208 267 315
#     4   9  18  32  52  78 106 134 170 218 263 308
#     4   9  17  32  52  74 104 134 172 219 260 305
#     4   9  17  30  51  75 101 135 170 206 258 312
#     4  11  22  36  57  82 108 141 182 229 271 321
#
# _framework density 22.830093999999999
#
# number of rings (size 3 to 8) (size 9 to 14) (size 15 to 20)
#    0.000    2.333    3.333    1.500    0.000    1.333 
#    0.000    6.667    0.000    0.000    0.000    4.667 
#    0.000    0.000    0.000    0.000    0.000    0.000 
#
# Total GULP energy -133685.531675 kJ/mol
# GULP energy per Si atom -5570.230486 kJ/mol
# Density = 2.277813 g / cm^3
# Si number density = 22.830094 Si / 1000 Ang^3
#
#
#
# Elastic Constant Matrix: (Units=GPa)
#
#
# Indices 1 2 3 4 5 6 
#
# 1 76.9925 69.1816 4.1310 0.0000 -12.3182 0.0000
# 2 69.1816 274.0519 15.0224 0.0000 3.1314 0.0000
# 3 4.1310 15.0224 53.6545 0.0000 -14.4231 0.0000
# 4 0.0000 0.0000 0.0000 9.1976 0.0000 8.3267
# 5 -12.3182 3.1314 -14.4231 0.0000 17.2605 0.0000
# 6 0.0000 0.0000 0.0000 8.3267 0.0000 28.6359
#
#
#
# Elastic Compliance Matrix: (Units=1/GPa)
#
#
# Indices 1 2 3 4 5 6 
#
# 1 0.021419 -0.005961 0.005700 0.000000 0.021131 0.000000
# 2 -0.005961 0.005418 -0.003180 0.000000 -0.007895 0.000000
# 3 0.005700 -0.003180 0.026230 0.000000 0.026563 0.000000
# 4 0.000000 0.000000 0.000000 0.147571 0.000000 -0.042910
# 5 0.021131 -0.007895 0.026563 0.000000 0.096645 0.000000
# 6 0.000000 0.000000 0.000000 -0.042910 0.000000 0.047399
#
#
# Mechanical properties :
#
#
# Convention : Reuss Voigt Hill
#
# Bulk Modulus (GPa) = 21.65189 64.59654 43.12421
# Shear Modulus (GPa) = 13.62548 32.10974 22.86761
#
# Velocity S-wave (km/s) = 2.44564 3.75436 3.16831
# Velocity P-wave (km/s) = 4.18084 6.86655 5.68458
#
# Compressibility (1/GPa) = 0.04618534
#
# Stress axis : x y z
#
# Youngs Moduli (GPa) = 46.68644 184.56022 38.12445
#
# Poissons Ratio (x) = 1.10017 -0.21732
# Poissons Ratio (y) = 0.27830 0.12125
# Poissons Ratio (z) = -0.26612 0.58695
#
# Static dielectric constant tensor:
#      x y z
#    x 1.765540 0.000000 0.025310 
#    y 0.000000 1.978290 0.000000 
#    z 0.025310 0.000000 2.079890 
# 
# From -- ./inp_files/68041.got.cif
#   From: 2010.05.17/outbox.cif.g08.bks.cpg/sg12_35_cif.got.tgz:68041.got - 2010.06.03 13:09:07.
