data_PCOD9220703
_publ_section_title
;
Structure prediction by ZEFSAII (Michael W. Deem and Ramdas Pophale) SiO2 
 PCOD9220703
Probable space group: C 2/M
;
_chemical_formula_sum "Si O2"
_cell_formula_units_Z 56
_cell_length_a 9.220996
_cell_length_b 22.766950
_cell_length_c 20.821055
_cell_angle_alpha 90.000000
_cell_angle_beta 133.987600
_cell_angle_gamma 90.000000
_cell_volume 3144.924723
_symmetry_space_group_name_H-M "C 2/M"
_symmetry_group_IT_number 12
_symmetry_cell_setting 'monoclinic'
loop_
_space_group_symop_operation_xyz
x,y,z
-x,y,-z
-x,-y,-z
x,-y,z
1/2+x,1/2+y,z
1/2-x,1/2+y,-z
1/2-x,1/2-y,-z
1/2+x,1/2-y,z
loop_
_atom_site_type_symbol
_atom_site_label
_atom_site_fract_x
_atom_site_fract_y
_atom_site_fract_z
Si Si1 0.724793 0.875017 0.268032
Si Si2 0.787747 0.500000 0.533082
Si Si3 0.165902 0.000000 0.645024
Si Si4 0.490476 0.125575 0.572345
Si Si5 0.584486 0.823232 0.921416
Si Si6 0.763889 0.795944 0.408173
Si Si7 0.094306 0.175137 0.299022
Si Si8 0.216385 0.206798 0.898523
O O1 0.523724 0.865301 0.163231
O O2 0.729103 0.835391 0.333694
O O3 0.921604 0.855769 0.287947
O O4 0.751264 0.941823 0.296694
O O5 0.731272 0.500000 0.590766
O O6 0.577473 0.500000 0.429702
O O7 0.905713 0.560050 0.554913
O O8 0.500000 0.139404 0.500000
O O9 0.355709 0.171768 0.570917
O O10 0.721826 0.133242 0.663073
O O11 0.392887 0.796537 0.900561
O O12 0.701456 0.772355 0.920406
O O13 0.729792 0.837923 0.026602
O O14 0.676795 0.731968 0.363170
O O15 0.000000 0.793503 0.500000
O O16 0.990029 0.194783 0.201154
#
# Coordination Sequence:
#
# PCOD9220703 Si02
#       8
#     8   4   4   8   8   8   8   8
#     4  11  22  38  59  84 116 156 196 240 283 346
#     4  11  23  42  62  79 109 152 212 247 281 332
#     4  11  22  40  62  82 107 157 204 246 280 341
#     4  12  25  39  58  83 115 156 197 244 287 338
#     4   9  18  34  57  85 117 147 190 234 283 345
#     4  12  23  37  56  82 121 156 190 233 292 352
#     4  11  23  36  56  88 121 149 187 237 298 349
#     4   9  18  33  56  85 119 149 183 232 287 348
#
# _framework density 17.806467999999999
#
# number of rings (size 3 to 8) (size 9 to 14) (size 15 to 20)
#    0.000    1.286    2.857    4.071    2.000    2.286 
#    0.000    0.000    0.000    7.714    0.000    1.000 
#    0.000    0.000    0.000    0.000    0.000    0.000 
#
# Total GULP energy -156237.263024 kJ/mol
# GULP energy per Si atom -5579.902251 kJ/mol
# Density = 1.776594 g / cm^3
# Si number density = 17.806468 Si / 1000 Ang^3
#
#
#
# Elastic Constant Matrix: (Units=GPa)
#
#
# Indices 1 2 3 4 5 6 
#
# 1 61.1088 18.8235 40.0875 0.0000 -6.8138 0.0000
# 2 18.8235 95.4352 51.4124 0.0000 -3.8665 0.0000
# 3 40.0875 51.4124 101.6691 0.0000 0.0641 0.0000
# 4 0.0000 0.0000 0.0000 19.7370 0.0000 0.0635
# 5 -6.8138 -3.8665 0.0641 0.0000 22.4597 0.0000
# 6 0.0000 0.0000 0.0000 0.0635 0.0000 28.5929
#
#
#
# Elastic Compliance Matrix: (Units=1/GPa)
#
#
# Indices 1 2 3 4 5 6 
#
# 1 0.023192 0.000889 -0.009598 0.000000 0.007216 0.000000
# 2 0.000889 0.014577 -0.007724 0.000000 0.002801 0.000000
# 3 -0.009598 -0.007724 0.017529 0.000000 -0.004292 0.000000
# 4 0.000000 0.000000 0.000000 0.050667 0.000000 -0.000113
# 5 0.007216 0.002801 -0.004292 0.000000 0.047208 0.000000
# 6 0.000000 0.000000 0.000000 -0.000113 0.000000 0.034974
#
#
# Mechanical properties :
#
#
# Convention : Reuss Voigt Hill
#
# Bulk Modulus (GPa) = 44.58043 53.20666 48.89354
# Shear Modulus (GPa) = 21.88278 24.01723 22.95001
#
# Velocity S-wave (km/s) = 3.50940 3.67658 3.59396
# Velocity P-wave (km/s) = 6.44295 6.92592 6.68880
#
# Compressibility (1/GPa) = 0.02243137
#
# Stress axis : x y z
#
# Youngs Moduli (GPa) = 43.11902 68.59926 57.04869
#
# Poissons Ratio (x) = -0.06097 0.54757
# Poissons Ratio (y) = -0.03833 0.44063
# Poissons Ratio (z) = 0.41387 0.52985
#
# Static dielectric constant tensor:
#      x y z
#    x 1.615220 0.000000 0.002130 
#    y 0.000000 1.576410 0.000000 
#    z 0.002130 0.000000 1.706260 
# 
# From -- ./inp_files/301809.got.cif
#   From: 2010.05.17/outbox.cif.g08.bks.cpg/sg12_151_cif.got.tgz:301809.got - 2010.06.03 13:09:07.
