data_PCOD9220664
_publ_section_title
;
Structure prediction by ZEFSAII (Michael W. Deem and Ramdas Pophale) SiO2 
 PCOD9220664
Probable space group: C 2/M
;
_chemical_formula_sum "Si O2"
_cell_formula_units_Z 60
_cell_length_a 11.414526
_cell_length_b 21.264781
_cell_length_c 14.842067
_cell_angle_alpha 90.000000
_cell_angle_beta 123.351059
_cell_angle_gamma 90.000000
_cell_volume 3009.295972
_symmetry_space_group_name_H-M "C 2/M"
_symmetry_group_IT_number 12
_symmetry_cell_setting 'monoclinic'
loop_
_space_group_symop_operation_xyz
x,y,z
-x,y,-z
-x,-y,-z
x,-y,z
1/2+x,1/2+y,z
1/2-x,1/2+y,-z
1/2-x,1/2-y,-z
1/2+x,1/2-y,z
loop_
_atom_site_type_symbol
_atom_site_label
_atom_site_fract_x
_atom_site_fract_y
_atom_site_fract_z
Si Si1 0.045058 0.856110 0.648130
Si Si2 0.722550 0.074813 0.347697
Si Si3 0.431040 0.427659 0.165386
Si Si4 0.978010 0.572236 0.893587
Si Si5 0.705987 0.856888 0.524281
Si Si6 0.776491 0.928115 0.924760
Si Si7 0.737694 0.070369 0.713674
Si Si8 0.500000 0.752267 0.500000
O O1 0.119233 0.907010 0.613782
O O2 0.103910 0.878127 0.770700
O O3 0.876073 0.852875 0.588277
O O4 0.074870 0.791481 0.607216
O O5 0.627557 0.098925 0.224588
O O6 0.670766 0.106370 0.417881
O O7 0.708924 0.000000 0.350448
O O8 0.374567 0.500000 0.154855
O O9 0.597654 0.434439 0.239353
O O10 0.384481 0.405163 0.046331
O O11 0.929219 0.500000 0.888955
O O12 0.129595 0.569419 0.913259
O O13 0.000000 0.603180 0.000000
O O14 0.671854 0.893972 0.602124
O O15 0.617862 0.793484 0.499410
O O16 0.742862 0.897699 0.814196
O O17 0.823584 0.000000 0.922932
O O18 0.676191 0.000000 0.695552
#
# Coordination Sequence:
#
# PCOD9220664 Si02
#       8
#     8   8   8   8   8   8   8   4
#     4  11  22  40  62  86 114 152 202 254 293 351
#     4  11  22  37  62  95 124 152 192 248 312 360
#     4   9  17  31  56  90 121 151 189 241 303 357
#     4   9  18  31  49  81 122 156 184 223 288 365
#     4  11  24  40  60  86 117 160 200 251 295 353
#     4   9  16  29  51  82 125 161 186 225 295 376
#     4   9  18  32  53  86 121 155 192 237 298 360
#     4  12  26  44  60  80 116 162 218 246 294 348
#
# _framework density 19.938217999999999
#
# number of rings (size 3 to 8) (size 9 to 14) (size 15 to 20)
#    0.000    2.000    1.333    2.400    1.867    5.867 
#    0.000    0.667    0.000    0.800    0.000    0.000 
#    0.000    0.000    0.000    0.000    0.000    0.000 
#
# Total GULP energy -167031.599266 kJ/mol
# GULP energy per Si atom -5567.719976 kJ/mol
# Density = 1.989284 g / cm^3
# Si number density = 19.938218 Si / 1000 Ang^3
#
#
#
# Elastic Constant Matrix: (Units=GPa)
#
#
# Indices 1 2 3 4 5 6 
#
# 1 60.6037 26.7253 27.1700 0.0000 -23.6248 0.0000
# 2 26.7253 59.8405 44.6543 0.0000 -21.6534 0.0000
# 3 27.1700 44.6543 150.1858 0.0000 -39.7636 0.0000
# 4 0.0000 0.0000 0.0000 -22.1125 0.0000 15.9707
# 5 -23.6248 -21.6534 -39.7636 0.0000 44.0364 0.0000
# 6 0.0000 0.0000 0.0000 15.9707 0.0000 17.3931
#
#
#
# Elastic Compliance Matrix: (Units=1/GPa)
#
#
# Indices 1 2 3 4 5 6 
#
# 1 0.023119 -0.007318 0.000427 0.000000 0.009190 0.000000
# 2 -0.007318 0.025211 -0.005164 0.000000 0.003808 0.000000
# 3 0.000427 -0.005164 0.009863 0.000000 0.006596 0.000000
# 4 0.000000 0.000000 0.000000 -0.027191 0.000000 0.024967
# 5 0.009190 0.003808 0.006596 0.000000 0.035466 0.000000
# 6 0.000000 0.000000 0.000000 0.024967 0.000000 0.034569
#
#
# Mechanical properties :
#
#
# Convention : Reuss Voigt Hill
#
# Bulk Modulus (GPa) = 29.34130 51.96992 40.65561
# Shear Modulus (GPa) = 36.62793 19.33543 27.98168
#
# Velocity S-wave (km/s) = 4.29076 3.11749 3.75029
# Velocity P-wave (km/s) = 6.26861 6.25143 6.26003
#
# Compressibility (1/GPa) = 0.03408166
#
# Stress axis : x y z
#
# Youngs Moduli (GPa) = 43.25455 39.66601 101.39068
#
# Poissons Ratio (x) = 0.29028 -0.04324
# Poissons Ratio (y) = 0.31654 0.52355
# Poissons Ratio (z) = -0.01845 0.20482
#
# Static dielectric constant tensor:
#      x y z
#    x 1.743080 0.000000 -0.009600 
#    y 0.000000 1.696680 0.000000 
#    z -0.009600 0.000000 1.784570 
# 
# From -- ./inp_files/208659.got.cif
#   From: 2010.05.17/outbox.cif.g08.bks.cpg/sg12_105_cif.got.tgz:208659.got - 2010.06.03 13:09:07.
