data_PCOD9220152
_publ_section_title
;
Structure prediction by ZEFSAII (Michael W. Deem and Ramdas Pophale) SiO2 
 PCOD9220152
Probable space group: C 2/M
;
_chemical_formula_sum "Si O2"
_cell_formula_units_Z 56
_cell_length_a 20.135904
_cell_length_b 16.389328
_cell_length_c 14.901263
_cell_angle_alpha 90.000000
_cell_angle_beta 34.304268
_cell_angle_gamma 90.000000
_cell_volume 2771.512078
_symmetry_space_group_name_H-M "C 2/M"
_symmetry_group_IT_number 12
_symmetry_cell_setting 'monoclinic'
loop_
_space_group_symop_operation_xyz
x,y,z
-x,y,-z
-x,-y,-z
x,-y,z
1/2+x,1/2+y,z
1/2-x,1/2+y,-z
1/2-x,1/2-y,-z
1/2+x,1/2-y,z
loop_
_atom_site_type_symbol
_atom_site_label
_atom_site_fract_x
_atom_site_fract_y
_atom_site_fract_z
Si Si1 0.151987 0.811210 0.065730
Si Si2 0.258227 0.185176 0.616636
Si Si3 0.944474 0.091495 0.680970
Si Si4 0.664160 0.339315 0.366585
Si Si5 0.092519 0.589654 0.975913
Si Si6 0.626292 0.404635 0.907600
Si Si7 0.436332 0.208691 0.269077
O O1 0.155069 0.842170 0.958216
O O2 0.250000 0.750000 0.000000
O O3 0.133090 0.892364 0.145332
O O4 0.026177 0.767378 0.220192
O O5 0.324128 0.250873 0.604970
O O6 0.217723 0.112389 0.725207
O O7 0.343795 0.165151 0.438335
O O8 0.144589 0.234706 0.704781
O O9 0.897699 0.155811 0.660729
O O10 0.085259 0.106385 0.522795
O O11 0.923531 0.000000 0.671556
O O12 0.792104 0.373973 0.199694
O O13 0.118885 0.500000 0.985045
O O14 0.026526 0.648620 0.118630
O O15 0.000000 0.581433 0.000000
O O16 0.627125 0.500000 0.935001
O O17 0.500000 0.388020 0.000000
#
# Coordination Sequence:
#
# PCOD9220152 Si02
#       7
#     8   8   8   8   8   8   8
#     4  12  24  42  66  98 131 175 222 266 325 396
#     4  11  22  41  65  91 129 166 220 268 322 390
#     4  11  23  40  63  95 131 164 214 274 327 379
#     4  11  21  39  63  92 125 166 210 264 327 386
#     4  11  22  36  58  88 122 161 204 259 324 384
#     4  11  24  43  69  99 133 173 225 282 331 384
#     4  11  23  40  62  92 126 171 215 263 321 390
#
# _framework density 20.205577999999999
#
# number of rings (size 3 to 8) (size 9 to 14) (size 15 to 20)
#    0.000    0.857    4.286    4.714    0.000    0.571 
#    0.000    0.714    0.000    0.857    0.000    0.000 
#    0.000    0.000    0.000    0.000    0.000    0.000 
#
# Total GULP energy -156050.770264 kJ/mol
# GULP energy per Si atom -5573.241795 kJ/mol
# Density = 2.015959 g / cm^3
# Si number density = 20.205578 Si / 1000 Ang^3
#
#
#
# Elastic Constant Matrix: (Units=GPa)
#
#
# Indices 1 2 3 4 5 6 
#
# 1 71.5786 24.8747 30.8510 0.0000 2.1242 0.0000
# 2 24.8747 61.0076 31.3765 0.0000 -2.4977 0.0000
# 3 30.8510 31.3765 123.2767 0.0000 0.4631 0.0000
# 4 0.0000 0.0000 0.0000 23.8945 0.0000 4.6155
# 5 2.1242 -2.4977 0.4631 0.0000 23.7130 0.0000
# 6 0.0000 0.0000 0.0000 4.6155 0.0000 20.6879
#
#
#
# Elastic Compliance Matrix: (Units=1/GPa)
#
#
# Indices 1 2 3 4 5 6 
#
# 1 0.017227 -0.005633 -0.002870 0.000000 -0.002080 0.000000
# 2 -0.005633 0.020806 -0.003896 0.000000 0.002772 0.000000
# 3 -0.002870 -0.003896 0.009823 0.000000 -0.000345 0.000000
# 4 0.000000 0.000000 0.000000 0.043735 0.000000 -0.009757
# 5 -0.002080 0.002772 -0.000345 0.000000 0.042656 0.000000
# 6 0.000000 0.000000 0.000000 -0.009757 0.000000 0.050514
#
#
# Mechanical properties :
#
#
# Convention : Reuss Voigt Hill
#
# Bulk Modulus (GPa) = 43.36993 47.78526 45.57759
# Shear Modulus (GPa) = 23.01552 24.90979 23.96266
#
# Velocity S-wave (km/s) = 3.37867 3.51496 3.44749
# Velocity P-wave (km/s) = 6.06065 6.33831 6.20103
#
# Compressibility (1/GPa) = 0.02305745
#
# Stress axis : x y z
#
# Youngs Moduli (GPa) = 58.04893 48.06411 101.80291
#
# Poissons Ratio (x) = 0.27076 0.29213
# Poissons Ratio (y) = 0.32700 0.39663
# Poissons Ratio (z) = 0.16657 0.18726
#
# Static dielectric constant tensor:
#      x y z
#    x 1.809860 0.000000 0.050790 
#    y 0.000000 1.770900 0.000000 
#    z 0.050790 0.000000 1.618820 
# 
# From -- ./inp_files/234662.got.cif
#   From: 2010.05.17/outbox.cif.g08.bks.cpg/sg12_118_cif.got.tgz:234662.got - 2010.06.03 13:09:07.
