data_PCOD9220161
_publ_section_title
;
Structure prediction by ZEFSAII (Michael W. Deem and Ramdas Pophale) SiO2 
 PCOD9220161
Probable space group: C 2/M
;
_chemical_formula_sum "Si O2"
_cell_formula_units_Z 48
_cell_length_a 20.879570
_cell_length_b 18.684021
_cell_length_c 17.636870
_cell_angle_alpha 90.000000
_cell_angle_beta 19.782016
_cell_angle_gamma 90.000000
_cell_volume 2328.618846
_symmetry_space_group_name_H-M "C 2/M"
_symmetry_group_IT_number 12
_symmetry_cell_setting 'monoclinic'
loop_
_space_group_symop_operation_xyz
x,y,z
-x,y,-z
-x,-y,-z
x,-y,z
1/2+x,1/2+y,z
1/2-x,1/2+y,-z
1/2-x,1/2-y,-z
1/2+x,1/2-y,z
loop_
_atom_site_type_symbol
_atom_site_label
_atom_site_fract_x
_atom_site_fract_y
_atom_site_fract_z
Si Si1 0.127702 0.677067 0.782449
Si Si2 0.972974 0.138627 0.617420
Si Si3 0.437973 0.332671 0.157503
Si Si4 0.428218 0.079795 0.422966
Si Si5 0.294489 0.786035 0.864921
Si Si6 0.403090 0.075094 0.930255
O O1 0.322391 0.635657 0.573488
O O2 0.177037 0.758394 0.708914
O O3 0.995456 0.641493 0.868495
O O4 0.000000 0.676626 0.000000
O O5 0.888179 0.219103 0.716524
O O6 0.000000 0.118655 0.500000
O O7 0.819281 0.088856 0.828019
O O8 0.291005 0.396317 0.335305
O O9 0.500000 0.339123 0.000000
O O10 0.609590 0.317129 0.025760
O O11 0.558272 0.147155 0.303970
O O12 0.501425 0.071666 0.256525
O O13 0.449780 0.000000 0.435655
O O14 0.250000 0.750000 0.000000
O O15 0.436048 0.000000 0.935592
#
# Coordination Sequence:
#
# PCOD9220161 Si02
#       6
#     8   8   8   8   8   8
#     4  11  21  39  64  94 126 169 218 265 319 394
#     4  12  22  40  66  96 131 170 221 272 325 390
#     4  11  24  43  70  97 131 173 220 277 338 401
#     4  11  26  44  65  97 134 170 221 284 339 393
#     4  12  24  42  72 101 129 176 228 275 327 400
#     4  11  25  42  59  93 135 169 216 274 330 390
#
# _framework density 20.613076
#
# number of rings (size 3 to 8) (size 9 to 14) (size 15 to 20)
#    0.000    0.667    6.667    1.000    2.333    3.667 
#    0.000    4.167    0.000    0.000    0.000    0.000 
#    0.000    0.000    0.000    0.000    0.000    0.000 
#
# Total GULP energy -133762.242658 kJ/mol
# GULP energy per Si atom -5573.426777 kJ/mol
# Density = 2.056616 g / cm^3
# Si number density = 20.613076 Si / 1000 Ang^3
#
#
#
# Elastic Constant Matrix: (Units=GPa)
#
#
# Indices 1 2 3 4 5 6 
#
# 1 60.3190 8.0257 35.5410 -0.0665 -17.1701 -0.0137
# 2 8.0257 96.1930 33.8630 -0.1056 2.9408 -0.0186
# 3 35.5410 33.8630 110.0036 -0.0337 -23.5777 -0.0096
# 4 -0.0665 -0.1056 -0.0337 -18.6879 0.0361 -6.7569
# 5 -17.1701 2.9408 -23.5777 0.0361 29.1870 0.0088
# 6 -0.0137 -0.0186 -0.0096 -6.7569 0.0088 56.6438
#
#
#
# Elastic Compliance Matrix: (Units=1/GPa)
#
#
# Indices 1 2 3 4 5 6 
#
# 1 0.022203 -0.000306 -0.005168 -0.000050 0.008917 -0.000003
# 2 -0.000306 0.012280 -0.004820 -0.000068 -0.005311 -0.000004
# 3 -0.005168 -0.004820 0.014146 0.000036 0.008872 0.000003
# 4 -0.000050 -0.000068 0.000036 -0.051297 0.000072 -0.006119
# 5 0.008917 -0.005311 0.008872 0.000072 0.047210 0.000003
# 6 -0.000003 -0.000004 0.000003 -0.006119 0.000003 0.016924
#
#
# Mechanical properties :
#
#
# Convention : Reuss Voigt Hill
#
# Bulk Modulus (GPa) = 35.66149 46.81945 41.24047
# Shear Modulus (GPa) = 54.70469 26.03431 40.36950
#
# Velocity S-wave (km/s) = 5.15717 3.55773 4.43023
# Velocity P-wave (km/s) = 7.26635 6.29598 6.79850
#
# Compressibility (1/GPa) = 0.02804145
#
# Stress axis : x y z
#
# Youngs Moduli (GPa) = 45.03977 81.43143 70.69276
#
# Poissons Ratio (x) = 0.02490 0.36534
# Poissons Ratio (y) = 0.01377 0.34072
# Poissons Ratio (z) = 0.23276 0.39248
#
# Static dielectric constant tensor:
#      x y z
#    x 1.783220 0.000000 -0.033110 
#    y 0.000000 1.817490 -0.000020 
#    z -0.033110 -0.000020 1.692580 
# 
# From -- ./inp_files/285365.got.cif
#   From: 2010.05.17/outbox.cif.g08.bks.cpg/sg12_143_cif.got.tgz:285365.got - 2010.06.03 13:09:07.
