data_PCOD9220897
_publ_section_title
;
Structure prediction by ZEFSAII (Michael W. Deem and Ramdas Pophale) SiO2 
 PCOD9220897
Probable space group: C 2/M
;
_chemical_formula_sum "Si O2"
_cell_formula_units_Z 48
_cell_length_a 16.335009
_cell_length_b 9.846684
_cell_length_c 15.740682
_cell_angle_alpha 90.000000
_cell_angle_beta 103.016834
_cell_angle_gamma 90.000000
_cell_volume 2466.762732
_symmetry_space_group_name_H-M "C 2/M"
_symmetry_group_IT_number 12
_symmetry_cell_setting 'monoclinic'
loop_
_space_group_symop_operation_xyz
x,y,z
-x,y,-z
-x,-y,-z
x,-y,z
1/2+x,1/2+y,z
1/2-x,1/2+y,-z
1/2-x,1/2-y,-z
1/2+x,1/2-y,z
loop_
_atom_site_type_symbol
_atom_site_label
_atom_site_fract_x
_atom_site_fract_y
_atom_site_fract_z
Si Si1 0.810366 0.000000 0.402387
Si Si2 0.330597 0.842305 0.003959
Si Si3 0.614792 0.500000 0.402408
Si Si4 0.944443 0.288997 0.193657
Si Si5 0.067109 0.000000 0.726497
Si Si6 0.866856 0.659177 0.819623
Si Si7 0.633258 0.000000 0.687975
Si Si8 0.236695 0.783957 0.347557
O O1 0.876676 0.000000 0.494503
O O2 0.858376 0.000000 0.324217
O O3 0.757076 0.861011 0.394451
O O4 0.395773 0.822078 0.095363
O O5 0.305026 0.000000 0.997535
O O6 0.250000 0.750000 0.000000
O O7 0.368603 0.811210 0.920204
O O8 0.521129 0.500000 0.344751
O O9 0.665136 0.368868 0.379146
O O10 0.910017 0.382708 0.260994
O O11 0.042681 0.315174 0.200511
O O12 0.929359 0.133877 0.215810
O O13 0.845377 0.500000 0.803717
O O14 0.799120 0.750195 0.754848
O O15 0.683038 0.880445 0.644658
#
# Coordination Sequence:
#
# PCOD9220897 Si02
#       8
#     4   8   4   8   4   8   4   8
#     4  12  24  42  71  98 132 163 217 273 327 398
#     4  11  25  40  63  94 132 175 222 268 315 376
#     4  11  25  46  65  98 131 169 213 274 331 392
#     4  12  23  43  64  94 131 176 217 267 320 382
#     4  12  26  43  70  95 130 172 216 267 333 388
#     4  11  22  40  68  94 130 171 219 261 321 383
#     4  11  22  39  66  89 129 170 213 257 321 381
#     4  11  23  41  68  98 128 172 213 263 331 388
#
# _framework density 19.458701000000001
#
# number of rings (size 3 to 8) (size 9 to 14) (size 15 to 20)
#    0.000    0.667    5.833    2.250    1.167    1.333 
#    1.500    0.833    0.000    1.000    0.000    0.000 
#    0.000    0.000    0.000    0.000    0.000    0.000 
#
# Total GULP energy -133662.354087 kJ/mol
# GULP energy per Si atom -5569.264754 kJ/mol
# Density = 1.941441 g / cm^3
# Si number density = 19.458701 Si / 1000 Ang^3
#
#
#
# Elastic Constant Matrix: (Units=GPa)
#
#
# Indices 1 2 3 4 5 6 
#
# 1 34.5310 13.1132 -5.0595 0.0000 -7.9003 0.0000
# 2 13.1132 139.7171 12.9112 0.0000 -3.9591 0.0000
# 3 -5.0595 12.9112 36.2137 0.0000 0.4718 0.0000
# 4 0.0000 0.0000 0.0000 13.5069 0.0000 1.7696
# 5 -7.9003 -3.9591 0.4718 0.0000 21.0529 0.0000
# 6 0.0000 0.0000 0.0000 1.7696 0.0000 22.8440
#
#
#
# Elastic Compliance Matrix: (Units=1/GPa)
#
#
# Indices 1 2 3 4 5 6 
#
# 1 0.033813 -0.003369 0.005770 0.000000 0.011926 0.000000
# 2 -0.003369 0.007781 -0.003248 0.000000 0.000272 0.000000
# 3 0.005770 -0.003248 0.029567 0.000000 0.000892 0.000000
# 4 0.000000 0.000000 0.000000 0.074795 0.000000 -0.005794
# 5 0.011926 0.000272 0.000892 0.000000 0.052006 0.000000
# 6 0.000000 0.000000 0.000000 -0.005794 0.000000 0.044224
#
#
# Mechanical properties :
#
#
# Convention : Reuss Voigt Hill
#
# Bulk Modulus (GPa) = 14.39560 28.04349 21.21954
# Shear Modulus (GPa) = 18.72410 24.11390 21.41900
#
# Velocity S-wave (km/s) = 3.10538 3.52410 3.32134
# Velocity P-wave (km/s) = 4.50243 5.56795 5.06330
#
# Compressibility (1/GPa) = 0.06946568
#
# Stress axis : x y z
#
# Youngs Moduli (GPa) = 29.57471 128.51170 33.82200
#
# Poissons Ratio (x) = 0.43292 -0.19514
# Poissons Ratio (y) = 0.09963 0.10987
# Poissons Ratio (z) = -0.17064 0.41747
#
# Static dielectric constant tensor:
#      x y z
#    x 1.662530 0.000000 0.017410 
#    y 0.000000 1.681080 0.000000 
#    z 0.017410 0.000000 1.675840 
# 
# From -- ./inp_files/221804.got.cif
#   From: 2010.05.17/outbox.cif.g08.bks.cpg/sg12_111_cif.got.tgz:221804.got - 2010.06.03 13:09:07.
