data_PCOD9220436
_publ_section_title
;
Structure prediction by ZEFSAII (Michael W. Deem and Ramdas Pophale) SiO2 
 PCOD9220436
Probable space group: C 2/M
;
_chemical_formula_sum "Si O2"
_cell_formula_units_Z 32
_cell_length_a 14.096967
_cell_length_b 18.973473
_cell_length_c 15.315238
_cell_angle_alpha 90.000000
_cell_angle_beta 152.009020
_cell_angle_gamma 90.000000
_cell_volume 1922.546919
_symmetry_space_group_name_H-M "C 2/M"
_symmetry_group_IT_number 12
_symmetry_cell_setting 'monoclinic'
loop_
_space_group_symop_operation_xyz
x,y,z
-x,y,-z
-x,-y,-z
x,-y,z
1/2+x,1/2+y,z
1/2-x,1/2+y,-z
1/2-x,1/2-y,-z
1/2+x,1/2-y,z
loop_
_atom_site_type_symbol
_atom_site_label
_atom_site_fract_x
_atom_site_fract_y
_atom_site_fract_z
Si Si1 0.708808 0.580820 0.785073
Si Si2 0.228138 0.579588 0.369826
Si Si3 0.145996 0.729602 0.038220
Si Si4 0.454266 0.785209 0.700269
O O1 0.765346 0.500000 0.855702
O O2 0.465266 0.585137 0.587844
O O3 0.774044 0.591693 0.736813
O O4 0.795569 0.646248 0.909532
O O5 0.161731 0.500000 0.331515
O O6 0.100470 0.634888 0.320494
O O7 0.357684 0.771449 0.210857
O O8 0.000000 0.745018 0.000000
O O9 0.029796 0.746359 0.854176
O O10 0.250000 0.750000 0.500000
#
# Coordination Sequence:
#
# PCOD9220436 Si02
#       4
#     8   8   8   8
#     4   9  17  31  54  83 112 140 171 215 278 338
#     4   9  17  32  55  80 109 143 176 217 274 328
#     4  11  22  34  53  81 112 144 183 218 264 323
#     4  11  22  35  53  78 112 147 182 217 267 320
#
# _framework density 16.644587000000001
#
# number of rings (size 3 to 8) (size 9 to 14) (size 15 to 20)
#    0.000    2.000    5.000    1.500    0.000    2.500 
#    0.000    0.000    0.000    0.750    0.000    1.750 
#    0.000    0.000    0.000    0.000    0.000    0.000 
#
# Total GULP energy -89243.533659 kJ/mol
# GULP energy per Si atom -5577.720854 kJ/mol
# Density = 1.660670 g / cm^3
# Si number density = 16.644587 Si / 1000 Ang^3
#
#
#
# Elastic Constant Matrix: (Units=GPa)
#
#
# Indices 1 2 3 4 5 6 
#
# 1 96.6491 52.7764 33.1162 -0.0001 27.4298 0.0000
# 2 52.7764 98.1980 35.1322 -0.0001 19.4520 0.0000
# 3 33.1162 35.1322 96.7730 -0.0006 14.4828 -0.0003
# 4 -0.0001 -0.0001 -0.0006 26.4117 -0.0004 4.6481
# 5 27.4298 19.4520 14.4828 -0.0004 28.4871 -0.0002
# 6 0.0000 0.0000 -0.0003 4.6481 -0.0002 31.9875
#
#
#
# Elastic Compliance Matrix: (Units=1/GPa)
#
#
# Indices 1 2 3 4 5 6 
#
# 1 0.017990 -0.006622 -0.001988 0.000000 -0.011790 0.000000
# 2 -0.006622 0.015293 -0.002898 0.000000 -0.002593 0.000000
# 3 -0.001988 -0.002898 0.012429 0.000000 -0.002426 0.000000
# 4 0.000000 0.000000 0.000000 0.038856 0.000001 -0.005646
# 5 -0.011790 -0.002593 -0.002426 0.000001 0.049460 0.000000
# 6 0.000000 0.000000 0.000000 -0.005646 0.000000 0.032083
#
#
# Mechanical properties :
#
#
# Convention : Reuss Voigt Hill
#
# Bulk Modulus (GPa) = 44.05960 59.29663 51.67812
# Shear Modulus (GPa) = 25.42067 28.75029 27.08548
#
# Velocity S-wave (km/s) = 3.91226 4.16060 4.03834
# Velocity P-wave (km/s) = 6.85099 7.66702 7.27046
#
# Compressibility (1/GPa) = 0.02269653
#
# Stress axis : x y z
#
# Youngs Moduli (GPa) = 55.58673 65.38985 80.45865
#
# Poissons Ratio (x) = 0.43301 0.15993
# Poissons Ratio (y) = 0.36810 0.23315
# Poissons Ratio (z) = 0.11049 0.18948
#
# Static dielectric constant tensor:
#      x y z
#    x 1.543390 0.000000 0.010430 
#    y 0.000000 1.565260 0.000000 
#    z 0.010430 0.000000 1.626030 
# 
# From -- ./inp_files/59439.got.cif
#   From: 2010.05.17/outbox.cif.g08.bks.cpg/sg12_30_cif.got.tgz:59439.got - 2010.06.03 13:09:07.
