data_PCOD9220885
_publ_section_title
;
Structure prediction by ZEFSAII (Michael W. Deem and Ramdas Pophale) SiO2 
 PCOD9220885
Probable space group: C 2/M
;
_chemical_formula_sum "Si O2"
_cell_formula_units_Z 56
_cell_length_a 17.283753
_cell_length_b 18.765498
_cell_length_c 23.675021
_cell_angle_alpha 90.000000
_cell_angle_beta 157.611736
_cell_angle_gamma 90.000000
_cell_volume 2924.676381
_symmetry_space_group_name_H-M "C 2/M"
_symmetry_group_IT_number 12
_symmetry_cell_setting 'monoclinic'
loop_
_space_group_symop_operation_xyz
x,y,z
-x,y,-z
-x,-y,-z
x,-y,z
1/2+x,1/2+y,z
1/2-x,1/2+y,-z
1/2-x,1/2-y,-z
1/2+x,1/2-y,z
loop_
_atom_site_type_symbol
_atom_site_label
_atom_site_fract_x
_atom_site_fract_y
_atom_site_fract_z
Si Si1 0.493119 0.668928 0.152218
Si Si2 0.374199 0.175080 0.588034
Si Si3 0.024578 0.670521 0.815120
Si Si4 0.312477 0.294259 0.833662
Si Si5 0.293728 0.417966 0.332488
Si Si6 0.722168 0.126683 0.163691
Si Si7 0.558968 0.584796 0.306552
O O1 0.485759 0.745445 0.178495
O O2 0.633877 0.680192 0.192802
O O3 0.568900 0.612370 0.249152
O O4 0.262808 0.651292 0.977359
O O5 0.250000 0.250000 0.500000
O O6 0.418640 0.158116 0.683402
O O7 0.593696 0.181049 0.707102
O O8 0.243136 0.116017 0.467577
O O9 0.898212 0.627510 0.776593
O O10 0.302603 0.208407 0.833157
O O11 0.500000 0.317640 0.000000
O O12 0.500000 0.389694 0.500000
O O13 0.266771 0.500000 0.331790
O O14 0.316234 0.413394 0.280451
O O15 0.860290 0.119253 0.201961
O O16 0.500000 0.097744 0.000000
O O17 0.546588 0.500000 0.301098
#
# Coordination Sequence:
#
# PCOD9220885 Si02
#       7
#     8   8   8   8   8   8   8
#     4  11  23  41  66  98 130 177 224 281 323 394
#     4  12  23  42  68  99 132 175 223 275 339 396
#     4  11  22  39  65  94 134 174 229 268 325 404
#     4  11  22  42  70 102 130 166 229 285 326 391
#     4  11  24  38  57  92 135 172 211 267 333 398
#     4  11  22  39  66  97 133 172 212 266 334 408
#     4  12  27  45  66 100 141 178 222 279 345 408
#
# _framework density 19.147417000000001
#
# number of rings (size 3 to 8) (size 9 to 14) (size 15 to 20)
#    0.000    0.714    5.714    2.143    4.000    5.143 
#    0.000    1.429    0.000    0.857    0.000    0.000 
#    0.000    0.000    0.000    0.000    0.000    0.000 
#
# Total GULP energy -156534.280107 kJ/mol
# GULP energy per Si atom -5590.510004 kJ/mol
# Density = 1.910384 g / cm^3
# Si number density = 19.147417 Si / 1000 Ang^3
#
#
#
# Elastic Constant Matrix: (Units=GPa)
#
#
# Indices 1 2 3 4 5 6 
#
# 1 120.9030 30.0006 34.0938 -0.0270 -2.9579 0.0396
# 2 30.0006 46.8610 13.0800 -0.0503 0.5118 0.0778
# 3 34.0938 13.0800 93.1199 -0.0328 -0.0552 0.0335
# 4 -0.0270 -0.0503 -0.0328 -13.9721 -0.0138 28.0662
# 5 -2.9579 0.5118 -0.0552 -0.0138 44.2012 0.0194
# 6 0.0396 0.0778 0.0335 28.0662 0.0194 -27.5978
#
#
#
# Elastic Compliance Matrix: (Units=1/GPa)
#
#
# Indices 1 2 3 4 5 6 
#
# 1 0.010631 -0.005962 -0.003054 0.000002 0.000777 -0.000003
# 2 -0.005962 0.025557 -0.001407 -0.000045 -0.000697 0.000016
# 3 -0.003054 -0.001407 0.012055 0.000005 -0.000173 0.000011
# 4 0.000002 -0.000045 0.000005 0.068632 -0.000008 0.069797
# 5 0.000777 -0.000697 -0.000173 -0.000008 0.022684 0.000006
# 6 -0.000003 0.000016 0.000011 0.069797 0.000006 0.034747
#
#
# Mechanical properties :
#
#
# Convention : Reuss Voigt Hill
#
# Bulk Modulus (GPa) = 36.50286 46.13697 41.31992
# Shear Modulus (GPa) = 24.47583 12.77357 18.62470
#
# Velocity S-wave (km/s) = 3.57919 2.58566 3.12220
# Velocity P-wave (km/s) = 6.01550 5.74997 5.88424
#
# Compressibility (1/GPa) = 0.02739512
#
# Stress axis : x y z
#
# Youngs Moduli (GPa) = 94.06692 39.12851 82.95503
#
# Poissons Ratio (x) = 0.23327 0.25337
# Poissons Ratio (y) = 0.56080 0.11676
# Poissons Ratio (z) = 0.28731 0.05507
#
# Static dielectric constant tensor:
#      x y z
#    x 1.671900 -0.000010 0.000690 
#    y -0.000010 1.652710 -0.000010 
#    z 0.000690 -0.000010 1.671650 
# 
# From -- ./inp_files/344784.got.cif
#   From: 2010.05.17/outbox.cif.g08.bks.cpg/sg12_173_cif.got.tgz:344784.got - 2010.06.03 13:09:07.
