data_PCOD9220633
_publ_section_title
;
Structure prediction by ZEFSAII (Michael W. Deem and Ramdas Pophale) SiO2 
 PCOD9220633
Probable space group: C 2/M
;
_chemical_formula_sum "Si O2"
_cell_formula_units_Z 56
_cell_length_a 14.903526
_cell_length_b 7.618838
_cell_length_c 19.289054
_cell_angle_alpha 90.000000
_cell_angle_beta 78.733106
_cell_angle_gamma 90.000000
_cell_volume 2148.014189
_symmetry_space_group_name_H-M "C 2/M"
_symmetry_group_IT_number 12
_symmetry_cell_setting 'monoclinic'
loop_
_space_group_symop_operation_xyz
x,y,z
-x,y,-z
-x,-y,-z
x,-y,z
1/2+x,1/2+y,z
1/2-x,1/2+y,-z
1/2-x,1/2-y,-z
1/2+x,1/2-y,z
loop_
_atom_site_type_symbol
_atom_site_label
_atom_site_fract_x
_atom_site_fract_y
_atom_site_fract_z
Si Si1 0.274212 0.287221 0.602948
Si Si2 0.279014 0.301145 0.177477
Si Si3 0.107837 0.203706 0.545522
Si Si4 0.883538 0.797965 0.887709
Si Si5 0.556703 0.285245 0.345145
Si Si6 0.549681 0.715425 0.775065
Si Si7 0.397287 0.201755 0.031173
O O1 0.267136 0.500000 0.602863
O O2 0.173667 0.215374 0.603254
O O3 0.333913 0.223493 0.527040
O O4 0.338445 0.234110 0.657429
O O5 0.256051 0.500000 0.199309
O O6 0.186880 0.210811 0.165643
O O7 0.347284 0.223617 0.225173
O O8 0.342257 0.300888 0.098512
O O9 0.009220 0.273475 0.581857
O O10 0.094649 0.000000 0.530127
O O11 0.981246 0.730030 0.846948
O O12 0.892953 0.000000 0.905347
O O13 0.851296 0.704584 0.962078
O O14 0.556018 0.500000 0.344643
O O15 0.503773 0.225973 0.285056
O O16 0.552464 0.500000 0.774332
O O17 0.402224 0.000000 0.053389
O O18 0.500000 0.267517 0.000000
#
# Coordination Sequence:
#
# PCOD9220633 Si02
#       7
#     8   8   8   8   8   8   8
#     4   9  17  30  51  78 106 136 173 218 264 310
#     4  11  22  38  58  81 108 140 178 218 267 318
#     4   9  17  30  51  78 106 136 173 218 264 310
#     4  11  22  38  58  81 108 140 178 218 267 318
#     4   9  17  32  53  75 102 140 183 216 254 312
#     4   9  20  36  54  76 105 142 179 218 262 313
#     4  11  22  37  60  86 110 136 172 219 269 315
#
# _framework density 26.070589999999999
#
# number of rings (size 3 to 8) (size 9 to 14) (size 15 to 20)
#    0.000    2.143    1.429    2.143    0.000    3.429 
#    0.000    0.714    0.000    8.571    0.000    0.000 
#    0.000    0.000    0.000    0.000    0.000    0.000 
#
# Total GULP energy -156594.237369 kJ/mol
# GULP energy per Si atom -5592.651335 kJ/mol
# Density = 2.601125 g / cm^3
# Si number density = 26.070590 Si / 1000 Ang^3
#
#
#
# Elastic Constant Matrix: (Units=GPa)
#
#
# Indices 1 2 3 4 5 6 
#
# 1 152.0216 1.5360 11.3862 0.0000 26.8353 0.0000
# 2 1.5360 76.1099 0.3050 0.0000 1.3281 0.0000
# 3 11.3862 0.3050 70.4335 0.0000 24.1018 0.0000
# 4 0.0000 0.0000 0.0000 10.5175 0.0000 8.4145
# 5 26.8353 1.3281 24.1018 0.0000 54.0961 0.0000
# 6 0.0000 0.0000 0.0000 8.4145 0.0000 16.1248
#
#
#
# Elastic Compliance Matrix: (Units=1/GPa)
#
#
# Indices 1 2 3 4 5 6 
#
# 1 0.007210 -0.000083 0.000068 0.000000 -0.003605 0.000000
# 2 -0.000083 0.013146 0.000062 0.000000 -0.000309 0.000000
# 3 0.000068 0.000062 0.016753 0.000000 -0.007499 0.000000
# 4 0.000000 0.000000 0.000000 0.163225 0.000000 -0.085177
# 5 -0.003605 -0.000309 -0.007499 0.000000 0.023623 0.000000
# 6 0.000000 0.000000 0.000000 -0.085177 0.000000 0.106465
#
#
# Mechanical properties :
#
#
# Convention : Reuss Voigt Hill
#
# Bulk Modulus (GPa) = 26.87859 36.11328 31.49593
# Shear Modulus (GPa) = 14.58885 35.17019 24.87952
#
# Velocity S-wave (km/s) = 2.36813 3.67691 3.09255
# Velocity P-wave (km/s) = 4.22016 5.64875 4.98589
#
# Compressibility (1/GPa) = 0.03720434
#
# Stress axis : x y z
#
# Youngs Moduli (GPa) = 138.69398 76.07044 59.69186
#
# Poissons Ratio (x) = 0.00630 -0.00408
# Poissons Ratio (y) = 0.01149 -0.00372
# Poissons Ratio (z) = -0.00949 -0.00474
#
# Static dielectric constant tensor:
#      x y z
#    x 2.042490 0.000000 0.048840 
#    y 0.000000 1.940160 0.000000 
#    z 0.048840 0.000000 2.129270 
# 
# From -- ./inp_files/308950.got.cif
#   From: 2010.05.17/outbox.cif.g08.bks.cpg/sg12_155_cif.got.tgz:308950.got - 2010.06.03 13:09:07.
