data_PCOD9220244
_publ_section_title
;
Structure prediction by ZEFSAII (Michael W. Deem and Ramdas Pophale) SiO2 
 PCOD9220244
Probable space group: C 2/M
;
_chemical_formula_sum "Si O2"
_cell_formula_units_Z 42
_cell_length_a 11.049514
_cell_length_b 21.395235
_cell_length_c 12.117424
_cell_angle_alpha 90.000000
_cell_angle_beta 50.778407
_cell_angle_gamma 90.000000
_cell_volume 2219.256993
_symmetry_space_group_name_H-M "C 2/M"
_symmetry_group_IT_number 12
_symmetry_cell_setting 'monoclinic'
loop_
_space_group_symop_operation_xyz
x,y,z
-x,y,-z
-x,-y,-z
x,-y,z
1/2+x,1/2+y,z
1/2-x,1/2+y,-z
1/2-x,1/2-y,-z
1/2+x,1/2-y,z
loop_
_atom_site_type_symbol
_atom_site_label
_atom_site_fract_x
_atom_site_fract_y
_atom_site_fract_z
Si Si1 0.530160 0.626464 0.301466
Si Si2 0.062786 0.743860 0.587427
Si Si3 0.637534 0.574255 0.006836
Si Si4 0.547796 0.105097 0.287272
Si Si5 0.217704 0.072952 0.395532
Si Si6 0.500000 0.000000 0.500000
O O1 0.511596 0.700459 0.297916
O O2 0.650797 0.609484 0.329474
O O3 0.367352 0.599338 0.445401
O O4 0.582121 0.594795 0.159293
O O5 0.250000 0.750000 0.500000
O O6 0.000000 0.758054 0.500000
O O7 0.002350 0.674595 0.647693
O O8 0.665095 0.500000 0.991147
O O9 0.795109 0.606286 0.873877
O O10 0.500000 0.588120 0.000000
O O11 0.401283 0.080266 0.301530
O O12 0.563176 0.055614 0.378430
O O13 0.178592 0.000000 0.408191
#
# Coordination Sequence:
#
# PCOD9220244 Si02
#       6
#     8   8   8   8   8   2
#     4  11  23  42  65  97 132 177 217 279 337 403
#     4  12  24  43  70 100 134 177 232 282 330 405
#     4  11  26  43  63 100 140 174 219 284 351 399
#     4  12  25  41  70  98 131 184 224 281 338 400
#     4  11  21  40  68  98 127 173 229 275 332 399
#     4  12  24  40  70 104 132 174 244 280 320 408
#
# _framework density 18.925253000000001
#
# number of rings (size 3 to 8) (size 9 to 14) (size 15 to 20)
#    0.000    0.571    6.667    2.286    5.333    1.524 
#    0.000    1.905    0.000    0.000    0.000    0.000 
#    0.000    0.000    0.000    0.000    0.000    0.000 
#
# Total GULP energy -117042.178881 kJ/mol
# GULP energy per Si atom -5573.437090 kJ/mol
# Density = 1.888218 g / cm^3
# Si number density = 18.925253 Si / 1000 Ang^3
#
#
#
# Elastic Constant Matrix: (Units=GPa)
#
#
# Indices 1 2 3 4 5 6 
#
# 1 67.8597 16.6239 60.1132 0.0000 -11.3837 0.0000
# 2 16.6239 117.2972 40.6050 0.0000 -5.7470 0.0000
# 3 60.1132 40.6050 126.2559 0.0000 0.1952 0.0000
# 4 0.0000 0.0000 0.0000 22.4144 0.0000 -6.6725
# 5 -11.3837 -5.7470 0.1952 0.0000 25.1676 0.0000
# 6 0.0000 0.0000 0.0000 -6.6725 0.0000 21.1617
#
#
#
# Elastic Compliance Matrix: (Units=1/GPa)
#
#
# Indices 1 2 3 4 5 6 
#
# 1 0.029651 0.001544 -0.014635 0.000000 0.013878 0.000000
# 2 0.001544 0.009799 -0.003891 0.000000 0.002966 0.000000
# 3 -0.014635 -0.003891 0.016152 0.000000 -0.007634 0.000000
# 4 0.000000 0.000000 0.000000 0.049236 0.000000 0.015525
# 5 0.013878 0.002966 -0.007634 0.000000 0.046747 0.000000
# 6 0.000000 0.000000 0.000000 0.015525 0.000000 0.052150
#
#
# Mechanical properties :
#
#
# Convention : Reuss Voigt Hill
#
# Bulk Modulus (GPa) = 46.21814 60.67744 53.44779
# Shear Modulus (GPa) = 20.41551 26.68678 23.55114
#
# Velocity S-wave (km/s) = 3.28799 3.75922 3.53147
# Velocity P-wave (km/s) = 6.23610 7.13958 6.70308
#
# Compressibility (1/GPa) = 0.02163653
#
# Stress axis : x y z
#
# Youngs Moduli (GPa) = 33.72592 102.05279 61.91224
#
# Poissons Ratio (x) = -0.15758 0.90611
# Poissons Ratio (y) = -0.05208 0.24091
# Poissons Ratio (z) = 0.49359 0.39710
#
# Static dielectric constant tensor:
#      x y z
#    x 1.703130 0.000000 -0.001970 
#    y 0.000000 1.679790 0.000000 
#    z -0.001970 0.000000 1.618460 
# 
# From -- ./inp_files/132914.got.cif
#   From: 2010.05.17/outbox.cif.g08.bks.cpg/sg12_67_cif.got.tgz:132914.got - 2010.06.03 13:09:07.
