data_PCOD9220014
_publ_section_title
;
Structure prediction by ZEFSAII (Michael W. Deem and Ramdas Pophale) SiO2 
 PCOD9220014
Probable space group: C 2/M
;
_chemical_formula_sum "Si O2"
_cell_formula_units_Z 56
_cell_length_a 9.146769
_cell_length_b 18.697492
_cell_length_c 29.504631
_cell_angle_alpha 90.000000
_cell_angle_beta 143.034792
_cell_angle_gamma 90.000000
_cell_volume 3034.269082
_symmetry_space_group_name_H-M "C 2/M"
_symmetry_group_IT_number 12
_symmetry_cell_setting 'monoclinic'
loop_
_space_group_symop_operation_xyz
x,y,z
-x,y,-z
-x,-y,-z
x,-y,z
1/2+x,1/2+y,z
1/2-x,1/2+y,-z
1/2-x,1/2-y,-z
1/2+x,1/2-y,z
loop_
_atom_site_type_symbol
_atom_site_label
_atom_site_fract_x
_atom_site_fract_y
_atom_site_fract_z
Si Si1 0.448939 0.798270 0.723807
Si Si2 0.769389 0.084437 0.560234
Si Si3 0.167934 0.583961 0.135711
Si Si4 0.231716 0.701273 0.951024
Si Si5 0.021237 0.195346 0.185730
Si Si6 0.213932 0.082524 0.728988
Si Si7 0.974920 0.197173 0.546989
O O1 0.700072 0.814693 0.760365
O O2 0.486253 0.732083 0.766835
O O3 0.372527 0.863356 0.738269
O O4 0.227937 0.782613 0.634433
O O5 0.500000 0.114051 0.500000
O O6 0.899760 0.122582 0.551176
O O7 0.936366 0.096967 0.645456
O O8 0.753573 0.000000 0.548499
O O9 0.136325 0.500000 0.117255
O O10 0.362801 0.623452 0.151619
O O11 0.252793 0.589474 0.209271
O O12 0.924183 0.631529 0.074955
O O13 0.100068 0.749271 0.879861
O O14 0.500000 0.682558 0.000000
O O15 0.250000 0.750000 0.000000
O O16 0.269186 0.000000 0.730371
O O17 0.750000 0.250000 0.500000
O O18 0.000000 0.190842 0.500000
#
# Coordination Sequence:
#
# PCOD9220014 Si02
#       7
#     8   8   8   8   8   8   8
#     4  11  21  37  63  85 118 167 213 253 310 379
#     4   9  19  36  58  81 114 162 206 250 312 371
#     4  11  24  42  65  97 131 161 207 260 311 368
#     4  12  23  42  69  94 124 160 202 252 305 379
#     4  12  22  40  63  93 119 164 211 248 307 375
#     4   9  19  37  59  87 121 158 206 261 307 365
#     4  11  23  36  53  86 123 158 204 269 310 353
#
# _framework density 18.455846999999999
#
# number of rings (size 3 to 8) (size 9 to 14) (size 15 to 20)
#    0.000    1.286    4.286    1.286    0.000    5.714 
#    0.000    1.429    0.000    0.000    0.000    0.000 
#    0.000    0.000    0.000    0.000    0.000    0.000 
#
# Total GULP energy -156361.853835 kJ/mol
# GULP energy per Si atom -5584.351923 kJ/mol
# Density = 1.841384 g / cm^3
# Si number density = 18.455847 Si / 1000 Ang^3
#
#
#
# Elastic Constant Matrix: (Units=GPa)
#
#
# Indices 1 2 3 4 5 6 
#
# 1 99.8896 46.1895 45.2887 -0.0005 26.3405 -0.0003
# 2 46.1895 111.1034 45.1739 0.0000 17.6668 -0.0001
# 3 45.2887 45.1739 98.8963 0.0002 12.9905 0.0000
# 4 -0.0005 0.0000 0.0002 25.1403 0.0003 4.5568
# 5 26.3405 17.6668 12.9905 0.0003 39.1677 -0.0001
# 6 -0.0003 -0.0001 0.0000 4.5568 -0.0001 30.1965
#
#
#
# Elastic Compliance Matrix: (Units=1/GPa)
#
#
# Indices 1 2 3 4 5 6 
#
# 1 0.015664 -0.003450 -0.004619 0.000000 -0.007446 0.000000
# 2 -0.003450 0.012281 -0.003771 0.000000 -0.001969 0.000000
# 3 -0.004619 -0.003771 0.013925 0.000000 0.000189 0.000000
# 4 0.000000 0.000000 0.000000 0.040895 -0.000001 -0.006171
# 5 -0.007446 -0.001969 0.000189 -0.000001 0.031364 0.000000
# 6 0.000000 0.000000 0.000000 -0.006171 0.000000 0.034048
#
#
# Mechanical properties :
#
#
# Convention : Reuss Voigt Hill
#
# Bulk Modulus (GPa) = 54.97833 64.79927 59.88880
# Shear Modulus (GPa) = 28.10222 30.45003 29.27612
#
# Velocity S-wave (km/s) = 3.90638 4.06628 3.98713
# Velocity P-wave (km/s) = 7.08521 7.56524 7.32916
#
# Compressibility (1/GPa) = 0.01818898
#
# Stress axis : x y z
#
# Youngs Moduli (GPa) = 63.83988 81.42425 71.81413
#
# Poissons Ratio (x) = 0.28091 0.33173
# Poissons Ratio (y) = 0.22024 0.27084
# Poissons Ratio (z) = 0.29490 0.30709
#
# Static dielectric constant tensor:
#      x y z
#    x 1.640130 0.000000 0.031320 
#    y 0.000000 1.644620 0.000000 
#    z 0.031320 0.000000 1.657910 
# 
# From -- ./inp_files/257012.got.cif
#   From: 2010.05.17/outbox.cif.g08.bks.cpg/sg12_129_cif.got.tgz:257012.got - 2010.06.03 13:09:07.
