data_PCOD9220325
_publ_section_title
;
Structure prediction by ZEFSAII (Michael W. Deem and Ramdas Pophale) SiO2 
 PCOD9220325
Probable space group: C 2/M
;
_chemical_formula_sum "Si O2"
_cell_formula_units_Z 40
_cell_length_a 5.087399
_cell_length_b 27.376976
_cell_length_c 15.826541
_cell_angle_alpha 90.000000
_cell_angle_beta 57.998252
_cell_angle_gamma 90.000000
_cell_volume 1869.302069
_symmetry_space_group_name_H-M "C 2/M"
_symmetry_group_IT_number 12
_symmetry_cell_setting 'monoclinic'
loop_
_space_group_symop_operation_xyz
x,y,z
-x,y,-z
-x,-y,-z
x,-y,z
1/2+x,1/2+y,z
1/2-x,1/2+y,-z
1/2-x,1/2-y,-z
1/2+x,1/2-y,z
loop_
_atom_site_type_symbol
_atom_site_label
_atom_site_fract_x
_atom_site_fract_y
_atom_site_fract_z
Si Si1 0.671391 0.617234 0.885098
Si Si2 0.218639 0.153156 0.385335
Si Si3 0.469725 0.947460 0.605748
Si Si4 0.367682 0.402685 0.759023
Si Si5 0.811913 0.282011 0.790344
O O1 0.460932 0.609891 0.838541
O O2 0.999264 0.589360 0.819204
O O3 0.754378 0.674679 0.867010
O O4 0.500000 0.604024 0.000000
O O5 0.364557 0.100571 0.386158
O O6 0.062457 0.140429 0.321409
O O7 0.475267 0.193048 0.318411
O O8 0.000000 0.167849 0.500000
O O9 0.500000 0.944891 0.500000
O O10 0.108177 0.943989 0.690879
O O11 0.598839 0.000000 0.612403
O O12 0.003008 0.239193 0.802332
#
# Coordination Sequence:
#
# PCOD9220325 Si02
#       5
#     8   8   8   8   8
#     4  11  24  43  70  94 124 174 224 280 334 379
#     4  11  23  40  66  93 141 180 213 260 329 390
#     4  11  23  39  69 106 135 172 219 264 325 395
#     4  11  21  42  65  97 132 172 212 266 327 392
#     4  11  24  40  63  96 130 169 225 268 320 392
#
# _framework density 21.398358999999999
#
# number of rings (size 3 to 8) (size 9 to 14) (size 15 to 20)
#    0.000    1.000    6.000    3.000    0.000    2.800 
#    0.000    0.000    0.000    3.600    0.000    0.000 
#    0.000    0.000    0.000    0.000    0.000    0.000 
#
# Total GULP energy -111723.375724 kJ/mol
# GULP energy per Si atom -5586.168786 kJ/mol
# Density = 2.134966 g / cm^3
# Si number density = 21.398359 Si / 1000 Ang^3
#
#
#
# Elastic Constant Matrix: (Units=GPa)
#
#
# Indices 1 2 3 4 5 6 
#
# 1 83.5618 -3.7545 21.7590 0.0000 16.4786 0.0000
# 2 -3.7545 38.4332 -18.2639 0.0000 1.3298 0.0000
# 3 21.7590 -18.2639 140.2025 0.0000 5.3198 0.0000
# 4 0.0000 0.0000 0.0000 32.5847 0.0000 15.6492
# 5 16.4786 1.3298 5.3198 0.0000 32.1570 0.0000
# 6 0.0000 0.0000 0.0000 15.6492 0.0000 27.2506
#
#
#
# Elastic Compliance Matrix: (Units=1/GPa)
#
#
# Indices 1 2 3 4 5 6 
#
# 1 0.013809 0.000735 -0.001789 0.000000 -0.006811 0.000000
# 2 0.000735 0.027874 0.003598 0.000000 -0.002124 0.000000
# 3 -0.001789 0.003598 0.007899 0.000000 -0.000539 0.000000
# 4 0.000000 0.000000 0.000000 0.042377 0.000000 -0.024336
# 5 -0.006811 -0.002124 -0.000539 0.000000 0.034765 0.000000
# 6 0.000000 0.000000 0.000000 -0.024336 0.000000 0.050672
#
#
# Mechanical properties :
#
#
# Convention : Reuss Voigt Hill
#
# Bulk Modulus (GPa) = 18.29191 29.07539 23.68365
# Shear Modulus (GPa) = 26.24223 35.89557 31.06890
#
# Velocity S-wave (km/s) = 3.50575 4.10016 3.81455
# Velocity P-wave (km/s) = 4.99539 6.00269 5.52205
#
# Compressibility (1/GPa) = 0.05466899
#
# Stress axis : x y z
#
# Youngs Moduli (GPa) = 72.41576 35.87557 126.59344
#
# Poissons Ratio (x) = -0.02635 0.22648
# Poissons Ratio (y) = -0.05319 -0.45545
# Poissons Ratio (z) = 0.12955 -0.12907
#
# Static dielectric constant tensor:
#      x y z
#    x 1.826040 0.000000 -0.002130 
#    y 0.000000 1.771010 0.000000 
#    z -0.002130 0.000000 1.767950 
# 
# From -- ./inp_files/191843.got.cif
#   From: 2010.05.17/outbox.cif.g08.bks.cpg/sg12_96_cif.got.tgz:191843.got - 2010.06.03 13:09:07.
