data_PCOD9220641
_publ_section_title
;
Structure prediction by ZEFSAII (Michael W. Deem and Ramdas Pophale) SiO2 
 PCOD9220641
Probable space group: C 2/M
;
_chemical_formula_sum "Si O2"
_cell_formula_units_Z 48
_cell_length_a 27.138644
_cell_length_b 15.648851
_cell_length_c 13.813662
_cell_angle_alpha 90.000000
_cell_angle_beta 159.681073
_cell_angle_gamma 90.000000
_cell_volume 2037.117093
_symmetry_space_group_name_H-M "C 2/M"
_symmetry_group_IT_number 12
_symmetry_cell_setting 'monoclinic'
loop_
_space_group_symop_operation_xyz
x,y,z
-x,y,-z
-x,-y,-z
x,-y,z
1/2+x,1/2+y,z
1/2-x,1/2+y,-z
1/2-x,1/2-y,-z
1/2+x,1/2-y,z
loop_
_atom_site_type_symbol
_atom_site_label
_atom_site_fract_x
_atom_site_fract_y
_atom_site_fract_z
Si Si1 0.814161 0.751627 0.013149
Si Si2 0.066026 0.355365 0.516298
Si Si3 0.792710 0.906280 0.311597
Si Si4 0.708735 0.402124 0.378223
Si Si5 0.485352 0.332064 0.821042
Si Si6 0.501109 0.870449 0.822008
O O1 0.733936 0.834705 0.824311
O O2 0.754095 0.668730 0.846640
O O3 0.750000 0.750000 0.000000
O O4 0.978773 0.733318 0.337762
O O5 0.033997 0.399922 0.353849
O O6 0.000000 0.386831 0.500000
O O7 0.930007 0.881161 0.625178
O O8 0.807295 0.000000 0.293698
O O9 0.655274 0.907016 0.129513
O O10 0.674342 0.500000 0.341015
O O11 0.643208 0.340674 0.338826
O O12 0.873474 0.394343 0.657036
O O13 0.620382 0.375023 0.119953
O O14 0.513171 0.232948 0.850013
#
# Coordination Sequence:
#
# PCOD9220641 Si02
#       6
#     8   8   8   8   8   8
#     4   9  18  34  58  85 114 155 196 237 297 358
#     4   9  18  33  57  89 110 149 199 247 287 348
#     4  11  22  37  60  93 123 153 199 258 308 348
#     4  11  24  41  59  85 128 164 198 256 314 355
#     4  11  22  40  61  88 118 165 209 246 298 369
#     4  11  22  37  62  91 119 161 210 247 293 373
#
# _framework density 23.562709000000002
#
# number of rings (size 3 to 8) (size 9 to 14) (size 15 to 20)
#    0.000    1.667    1.667    4.000    2.333    2.000 
#    0.000    1.667    0.000   46.000    0.000    0.000 
#    0.000    0.000    0.000    0.000    0.000    0.000 
#
# Total GULP energy -133829.431057 kJ/mol
# GULP energy per Si atom -5576.226294 kJ/mol
# Density = 2.350908 g / cm^3
# Si number density = 23.562709 Si / 1000 Ang^3
#
#
#
# Elastic Constant Matrix: (Units=GPa)
#
#
# Indices 1 2 3 4 5 6 
#
# 1 71.6876 16.8296 -8.9629 0.0000 -0.8612 0.0000
# 2 16.8296 104.5766 2.5369 0.0000 -2.8515 0.0000
# 3 -8.9629 2.5369 77.0974 0.0000 -1.7961 0.0000
# 4 0.0000 0.0000 0.0000 -19.4795 0.0000 -7.7575
# 5 -0.8612 -2.8515 -1.7961 0.0000 36.9277 0.0000
# 6 0.0000 0.0000 0.0000 -7.7575 0.0000 -5.1225
#
#
#
# Elastic Compliance Matrix: (Units=1/GPa)
#
#
# Indices 1 2 3 4 5 6 
#
# 1 0.014743 -0.002410 0.001799 0.000000 0.000245 0.000000
# 2 -0.002410 0.009983 -0.000593 0.000000 0.000686 0.000000
# 3 0.001799 -0.000593 0.013214 0.000000 0.000639 0.000000
# 4 0.000000 0.000000 0.000000 -0.129340 0.000000 0.195874
# 5 0.000245 0.000686 0.000639 0.000000 0.027170 0.000000
# 6 0.000000 0.000000 0.000000 0.195874 0.000000 -0.491850
#
#
# Mechanical properties :
#
#
# Convention : Reuss Voigt Hill
#
# Bulk Modulus (GPa) = 28.14222 30.46319 29.30270
# Shear Modulus (GPa) = -9.22799 18.66234 4.71717
#
# Velocity S-wave (km/s) = -1.98113 2.81735 1.41644
# Velocity P-wave (km/s) = 2.59544 4.85180 3.89078
#
# Compressibility (1/GPa) = 0.03553380
#
# Stress axis : x y z
#
# Youngs Moduli (GPa) = 67.82900 100.16810 75.67656
#
# Poissons Ratio (x) = 0.24136 -0.13614
# Poissons Ratio (y) = 0.16344 0.04485
# Poissons Ratio (z) = -0.12202 0.05936
#
# Static dielectric constant tensor:
#      x y z
#    x 1.945810 0.000000 0.021840 
#    y 0.000000 1.926880 0.000000 
#    z 0.021840 0.000000 2.000550 
# 
# From -- ./inp_files/251499.got.cif
#   From: 2010.05.17/outbox.cif.g08.bks.cpg/sg12_126_cif.got.tgz:251499.got - 2010.06.03 13:09:07.
