data_PCOD9220298
_publ_section_title
;
Structure prediction by ZEFSAII (Michael W. Deem and Ramdas Pophale) SiO2 
 PCOD9220298
Probable space group: C 2/M
;
_chemical_formula_sum "Si O2"
_cell_formula_units_Z 40
_cell_length_a 15.093959
_cell_length_b 12.797851
_cell_length_c 12.734643
_cell_angle_alpha 90.000000
_cell_angle_beta 52.171464
_cell_angle_gamma 90.000000
_cell_volume 1942.993843
_symmetry_space_group_name_H-M "C 2/M"
_symmetry_group_IT_number 12
_symmetry_cell_setting 'monoclinic'
loop_
_space_group_symop_operation_xyz
x,y,z
-x,y,-z
-x,-y,-z
x,-y,z
1/2+x,1/2+y,z
1/2-x,1/2+y,-z
1/2-x,1/2-y,-z
1/2+x,1/2-y,z
loop_
_atom_site_type_symbol
_atom_site_label
_atom_site_fract_x
_atom_site_fract_y
_atom_site_fract_z
Si Si1 0.809874 0.824980 0.151162
Si Si2 0.000000 0.670767 0.000000
Si Si3 0.788519 0.000000 0.531347
Si Si4 0.122350 0.178428 0.380280
Si Si5 0.087780 0.000000 0.777898
Si Si6 0.546012 0.000000 0.793734
Si Si7 0.372410 0.500000 0.796033
Si Si8 0.702146 0.000000 0.086804
O O1 0.714009 0.764851 0.285914
O O2 0.882928 0.899401 0.173825
O O3 0.751485 0.898575 0.108408
O O4 0.895655 0.741565 0.040559
O O5 0.043362 0.599271 0.873465
O O6 0.835805 0.898405 0.557686
O O7 0.655447 0.000000 0.643073
O O8 0.832463 0.000000 0.381719
O O9 0.000000 0.220666 0.500000
O O10 0.110176 0.101297 0.288855
O O11 0.961509 0.000000 0.825972
O O12 0.430961 0.000000 0.813896
O O13 0.248056 0.500000 0.934526
#
# Coordination Sequence:
#
# PCOD9220298 Si02
#       8
#     8   4   4   8   4   4   4   4
#     4  11  25  42  62  92 133 165 206 255 312 369
#     4  11  22  43  66  94 126 167 206 257 310 372
#     4  11  21  45  65  93 125 160 211 265 306 369
#     4  11  22  42  68  93 121 160 212 261 309 369
#     4  11  24  42  64  92 126 170 207 258 307 363
#     4  11  24  40  68  94 128 162 205 264 312 358
#     4  11  21  41  69  90 122 163 212 253 305 374
#     4  11  26  42  59  96 132 166 204 255 311 372
#
# _framework density 20.586787999999999
#
# number of rings (size 3 to 8) (size 9 to 14) (size 15 to 20)
#    0.000    1.000    4.000    3.000    2.800    8.800 
#    0.000    2.000    0.000    0.000    0.000    0.000 
#    0.000    0.000    0.000    0.000    0.000    0.000 
#
# Total GULP energy -111957.155704 kJ/mol
# GULP energy per Si atom -5597.857785 kJ/mol
# Density = 2.053993 g / cm^3
# Si number density = 20.586788 Si / 1000 Ang^3
#
#
#
# Elastic Constant Matrix: (Units=GPa)
#
#
# Indices 1 2 3 4 5 6 
#
# 1 79.9554 12.2910 1.6103 0.0000 -16.4551 0.0000
# 2 12.2910 86.3193 9.8420 0.0000 -7.0569 0.0000
# 3 1.6103 9.8420 97.6458 0.0000 -23.9460 0.0000
# 4 0.0000 0.0000 0.0000 35.1716 0.0000 -25.0424
# 5 -16.4551 -7.0569 -23.9460 0.0000 41.2932 0.0000
# 6 0.0000 0.0000 0.0000 -25.0424 0.0000 16.6972
#
#
#
# Elastic Compliance Matrix: (Units=1/GPa)
#
#
# Indices 1 2 3 4 5 6 
#
# 1 0.013994 -0.001656 0.001439 0.000000 0.006128 0.000000
# 2 -0.001656 0.012000 -0.000981 0.000000 0.000822 0.000000
# 3 0.001439 -0.000981 0.012143 0.000000 0.007447 0.000000
# 4 0.000000 0.000000 0.000000 -0.418924 0.000000 -0.628303
# 5 0.006128 0.000822 0.007447 0.000000 0.031118 0.000000
# 6 0.000000 0.000000 0.000000 -0.628303 0.000000 -0.882440
#
#
# Mechanical properties :
#
#
# Convention : Reuss Voigt Hill
#
# Bulk Modulus (GPa) = 27.97891 34.60078 31.28985
# Shear Modulus (GPa) = -4.10576 34.64422 15.26923
#
# Velocity S-wave (km/s) = -1.41375 4.10669 2.72637
# Velocity P-wave (km/s) = 3.30988 6.27139 5.01426
#
# Compressibility (1/GPa) = 0.03574121
#
# Stress axis : x y z
#
# Youngs Moduli (GPa) = 71.46115 83.33569 82.35529
#
# Poissons Ratio (x) = 0.13797 -0.11850
# Poissons Ratio (y) = 0.11831 0.08075
# Poissons Ratio (z) = -0.10282 0.08171
#
# Static dielectric constant tensor:
#      x y z
#    x 1.723270 0.000000 -0.010040 
#    y 0.000000 1.721510 0.000000 
#    z -0.010040 0.000000 1.698500 
# 
# From -- ./inp_files/212408.got.cif
#   From: 2010.05.17/outbox.cif.g08.bks.cpg/sg12_107_cif.got.tgz:212408.got - 2010.06.03 13:09:07.
