data_PCOD9220803
_publ_section_title
;
Structure prediction by ZEFSAII (Michael W. Deem and Ramdas Pophale) SiO2 
 PCOD9220803
Probable space group: C 2/M
;
_chemical_formula_sum "Si O2"
_cell_formula_units_Z 38
_cell_length_a 9.076598
_cell_length_b 26.048823
_cell_length_c 8.644222
_cell_angle_alpha 90.000000
_cell_angle_beta 89.955092
_cell_angle_gamma 90.000000
_cell_volume 2043.793362
_symmetry_space_group_name_H-M "C 2/M"
_symmetry_group_IT_number 12
_symmetry_cell_setting 'monoclinic'
loop_
_space_group_symop_operation_xyz
x,y,z
-x,y,-z
-x,-y,-z
x,-y,z
1/2+x,1/2+y,z
1/2-x,1/2+y,-z
1/2-x,1/2-y,-z
1/2+x,1/2-y,z
loop_
_atom_site_type_symbol
_atom_site_label
_atom_site_fract_x
_atom_site_fract_y
_atom_site_fract_z
Si Si1 0.166100 0.270104 0.153199
Si Si2 0.056700 0.199529 0.672895
Si Si3 0.500000 0.137234 0.000000
Si Si4 0.551274 0.419686 0.755186
Si Si5 0.000000 0.000000 0.500000
Si Si6 0.255126 0.440769 0.941757
O O1 0.282551 0.278685 0.289558
O O2 0.050831 0.227820 0.207273
O O3 0.250000 0.250000 0.000000
O O4 0.083794 0.323484 0.114521
O O5 0.000000 0.208301 0.500000
O O6 0.058789 0.139484 0.710900
O O7 0.623271 0.099952 0.925768
O O8 0.575515 0.455457 0.609052
O O9 0.665500 0.431803 0.892815
O O10 0.386846 0.432445 0.818911
O O11 0.205067 0.500000 0.930861
#
# Coordination Sequence:
#
# PCOD9220803 Si02
#       6
#     8   8   4   8   2   8
#     4  12  24  43  64  93 127 172 217 260 313 385
#     4  12  25  41  64  97 130 165 209 267 324 381
#     4  12  23  38  68  92 126 163 214 266 314 362
#     4  11  22  38  68  93 122 163 212 262 309 378
#     4  12  20  42  64  94 124 162 212 258 316 364
#     4  11  22  40  63  95 122 162 216 263 308 374
#
# _framework density 18.592877000000001
#
# number of rings (size 3 to 8) (size 9 to 14) (size 15 to 20)
#    0.000    0.421    7.368    2.842    2.947    0.000 
#    0.000    0.000    0.000    1.263    0.000    0.000 
#    0.000    0.000    0.000    0.000    0.000    0.000 
#
# Total GULP energy -105910.504633 kJ/mol
# GULP energy per Si atom -5574.237086 kJ/mol
# Density = 1.855056 g / cm^3
# Si number density = 18.592877 Si / 1000 Ang^3
#
#
#
# Elastic Constant Matrix: (Units=GPa)
#
#
# Indices 1 2 3 4 5 6 
#
# 1 76.0236 34.7024 8.7442 0.0000 15.3181 0.0000
# 2 34.7024 128.1762 0.5240 0.0000 -1.1567 0.0000
# 3 8.7442 0.5240 42.5057 0.0000 17.7570 0.0000
# 4 0.0000 0.0000 0.0000 15.0630 0.0000 13.6231
# 5 15.3181 -1.1567 17.7570 0.0000 27.9467 0.0000
# 6 0.0000 0.0000 0.0000 13.6231 0.0000 20.5214
#
#
#
# Elastic Compliance Matrix: (Units=1/GPa)
#
#
# Indices 1 2 3 4 5 6 
#
# 1 0.017294 -0.004777 0.000740 0.000000 -0.010147 0.000000
# 2 -0.004777 0.009127 -0.000519 0.000000 0.003326 0.000000
# 3 0.000740 -0.000519 0.032072 0.000000 -0.020805 0.000000
# 4 0.000000 0.000000 0.000000 0.166132 0.000000 -0.110287
# 5 -0.010147 0.003326 -0.020805 0.000000 0.054701 0.000000
# 6 0.000000 0.000000 0.000000 -0.110287 0.000000 0.121944
#
#
# Mechanical properties :
#
#
# Convention : Reuss Voigt Hill
#
# Bulk Modulus (GPa) = 20.25059 37.18299 28.71679
# Shear Modulus (GPa) = 11.71395 26.22188 18.96791
#
# Velocity S-wave (km/s) = 2.51275 3.75949 3.19748
# Velocity P-wave (km/s) = 4.39702 6.23594 5.39540
#
# Compressibility (1/GPa) = 0.04938129
#
# Stress axis : x y z
#
# Youngs Moduli (GPa) = 57.82482 109.56343 31.17992
#
# Poissons Ratio (x) = 0.52335 -0.02308
# Poissons Ratio (y) = 0.27621 0.01619
# Poissons Ratio (z) = -0.04281 0.05690
#
# Static dielectric constant tensor:
#      x y z
#    x 1.653750 0.000000 0.000160 
#    y 0.000000 1.619400 0.000000 
#    z 0.000160 0.000000 1.640930 
# 
# From -- ./inp_files/39390.got.cif
#   From: 2010.05.17/outbox.cif.g08.bks.cpg/sg12_20_cif.got.tgz:39390.got - 2010.06.03 13:09:07.
