data_PCOD9220793
_publ_section_title
;
Structure prediction by ZEFSAII (Michael W. Deem and Ramdas Pophale) SiO2 
 PCOD9220793
Probable space group: C 2/M
;
_chemical_formula_sum "Si O2"
_cell_formula_units_Z 44
_cell_length_a 24.060355
_cell_length_b 13.365480
_cell_length_c 15.478912
_cell_angle_alpha 90.000000
_cell_angle_beta 156.127449
_cell_angle_gamma 90.000000
_cell_volume 2014.484962
_symmetry_space_group_name_H-M "C 2/M"
_symmetry_group_IT_number 12
_symmetry_cell_setting 'monoclinic'
loop_
_space_group_symop_operation_xyz
x,y,z
-x,y,-z
-x,-y,-z
x,-y,z
1/2+x,1/2+y,z
1/2-x,1/2+y,-z
1/2-x,1/2-y,-z
1/2+x,1/2-y,z
loop_
_atom_site_type_symbol
_atom_site_label
_atom_site_fract_x
_atom_site_fract_y
_atom_site_fract_z
Si Si1 0.791638 0.780333 0.676770
Si Si2 0.662897 0.500000 0.248436
Si Si3 0.500000 0.822404 0.500000
Si Si4 0.251411 0.798406 0.808300
Si Si5 0.591870 0.500000 0.543940
Si Si6 0.981397 0.783195 0.797701
Si Si7 0.916974 0.000000 0.117076
Si Si8 0.852686 0.500000 0.355575
O O1 0.789128 0.767052 0.776127
O O2 0.924033 0.747431 0.809811
O O3 0.654691 0.726213 0.452525
O O4 0.789998 0.896305 0.644360
O O5 0.741658 0.500000 0.270877
O O6 0.500000 0.500000 0.000000
O O7 0.367111 0.752832 0.302463
O O8 0.448440 0.902690 0.497154
O O9 0.189700 0.902632 0.688315
O O10 0.398206 0.791160 0.063174
O O11 0.500000 0.500000 0.500000
O O12 0.491386 0.500000 0.317129
O O13 0.034565 0.897294 0.861044
O O14 0.749025 0.000000 0.873518
#
# Coordination Sequence:
#
# PCOD9220793 Si02
#       8
#     8   4   4   8   4   8   4   4
#     4  11  23  41  66 101 133 173 219 282 334 403
#     4  12  21  38  70  98 137 167 218 282 352 384
#     4  11  22  39  66  92 138 163 222 275 328 382
#     4  12  23  46  66  95 138 180 225 275 339 395
#     4  12  28  46  64  92 138 188 225 265 334 414
#     4  11  24  41  71  99 134 172 226 273 342 404
#     4  12  21  46  69  99 131 177 229 272 334 413
#     4  11  22  38  66 106 123 168 221 287 334 388
#
# _framework density 21.841812000000001
#
# number of rings (size 3 to 8) (size 9 to 14) (size 15 to 20)
#    0.000    0.545    6.364    3.273    0.000    0.727 
#    3.273    5.455    0.000    0.000    0.000    0.000 
#    0.000    0.000    0.000    0.000    0.000    0.000 
#
# Total GULP energy -122587.437416 kJ/mol
# GULP energy per Si atom -5572.156246 kJ/mol
# Density = 2.179210 g / cm^3
# Si number density = 21.841812 Si / 1000 Ang^3
#
#
#
# Elastic Constant Matrix: (Units=GPa)
#
#
# Indices 1 2 3 4 5 6 
#
# 1 78.0876 10.6312 52.2875 0.0000 23.0111 0.0000
# 2 10.6312 103.4092 44.6482 0.0000 14.6208 0.0000
# 3 52.2875 44.6482 132.0122 0.0000 37.2550 0.0000
# 4 0.0000 0.0000 0.0000 26.5521 0.0000 1.9512
# 5 23.0111 14.6208 37.2550 0.0000 44.7839 0.0000
# 6 0.0000 0.0000 0.0000 1.9512 0.0000 25.7126
#
#
#
# Elastic Compliance Matrix: (Units=1/GPa)
#
#
# Indices 1 2 3 4 5 6 
#
# 1 0.018267 0.001562 -0.006496 0.000000 -0.004492 0.000000
# 2 0.001562 0.011473 -0.004202 0.000000 -0.001053 0.000000
# 3 -0.006496 -0.004202 0.013381 0.000000 -0.006422 0.000000
# 4 0.000000 0.000000 0.000000 0.037873 0.000000 -0.002874
# 5 -0.004492 -0.001053 -0.006422 0.000000 0.030324 0.000000
# 6 0.000000 0.000000 0.000000 -0.002874 0.000000 0.039110
#
#
# Mechanical properties :
#
#
# Convention : Reuss Voigt Hill
#
# Bulk Modulus (GPa) = 40.24191 58.73808 49.49000
# Shear Modulus (GPa) = 28.25149 33.13919 30.69534
#
# Velocity S-wave (km/s) = 3.60037 3.89940 3.75286
# Velocity P-wave (km/s) = 5.97895 6.87202 6.44098
#
# Compressibility (1/GPa) = 0.02484972
#
# Stress axis : x y z
#
# Youngs Moduli (GPa) = 54.74438 87.16310 74.73090
#
# Poissons Ratio (x) = -0.13613 0.48542
# Poissons Ratio (y) = -0.08550 0.31400
# Poissons Ratio (z) = 0.35560 0.36624
#
# Static dielectric constant tensor:
#      x y z
#    x 1.892860 0.000000 -0.030560 
#    y 0.000000 1.805540 0.000000 
#    z -0.030560 0.000000 1.848050 
# 
# From -- ./inp_files/293659.got.cif
#   From: 2010.05.17/outbox.cif.g08.bks.cpg/sg12_147_cif.got.tgz:293659.got - 2010.06.03 13:09:07.
