data_PCOD9220862
_publ_section_title
;
Structure prediction by ZEFSAII (Michael W. Deem and Ramdas Pophale) SiO2 
 PCOD9220862
Probable space group: C 2/M
;
_chemical_formula_sum "Si O2"
_cell_formula_units_Z 48
_cell_length_a 19.571789
_cell_length_b 8.516730
_cell_length_c 30.980433
_cell_angle_alpha 90.000000
_cell_angle_beta 28.392158
_cell_angle_gamma 90.000000
_cell_volume 2455.527981
_symmetry_space_group_name_H-M "C 2/M"
_symmetry_group_IT_number 12
_symmetry_cell_setting 'monoclinic'
loop_
_space_group_symop_operation_xyz
x,y,z
-x,y,-z
-x,-y,-z
x,-y,z
1/2+x,1/2+y,z
1/2-x,1/2+y,-z
1/2-x,1/2-y,-z
1/2+x,1/2-y,z
loop_
_atom_site_type_symbol
_atom_site_label
_atom_site_fract_x
_atom_site_fract_y
_atom_site_fract_z
Si Si1 0.166346 0.691788 0.913311
Si Si2 0.665020 0.821425 0.422283
Si Si3 0.315292 0.686579 0.919310
Si Si4 0.626559 0.185166 0.762956
Si Si5 0.306081 0.691496 0.745757
Si Si6 0.375132 0.688315 0.460873
O O1 0.167945 0.500000 0.912841
O O2 0.235820 0.745531 0.919957
O O3 0.256996 0.741493 0.820743
O O4 0.000000 0.739344 0.000000
O O5 0.500000 0.825997 0.500000
O O6 0.753113 0.718131 0.339671
O O7 0.662963 0.750971 0.470850
O O8 0.722358 0.000000 0.390288
O O9 0.299052 0.500000 0.928296
O O10 0.482170 0.731270 0.828072
O O11 0.250000 0.750000 0.000000
O O12 0.691469 0.240778 0.772805
O O13 0.597460 0.000000 0.782971
O O14 0.306433 0.500000 0.745200
O O15 0.466245 0.742413 0.642953
O O16 0.377412 0.500000 0.459815
O O17 0.250000 0.750000 0.500000
#
# Coordination Sequence:
#
# PCOD9220862 Si02
#       6
#     8   8   8   8   8   8
#     4   9  18  35  60  87 115 152 197 242 294 362
#     4  11  23  40  62  89 124 165 211 258 306 365
#     4  11  23  39  63  92 123 156 199 253 309 370
#     4  11  22  39  64  91 122 159 204 254 308 371
#     4   9  19  36  59  86 117 157 202 248 302 365
#     4  11  23  39  60  88 124 164 209 258 310 370
#
# _framework density 19.547730999999999
#
# number of rings (size 3 to 8) (size 9 to 14) (size 15 to 20)
#    0.000    1.667    1.667    3.000    2.333    3.333 
#    0.000    0.000    0.000   11.000    0.000    0.000 
#    0.000    0.000    0.000    0.000    0.000    0.000 
#
# Total GULP energy -134062.687877 kJ/mol
# GULP energy per Si atom -5585.945328 kJ/mol
# Density = 1.950324 g / cm^3
# Si number density = 19.547731 Si / 1000 Ang^3
#
#
#
# Elastic Constant Matrix: (Units=GPa)
#
#
# Indices 1 2 3 4 5 6 
#
# 1 203.8000 21.5151 64.9463 0.0006 8.3512 -0.0034
# 2 21.5151 21.8914 -13.0730 0.0018 -1.9184 0.0016
# 3 64.9463 -13.0730 71.5622 -0.0016 5.4109 0.0032
# 4 0.0006 0.0018 -0.0016 24.8175 -0.0001 -0.5027
# 5 8.3512 -1.9184 5.4109 -0.0001 38.4718 0.0003
# 6 -0.0034 0.0016 0.0032 -0.5027 0.0003 26.2328
#
#
#
# Elastic Compliance Matrix: (Units=1/GPa)
#
#
# Indices 1 2 3 4 5 6 
#
# 1 0.011486 -0.019731 -0.013914 0.000000 -0.001520 0.000004
# 2 -0.019731 0.085227 0.033184 -0.000004 0.003866 -0.000012
# 3 -0.013914 0.033184 0.032657 0.000000 0.000082 -0.000008
# 4 0.000000 -0.000004 0.000000 0.040310 0.000000 0.000772
# 5 -0.001520 0.003866 0.000082 0.000000 0.026504 -0.000001
# 6 0.000004 -0.000012 -0.000008 0.000772 -0.000001 0.038135
#
#
# Mechanical properties :
#
#
# Convention : Reuss Voigt Hill
#
# Bulk Modulus (GPa) = 7.78522 49.33671 28.56097
# Shear Modulus (GPa) = 17.98197 32.82875 25.40536
#
# Velocity S-wave (km/s) = 3.03628 4.10251 3.60899
# Velocity P-wave (km/s) = 4.03526 6.90903 5.65765
#
# Compressibility (1/GPa) = 0.12844851
#
# Stress axis : x y z
#
# Youngs Moduli (GPa) = 87.06291 11.73339 30.62141
#
# Poissons Ratio (x) = 0.23151 0.42605
# Poissons Ratio (y) = 1.71781 -1.01613
# Poissons Ratio (z) = 1.21135 -0.38936
#
# Static dielectric constant tensor:
#      x y z
#    x 2.292210 0.000020 -0.421050 
#    y 0.000020 1.686780 -0.000020 
#    z -0.421050 -0.000020 1.919730 
# 
# From -- ./inp_files/244834.got.cif
#   From: 2010.05.17/outbox.cif.g08.bks.cpg/sg12_123_cif.got.tgz:244834.got - 2010.06.03 13:09:07.
