data_PCOD9220987
_publ_section_title
;
Structure prediction by ZEFSAII (Michael W. Deem and Ramdas Pophale) SiO2 
 PCOD9220987
Probable space group: C 2/M
;
_chemical_formula_sum "Si O2"
_cell_formula_units_Z 56
_cell_length_a 9.293172
_cell_length_b 24.047898
_cell_length_c 12.735079
_cell_angle_alpha 90.000000
_cell_angle_beta 116.547976
_cell_angle_gamma 90.000000
_cell_volume 2545.964965
_symmetry_space_group_name_H-M "C 2/M"
_symmetry_group_IT_number 12
_symmetry_cell_setting 'monoclinic'
loop_
_space_group_symop_operation_xyz
x,y,z
-x,y,-z
-x,-y,-z
x,-y,z
1/2+x,1/2+y,z
1/2-x,1/2+y,-z
1/2-x,1/2-y,-z
1/2+x,1/2-y,z
loop_
_atom_site_type_symbol
_atom_site_label
_atom_site_fract_x
_atom_site_fract_y
_atom_site_fract_z
Si Si1 0.635561 0.659716 0.958715
Si Si2 0.294562 0.227708 0.704071
Si Si3 0.714251 0.611309 0.635163
Si Si4 0.143630 0.277101 0.847812
Si Si5 0.686769 0.174261 0.547861
Si Si6 0.615605 0.000000 0.374825
Si Si7 0.740774 0.000000 0.657370
Si Si8 0.963583 0.896348 0.720445
O O1 0.620405 0.723193 0.912750
O O2 0.596883 0.618235 0.851218
O O3 0.500000 0.647756 0.000000
O O4 0.807289 0.667188 0.074109
O O5 0.242534 0.165571 0.717030
O O6 0.276330 0.261228 0.806072
O O7 0.478234 0.220022 0.729427
O O8 0.193467 0.260578 0.582935
O O9 0.750120 0.645110 0.538370
O O10 0.822421 0.556195 0.661787
O O11 0.545484 0.592471 0.632835
O O12 0.500000 0.155921 0.500000
O O13 0.830959 0.152489 0.670124
O O14 0.691930 0.000000 0.517575
O O15 0.424335 0.000000 0.331146
O O16 0.852861 0.052310 0.715031
#
# Coordination Sequence:
#
# PCOD9220987 Si02
#       8
#     8   8   8   8   8   4   4   8
#     4  11  22  41  67  96 134 173 230 281 342 410
#     4  12  23  43  65 102 141 187 222 280 346 406
#     4  12  25  41  67 101 140 178 236 281 337 407
#     4  11  22  40  66  97 137 178 228 279 337 410
#     4  12  24  40  62  96 148 191 222 270 333 422
#     4  11  25  47  71 100 132 185 237 282 338 408
#     4  11  25  47  74  96 134 181 238 286 341 408
#     4  12  24  44  70 103 133 184 234 291 341 405
#
# _framework density 21.99559
#
# number of rings (size 3 to 8) (size 9 to 14) (size 15 to 20)
#    0.000    0.429    5.714    3.000    0.000    2.857 
#    0.000    0.357    0.000    0.857    0.000    3.000 
#    0.000    0.000    0.000    0.000    0.000    0.000 
#
# Total GULP energy -155902.004711 kJ/mol
# GULP energy per Si atom -5567.928740 kJ/mol
# Density = 2.194553 g / cm^3
# Si number density = 21.995590 Si / 1000 Ang^3
#
#
#
# Elastic Constant Matrix: (Units=GPa)
#
#
# Indices 1 2 3 4 5 6 
#
# 1 152.5049 49.4404 44.0851 0.0000 -0.2322 0.0000
# 2 49.4404 111.8874 21.6699 0.0000 0.4839 0.0000
# 3 44.0851 21.6699 73.2638 0.0000 -5.0129 0.0000
# 4 0.0000 0.0000 0.0000 19.0962 0.0000 7.6972
# 5 -0.2322 0.4839 -5.0129 0.0000 37.4744 0.0000
# 6 0.0000 0.0000 0.0000 7.6972 0.0000 33.4309
#
#
#
# Elastic Compliance Matrix: (Units=1/GPa)
#
#
# Indices 1 2 3 4 5 6 
#
# 1 0.008826 -0.003037 -0.004447 0.000000 -0.000501 0.000000
# 2 -0.003037 0.010535 -0.001311 0.000000 -0.000330 0.000000
# 3 -0.004447 -0.001311 0.016867 0.000000 0.002246 0.000000
# 4 0.000000 0.000000 0.000000 0.057724 0.000000 -0.013290
# 5 -0.000501 -0.000330 0.002246 0.000000 0.026986 0.000000
# 6 0.000000 0.000000 0.000000 -0.013290 0.000000 0.032972
#
#
# Mechanical properties :
#
#
# Convention : Reuss Voigt Hill
#
# Bulk Modulus (GPa) = 53.65490 63.11635 58.38563
# Shear Modulus (GPa) = 28.13515 32.83101 30.48308
#
# Velocity S-wave (km/s) = 3.58037 3.86763 3.72677
# Velocity P-wave (km/s) = 6.44504 6.97869 6.71716
#
# Compressibility (1/GPa) = 0.01863763
#
# Stress axis : x y z
#
# Youngs Moduli (GPa) = 113.29587 94.92344 59.28793
#
# Poissons Ratio (x) = 0.28826 0.26367
# Poissons Ratio (y) = 0.34405 0.07774
# Poissons Ratio (z) = 0.50385 0.12447
#
# Static dielectric constant tensor:
#      x y z
#    x 1.859220 0.000000 0.018930 
#    y 0.000000 1.958550 0.000000 
#    z 0.018930 0.000000 1.981460 
# 
# From -- ./inp_files/199015.got.cif
#   From: 2010.05.17/outbox.cif.g08.bks.cpg/sg12_100_cif.got.tgz:199015.got - 2010.06.03 13:09:07.
