data_PCOD9220848
_publ_section_title
;
Structure prediction by ZEFSAII (Michael W. Deem and Ramdas Pophale) SiO2 
 PCOD9220848
Probable space group: C 2/M
;
_chemical_formula_sum "Si O2"
_cell_formula_units_Z 44
_cell_length_a 24.257018
_cell_length_b 19.349430
_cell_length_c 8.500866
_cell_angle_alpha 90.000000
_cell_angle_beta 38.433328
_cell_angle_gamma 90.000000
_cell_volume 2480.174475
_symmetry_space_group_name_H-M "C 2/M"
_symmetry_group_IT_number 12
_symmetry_cell_setting 'monoclinic'
loop_
_space_group_symop_operation_xyz
x,y,z
-x,y,-z
-x,-y,-z
x,-y,z
1/2+x,1/2+y,z
1/2-x,1/2+y,-z
1/2-x,1/2-y,-z
1/2+x,1/2-y,z
loop_
_atom_site_type_symbol
_atom_site_label
_atom_site_fract_x
_atom_site_fract_y
_atom_site_fract_z
Si Si1 0.000000 0.259056 0.500000
Si Si2 0.363250 0.420298 0.511682
Si Si3 0.698456 0.420663 0.987746
Si Si4 0.324213 0.204835 0.740846
Si Si5 0.825400 0.208912 0.425840
Si Si6 0.949917 0.152197 0.884873
O O1 0.912263 0.300582 0.648501
O O2 0.976469 0.208541 0.696047
O O3 0.354583 0.500000 0.482689
O O4 0.340800 0.415095 0.747214
O O5 0.302898 0.366811 0.548332
O O6 0.463974 0.393209 0.267557
O O7 0.722681 0.500000 0.906142
O O8 0.624259 0.396002 0.030456
O O9 0.779529 0.367640 0.799416
O O10 0.347643 0.245509 0.528721
O O11 0.250000 0.250000 0.000000
O O12 0.750000 0.250000 0.500000
O O13 0.904868 0.192692 0.128911
#
# Coordination Sequence:
#
# PCOD9220848 Si02
#       6
#     4   8   8   8   8   8
#     4  12  22  36  66  88 116 162 198 262 296 360
#     4  11  23  38  58  91 127 159 199 248 310 378
#     4  11  22  39  63  86 121 166 203 246 307 368
#     4  12  21  42  60  87 123 159 209 253 300 358
#     4  12  23  36  58  86 123 163 201 243 295 369
#     4  12  20  36  60  90 124 153 197 243 317 366
#
# _framework density 17.740687000000001
#
# number of rings (size 3 to 8) (size 9 to 14) (size 15 to 20)
#    0.000    0.364    9.091    1.091    0.000    3.636 
#    0.000    0.455    0.000    0.000    0.000    1.273 
#    0.000    0.000    0.000    0.000    0.000    0.000 
#
# Total GULP energy -122901.448260 kJ/mol
# GULP energy per Si atom -5586.429466 kJ/mol
# Density = 1.770031 g / cm^3
# Si number density = 17.740687 Si / 1000 Ang^3
#
#
#
# Elastic Constant Matrix: (Units=GPa)
#
#
# Indices 1 2 3 4 5 6 
#
# 1 105.5318 59.6726 25.6092 0.0000 -14.1220 0.0000
# 2 59.6726 147.8382 48.6189 0.0000 -14.0496 0.0000
# 3 25.6092 48.6189 80.0982 0.0000 17.8453 0.0000
# 4 0.0000 0.0000 0.0000 31.6017 0.0000 -0.2494
# 5 -14.1220 -14.0496 17.8453 0.0000 34.6354 0.0000
# 6 0.0000 0.0000 0.0000 -0.2494 0.0000 28.2996
#
#
#
# Elastic Compliance Matrix: (Units=1/GPa)
#
#
# Indices 1 2 3 4 5 6 
#
# 1 0.013070 -0.003734 -0.003120 0.000000 0.005422 0.000000
# 2 -0.003734 0.011257 -0.007136 0.000000 0.006721 0.000000
# 3 -0.003120 -0.007136 0.021173 0.000000 -0.015076 0.000000
# 4 0.000000 0.000000 0.000000 0.031646 0.000000 0.000279
# 5 0.005422 0.006721 -0.015076 0.000000 0.041577 0.000000
# 6 0.000000 0.000000 0.000000 0.000279 0.000000 0.035339
#
#
# Mechanical properties :
#
#
# Convention : Reuss Voigt Hill
#
# Bulk Modulus (GPa) = 57.08250 66.80772 61.94511
# Shear Modulus (GPa) = 26.61250 32.21185 29.41218
#
# Velocity S-wave (km/s) = 3.87729 4.26573 4.07614
# Velocity P-wave (km/s) = 7.23121 7.87411 7.55950
#
# Compressibility (1/GPa) = 0.01751851
#
# Stress axis : x y z
#
# Youngs Moduli (GPa) = 76.51128 88.83418 47.23055
#
# Poissons Ratio (x) = 0.33172 0.14737
# Poissons Ratio (y) = 0.28570 0.33705
# Poissons Ratio (z) = 0.23873 0.63395
#
# Static dielectric constant tensor:
#      x y z
#    x 1.642740 0.000000 0.016780 
#    y 0.000000 1.595020 0.000000 
#    z 0.016780 0.000000 1.614150 
# 
# From -- ./inp_files/61287.got.cif
#   From: 2010.05.17/outbox.cif.g08.bks.cpg/sg12_31_cif.got.tgz:61287.got - 2010.06.03 13:09:07.
