data_PCOD9220255
_publ_section_title
;
Structure prediction by ZEFSAII (Michael W. Deem and Ramdas Pophale) SiO2 
 PCOD9220255
Probable space group: C 2/M
;
_chemical_formula_sum "Si O2"
_cell_formula_units_Z 56
_cell_length_a 15.011150
_cell_length_b 19.258176
_cell_length_c 12.199645
_cell_angle_alpha 90.000000
_cell_angle_beta 54.060237
_cell_angle_gamma 90.000000
_cell_volume 2855.389238
_symmetry_space_group_name_H-M "C 2/M"
_symmetry_group_IT_number 12
_symmetry_cell_setting 'monoclinic'
loop_
_space_group_symop_operation_xyz
x,y,z
-x,y,-z
-x,-y,-z
x,-y,z
1/2+x,1/2+y,z
1/2-x,1/2+y,-z
1/2-x,1/2-y,-z
1/2+x,1/2-y,z
loop_
_atom_site_type_symbol
_atom_site_label
_atom_site_fract_x
_atom_site_fract_y
_atom_site_fract_z
Si Si1 0.970384 0.670059 0.739811
Si Si2 0.417276 0.323246 0.831935
Si Si3 0.123481 0.916541 0.738155
Si Si4 0.780426 0.668852 0.463729
Si Si5 0.752573 0.174102 0.766352
Si Si6 0.774044 0.171868 0.150500
Si Si7 0.402615 0.075490 0.984561
O O1 0.968441 0.745905 0.799198
O O2 0.858316 0.664658 0.750663
O O3 0.952985 0.611669 0.842927
O O4 0.090276 0.661508 0.601690
O O5 0.505724 0.381782 0.796139
O O6 0.370763 0.327628 0.741502
O O7 0.319822 0.326269 0.992973
O O8 0.208013 0.881377 0.591189
O O9 0.164022 0.887108 0.826267
O O10 0.121845 0.000000 0.735122
O O11 0.750000 0.750000 0.500000
O O12 0.756470 0.652958 0.353140
O O13 0.705229 0.252192 0.812752
O O14 0.683653 0.123690 0.892879
O O15 0.355292 0.000000 0.991627
O O16 0.500000 0.068410 0.000000
#
# Coordination Sequence:
#
# PCOD9220255 Si02
#       7
#     8   8   8   8   8   8   8
#     4  11  21  40  70 100 130 166 224 272 330 393
#     4  11  22  41  72 103 126 170 222 281 330 393
#     4  12  29  47  63  96 140 183 226 271 330 401
#     4  12  24  43  69  94 130 186 221 263 322 400
#     4  11  21  40  70 100 130 166 224 272 330 393
#     4  11  22  41  72 103 126 170 222 281 330 393
#     4  11  22  35  60  99 131 162 205 274 346 389
#
# _framework density 19.612037000000001
#
# number of rings (size 3 to 8) (size 9 to 14) (size 15 to 20)
#    0.000    0.714    7.143    1.286    0.000    4.571 
#    0.000    1.429    0.000    0.000    0.000    0.000 
#    0.000    0.000    0.000    0.000    0.000    0.000 
#
# Total GULP energy -156352.250543 kJ/mol
# GULP energy per Si atom -5584.008948 kJ/mol
# Density = 1.956740 g / cm^3
# Si number density = 19.612037 Si / 1000 Ang^3
#
#
#
# Elastic Constant Matrix: (Units=GPa)
#
#
# Indices 1 2 3 4 5 6 
#
# 1 81.9651 28.6814 12.6482 0.0000 -14.3554 0.0000
# 2 28.6814 116.5047 4.9454 0.0000 -6.1541 0.0000
# 3 12.6482 4.9454 57.9981 0.0000 -14.1088 0.0000
# 4 0.0000 0.0000 0.0000 27.7071 0.0000 3.4777
# 5 -14.3554 -6.1541 -14.1088 0.0000 21.7739 0.0000
# 6 0.0000 0.0000 0.0000 3.4777 0.0000 15.0216
#
#
#
# Elastic Compliance Matrix: (Units=1/GPa)
#
#
# Indices 1 2 3 4 5 6 
#
# 1 0.014922 -0.003194 -0.000959 0.000000 0.008314 0.000000
# 2 -0.003194 0.009398 0.000035 0.000000 0.000573 0.000000
# 3 -0.000959 0.000035 0.020533 0.000000 0.012682 0.000000
# 4 0.000000 0.000000 0.000000 0.037172 0.000000 -0.008606
# 5 0.008314 0.000573 0.012682 0.000000 0.059787 0.000000
# 6 0.000000 0.000000 0.000000 -0.008606 0.000000 0.068563
#
#
# Mechanical properties :
#
#
# Convention : Reuss Voigt Hill
#
# Bulk Modulus (GPa) = 27.31010 38.77975 33.04493
# Shear Modulus (GPa) = 21.66204 26.91340 24.28772
#
# Velocity S-wave (km/s) = 3.32705 3.70846 3.52292
# Velocity P-wave (km/s) = 5.35858 6.17684 5.78220
#
# Compressibility (1/GPa) = 0.03661649
#
# Stress axis : x y z
#
# Youngs Moduli (GPa) = 67.01548 106.40141 48.70128
#
# Poissons Ratio (x) = 0.33981 0.04673
# Poissons Ratio (y) = 0.21402 -0.00168
# Poissons Ratio (z) = 0.06430 -0.00367
#
# Static dielectric constant tensor:
#      x y z
#    x 1.768400 0.000000 0.002340 
#    y 0.000000 1.703790 0.000000 
#    z 0.002340 0.000000 1.671240 
# 
# From -- ./inp_files/146040.got.cif
#   From: 2010.05.17/outbox.cif.g08.bks.cpg/sg12_74_cif.got.tgz:146040.got - 2010.06.03 13:09:07.
