data_PCOD9220153
_publ_section_title
;
Structure prediction by ZEFSAII (Michael W. Deem and Ramdas Pophale) SiO2 
 PCOD9220153
Probable space group: C 2/M
;
_chemical_formula_sum "Si O2"
_cell_formula_units_Z 56
_cell_length_a 14.822821
_cell_length_b 17.378344
_cell_length_c 21.976868
_cell_angle_alpha 90.000000
_cell_angle_beta 151.524012
_cell_angle_gamma 90.000000
_cell_volume 2699.184497
_symmetry_space_group_name_H-M "C 2/M"
_symmetry_group_IT_number 12
_symmetry_cell_setting 'monoclinic'
loop_
_space_group_symop_operation_xyz
x,y,z
-x,y,-z
-x,-y,-z
x,-y,z
1/2+x,1/2+y,z
1/2-x,1/2+y,-z
1/2-x,1/2-y,-z
1/2+x,1/2-y,z
loop_
_atom_site_type_symbol
_atom_site_label
_atom_site_fract_x
_atom_site_fract_y
_atom_site_fract_z
Si Si1 0.187962 0.179276 0.368361
Si Si2 0.940439 0.413956 0.605908
Si Si3 0.691675 0.588205 0.828668
Si Si4 0.408298 0.689306 0.011907
Si Si5 0.036341 0.655725 0.252626
Si Si6 0.473792 0.863535 0.890291
Si Si7 0.816011 0.088375 0.753000
O O1 0.323767 0.152519 0.503002
O O2 0.164367 0.269162 0.341205
O O3 0.253004 0.136435 0.345649
O O4 0.982497 0.143704 0.261576
O O5 0.871374 0.500000 0.548181
O O6 0.934516 0.401628 0.674256
O O7 0.155206 0.408431 0.709221
O O8 0.630899 0.500000 0.785711
O O9 0.803458 0.615769 0.834756
O O10 0.843429 0.594150 0.973423
O O11 0.183037 0.683088 0.876242
O O12 0.500000 0.677503 0.000000
O O13 0.475695 0.773067 0.074138
O O14 0.495375 0.626842 0.109091
O O15 0.069728 0.621143 0.205677
O O16 0.846758 0.000000 0.753845
#
# Coordination Sequence:
#
# PCOD9220153 Si02
#       7
#     8   8   8   8   8   8   8
#     4  12  23  43  67  90 125 169 218 261 305 375
#     4  11  26  44  63  92 131 169 212 264 314 373
#     4  11  23  39  65  94 125 166 212 259 314 371
#     4  12  20  39  66  91 133 160 197 266 321 375
#     4  12  24  40  66  96 125 168 209 257 322 380
#     4  11  21  39  63  92 128 160 207 261 314 370
#     4  11  24  41  66  96 126 167 212 260 322 375
#
# _framework density 20.747008000000001
#
# number of rings (size 3 to 8) (size 9 to 14) (size 15 to 20)
#    0.000    0.571    5.714    4.286    0.000    3.143 
#    0.000    0.714    0.000    1.714    0.000    0.000 
#    0.000    0.000    0.000    0.000    0.000    0.000 
#
# Total GULP energy -156689.680003 kJ/mol
# GULP energy per Si atom -5596.060000 kJ/mol
# Density = 2.069979 g / cm^3
# Si number density = 20.747008 Si / 1000 Ang^3
#
#
#
# Elastic Constant Matrix: (Units=GPa)
#
#
# Indices 1 2 3 4 5 6 
#
# 1 83.9223 13.7464 18.0205 -0.0020 -30.4339 -0.0007
# 2 13.7464 60.9404 10.4865 -0.0019 3.2749 -0.0004
# 3 18.0205 10.4865 62.3273 -0.0016 -18.7991 -0.0007
# 4 -0.0020 -0.0019 -0.0016 22.5742 -0.0002 1.4134
# 5 -30.4339 3.2749 -18.7991 -0.0002 33.4496 -0.0001
# 6 -0.0007 -0.0004 -0.0007 1.4134 -0.0001 16.6142
#
#
#
# Elastic Compliance Matrix: (Units=1/GPa)
#
#
# Indices 1 2 3 4 5 6 
#
# 1 0.019420 -0.005558 0.000980 0.000001 0.018764 0.000001
# 2 -0.005558 0.018926 -0.004409 0.000001 -0.009387 0.000000
# 3 0.000980 -0.004409 0.020352 0.000001 0.012761 0.000001
# 4 0.000001 0.000001 0.000001 0.044536 0.000002 -0.003789
# 5 0.018764 -0.009387 0.012761 0.000002 0.055059 0.000001
# 6 0.000001 0.000000 0.000001 -0.003789 0.000001 0.060512
#
#
# Mechanical properties :
#
#
# Convention : Reuss Voigt Hill
#
# Bulk Modulus (GPa) = 24.55494 32.41075 28.48284
# Shear Modulus (GPa) = 19.97174 25.52338 22.74756
#
# Velocity S-wave (km/s) = 3.10600 3.51125 3.31482
# Velocity P-wave (km/s) = 4.97233 5.66519 5.33003
#
# Compressibility (1/GPa) = 0.04072501
#
# Stress axis : x y z
#
# Youngs Moduli (GPa) = 51.49202 52.83664 49.13565
#
# Poissons Ratio (x) = 0.29365 -0.04814
# Poissons Ratio (y) = 0.28618 0.21663
# Poissons Ratio (z) = -0.05045 0.23295
#
# Static dielectric constant tensor:
#      x y z
#    x 1.741710 0.000000 -0.008240 
#    y 0.000000 1.711810 0.000000 
#    z -0.008240 0.000000 1.724300 
# 
# From -- ./inp_files/146059.got.cif
#   From: 2010.05.17/outbox.cif.g08.bks.cpg/sg12_74_cif.got.tgz:146059.got - 2010.06.03 13:09:07.
