data_PCOD9220685
_publ_section_title
;
Structure prediction by ZEFSAII (Michael W. Deem and Ramdas Pophale) SiO2 
 PCOD9220685
Probable space group: C 2/M
;
_chemical_formula_sum "Si O2"
_cell_formula_units_Z 64
_cell_length_a 14.837265
_cell_length_b 7.908851
_cell_length_c 29.427869
_cell_angle_alpha 90.000000
_cell_angle_beta 115.874620
_cell_angle_gamma 90.000000
_cell_volume 3107.051740
_symmetry_space_group_name_H-M "C 2/M"
_symmetry_group_IT_number 12
_symmetry_cell_setting 'monoclinic'
loop_
_space_group_symop_operation_xyz
x,y,z
-x,y,-z
-x,-y,-z
x,-y,z
1/2+x,1/2+y,z
1/2-x,1/2+y,-z
1/2-x,1/2-y,-z
1/2+x,1/2-y,z
loop_
_atom_site_type_symbol
_atom_site_label
_atom_site_fract_x
_atom_site_fract_y
_atom_site_fract_z
Si Si1 0.044671 0.696711 0.877952
Si Si2 0.250240 0.196423 0.904596
Si Si3 0.195377 0.293032 0.719121
Si Si4 0.404866 0.793921 0.009800
Si Si5 0.730673 0.703103 0.362912
Si Si6 0.446151 0.793132 0.442391
Si Si7 0.519553 0.203069 0.360194
Si Si8 0.168409 0.196383 0.169343
O O1 0.019593 0.500000 0.876795
O O2 0.145000 0.716651 0.871124
O O3 0.945443 0.786561 0.838901
O O4 0.076502 0.763852 0.934915
O O5 0.306892 0.268381 0.961369
O O6 0.321788 0.213751 0.876970
O O7 0.229889 0.000000 0.907970
O O8 0.197179 0.500000 0.720374
O O9 0.252068 0.239707 0.685339
O O10 0.254250 0.234612 0.776516
O O11 0.079533 0.239325 0.689113
O O12 0.399196 0.000000 0.009301
O O13 0.500000 0.747964 0.000000
O O14 0.734689 0.500000 0.362882
O O15 0.829972 0.760192 0.412143
O O16 0.625213 0.750661 0.361579
O O17 0.500000 0.734698 0.500000
O O18 0.503028 0.739569 0.408726
O O19 0.446996 0.000000 0.443108
O O20 0.514568 0.000000 0.360052
O O21 0.190577 0.000000 0.166238
#
# Coordination Sequence:
#
# PCOD9220685 Si02
#       8
#     8   8   8   8   8   8   8   8
#     4  11  22  38  58  81 109 139 173 212 260 314
#     4  11  22  38  58  81 109 139 173 212 260 314
#     4   8  18  36  54  71  99 137 173 211 255 310
#     4   9  17  34  58  79 104 138 170 209 256 309
#     4   9  17  32  53  75 100 134 174 213 254 301
#     4   8  15  29  49  73 104 141 174 203 247 308
#     4   9  17  32  53  75 100 134 174 213 254 301
#     4  11  22  38  57  79 106 137 176 220 267 314
#
# _framework density 20.598305
#
# number of rings (size 3 to 8) (size 9 to 14) (size 15 to 20)
#    0.000    2.500    1.250    3.000    0.000    1.500 
#    0.000   10.000    0.000    0.750    0.000    0.000 
#    0.000    0.000    0.000    0.000    0.000    0.000 
#
# Total GULP energy -178570.647641 kJ/mol
# GULP energy per Si atom -5580.332739 kJ/mol
# Density = 2.055142 g / cm^3
# Si number density = 20.598305 Si / 1000 Ang^3
#
#
#
# Elastic Constant Matrix: (Units=GPa)
#
#
# Indices 1 2 3 4 5 6 
#
# 1 119.8122 1.2325 27.1131 0.0000 19.4944 0.0000
# 2 1.2325 25.4681 9.5298 0.0000 0.0484 0.0000
# 3 27.1131 9.5298 106.9852 0.0000 18.9263 0.0000
# 4 0.0000 0.0000 0.0000 7.6526 0.0000 1.5975
# 5 19.4944 0.0484 18.9263 0.0000 15.8660 0.0000
# 6 0.0000 0.0000 0.0000 1.5975 0.0000 30.7110
#
#
#
# Elastic Compliance Matrix: (Units=1/GPa)
#
#
# Indices 1 2 3 4 5 6 
#
# 1 0.010454 -0.000317 -0.000442 0.000000 -0.012316 0.000000
# 2 -0.000317 0.040985 -0.004585 0.000000 0.005734 0.000000
# 3 -0.000442 -0.004585 0.012382 0.000000 -0.014213 0.000000
# 4 0.000000 0.000000 0.000000 0.132109 0.000000 -0.006872
# 5 -0.012316 0.005734 -0.014213 0.000000 0.095097 0.000000
# 6 0.000000 0.000000 0.000000 -0.006872 0.000000 0.032919
#
#
# Mechanical properties :
#
#
# Convention : Reuss Voigt Hill
#
# Bulk Modulus (GPa) = 18.82098 36.44626 27.63362
# Shear Modulus (GPa) = 14.19066 25.13858 19.66462
#
# Velocity S-wave (km/s) = 2.62758 3.49724 3.09313
# Velocity P-wave (km/s) = 4.28516 5.83437 5.11871
#
# Compressibility (1/GPa) = 0.05313220
#
# Stress axis : x y z
#
# Youngs Moduli (GPa) = 95.66084 24.39930 80.76307
#
# Poissons Ratio (x) = 0.00774 0.03572
# Poissons Ratio (y) = 0.03033 0.37028
# Poissons Ratio (z) = 0.04231 0.11186
#
# Static dielectric constant tensor:
#      x y z
#    x 1.726160 0.000000 0.009780 
#    y 0.000000 1.746230 0.000000 
#    z 0.009780 0.000000 1.734070 
# 
# From -- ./inp_files/375089.got.cif
#   From: 2010.05.17/outbox.cif.g08.bks.cpg/sg12_188_cif.got.tgz:375089.got - 2010.06.03 13:09:07.
