data_PCOD9220843
_publ_section_title
;
Structure prediction by ZEFSAII (Michael W. Deem and Ramdas Pophale) SiO2 
 PCOD9220843
Probable space group: C 2/M
;
_chemical_formula_sum "Si O2"
_cell_formula_units_Z 46
_cell_length_a 21.461432
_cell_length_b 20.026010
_cell_length_c 18.803535
_cell_angle_alpha 90.000000
_cell_angle_beta 160.694671
_cell_angle_gamma 90.000000
_cell_volume 2671.765464
_symmetry_space_group_name_H-M "C 2/M"
_symmetry_group_IT_number 12
_symmetry_cell_setting 'monoclinic'
loop_
_space_group_symop_operation_xyz
x,y,z
-x,y,-z
-x,-y,-z
x,-y,z
1/2+x,1/2+y,z
1/2-x,1/2+y,-z
1/2-x,1/2-y,-z
1/2+x,1/2-y,z
loop_
_atom_site_type_symbol
_atom_site_label
_atom_site_fract_x
_atom_site_fract_y
_atom_site_fract_z
Si Si1 0.000000 0.849048 0.000000
Si Si2 0.778765 0.876062 0.263174
Si Si3 0.399995 0.803265 0.065545
Si Si4 0.117832 0.686361 0.792436
Si Si5 0.500000 0.000000 0.000000
Si Si6 0.182473 0.575931 0.747098
Si Si7 0.238198 0.738706 0.339621
O O1 0.858412 0.893014 0.894299
O O2 0.876464 0.800326 0.817565
O O3 0.656114 0.940501 0.150157
O O4 0.755179 0.817599 0.296980
O O5 0.000000 0.891930 0.500000
O O6 0.706579 0.844932 0.110499
O O7 0.389491 0.833583 0.132886
O O8 0.611783 0.791486 0.266526
O O9 0.297048 0.732169 0.965791
O O10 0.129674 0.622036 0.756265
O O11 0.937683 0.732642 0.579988
O O12 0.223602 0.500000 0.812042
O O13 0.000000 0.576742 0.500000
#
# Coordination Sequence:
#
# PCOD9220843 Si02
#       7
#     4   8   8   8   2   8   8
#     4  12  20  34  64  86 120 156 198 252 290 336
#     4  12  23  40  66  92 120 160 207 252 303 367
#     4  11  22  39  62  93 121 154 197 256 309 351
#     4  11  23  38  62  90 123 157 198 254 307 357
#     4  12  24  44  64  88 124 160 206 248 302 364
#     4  11  23  39  59  86 119 163 204 239 295 361
#     4  12  20  37  65  91 119 155 204 254 303 350
#
# _framework density 17.217079999999999
#
# number of rings (size 3 to 8) (size 9 to 14) (size 15 to 20)
#    0.000    0.522    8.696    1.043    0.000    0.000 
#    1.565    0.000    0.000    0.000    0.000    0.000 
#    0.000    0.000    0.000    0.000    0.000    0.000 
#
# Total GULP energy -128201.726530 kJ/mol
# GULP energy per Si atom -5573.988110 kJ/mol
# Density = 1.717789 g / cm^3
# Si number density = 17.217080 Si / 1000 Ang^3
#
#
#
# Elastic Constant Matrix: (Units=GPa)
#
#
# Indices 1 2 3 4 5 6 
#
# 1 144.2677 79.0648 62.8557 -0.0020 9.0640 0.0070
# 2 79.0648 120.1726 38.4051 0.0208 10.7961 -0.0495
# 3 62.8557 38.4051 60.0185 0.0278 20.8368 -0.0616
# 4 -0.0020 0.0208 0.0278 14.8675 0.0189 32.1487
# 5 9.0640 10.7961 20.8368 0.0189 30.3718 -0.0408
# 6 0.0070 -0.0495 -0.0616 32.1487 -0.0408 -58.0268
#
#
#
# Elastic Compliance Matrix: (Units=1/GPa)
#
#
# Indices 1 2 3 4 5 6 
#
# 1 0.017638 -0.006929 -0.017150 -0.000005 0.008965 0.000017
# 2 -0.006929 0.013213 -0.000375 0.000003 -0.002372 -0.000009
# 3 -0.017150 -0.000375 0.043369 0.000006 -0.024502 -0.000027
# 4 -0.000005 0.000003 0.000006 0.030601 0.000000 0.016954
# 5 0.008965 -0.002372 -0.024502 0.000000 0.047903 -0.000005
# 6 0.000017 -0.000009 -0.000027 0.016954 -0.000005 -0.007840
#
#
# Mechanical properties :
#
#
# Convention : Reuss Voigt Hill
#
# Bulk Modulus (GPa) = 39.50811 76.12331 57.81571
# Shear Modulus (GPa) = 24.72446 7.05138 15.88792
#
# Velocity S-wave (km/s) = 3.79363 2.02595 3.04106
# Velocity P-wave (km/s) = 6.49505 7.05567 6.78115
#
# Compressibility (1/GPa) = 0.02531126
#
# Stress axis : x y z
#
# Youngs Moduli (GPa) = 56.69629 75.68320 23.05783
#
# Poissons Ratio (x) = 0.52440 0.39545
# Poissons Ratio (y) = 0.39284 0.00865
# Poissons Ratio (z) = 0.97237 0.02838
#
# Static dielectric constant tensor:
#      x y z
#    x 1.588110 0.000000 0.003770 
#    y 0.000000 1.547650 0.000000 
#    z 0.003770 0.000000 1.588770 
# 
# From -- ./inp_files/285463.got.cif
#   From: 2010.05.17/outbox.cif.g08.bks.cpg/sg12_143_cif.got.tgz:285463.got - 2010.06.03 13:09:07.
