data_PCOD9220218
_publ_section_title
;
Structure prediction by ZEFSAII (Michael W. Deem and Ramdas Pophale) SiO2 
 PCOD9220218
Probable space group: C 2/M
;
_chemical_formula_sum "Si O2"
_cell_formula_units_Z 64
_cell_length_a 30.749051
_cell_length_b 16.491754
_cell_length_c 9.604261
_cell_angle_alpha 90.000000
_cell_angle_beta 141.387783
_cell_angle_gamma 90.000000
_cell_volume 3039.339946
_symmetry_space_group_name_H-M "C 2/M"
_symmetry_group_IT_number 12
_symmetry_cell_setting 'monoclinic'
loop_
_space_group_symop_operation_xyz
x,y,z
-x,y,-z
-x,-y,-z
x,-y,z
1/2+x,1/2+y,z
1/2-x,1/2+y,-z
1/2-x,1/2-y,-z
1/2+x,1/2-y,z
loop_
_atom_site_type_symbol
_atom_site_label
_atom_site_fract_x
_atom_site_fract_y
_atom_site_fract_z
Si Si1 0.003285 0.162537 0.668853
Si Si2 0.869360 0.371597 0.864244
Si Si3 0.338637 0.833973 0.315316
Si Si4 0.368571 0.653764 0.503721
Si Si5 0.491259 0.860359 0.639241
Si Si6 0.734543 0.909201 0.620080
Si Si7 0.365459 0.677777 0.822279
Si Si8 0.781307 0.409988 0.914331
O O1 0.937865 0.130592 0.593464
O O2 0.997642 0.261569 0.654587
O O3 0.000000 0.136539 0.500000
O O4 0.075227 0.143174 0.926901
O O5 0.838727 0.405937 0.645395
O O6 0.866673 0.274651 0.841130
O O7 0.816860 0.399055 0.853945
O O8 0.946719 0.393038 0.109430
O O9 0.348574 0.744059 0.399684
O O10 0.414222 0.876728 0.503309
O O11 0.281739 0.877681 0.267522
O O12 0.312393 0.840668 0.091710
O O13 0.380413 0.656986 0.699038
O O14 0.301215 0.599795 0.305147
O O15 0.500000 0.886818 0.500000
O O16 0.790087 0.853717 0.679979
O O17 0.761733 0.000000 0.688822
O O18 0.798848 0.500000 0.012371
#
# Coordination Sequence:
#
# PCOD9220218 Si02
#       8
#     8   8   8   8   8   8   8   8
#     4   9  21  37  64  97 122 152 203 260 312 363
#     4  11  21  40  65  90 121 159 210 253 301 366
#     4  11  23  41  63  92 122 162 208 260 309 362
#     4  11  22  40  66  94 122 164 206 253 308 369
#     4   9  18  37  62  88 117 155 202 254 300 357
#     4  12  25  41  60  90 129 164 204 255 311 364
#     4  11  22  40  66  93 124 162 206 254 307 370
#     4  12  25  40  61  92 128 165 209 256 306 365
#
# _framework density 21.057205
#
# number of rings (size 3 to 8) (size 9 to 14) (size 15 to 20)
#    0.000    1.250    3.750    2.625    3.500    0.500 
#    0.000    4.375    0.000    2.250    0.000    0.000 
#    0.000    0.000    0.000    0.000    0.000    0.000 
#
# Total GULP energy -178878.247606 kJ/mol
# GULP energy per Si atom -5589.945238 kJ/mol
# Density = 2.100928 g / cm^3
# Si number density = 21.057205 Si / 1000 Ang^3
#
#
#
# Elastic Constant Matrix: (Units=GPa)
#
#
# Indices 1 2 3 4 5 6 
#
# 1 97.5235 7.8550 13.6966 0.0000 9.0687 0.0000
# 2 7.8550 22.3406 0.9305 0.0000 1.5672 0.0000
# 3 13.6966 0.9305 85.5297 0.0000 15.3455 0.0000
# 4 0.0000 0.0000 0.0000 4.5934 0.0000 1.5761
# 5 9.0687 1.5672 15.3455 0.0000 33.0346 0.0000
# 6 0.0000 0.0000 0.0000 1.5761 0.0000 25.1162
#
#
#
# Elastic Compliance Matrix: (Units=1/GPa)
#
#
# Indices 1 2 3 4 5 6 
#
# 1 0.010938 -0.003635 -0.001314 0.000000 -0.002220 0.000000
# 2 -0.003635 0.046120 0.000321 0.000000 -0.001339 0.000000
# 3 -0.001314 0.000321 0.012913 0.000000 -0.005653 0.000000
# 4 0.000000 0.000000 0.000000 0.222494 0.000000 -0.013962
# 5 -0.002220 -0.001339 -0.005653 0.000000 0.033570 0.000000
# 6 0.000000 0.000000 0.000000 -0.013962 0.000000 0.040691
#
#
# Mechanical properties :
#
#
# Convention : Reuss Voigt Hill
#
# Bulk Modulus (GPa) = 16.47058 27.81755 22.14406
# Shear Modulus (GPa) = 12.61923 24.74298 18.68111
#
# Velocity S-wave (km/s) = 2.45068 3.43160 2.98175
# Velocity P-wave (km/s) = 3.98078 5.37962 4.73217
#
# Compressibility (1/GPa) = 0.06071432
#
# Stress axis : x y z
#
# Youngs Moduli (GPa) = 91.42721 21.68243 77.44149
#
# Poissons Ratio (x) = 0.07882 0.10174
# Poissons Ratio (y) = 0.33236 -0.02483
# Poissons Ratio (z) = 0.12011 -0.00695
#
# Static dielectric constant tensor:
#      x y z
#    x 1.707070 0.000000 0.012140 
#    y 0.000000 1.753800 0.000000 
#    z 0.012140 0.000000 1.748300 
# 
# From -- ./inp_files/112875.got.cif
#   From: 2010.05.17/outbox.cif.g08.bks.cpg/sg12_57_cif.got.tgz:112875.got - 2010.06.03 13:09:07.
