data_PCOD9220645
_publ_section_title
;
Structure prediction by ZEFSAII (Michael W. Deem and Ramdas Pophale) SiO2 
 PCOD9220645
Probable space group: C 2/M
;
_chemical_formula_sum "Si O2"
_cell_formula_units_Z 48
_cell_length_a 20.534604
_cell_length_b 19.528323
_cell_length_c 14.939023
_cell_angle_alpha 90.000000
_cell_angle_beta 151.666948
_cell_angle_gamma 90.000000
_cell_volume 2843.135742
_symmetry_space_group_name_H-M "C 2/M"
_symmetry_group_IT_number 12
_symmetry_cell_setting 'monoclinic'
loop_
_space_group_symop_operation_xyz
x,y,z
-x,y,-z
-x,-y,-z
x,-y,z
1/2+x,1/2+y,z
1/2-x,1/2+y,-z
1/2-x,1/2-y,-z
1/2+x,1/2-y,z
loop_
_atom_site_type_symbol
_atom_site_label
_atom_site_fract_x
_atom_site_fract_y
_atom_site_fract_z
Si Si1 0.937387 0.078973 0.147914
Si Si2 0.759699 0.078191 0.570368
Si Si3 0.277376 0.636719 0.788587
Si Si4 0.111927 0.706063 0.319260
Si Si5 0.000000 0.751892 0.000000
Si Si6 0.901546 0.219804 0.197842
Si Si7 0.500000 0.215627 0.500000
O O1 0.908239 0.138997 0.183812
O O2 0.092032 0.088837 0.296951
O O3 0.924109 0.000000 0.162050
O O4 0.835333 0.093377 0.941422
O O5 0.775745 0.094396 0.694803
O O6 0.650376 0.130612 0.397976
O O7 0.719270 0.000000 0.508300
O O8 0.383013 0.699066 0.899526
O O9 0.129096 0.668415 0.629495
O O10 0.250000 0.750000 0.500000
O O11 0.064641 0.709808 0.159557
O O12 0.998451 0.741360 0.244021
O O13 0.955183 0.238833 0.361111
O O14 0.750000 0.250000 0.000000
#
# Coordination Sequence:
#
# PCOD9220645 Si02
#       7
#     8   8   8   8   4   8   4
#     4  11  22  38  61  90 121 154 197 249 305 356
#     4  11  22  37  61  91 121 153 196 252 305 352
#     4  12  19  37  58  90 119 153 191 252 301 345
#     4  12  20  38  61  86 120 152 201 245 291 350
#     4  12  20  34  64  90 112 150 208 248 288 348
#     4  12  22  40  59  87 122 160 197 244 290 354
#     4  12  24  34  62  90 122 150 210 244 282 354
#
# _framework density 16.882767999999999
#
# number of rings (size 3 to 8) (size 9 to 14) (size 15 to 20)
#    0.000    0.333   10.000    0.500    0.000    1.333 
#    0.000    5.000    0.000    0.000    0.000    0.000 
#    0.000    0.000    0.000    0.000    0.000    0.000 
#
# Total GULP energy -134113.958091 kJ/mol
# GULP energy per Si atom -5588.081587 kJ/mol
# Density = 1.684434 g / cm^3
# Si number density = 16.882768 Si / 1000 Ang^3
#
#
#
# Elastic Constant Matrix: (Units=GPa)
#
#
# Indices 1 2 3 4 5 6 
#
# 1 71.1038 40.0840 43.3040 0.0000 -4.6875 0.0000
# 2 40.0840 137.6521 49.2535 0.0000 -0.3780 0.0000
# 3 43.3040 49.2535 102.9427 0.0000 0.4943 0.0000
# 4 0.0000 0.0000 0.0000 20.1194 0.0000 1.1439
# 5 -4.6875 -0.3780 0.4943 0.0000 46.2146 0.0000
# 6 0.0000 0.0000 0.0000 1.1439 0.0000 9.8120
#
#
#
# Elastic Compliance Matrix: (Units=1/GPa)
#
#
# Indices 1 2 3 4 5 6 
#
# 1 0.020365 -0.003445 -0.006928 0.000000 0.002112 0.000000
# 2 -0.003445 0.009349 -0.003022 0.000000 -0.000241 0.000000
# 3 -0.006928 -0.003022 0.014079 0.000000 -0.000878 0.000000
# 4 0.000000 0.000000 0.000000 0.050035 0.000000 -0.005833
# 5 0.002112 -0.000241 -0.000878 0.000000 0.021860 0.000000
# 6 0.000000 0.000000 0.000000 -0.005833 0.000000 0.102596
#
#
# Mechanical properties :
#
#
# Convention : Reuss Voigt Hill
#
# Bulk Modulus (GPa) = 58.82281 64.10905 61.46593
# Shear Modulus (GPa) = 19.94076 27.16636 23.55356
#
# Velocity S-wave (km/s) = 3.44049 4.01573 3.73919
# Velocity P-wave (km/s) = 7.12040 7.71732 7.42486
#
# Compressibility (1/GPa) = 0.01700021
#
# Stress axis : x y z
#
# Youngs Moduli (GPa) = 49.10374 106.96569 71.02768
#
# Poissons Ratio (x) = 0.36854 0.49211
# Poissons Ratio (y) = 0.16918 0.21468
# Poissons Ratio (z) = 0.34021 0.32330
#
# Static dielectric constant tensor:
#      x y z
#    x 1.578700 0.000000 -0.001370 
#    y 0.000000 1.565130 0.000000 
#    z -0.001370 0.000000 1.557440 
# 
# From -- ./inp_files/112759.got.cif
#   From: 2010.05.17/outbox.cif.g08.bks.cpg/sg12_57_cif.got.tgz:112759.got - 2010.06.03 13:09:07.
