data_PCOD9220311
_publ_section_title
;
Structure prediction by ZEFSAII (Michael W. Deem and Ramdas Pophale) SiO2 
 PCOD9220311
Probable space group: C 2/M
;
_chemical_formula_sum "Si O2"
_cell_formula_units_Z 48
_cell_length_a 10.012209
_cell_length_b 15.301879
_cell_length_c 16.069625
_cell_angle_alpha 90.000000
_cell_angle_beta 104.955611
_cell_angle_gamma 90.000000
_cell_volume 2378.560518
_symmetry_space_group_name_H-M "C 2/M"
_symmetry_group_IT_number 12
_symmetry_cell_setting 'monoclinic'
loop_
_space_group_symop_operation_xyz
x,y,z
-x,y,-z
-x,-y,-z
x,-y,z
1/2+x,1/2+y,z
1/2-x,1/2+y,-z
1/2-x,1/2-y,-z
1/2+x,1/2-y,z
loop_
_atom_site_type_symbol
_atom_site_label
_atom_site_fract_x
_atom_site_fract_y
_atom_site_fract_z
Si Si1 0.901133 0.737183 0.061136
Si Si2 0.235863 0.812169 0.576705
Si Si3 0.986556 0.780669 0.323906
Si Si4 0.907636 0.500000 0.354538
Si Si5 0.206849 0.500000 0.485955
Si Si6 0.161857 0.358329 0.792469
Si Si7 0.525339 0.600883 0.180214
O O1 0.905636 0.657512 0.128432
O O2 0.942511 0.827977 0.113162
O O3 0.750000 0.750000 0.000000
O O4 0.000000 0.720450 0.000000
O O5 0.250000 0.750000 0.500000
O O6 0.092788 0.796947 0.602810
O O7 0.377300 0.781889 0.648571
O O8 0.233843 0.910920 0.542447
O O9 0.862368 0.735923 0.251863
O O10 0.025831 0.865705 0.276298
O O11 0.798275 0.500000 0.413636
O O12 0.897465 0.420024 0.289199
O O13 0.051189 0.500000 0.425377
O O14 0.318109 0.388806 0.826958
O O15 0.481217 0.500000 0.166808
#
# Coordination Sequence:
#
# PCOD9220311 Si02
#       7
#     8   8   8   4   4   8   8
#     4  11  24  46  71 102 140 177 221 277 350 416
#     4  12  25  43  63  96 134 186 234 297 350 402
#     4  11  24  42  65  96 136 177 231 281 349 408
#     4  11  22  42  68  99 139 181 244 276 344 406
#     4  11  26  40  70  97 140 190 243 292 338 413
#     4  11  21  41  71  99 135 181 223 280 343 419
#     4  11  24  41  71 102 135 181 222 279 341 418
#
# _framework density 20.180271999999999
#
# number of rings (size 3 to 8) (size 9 to 14) (size 15 to 20)
#    0.000    0.833    5.833    1.500    3.500    0.333 
#    1.500    1.250    0.000    0.000    0.000    0.000 
#    0.000    0.000    0.000    0.000    0.000    0.000 
#
# Total GULP energy -133755.158486 kJ/mol
# GULP energy per Si atom -5573.131604 kJ/mol
# Density = 2.013434 g / cm^3
# Si number density = 20.180272 Si / 1000 Ang^3
#
#
#
# Elastic Constant Matrix: (Units=GPa)
#
#
# Indices 1 2 3 4 5 6 
#
# 1 89.8532 32.2336 50.5206 0.0000 -23.0277 0.0000
# 2 32.2336 104.3513 46.0912 0.0000 -21.5527 0.0000
# 3 50.5206 46.0912 133.7850 0.0000 -29.7027 0.0000
# 4 0.0000 0.0000 0.0000 20.4412 0.0000 3.7973
# 5 -23.0277 -21.5527 -29.7027 0.0000 48.4500 0.0000
# 6 0.0000 0.0000 0.0000 3.7973 0.0000 21.1204
#
#
#
# Elastic Compliance Matrix: (Units=1/GPa)
#
#
# Indices 1 2 3 4 5 6 
#
# 1 0.015184 -0.002068 -0.004194 0.000000 0.003726 0.000000
# 2 -0.002068 0.011990 -0.002759 0.000000 0.002659 0.000000
# 3 -0.004194 -0.002759 0.010758 0.000000 0.003375 0.000000
# 4 0.000000 0.000000 0.000000 0.050611 0.000000 -0.009099
# 5 0.003726 0.002659 0.003375 0.000000 0.025662 0.000000
# 6 0.000000 0.000000 0.000000 -0.009099 0.000000 0.048984
#
#
# Mechanical properties :
#
#
# Convention : Reuss Voigt Hill
#
# Bulk Modulus (GPa) = 50.27978 65.07561 57.67769
# Shear Modulus (GPa) = 26.61517 31.27861 28.94689
#
# Velocity S-wave (km/s) = 3.63557 3.94122 3.79148
# Velocity P-wave (km/s) = 6.52629 7.28204 6.91450
#
# Compressibility (1/GPa) = 0.01988871
#
# Stress axis : x y z
#
# Youngs Moduli (GPa) = 65.85761 83.40383 92.95074
#
# Poissons Ratio (x) = 0.17250 0.38986
# Poissons Ratio (y) = 0.13621 0.25648
# Poissons Ratio (z) = 0.27622 0.23014
#
# Static dielectric constant tensor:
#      x y z
#    x 1.743910 0.000000 0.024010 
#    y 0.000000 1.718010 0.000000 
#    z 0.024010 0.000000 1.786620 
# 
# From -- ./inp_files/255826.got.cif
#   From: 2010.05.17/outbox.cif.g08.bks.cpg/sg12_128_cif.got.tgz:255826.got - 2010.06.03 13:09:07.
