data_PCOD9220368
_publ_section_title
;
Structure prediction by ZEFSAII (Michael W. Deem and Ramdas Pophale) SiO2 
 PCOD9220368
Probable space group: C 2/M
;
_chemical_formula_sum "Si O2"
_cell_formula_units_Z 40
_cell_length_a 9.827077
_cell_length_b 25.580660
_cell_length_c 14.782460
_cell_angle_alpha 90.000000
_cell_angle_beta 30.926312
_cell_angle_gamma 90.000000
_cell_volume 1909.814654
_symmetry_space_group_name_H-M "C 2/M"
_symmetry_group_IT_number 12
_symmetry_cell_setting 'monoclinic'
loop_
_space_group_symop_operation_xyz
x,y,z
-x,y,-z
-x,-y,-z
x,-y,z
1/2+x,1/2+y,z
1/2-x,1/2+y,-z
1/2-x,1/2-y,-z
1/2+x,1/2-y,z
loop_
_atom_site_type_symbol
_atom_site_label
_atom_site_fract_x
_atom_site_fract_y
_atom_site_fract_z
Si Si1 0.771199 0.719162 0.875505
Si Si2 0.209978 0.897070 0.637312
Si Si3 0.762634 0.439388 0.409702
Si Si4 0.754361 0.280255 0.680892
Si Si5 0.816542 0.101066 0.019879
O O1 0.854506 0.706569 0.725171
O O2 0.697464 0.664601 0.965579
O O3 0.988468 0.748708 0.809708
O O4 0.500000 0.749150 0.000000
O O5 0.500000 0.918421 0.500000
O O6 0.195188 0.909561 0.540658
O O7 0.220410 0.835023 0.649067
O O8 0.970277 0.915093 0.840368
O O9 0.500000 0.436171 0.500000
O O10 0.814863 0.500000 0.402299
O O11 0.020776 0.418516 0.208913
O O12 0.000000 0.248533 0.500000
O O13 0.000000 0.084545 0.000000
#
# Coordination Sequence:
#
# PCOD9220368 Si02
#       5
#     8   8   8   8   8
#     4  11  22  38  59  93 136 167 215 266 311 367
#     4  11  22  43  69  97 131 175 224 266 318 389
#     4  11  27  48  68  98 133 161 211 283 340 392
#     4  11  22  38  61  91 130 178 217 262 314 381
#     4  11  21  43  70  95 134 176 215 268 321 386
#
# _framework density 20.94444
#
# number of rings (size 3 to 8) (size 9 to 14) (size 15 to 20)
#    0.000    1.000    6.000    2.400    0.000    4.800 
#    0.000    2.000    0.000    0.000    0.000    0.000 
#    0.000    0.000    0.000    0.000    0.000    0.000 
#
# Total GULP energy -111469.265974 kJ/mol
# GULP energy per Si atom -5573.463299 kJ/mol
# Density = 2.089677 g / cm^3
# Si number density = 20.944440 Si / 1000 Ang^3
#
#
#
# Elastic Constant Matrix: (Units=GPa)
#
#
# Indices 1 2 3 4 5 6 
#
# 1 86.8939 32.0107 46.8335 0.0000 14.0356 -0.0001
# 2 32.0107 39.7894 28.3132 0.0000 5.1717 0.0000
# 3 46.8335 28.3132 194.6056 0.0001 12.3267 -0.0003
# 4 0.0000 0.0000 0.0001 15.9440 0.0000 0.1884
# 5 14.0356 5.1717 12.3267 0.0000 42.3540 0.0001
# 6 -0.0001 0.0000 -0.0003 0.1884 0.0001 49.4578
#
#
#
# Elastic Compliance Matrix: (Units=1/GPa)
#
#
# Indices 1 2 3 4 5 6 
#
# 1 0.017858 -0.012259 -0.002276 0.000000 -0.003759 0.000000
# 2 -0.012259 0.036667 -0.002403 0.000000 0.000284 0.000000
# 3 -0.002276 -0.002403 0.006082 0.000000 -0.000722 0.000000
# 4 0.000000 0.000000 0.000000 0.062722 0.000000 -0.000239
# 5 -0.003759 0.000284 -0.000722 0.000000 0.025032 0.000000
# 6 0.000000 0.000000 0.000000 -0.000239 0.000000 0.020220
#
#
# Mechanical properties :
#
#
# Convention : Reuss Voigt Hill
#
# Bulk Modulus (GPa) = 37.40818 59.51153 48.45985
# Shear Modulus (GPa) = 23.65556 35.82659 29.74108
#
# Velocity S-wave (km/s) = 3.36437 4.14037 3.77238
# Velocity P-wave (km/s) = 5.74381 7.16468 6.49323
#
# Compressibility (1/GPa) = 0.02673212
#
# Stress axis : x y z
#
# Youngs Moduli (GPa) = 55.99683 27.27235 164.42860
#
# Poissons Ratio (x) = 0.33433 0.37426
# Poissons Ratio (y) = 0.68645 0.39505
# Poissons Ratio (z) = 0.12745 0.06552
#
# Static dielectric constant tensor:
#      x y z
#    x 1.759590 0.000000 0.077850 
#    y 0.000000 1.744480 0.000000 
#    z 0.077850 0.000000 1.989990 
# 
# From -- ./inp_files/68749.got.cif
#   From: 2010.05.17/outbox.cif.g08.bks.cpg/sg12_35_cif.got.tgz:68749.got - 2010.06.03 13:09:07.
