data_PCOD9220018
_publ_section_title
;
Structure prediction by ZEFSAII (Michael W. Deem and Ramdas Pophale) SiO2 
 PCOD9220018
Probable space group: C 2/M
;
_chemical_formula_sum "Si O2"
_cell_formula_units_Z 64
_cell_length_a 20.670508
_cell_length_b 17.483930
_cell_length_c 9.695293
_cell_angle_alpha 90.000000
_cell_angle_beta 100.564627
_cell_angle_gamma 90.000000
_cell_volume 3444.500034
_symmetry_space_group_name_H-M "C 2/M"
_symmetry_group_IT_number 12
_symmetry_cell_setting 'monoclinic'
loop_
_space_group_symop_operation_xyz
x,y,z
-x,y,-z
-x,-y,-z
x,-y,z
1/2+x,1/2+y,z
1/2-x,1/2+y,-z
1/2-x,1/2-y,-z
1/2+x,1/2-y,z
loop_
_atom_site_type_symbol
_atom_site_label
_atom_site_fract_x
_atom_site_fract_y
_atom_site_fract_z
Si Si1 0.744657 0.087489 0.184068
Si Si2 0.560255 0.250489 0.934362
Si Si3 0.702816 0.314158 0.549548
Si Si4 0.381136 0.916121 0.355585
Si Si5 0.702083 0.318766 0.031839
Si Si6 0.731479 0.411328 0.317412
Si Si7 0.564734 0.247402 0.607958
Si Si8 0.891461 0.415761 0.032769
O O1 0.756867 0.145367 0.312623
O O2 0.756844 0.000000 0.230458
O O3 0.791992 0.114995 0.079749
O O4 0.671831 0.091771 0.090144
O O5 0.555256 0.261714 0.767606
O O6 0.565573 0.159484 0.964433
O O7 0.500000 0.281575 0.000000
O O8 0.629044 0.286187 0.008796
O O9 0.750000 0.250000 0.500000
O O10 0.690167 0.377181 0.426736
O O11 0.633874 0.282780 0.582338
O O12 0.308480 0.908446 0.390516
O O13 0.425265 0.843984 0.408063
O O14 0.369689 0.914850 0.185150
O O15 0.408251 0.000000 0.401757
O O16 0.723107 0.355440 0.184274
O O17 0.750000 0.250000 0.000000
O O18 0.716742 0.500000 0.278632
O O19 0.500000 0.272779 0.500000
O O20 0.921127 0.500000 0.019454
#
# Coordination Sequence:
#
# PCOD9220018 Si02
#       8
#     8   8   8   8   8   8   8   8
#     4  11  21  37  63  94 123 156 199 253 310 360
#     4  11  24  39  61  88 122 160 204 254 302 358
#     4  12  24  39  62  91 126 161 203 255 304 356
#     4   9  17  35  59  89 124 158 195 241 298 366
#     4  12  20  38  67  94 121 156 205 254 305 355
#     4  11  22  37  62  95 126 156 196 251 314 367
#     4  11  24  41  58  86 123 166 205 247 302 360
#     4   9  18  34  60  91 123 156 193 241 305 367
#
# _framework density 18.580344
#
# number of rings (size 3 to 8) (size 9 to 14) (size 15 to 20)
#    0.000    1.250    5.000    2.250    1.750    0.500 
#    0.000    0.000    0.000    4.500    0.000    0.000 
#    0.000    0.000    0.000    0.000    0.000    0.000 
#
# Total GULP energy -178609.775444 kJ/mol
# GULP energy per Si atom -5581.555483 kJ/mol
# Density = 1.853805 g / cm^3
# Si number density = 18.580344 Si / 1000 Ang^3
#
#
#
# Elastic Constant Matrix: (Units=GPa)
#
#
# Indices 1 2 3 4 5 6 
#
# 1 113.3210 34.0601 37.2645 0.0000 -14.5272 0.0000
# 2 34.0601 64.4661 36.7085 0.0000 -1.4557 0.0000
# 3 37.2645 36.7085 60.3881 0.0000 -10.7736 0.0000
# 4 0.0000 0.0000 0.0000 31.3482 0.0000 3.2629
# 5 -14.5272 -1.4557 -10.7736 0.0000 24.0390 0.0000
# 6 0.0000 0.0000 0.0000 3.2629 0.0000 9.4036
#
#
#
# Elastic Compliance Matrix: (Units=1/GPa)
#
#
# Indices 1 2 3 4 5 6 
#
# 1 0.012012 -0.003876 -0.004134 0.000000 0.005172 0.000000
# 2 -0.003876 0.025653 -0.014503 0.000000 -0.007288 0.000000
# 3 -0.004134 -0.014503 0.029698 0.000000 0.009934 0.000000
# 4 0.000000 0.000000 0.000000 0.033095 0.000000 -0.011483
# 5 0.005172 -0.007288 0.009934 0.000000 0.048735 0.000000
# 6 0.000000 0.000000 0.000000 -0.011483 0.000000 0.110327
#
#
# Mechanical properties :
#
#
# Convention : Reuss Voigt Hill
#
# Bulk Modulus (GPa) = 44.76402 50.47128 47.61765
# Shear Modulus (GPa) = 16.02613 21.63431 18.83022
#
# Velocity S-wave (km/s) = 2.94007 3.41598 3.18692
# Velocity P-wave (km/s) = 5.97242 6.54075 6.26303
#
# Compressibility (1/GPa) = 0.02233937
#
# Stress axis : x y z
#
# Youngs Moduli (GPa) = 83.25253 38.98130 33.67174
#
# Poissons Ratio (x) = 0.15108 0.13919
# Poissons Ratio (y) = 0.32266 0.48833
# Poissons Ratio (z) = 0.34413 0.56534
#
# Static dielectric constant tensor:
#      x y z
#    x 1.636460 0.000000 -0.009740 
#    y 0.000000 1.677880 0.000000 
#    z -0.009740 0.000000 1.657190 
# 
# From -- ./inp_files/87955.got.cif
#   From: 2010.05.17/outbox.cif.g08.bks.cpg/sg12_44_cif.got.tgz:87955.got - 2010.06.03 13:09:07.
