data_PCOD9220193
_publ_section_title
;
Structure prediction by ZEFSAII (Michael W. Deem and Ramdas Pophale) SiO2 
 PCOD9220193
Probable space group: C 2/M
;
_chemical_formula_sum "Si O2"
_cell_formula_units_Z 58
_cell_length_a 11.397273
_cell_length_b 30.362635
_cell_length_c 17.291358
_cell_angle_alpha 90.000000
_cell_angle_beta 149.629853
_cell_angle_gamma 90.000000
_cell_volume 3025.262676
_symmetry_space_group_name_H-M "C 2/M"
_symmetry_group_IT_number 12
_symmetry_cell_setting 'monoclinic'
loop_
_space_group_symop_operation_xyz
x,y,z
-x,y,-z
-x,-y,-z
x,-y,z
1/2+x,1/2+y,z
1/2-x,1/2+y,-z
1/2-x,1/2-y,-z
1/2+x,1/2-y,z
loop_
_atom_site_type_symbol
_atom_site_label
_atom_site_fract_x
_atom_site_fract_y
_atom_site_fract_z
Si Si1 0.503205 0.847975 0.691881
Si Si2 0.818181 0.155712 0.084125
Si Si3 0.500000 0.500000 0.000000
Si Si4 0.509154 0.629305 0.356402
Si Si5 0.334932 0.813031 0.756667
Si Si6 0.218132 0.421162 0.922308
Si Si7 0.341556 0.051875 0.834000
Si Si8 0.882241 0.782387 0.848969
O O1 0.414357 0.818329 0.713545
O O2 0.637827 0.888584 0.808110
O O3 0.674389 0.817251 0.740630
O O4 0.283720 0.867306 0.521725
O O5 0.925123 0.150849 0.228694
O O6 0.930148 0.195660 0.100718
O O7 0.542994 0.164685 0.925113
O O8 0.860423 0.110540 0.061204
O O9 0.361519 0.461433 0.970821
O O10 0.390878 0.658472 0.355527
O O11 0.388872 0.581527 0.293786
O O12 0.304672 0.763627 0.768663
O O13 0.995294 0.436736 0.845868
O O14 0.289251 0.000000 0.805308
O O15 0.500000 0.061821 0.000000
O O16 0.000000 0.775694 0.000000
#
# Coordination Sequence:
#
# PCOD9220193 Si02
#       8
#     8   8   2   8   8   8   8   8
#     4  11  26  43  62  93 136 174 207 263 330 380
#     4  11  22  41  69  92 123 173 214 266 319 379
#     4  12  24  40  70 100 124 164 216 274 302 392
#     4  12  23  43  64  93 137 164 206 268 328 379
#     4  11  23  39  67  93 123 171 218 269 311 373
#     4  11  21  41  65  95 123 167 215 257 323 379
#     4  11  21  39  69 102 123 157 217 272 315 379
#     4  12  23  41  65  92 126 170 230 266 308 385
#
# _framework density 19.171887999999999
#
# number of rings (size 3 to 8) (size 9 to 14) (size 15 to 20)
#    0.000    0.690    7.586    2.897    1.931    1.103 
#    3.724    0.690    0.000    0.828    0.000    0.000 
#    0.000    0.000    0.000    0.000    0.000    0.000 
#
# Total GULP energy -161859.424128 kJ/mol
# GULP energy per Si atom -5581.359453 kJ/mol
# Density = 1.912825 g / cm^3
# Si number density = 19.171888 Si / 1000 Ang^3
#
#
#
# Elastic Constant Matrix: (Units=GPa)
#
#
# Indices 1 2 3 4 5 6 
#
# 1 43.7154 22.1222 12.8329 -0.0001 -5.5716 0.0000
# 2 22.1222 132.1842 24.3112 0.0000 5.3895 0.0000
# 3 12.8329 24.3112 71.5775 -0.0002 -4.7288 -0.0001
# 4 -0.0001 0.0000 -0.0002 -10.7188 -0.0001 -4.2139
# 5 -5.5716 5.3895 -4.7288 -0.0001 21.1986 0.0000
# 6 0.0000 0.0000 -0.0001 -4.2139 0.0000 36.8853
#
#
#
# Elastic Compliance Matrix: (Units=1/GPa)
#
#
# Indices 1 2 3 4 5 6 
#
# 1 0.026833 -0.004269 -0.002865 0.000000 0.007499 0.000000
# 2 -0.004269 0.008904 -0.002520 0.000000 -0.003948 0.000000
# 3 -0.002865 -0.002520 0.015562 0.000000 0.003359 0.000000
# 4 0.000000 0.000000 0.000000 -0.089284 0.000000 -0.010200
# 5 0.007499 -0.003948 0.003359 0.000000 0.050897 0.000000
# 6 0.000000 0.000000 0.000000 -0.010200 0.000000 0.025946
#
#
# Mechanical properties :
#
#
# Convention : Reuss Voigt Hill
#
# Bulk Modulus (GPa) = 31.25938 40.66774 35.96356
# Shear Modulus (GPa) = 72.64347 22.02042 47.33194
#
# Velocity S-wave (km/s) = 6.16221 3.39274 4.97411
# Velocity P-wave (km/s) = 8.18356 6.05028 7.19641
#
# Compressibility (1/GPa) = 0.03199039
#
# Stress axis : x y z
#
# Youngs Moduli (GPa) = 37.26811 112.30764 64.25797
#
# Poissons Ratio (x) = 0.47949 0.18411
# Poissons Ratio (y) = 0.15911 0.16191
# Poissons Ratio (z) = 0.10678 0.28297
#
# Static dielectric constant tensor:
#      x y z
#    x 1.676210 0.000000 -0.002420 
#    y 0.000000 1.655550 0.000000 
#    z -0.002420 0.000000 1.670670 
# 
# From -- ./inp_files/161109.got.cif
#   From: 2010.05.17/outbox.cif.g08.bks.cpg/sg12_81_cif.got.tgz:161109.got - 2010.06.03 13:09:07.
