data_PCOD9220682
_publ_section_title
;
Structure prediction by ZEFSAII (Michael W. Deem and Ramdas Pophale) SiO2 
 PCOD9220682
Probable space group: C 2/M
;
_chemical_formula_sum "Si O2"
_cell_formula_units_Z 58
_cell_length_a 27.786080
_cell_length_b 16.525534
_cell_length_c 6.317636
_cell_angle_alpha 90.000000
_cell_angle_beta 92.464351
_cell_angle_gamma 90.000000
_cell_volume 2898.248023
_symmetry_space_group_name_H-M "C 2/M"
_symmetry_group_IT_number 12
_symmetry_cell_setting 'monoclinic'
loop_
_space_group_symop_operation_xyz
x,y,z
-x,y,-z
-x,-y,-z
x,-y,z
1/2+x,1/2+y,z
1/2-x,1/2+y,-z
1/2-x,1/2-y,-z
1/2+x,1/2-y,z
loop_
_atom_site_type_symbol
_atom_site_label
_atom_site_fract_x
_atom_site_fract_y
_atom_site_fract_z
Si Si1 0.771330 0.089991 0.018478
Si Si2 0.316734 0.910542 0.668095
Si Si3 0.051537 0.211137 0.526744
Si Si4 0.724736 0.806367 0.670037
Si Si5 0.105585 0.290073 0.150622
Si Si6 0.539287 0.136382 0.823038
Si Si7 0.500000 0.000000 0.500000
Si Si8 0.143599 0.182103 0.801702
O O1 0.761523 0.163922 0.856125
O O2 0.773769 0.000000 0.923482
O O3 0.725920 0.091694 0.168439
O O4 0.820245 0.108312 0.154367
O O5 0.293518 0.889009 0.439594
O O6 0.352920 0.837557 0.719973
O O7 0.339219 0.000000 0.674417
O O8 0.067298 0.257403 0.314593
O O9 0.039738 0.279472 0.698804
O O10 0.099868 0.169214 0.628558
O O11 0.000000 0.165506 0.500000
O O12 0.750000 0.750000 0.500000
O O13 0.678826 0.755815 0.739783
O O14 0.087213 0.356281 0.974777
O O15 0.122054 0.212652 0.019993
O O16 0.528695 0.069660 0.645712
O O17 0.500000 0.127744 0.000000
#
# Coordination Sequence:
#
# PCOD9220682 Si02
#       8
#     8   8   8   8   8   8   2   8
#     4  11  24  42  61  93 132 165 203 257 319 386
#     4  11  23  38  58  88 127 166 206 253 310 370
#     4  11  22  41  61  89 118 156 216 272 317 366
#     4  12  21  38  63  91 127 165 212 254 307 381
#     4  11  22  39  59  86 123 163 211 268 315 374
#     4  11  22  38  56  78 116 160 212 261 316 368
#     4  12  22  36  56  78 112 168 212 260 320 370
#     4  11  23  37  65  92 118 168 210 259 319 379
#
# _framework density 20.012091000000002
#
# number of rings (size 3 to 8) (size 9 to 14) (size 15 to 20)
#    0.000    0.828    6.207    1.862    0.966    0.000 
#    1.241    0.000    0.000    0.414    0.000    0.966 
#    0.000    0.000    0.000    0.000    0.000    0.000 
#
# Total GULP energy -161469.778332 kJ/mol
# GULP energy per Si atom -5567.923391 kJ/mol
# Density = 1.996654 g / cm^3
# Si number density = 20.012091 Si / 1000 Ang^3
#
#
#
# Elastic Constant Matrix: (Units=GPa)
#
#
# Indices 1 2 3 4 5 6 
#
# 1 104.4628 12.5121 32.9293 0.0000 5.8739 0.0000
# 2 12.5121 42.4298 11.5919 0.0000 -2.6684 0.0000
# 3 32.9293 11.5919 60.4513 0.0000 12.6198 0.0000
# 4 0.0000 0.0000 0.0000 13.9399 0.0000 9.7588
# 5 5.8739 -2.6684 12.6198 0.0000 29.9256 0.0000
# 6 0.0000 0.0000 0.0000 9.7588 0.0000 14.4002
#
#
#
# Elastic Compliance Matrix: (Units=1/GPa)
#
#
# Indices 1 2 3 4 5 6 
#
# 1 0.011687 -0.001789 -0.006043 0.000000 0.000095 0.000000
# 2 -0.001789 0.025746 -0.004951 0.000000 0.004735 0.000000
# 3 -0.006043 -0.004951 0.022619 0.000000 -0.008794 0.000000
# 4 0.000000 0.000000 0.000000 0.136489 0.000000 -0.092497
# 5 0.000095 0.004735 -0.008794 0.000000 0.037528 0.000000
# 6 0.000000 0.000000 0.000000 -0.092497 0.000000 0.132127
#
#
# Mechanical properties :
#
#
# Convention : Reuss Voigt Hill
#
# Bulk Modulus (GPa) = 28.99696 35.71229 32.35462
# Shear Modulus (GPa) = 12.39904 21.67385 17.03644
#
# Velocity S-wave (km/s) = 2.49183 3.29452 2.92088
# Velocity P-wave (km/s) = 4.77495 5.68823 5.25148
#
# Compressibility (1/GPa) = 0.03448638
#
# Stress axis : x y z
#
# Youngs Moduli (GPa) = 85.56827 38.84047 44.21078
#
# Poissons Ratio (x) = 0.06950 0.26715
# Poissons Ratio (y) = 0.15312 0.21887
# Poissons Ratio (z) = 0.51706 0.19229
#
# Static dielectric constant tensor:
#      x y z
#    x 1.785420 0.000000 0.031970 
#    y 0.000000 1.693940 0.000000 
#    z 0.031970 0.000000 1.736060 
# 
# From -- ./inp_files/28795.got.cif
#   From: 2010.05.17/outbox.cif.g08.bks.cpg/sg12_15_cif.got.tgz:28795.got - 2010.06.03 13:09:07.
