data_PCOD9220593
_publ_section_title
;
Structure prediction by ZEFSAII (Michael W. Deem and Ramdas Pophale) SiO2 
 PCOD9220593
Probable space group: C 2/M
;
_chemical_formula_sum "Si O2"
_cell_formula_units_Z 56
_cell_length_a 9.028505
_cell_length_b 15.498192
_cell_length_c 23.469468
_cell_angle_alpha 90.000000
_cell_angle_beta 125.240686
_cell_angle_gamma 90.000000
_cell_volume 2682.140266
_symmetry_space_group_name_H-M "C 2/M"
_symmetry_group_IT_number 12
_symmetry_cell_setting 'monoclinic'
loop_
_space_group_symop_operation_xyz
x,y,z
-x,y,-z
-x,-y,-z
x,-y,z
1/2+x,1/2+y,z
1/2-x,1/2+y,-z
1/2-x,1/2-y,-z
1/2+x,1/2-y,z
loop_
_atom_site_type_symbol
_atom_site_label
_atom_site_fract_x
_atom_site_fract_y
_atom_site_fract_z
Si Si1 0.828442 0.894365 0.500010
Si Si2 0.464954 0.103853 0.359368
Si Si3 0.175886 0.844549 0.068258
Si Si4 0.971274 0.655606 0.931748
Si Si5 0.886860 0.103854 0.640651
Si Si6 0.107895 0.102793 0.793121
Si Si7 0.228549 0.102775 0.206919
O O1 0.647134 0.862333 0.428572
O O2 0.861476 0.862336 0.571454
O O3 0.000000 0.872627 0.500000
O O4 0.815414 0.000000 0.500014
O O5 0.296773 0.117434 0.364511
O O6 0.395831 0.136287 0.282457
O O7 0.490566 0.000000 0.359839
O O8 0.105105 0.750113 0.070215
O O9 0.340510 0.841308 0.060393
O O10 0.238177 0.882660 0.142137
O O11 0.000000 0.888402 0.000000
O O12 0.811816 0.617498 0.857891
O O13 0.000000 0.611810 0.000000
O O14 0.048469 0.136275 0.717562
O O15 0.911055 0.000000 0.640198
O O16 0.960946 0.136159 0.807294
O O17 0.082679 0.000000 0.785240
O O18 0.226941 0.000000 0.214883
#
# Coordination Sequence:
#
# PCOD9220593 Si02
#       7
#     8   8   8   8   8   8   8
#     4   9  15  21  33  57  90 125 160 199 238 277
#     4   8  14  25  41  61  89 126 162 195 235 284
#     4  11  22  37  56  75  98 128 164 204 245 293
#     4  11  22  37  56  75  98 128 164 204 245 293
#     4   8  14  25  41  61  89 126 162 195 235 284
#     4   9  18  33  52  75 103 132 164 204 248 293
#     4   9  18  33  52  75 103 132 164 204 248 293
#
# _framework density 20.878848999999999
#
# number of rings (size 3 to 8) (size 9 to 14) (size 15 to 20)
#    0.000    2.714    0.000    5.571    0.000    4.000 
#    0.000    2.857    0.000    0.000    0.000    1.000 
#    0.000    0.000    0.000    0.000    0.000    0.000 
#
# Total GULP energy -156086.901964 kJ/mol
# GULP energy per Si atom -5574.532213 kJ/mol
# Density = 2.083133 g / cm^3
# Si number density = 20.878849 Si / 1000 Ang^3
#
#
#
# Elastic Constant Matrix: (Units=GPa)
#
#
# Indices 1 2 3 4 5 6 
#
# 1 104.3773 7.3776 104.3803 0.0000 0.3755 0.0000
# 2 7.3776 19.1048 13.5456 0.0000 0.0088 0.0000
# 3 104.3803 13.5456 240.2532 0.0000 0.3740 0.0000
# 4 0.0000 0.0000 0.0000 44.3556 0.0000 -0.0418
# 5 0.3755 0.0088 0.3740 0.0000 24.6269 0.0000
# 6 0.0000 0.0000 0.0000 -0.0418 0.0000 10.6688
#
#
#
# Elastic Compliance Matrix: (Units=1/GPa)
#
#
# Indices 1 2 3 4 5 6 
#
# 1 0.016977 -0.001382 -0.007297 0.000000 -0.000148 0.000000
# 2 -0.001382 0.054635 -0.002480 0.000000 0.000039 0.000000
# 3 -0.007297 -0.002480 0.007473 0.000000 -0.000001 0.000000
# 4 0.000000 0.000000 0.000000 0.022545 0.000000 0.000088
# 5 -0.000148 0.000039 -0.000001 0.000000 0.040608 0.000000
# 6 0.000000 0.000000 0.000000 0.000088 0.000000 0.093732
#
#
# Mechanical properties :
#
#
# Convention : Reuss Voigt Hill
#
# Bulk Modulus (GPa) = 17.61633 68.26026 42.93829
# Shear Modulus (GPa) = 18.03689 31.82571 24.93130
#
# Velocity S-wave (km/s) = 2.94238 3.90847 3.45931
# Velocity P-wave (km/s) = 4.47204 7.28921 6.04697
#
# Compressibility (1/GPa) = 0.05676552
#
# Stress axis : x y z
#
# Youngs Moduli (GPa) = 58.90495 18.30330 133.82275
#
# Poissons Ratio (x) = 0.02529 0.97657
# Poissons Ratio (y) = 0.08138 0.33190
# Poissons Ratio (z) = 0.42986 0.04539
#
# Static dielectric constant tensor:
#      x y z
#    x 1.717950 0.000000 -0.000010 
#    y 0.000000 1.819560 0.000000 
#    z -0.000010 0.000000 1.833050 
# 
# From -- ./inp_files/301777.got.cif
#   From: 2010.05.17/outbox.cif.g08.bks.cpg/sg12_151_cif.got.tgz:301777.got - 2010.06.03 13:09:07.
