data_PCOD9220654
_publ_section_title
;
Structure prediction by ZEFSAII (Michael W. Deem and Ramdas Pophale) SiO2 
 PCOD9220654
Probable space group: C 2/M
;
_chemical_formula_sum "Si O2"
_cell_formula_units_Z 64
_cell_length_a 22.041026
_cell_length_b 20.652456
_cell_length_c 8.977568
_cell_angle_alpha 90.000000
_cell_angle_beta 55.747935
_cell_angle_gamma 90.000000
_cell_volume 3377.859436
_symmetry_space_group_name_H-M "C 2/M"
_symmetry_group_IT_number 12
_symmetry_cell_setting 'monoclinic'
loop_
_space_group_symop_operation_xyz
x,y,z
-x,y,-z
-x,-y,-z
x,-y,z
1/2+x,1/2+y,z
1/2-x,1/2+y,-z
1/2-x,1/2-y,-z
1/2+x,1/2-y,z
loop_
_atom_site_type_symbol
_atom_site_label
_atom_site_fract_x
_atom_site_fract_y
_atom_site_fract_z
Si Si1 0.701767 0.845682 0.619729
Si Si2 0.653516 0.722379 0.487831
Si Si3 0.492671 0.263778 0.187208
Si Si4 0.861357 0.223405 0.840392
Si Si5 0.326837 0.926524 0.593705
Si Si6 0.874348 0.573678 0.040189
Si Si7 0.781658 0.643717 0.952305
Si Si8 0.987719 0.621645 0.339180
O O1 0.676060 0.786755 0.549310
O O2 0.773727 0.821661 0.606975
O O3 0.720163 0.904010 0.482580
O O4 0.637668 0.872916 0.814783
O O5 0.580980 0.697080 0.670509
O O6 0.630494 0.732693 0.348508
O O7 0.565271 0.289430 0.169384
O O8 0.482562 0.192485 0.273756
O O9 0.500000 0.259553 0.000000
O O10 0.826486 0.291913 0.941087
O O11 0.801445 0.167330 0.944319
O O12 0.309701 0.879455 0.753847
O O13 0.411585 0.916432 0.430168
O O14 0.314118 0.000000 0.654834
O O15 0.876943 0.500000 0.092364
O O16 0.803415 0.586889 0.034571
O O17 0.945049 0.587154 0.838953
O O18 0.000000 0.627300 0.500000
#
# Coordination Sequence:
#
# PCOD9220654 Si02
#       8
#     8   8   8   8   8   8   8   8
#     4  11  24  40  60  90 119 162 208 256 301 349
#     4  11  22  40  63  85 124 159 200 254 310 362
#     4  12  24  37  62  94 123 157 194 252 315 367
#     4  11  22  39  63  88 123 159 198 255 310 360
#     4  12  24  39  59  87 126 171 208 244 295 355
#     4  12  24  40  60  87 126 167 209 249 291 352
#     4  11  22  37  62  89 119 160 210 251 296 358
#     4  12  23  39  56  87 126 169 211 238 287 362
#
# _framework density 18.946909999999999
#
# number of rings (size 3 to 8) (size 9 to 14) (size 15 to 20)
#    0.000    0.500    6.250    3.000    1.750    0.500 
#    0.000    1.250    0.000    0.000    0.000    5.250 
#    0.000    0.000    0.000    0.000    0.000    0.000 
#
# Total GULP energy -178772.914864 kJ/mol
# GULP energy per Si atom -5586.653589 kJ/mol
# Density = 1.890379 g / cm^3
# Si number density = 18.946910 Si / 1000 Ang^3
#
#
#
# Elastic Constant Matrix: (Units=GPa)
#
#
# Indices 1 2 3 4 5 6 
#
# 1 105.2069 18.6438 45.5508 0.0000 3.9339 0.0000
# 2 18.6438 57.9733 40.8018 0.0000 -6.6993 0.0000
# 3 45.5508 40.8018 110.9298 0.0000 1.1151 0.0000
# 4 0.0000 0.0000 0.0000 16.2392 0.0000 -0.4091
# 5 3.9339 -6.6993 1.1151 0.0000 35.3878 0.0000
# 6 0.0000 0.0000 0.0000 -0.4091 0.0000 16.8441
#
#
#
# Elastic Compliance Matrix: (Units=1/GPa)
#
#
# Indices 1 2 3 4 5 6 
#
# 1 0.011628 -0.000724 -0.004495 0.000000 -0.001288 0.000000
# 2 -0.000724 0.024120 -0.008624 0.000000 0.004919 0.000000
# 3 -0.004495 -0.008624 0.014048 0.000000 -0.001576 0.000000
# 4 0.000000 0.000000 0.000000 0.061617 0.000000 0.001497
# 5 -0.001288 0.004919 -0.001576 0.000000 0.029382 0.000000
# 6 0.000000 0.000000 0.000000 0.001497 0.000000 0.059404
#
#
# Mechanical properties :
#
#
# Convention : Reuss Voigt Hill
#
# Bulk Modulus (GPa) = 45.22967 53.78920 49.50944
# Shear Modulus (GPa) = 21.25334 24.96844 23.11089
#
# Velocity S-wave (km/s) = 3.35286 3.63410 3.49631
# Velocity P-wave (km/s) = 6.23799 6.78675 6.51815
#
# Compressibility (1/GPa) = 0.02210938
#
# Stress axis : x y z
#
# Youngs Moduli (GPa) = 85.99968 41.45920 71.18245
#
# Poissons Ratio (x) = 0.03004 0.31999
# Poissons Ratio (y) = 0.06231 0.61386
# Poissons Ratio (z) = 0.38660 0.35753
#
# Static dielectric constant tensor:
#      x y z
#    x 1.702360 0.000000 0.014610 
#    y 0.000000 1.650610 0.000000 
#    z 0.014610 0.000000 1.706200 
# 
# From -- ./inp_files/99062.got.cif
#   From: 2010.05.17/outbox.cif.g08.bks.cpg/sg12_50_cif.got.tgz:99062.got - 2010.06.03 13:09:07.
