data_PCOD9220680
_publ_section_title
;
Structure prediction by ZEFSAII (Michael W. Deem and Ramdas Pophale) SiO2 
 PCOD9220680
Probable space group: C 2/M
;
_chemical_formula_sum "Si O2"
_cell_formula_units_Z 40
_cell_length_a 13.649903
_cell_length_b 14.916647
_cell_length_c 10.023642
_cell_angle_alpha 90.000000
_cell_angle_beta 95.306509
_cell_angle_gamma 90.000000
_cell_volume 2032.174627
_symmetry_space_group_name_H-M "C 2/M"
_symmetry_group_IT_number 12
_symmetry_cell_setting 'monoclinic'
loop_
_space_group_symop_operation_xyz
x,y,z
-x,y,-z
-x,-y,-z
x,-y,z
1/2+x,1/2+y,z
1/2-x,1/2+y,-z
1/2-x,1/2-y,-z
1/2+x,1/2-y,z
loop_
_atom_site_type_symbol
_atom_site_label
_atom_site_fract_x
_atom_site_fract_y
_atom_site_fract_z
Si Si1 0.955152 0.500000 0.847943
Si Si2 0.217388 0.000000 0.822460
Si Si3 0.016245 0.688825 0.727633
Si Si4 0.043223 0.000000 0.355525
Si Si5 0.552201 0.631605 0.866848
Si Si6 0.257292 0.500000 0.478381
Si Si7 0.155505 0.688185 0.491402
O O1 0.835576 0.500000 0.845093
O O2 0.994331 0.589720 0.780141
O O3 0.000000 0.500000 0.000000
O O4 0.160648 0.086461 0.875572
O O5 0.193925 0.000000 0.661692
O O6 0.917207 0.715963 0.636441
O O7 0.046760 0.762441 0.840096
O O8 0.099071 0.691615 0.624099
O O9 0.159994 0.000000 0.397057
O O10 0.000000 0.000000 0.500000
O O11 0.006435 0.083878 0.262474
O O12 0.500000 0.610284 0.000000
O O13 0.190316 0.587007 0.476329
O O14 0.250000 0.750000 0.500000
#
# Coordination Sequence:
#
# PCOD9220680 Si02
#       7
#     4   4   8   4   8   4   8
#     4  12  26  49  66  96 137 187 229 274 339 414
#     4  11  22  44  72  93 135 177 226 283 341 400
#     4  11  24  43  68  97 136 178 227 280 338 398
#     4  11  22  37  70 101 134 171 222 282 338 397
#     4  11  24  45  68 101 141 178 224 284 343 402
#     4  12  20  39  66  97 133 172 221 281 343 396
#     4  11  23  39  66  99 135 170 224 282 342 397
#
# _framework density 19.683347999999999
#
# number of rings (size 3 to 8) (size 9 to 14) (size 15 to 20)
#    0.000    0.800    4.000    4.800    2.800    1.600 
#   10.800    2.000    0.000    0.000    0.000    0.000 
#    0.000    0.000    0.000    0.000    0.000    0.000 
#
# Total GULP energy -111741.628150 kJ/mol
# GULP energy per Si atom -5587.081408 kJ/mol
# Density = 1.963855 g / cm^3
# Si number density = 19.683348 Si / 1000 Ang^3
#
#
#
# Elastic Constant Matrix: (Units=GPa)
#
#
# Indices 1 2 3 4 5 6 
#
# 1 123.3744 55.7456 30.6598 0.0000 5.8062 0.0000
# 2 55.7456 145.8515 26.4276 0.0000 -4.5378 0.0000
# 3 30.6598 26.4276 98.2634 0.0000 3.1378 0.0000
# 4 0.0000 0.0000 0.0000 48.3115 0.0000 -46.5689
# 5 5.8062 -4.5378 3.1378 0.0000 14.0770 0.0000
# 6 0.0000 0.0000 0.0000 -46.5689 0.0000 75.3811
#
#
#
# Elastic Compliance Matrix: (Units=1/GPa)
#
#
# Indices 1 2 3 4 5 6 
#
# 1 0.010603 -0.003829 -0.002114 0.000000 -0.005136 0.000000
# 2 -0.003829 0.008700 -0.001294 0.000000 0.004672 0.000000
# 3 -0.002114 -0.001294 0.011250 0.000000 -0.002053 0.000000
# 4 0.000000 0.000000 0.000000 0.051171 0.000000 0.031613
# 5 -0.005136 0.004672 -0.002053 0.000000 0.075120 0.000000
# 6 0.000000 0.000000 0.000000 0.031613 0.000000 0.032796
#
#
# Mechanical properties :
#
#
# Convention : Reuss Voigt Hill
#
# Bulk Modulus (GPa) = 62.20041 65.90614 64.05327
# Shear Modulus (GPa) = 23.86934 44.53101 34.20017
#
# Velocity S-wave (km/s) = 3.48611 4.76160 4.17288
# Velocity P-wave (km/s) = 6.91904 7.98663 7.47193
#
# Compressibility (1/GPa) = 0.01607707
#
# Stress axis : x y z
#
# Youngs Moduli (GPa) = 94.31537 114.94679 88.88831
#
# Poissons Ratio (x) = 0.44015 0.18794
# Poissons Ratio (y) = 0.36115 0.11504
# Poissons Ratio (z) = 0.19942 0.14876
#
# Static dielectric constant tensor:
#      x y z
#    x 1.717530 0.000000 -0.005170 
#    y 0.000000 1.710310 0.000000 
#    z -0.005170 0.000000 1.675350 
# 
# From -- ./inp_files/59156.got.cif
#   From: 2010.05.17/outbox.cif.g08.bks.cpg/sg12_30_cif.got.tgz:59156.got - 2010.06.03 13:09:07.
