data_PCOD9220991
_publ_section_title
;
Structure prediction by ZEFSAII (Michael W. Deem and Ramdas Pophale) SiO2 
 PCOD9220991
Probable space group: C 2/M
;
_chemical_formula_sum "Si O2"
_cell_formula_units_Z 40
_cell_length_a 13.701068
_cell_length_b 18.219475
_cell_length_c 12.170037
_cell_angle_alpha 90.000000
_cell_angle_beta 148.957607
_cell_angle_gamma 90.000000
_cell_volume 1566.591824
_symmetry_space_group_name_H-M "C 2/M"
_symmetry_group_IT_number 12
_symmetry_cell_setting 'monoclinic'
loop_
_space_group_symop_operation_xyz
x,y,z
-x,y,-z
-x,-y,-z
x,-y,z
1/2+x,1/2+y,z
1/2-x,1/2+y,-z
1/2-x,1/2-y,-z
1/2+x,1/2-y,z
loop_
_atom_site_type_symbol
_atom_site_label
_atom_site_fract_x
_atom_site_fract_y
_atom_site_fract_z
Si Si1 0.228269 0.240140 0.628491
Si Si2 0.276394 0.000000 0.285861
Si Si3 0.162831 0.500000 0.408699
Si Si4 0.725254 0.000000 0.227140
Si Si5 0.810318 0.159782 0.889288
Si Si6 0.992799 0.338752 0.236891
Si Si7 0.000000 0.119998 0.500000
O O1 0.199958 0.275922 0.719646
O O2 0.148117 0.303098 0.471153
O O3 0.438541 0.208398 0.802131
O O4 0.098216 0.168503 0.501382
O O5 0.500000 0.000000 0.500000
O O6 0.226444 0.000000 0.368097
O O7 0.225051 0.925467 0.175060
O O8 0.280939 0.500000 0.410514
O O9 0.041418 0.425103 0.281807
O O10 0.830378 0.071690 0.285424
O O11 0.500000 0.000000 0.000000
O O12 0.721571 0.168322 0.925489
O O13 0.000000 0.168825 0.000000
#
# Coordination Sequence:
#
# PCOD9220991 Si02
#       7
#     8   4   4   4   8   8   4
#     4  11  22  41  68  97 130 180 236 273 341 425
#     4  12  21  41  72  90 134 190 229 275 341 433
#     4  12  21  41  72  92 128 187 235 281 341 417
#     4  11  27  48  72 106 137 184 243 297 340 410
#     4  12  24  40  64 103 145 176 225 299 351 408
#     4  11  22  40  67  96 127 183 236 273 338 420
#     4  11  22  46  76  97 136 190 232 279 362 414
#
# _framework density 25.533134
#
# number of rings (size 3 to 8) (size 9 to 14) (size 15 to 20)
#    0.000    0.600    8.000    0.300    0.000    1.600 
#    0.000    8.000    0.000    0.000    0.000    0.000 
#    0.000    0.000    0.000    0.000    0.000    0.000 
#
# Total GULP energy -111470.237565 kJ/mol
# GULP energy per Si atom -5573.511878 kJ/mol
# Density = 2.547502 g / cm^3
# Si number density = 25.533134 Si / 1000 Ang^3
#
#
#
# Elastic Constant Matrix: (Units=GPa)
#
#
# Indices 1 2 3 4 5 6 
#
# 1 134.8820 49.0821 21.5785 0.0000 32.7002 0.0000
# 2 49.0821 176.2742 31.7345 0.0000 18.3672 0.0000
# 3 21.5785 31.7345 62.5630 0.0000 42.2021 0.0000
# 4 0.0000 0.0000 0.0000 20.9888 0.0000 1.1726
# 5 32.7002 18.3672 42.2021 0.0000 55.0129 0.0000
# 6 0.0000 0.0000 0.0000 1.1726 0.0000 56.9235
#
#
#
# Elastic Compliance Matrix: (Units=1/GPa)
#
#
# Indices 1 2 3 4 5 6 
#
# 1 0.009531 -0.002398 0.002509 0.000000 -0.006789 0.000000
# 2 -0.002398 0.006860 -0.004288 0.000000 0.002425 0.000000
# 3 0.002509 -0.004288 0.035923 0.000000 -0.027617 0.000000
# 4 0.000000 0.000000 0.000000 0.047699 0.000000 -0.000983
# 5 -0.006789 0.002425 -0.027617 0.000000 0.042590 0.000000
# 6 0.000000 0.000000 0.000000 -0.000983 0.000000 0.017588
#
#
# Mechanical properties :
#
#
# Convention : Reuss Voigt Hill
#
# Bulk Modulus (GPa) = 22.74828 64.27884 43.51356
# Shear Modulus (GPa) = 27.29274 44.67332 35.98303
#
# Velocity S-wave (km/s) = 3.27297 4.18739 3.75809
# Velocity P-wave (km/s) = 4.81786 6.97196 5.99250
#
# Compressibility (1/GPa) = 0.04395937
#
# Stress axis : x y z
#
# Youngs Moduli (GPa) = 104.91916 145.77128 27.83734
#
# Poissons Ratio (x) = 0.34957 -0.06984
# Poissons Ratio (y) = 0.25161 0.11937
# Poissons Ratio (z) = -0.26323 0.62509
#
# Static dielectric constant tensor:
#      x y z
#    x 1.924320 0.000000 -0.355920 
#    y 0.000000 1.936990 0.000000 
#    z -0.355920 0.000000 1.026610 
# 
# From -- ./inp_files/216982.got.cif
#   From: 2010.05.17/outbox.cif.g08.bks.cpg/sg12_109_cif.got.tgz:216982.got - 2010.06.03 13:09:07.
