data_PCOD9220109
_publ_section_title
;
Structure prediction by ZEFSAII (Michael W. Deem and Ramdas Pophale) SiO2 
 PCOD9220109
Probable space group: C 2/M
;
_chemical_formula_sum "Si O2"
_cell_formula_units_Z 56
_cell_length_a 8.789125
_cell_length_b 20.900385
_cell_length_c 17.001495
_cell_angle_alpha 90.000000
_cell_angle_beta 66.957238
_cell_angle_gamma 90.000000
_cell_volume 2873.924761
_symmetry_space_group_name_H-M "C 2/M"
_symmetry_group_IT_number 12
_symmetry_cell_setting 'monoclinic'
loop_
_space_group_symop_operation_xyz
x,y,z
-x,y,-z
-x,-y,-z
x,-y,z
1/2+x,1/2+y,z
1/2-x,1/2+y,-z
1/2-x,1/2-y,-z
1/2+x,1/2-y,z
loop_
_atom_site_type_symbol
_atom_site_label
_atom_site_fract_x
_atom_site_fract_y
_atom_site_fract_z
Si Si1 0.834398 0.729448 0.563682
Si Si2 0.181511 0.926879 0.203669
Si Si3 0.347093 0.399071 0.972237
Si Si4 0.929845 0.572853 0.847426
Si Si5 0.019033 0.193167 0.327182
Si Si6 0.469058 0.739730 0.920877
Si Si7 0.825380 0.305539 0.804300
O O1 0.750000 0.750000 0.500000
O O2 0.899419 0.789348 0.603910
O O3 0.681352 0.692471 0.634972
O O4 0.000000 0.693733 0.500000
O O5 0.140232 0.924734 0.118865
O O6 0.378176 0.914035 0.172601
O O7 0.091284 0.869806 0.270004
O O8 0.148203 0.000000 0.238234
O O9 0.358569 0.322595 0.958120
O O10 0.500000 0.415611 0.000000
O O11 0.183700 0.419619 0.051811
O O12 0.916700 0.500000 0.823973
O O13 0.861837 0.619859 0.793311
O O14 0.076678 0.257809 0.271075
O O15 0.634477 0.712586 0.846838
O O16 0.393126 0.788503 0.876673
O O17 0.500000 0.768594 0.000000
#
# Coordination Sequence:
#
# PCOD9220109 Si02
#       7
#     8   8   8   8   8   8   8
#     4   9  20  39  66  95 119 145 175 224 287 368
#     4  11  24  40  58  85 120 162 206 251 301 349
#     4  11  22  40  52  76 112 162 219 260 301 341
#     4  11  24  39  54  76 114 166 215 255 298 347
#     4  11  21  38  64  92 121 147 189 240 299 355
#     4  11  22  35  51  80 109 154 203 253 306 335
#     4  12  22  37  57  84 115 148 199 257 300 347
#
# _framework density 19.485548000000001
#
# number of rings (size 3 to 8) (size 9 to 14) (size 15 to 20)
#    0.000    1.143    4.286    3.857    0.000    2.286 
#    0.000    0.000    0.000    4.286    0.000    4.000 
#    0.000    0.000    0.000    0.000    0.000    0.000 
#
# Total GULP energy -156242.817858 kJ/mol
# GULP energy per Si atom -5580.100638 kJ/mol
# Density = 1.944120 g / cm^3
# Si number density = 19.485548 Si / 1000 Ang^3
#
#
#
# Elastic Constant Matrix: (Units=GPa)
#
#
# Indices 1 2 3 4 5 6 
#
# 1 90.0916 43.1640 41.4798 0.0000 -25.9925 0.0000
# 2 43.1640 92.7742 47.8342 0.0000 -20.9034 0.0000
# 3 41.4798 47.8342 97.1484 0.0000 -20.7836 0.0000
# 4 0.0000 0.0000 0.0000 11.4594 0.0000 -8.0787
# 5 -25.9925 -20.9034 -20.7836 0.0000 43.4287 0.0000
# 6 0.0000 0.0000 0.0000 -8.0787 0.0000 20.7116
#
#
#
# Elastic Compliance Matrix: (Units=1/GPa)
#
#
# Indices 1 2 3 4 5 6 
#
# 1 0.016681 -0.004543 -0.003585 0.000000 0.006082 0.000000
# 2 -0.004543 0.016320 -0.005567 0.000000 0.002472 0.000000
# 3 -0.003585 -0.005567 0.015077 0.000000 0.002390 0.000000
# 4 0.000000 0.000000 0.000000 0.120361 0.000000 0.046948
# 5 0.006082 0.002472 0.002390 0.000000 0.029000 0.000000
# 6 0.000000 0.000000 0.000000 0.046948 0.000000 0.066594
#
#
# Mechanical properties :
#
#
# Convention : Reuss Voigt Hill
#
# Bulk Modulus (GPa) = 48.33484 60.55224 54.44354
# Shear Modulus (GPa) = 16.76060 24.95569 20.85814
#
# Velocity S-wave (km/s) = 2.93602 3.58261 3.27531
# Velocity P-wave (km/s) = 6.02934 6.94668 6.50420
#
# Compressibility (1/GPa) = 0.02068901
#
# Stress axis : x y z
#
# Youngs Moduli (GPa) = 59.94701 61.27549 66.32806
#
# Poissons Ratio (x) = 0.27835 0.23776
# Poissons Ratio (y) = 0.27231 0.36926
# Poissons Ratio (z) = 0.21489 0.34113
#
# Static dielectric constant tensor:
#      x y z
#    x 1.758100 0.000000 -0.004300 
#    y 0.000000 1.719330 0.000000 
#    z -0.004300 0.000000 1.778770 
# 
# From -- ./inp_files/257990.got.cif
#   From: 2010.05.17/outbox.cif.g08.bks.cpg/sg12_129_cif.got.tgz:257990.got - 2010.06.03 13:09:07.
