data_PCOD9220195
_publ_section_title
;
Structure prediction by ZEFSAII (Michael W. Deem and Ramdas Pophale) SiO2 
 PCOD9220195
Probable space group: C 2/M
;
_chemical_formula_sum "Si O2"
_cell_formula_units_Z 40
_cell_length_a 10.879301
_cell_length_b 15.484101
_cell_length_c 14.515716
_cell_angle_alpha 90.000000
_cell_angle_beta 138.520344
_cell_angle_gamma 90.000000
_cell_volume 1619.629443
_symmetry_space_group_name_H-M "C 2/M"
_symmetry_group_IT_number 12
_symmetry_cell_setting 'monoclinic'
loop_
_space_group_symop_operation_xyz
x,y,z
-x,y,-z
-x,-y,-z
x,-y,z
1/2+x,1/2+y,z
1/2-x,1/2+y,-z
1/2-x,1/2-y,-z
1/2+x,1/2-y,z
loop_
_atom_site_type_symbol
_atom_site_label
_atom_site_fract_x
_atom_site_fract_y
_atom_site_fract_z
Si Si1 0.046674 0.158727 0.418425
Si Si2 0.981802 0.673991 0.088755
Si Si3 0.135569 0.133764 0.158428
Si Si4 0.954436 0.352167 0.666547
Si Si5 0.138794 0.093085 0.849715
O O1 0.045840 0.251536 0.366326
O O2 0.250812 0.117105 0.522917
O O3 0.000000 0.169691 0.500000
O O4 0.894957 0.105115 0.277107
O O5 0.096272 0.762639 0.140238
O O6 0.038704 0.639187 0.219343
O O7 0.000000 0.625985 0.000000
O O8 0.757242 0.669342 0.962270
O O9 0.350029 0.113332 0.261399
O O10 0.059829 0.099060 0.211852
O O11 0.000000 0.102513 0.000000
O O12 0.219615 0.000000 0.918647
#
# Coordination Sequence:
#
# PCOD9220195 Si02
#       5
#     8   8   8   8   8
#     4  11  24  42  65 100 135 173 220 273 330 395
#     4  11  22  41  70  98 128 169 225 282 327 382
#     4  11  21  39  69  97 130 166 219 285 328 382
#     4  11  22  40  69 101 129 167 224 282 333 379
#     4  12  26  44  64  95 140 181 220 267 332 399
#
# _framework density 24.697006999999999
#
# number of rings (size 3 to 8) (size 9 to 14) (size 15 to 20)
#    0.000    0.800    4.000    5.400    2.800    1.200 
#    0.000    3.000    0.000    0.000    0.000    0.000 
#    0.000    0.000    0.000    0.000    0.000    0.000 
#
# Total GULP energy -111690.987247 kJ/mol
# GULP energy per Si atom -5584.549362 kJ/mol
# Density = 2.464080 g / cm^3
# Si number density = 24.697007 Si / 1000 Ang^3
#
#
#
# Elastic Constant Matrix: (Units=GPa)
#
#
# Indices 1 2 3 4 5 6 
#
# 1 106.1384 18.4800 34.1377 -0.0002 -2.5716 0.0000
# 2 18.4800 72.5443 18.4189 -0.0001 1.7893 0.0000
# 3 34.1377 18.4189 159.0693 -0.0002 4.4767 -0.0001
# 4 -0.0002 -0.0001 -0.0002 2.3838 -0.0002 1.5966
# 5 -2.5716 1.7893 4.4767 -0.0002 61.0049 0.0000
# 6 0.0000 0.0000 -0.0001 1.5966 0.0000 -7.2475
#
#
#
# Elastic Compliance Matrix: (Units=1/GPa)
#
#
# Indices 1 2 3 4 5 6 
#
# 1 0.010463 -0.002170 -0.002012 0.000000 0.000652 0.000000
# 2 -0.002170 0.014658 -0.001219 0.000000 -0.000432 0.000000
# 3 -0.002012 -0.001219 0.006875 0.000000 -0.000554 0.000000
# 4 0.000000 0.000000 0.000000 0.365565 0.000001 0.080530
# 5 0.000652 -0.000432 -0.000554 0.000001 0.016473 0.000000
# 6 0.000000 0.000000 0.000000 0.080530 0.000000 -0.120238
#
#
# Mechanical properties :
#
#
# Convention : Reuss Voigt Hill
#
# Bulk Modulus (GPa) = 47.18896 53.31391 50.25143
# Shear Modulus (GPa) = 16.04295 29.00926 22.52610
#
# Velocity S-wave (km/s) = 2.55147 3.43097 3.02337
# Velocity P-wave (km/s) = 5.27529 6.10979 5.70781
#
# Compressibility (1/GPa) = 0.02119140
#
# Stress axis : x y z
#
# Youngs Moduli (GPa) = 95.57828 68.22300 145.44990
#
# Poissons Ratio (x) = 0.14807 0.29271
# Poissons Ratio (y) = 0.20744 0.17735
# Poissons Ratio (z) = 0.19234 0.08319
#
# Static dielectric constant tensor:
#      x y z
#    x 2.134630 0.000000 0.101970 
#    y 0.000000 2.007430 0.000000 
#    z 0.101970 0.000000 1.952150 
# 
# From -- ./inp_files/206402.got.cif
#   From: 2010.05.17/outbox.cif.g08.bks.cpg/sg12_104_cif.got.tgz:206402.got - 2010.06.03 13:09:07.
