data_PCOD9220972
_publ_section_title
;
Structure prediction by ZEFSAII (Michael W. Deem and Ramdas Pophale) SiO2 
 PCOD9220972
Probable space group: C 2/M
;
_chemical_formula_sum "Si O2"
_cell_formula_units_Z 56
_cell_length_a 15.343341
_cell_length_b 8.545640
_cell_length_c 24.940500
_cell_angle_alpha 90.000000
_cell_angle_beta 58.583663
_cell_angle_gamma 90.000000
_cell_volume 2790.766152
_symmetry_space_group_name_H-M "C 2/M"
_symmetry_group_IT_number 12
_symmetry_cell_setting 'monoclinic'
loop_
_space_group_symop_operation_xyz
x,y,z
-x,y,-z
-x,-y,-z
x,-y,z
1/2+x,1/2+y,z
1/2-x,1/2+y,-z
1/2-x,1/2-y,-z
1/2+x,1/2-y,z
loop_
_atom_site_type_symbol
_atom_site_label
_atom_site_fract_x
_atom_site_fract_y
_atom_site_fract_z
Si Si1 0.666587 0.814999 0.292707
Si Si2 0.662048 0.812726 0.068049
Si Si3 0.964573 0.185706 0.072774
Si Si4 0.238641 0.814284 0.156535
Si Si5 0.714268 0.813129 0.649030
Si Si6 0.055896 0.813422 0.622845
Si Si7 0.109027 0.809651 0.489467
O O1 0.692381 0.762188 0.224523
O O2 0.756377 0.764102 0.304269
O O3 0.562674 0.729727 0.344111
O O4 0.651620 0.000000 0.300169
O O5 0.554392 0.746887 0.081974
O O6 0.688175 0.754882 0.119150
O O7 0.662021 0.000000 0.066218
O O8 0.750000 0.750000 0.000000
O O9 0.858623 0.273508 0.116012
O O10 0.949101 0.000000 0.085527
O O11 0.000000 0.210186 0.000000
O O12 0.223843 0.000000 0.162797
O O13 0.606735 0.765202 0.658111
O O14 0.799396 0.758608 0.578216
O O15 0.720727 0.000000 0.652436
O O16 0.111988 0.758054 0.550290
O O17 0.066316 0.000000 0.623584
O O18 0.000000 0.761126 0.500000
O O19 0.110241 0.000000 0.489405
#
# Coordination Sequence:
#
# PCOD9220972 Si02
#       7
#     8   8   8   8   8   8   8
#     4  12  26  45  65  91 127 170 218 266 320 384
#     4  12  24  41  67 100 134 170 211 259 314 375
#     4  11  23  41  68 100 134 169 209 259 315 375
#     4  12  26  45  69  97 130 170 215 265 322 382
#     4  11  22  40  65  94 129 169 215 265 323 383
#     4  11  22  40  65  94 129 169 215 266 323 381
#     4   9  17  34  62  93 126 166 210 265 323 379
#
# _framework density 20.066174
#
# number of rings (size 3 to 8) (size 9 to 14) (size 15 to 20)
#    0.000    0.857    2.857    5.571    0.000    1.714 
#    0.000    8.571    0.000    0.000    0.000    0.000 
#    0.000    0.000    0.000    0.000    0.000    0.000 
#
# Total GULP energy -156694.238045 kJ/mol
# GULP energy per Si atom -5596.222787 kJ/mol
# Density = 2.002050 g / cm^3
# Si number density = 20.066174 Si / 1000 Ang^3
#
#
#
# Elastic Constant Matrix: (Units=GPa)
#
#
# Indices 1 2 3 4 5 6 
#
# 1 104.7923 0.1763 7.4913 0.0000 30.6238 0.0000
# 2 0.1763 55.2631 10.9186 0.0000 10.2564 0.0000
# 3 7.4913 10.9186 67.7128 0.0000 32.5322 0.0000
# 4 0.0000 0.0000 0.0000 25.1154 0.0000 -0.0109
# 5 30.6238 10.2564 32.5322 0.0000 34.6135 0.0000
# 6 0.0000 0.0000 0.0000 -0.0109 0.0000 33.9120
#
#
#
# Elastic Compliance Matrix: (Units=1/GPa)
#
#
# Indices 1 2 3 4 5 6 
#
# 1 0.015573 0.002437 0.008844 0.000000 -0.022812 0.000000
# 2 0.002437 0.019546 0.000724 0.000000 -0.008628 0.000000
# 3 0.008844 0.000724 0.031973 0.000000 -0.038090 0.000000
# 4 0.000000 0.000000 0.000000 0.039816 0.000000 0.000013
# 5 -0.022812 -0.008628 -0.038090 0.000000 0.087430 0.000000
# 6 0.000000 0.000000 0.000000 0.000013 0.000000 0.029488
#
#
# Mechanical properties :
#
#
# Convention : Reuss Voigt Hill
#
# Bulk Modulus (GPa) = 10.97676 29.43786 20.20731
# Shear Modulus (GPa) = 21.72184 32.67366 27.19775
#
# Velocity S-wave (km/s) = 3.29372 4.03959 3.68557
# Velocity P-wave (km/s) = 4.46620 6.03821 5.31069
#
# Compressibility (1/GPa) = 0.09110152
#
# Stress axis : x y z
#
# Youngs Moduli (GPa) = 64.21421 51.16214 31.27622
#
# Poissons Ratio (x) = -0.12467 -0.27662
# Poissons Ratio (y) = -0.15647 -0.02264
# Poissons Ratio (z) = -0.56793 -0.03704
#
# Static dielectric constant tensor:
#      x y z
#    x 1.685070 0.000000 0.001500 
#    y 0.000000 1.667970 0.000000 
#    z 0.001500 0.000000 1.693880 
# 
# From -- ./inp_files/338552.got.cif
#   From: 2010.05.17/outbox.cif.g08.bks.cpg/sg12_170_cif.got.tgz:338552.got - 2010.06.03 13:09:07.
