data_PCOD9220626
_publ_section_title
;
Structure prediction by ZEFSAII (Michael W. Deem and Ramdas Pophale) SiO2 
 PCOD9220626
Probable space group: C 2/M
;
_chemical_formula_sum "Si O2"
_cell_formula_units_Z 40
_cell_length_a 8.396927
_cell_length_b 15.183630
_cell_length_c 15.751544
_cell_angle_alpha 90.000000
_cell_angle_beta 130.168983
_cell_angle_gamma 90.000000
_cell_volume 1534.599620
_symmetry_space_group_name_H-M "C 2/M"
_symmetry_group_IT_number 12
_symmetry_cell_setting 'monoclinic'
loop_
_space_group_symop_operation_xyz
x,y,z
-x,y,-z
-x,-y,-z
x,-y,z
1/2+x,1/2+y,z
1/2-x,1/2+y,-z
1/2-x,1/2-y,-z
1/2+x,1/2-y,z
loop_
_atom_site_type_symbol
_atom_site_label
_atom_site_fract_x
_atom_site_fract_y
_atom_site_fract_z
Si Si1 0.181198 0.901325 0.767283
Si Si2 0.783269 0.606621 0.169998
Si Si3 0.265776 0.125315 0.436034
Si Si4 0.698729 0.172109 0.371996
Si Si5 0.803828 0.893089 0.045424
O O1 0.227199 0.853078 0.695812
O O2 0.256173 0.860105 0.881872
O O3 0.929236 0.909089 0.684179
O O4 0.269484 0.000000 0.790400
O O5 0.809553 0.500000 0.186713
O O6 0.546606 0.627487 0.112753
O O7 0.950284 0.656985 0.283713
O O8 0.813495 0.632217 0.081023
O O9 0.500000 0.093829 0.500000
O O10 0.221822 0.114573 0.521456
O O11 0.261146 0.229041 0.413858
O O12 0.790048 0.000000 0.045284
#
# Coordination Sequence:
#
# PCOD9220626 Si02
#       5
#     8   8   8   8   8
#     4  11  23  39  63  95 125 153 200 259 303 350
#     4   9  17  34  61  90 123 163 205 243 291 363
#     4  11  24  42  60  80 116 164 204 243 303 368
#     4  11  22  37  59  87 119 159 200 248 308 356
#     4   8  17  34  57  89 126 161 196 244 302 355
#
# _framework density 26.065431
#
# number of rings (size 3 to 8) (size 9 to 14) (size 15 to 20)
#    0.000    2.000    0.000    6.000    0.000    3.600 
#    0.000    4.000    0.000    2.400    0.000    0.000 
#    0.000    0.000    0.000    0.000    0.000    0.000 
#
# Total GULP energy -112015.645962 kJ/mol
# GULP energy per Si atom -5600.782298 kJ/mol
# Density = 2.600611 g / cm^3
# Si number density = 26.065431 Si / 1000 Ang^3
#
#
#
# Elastic Constant Matrix: (Units=GPa)
#
#
# Indices 1 2 3 4 5 6 
#
# 1 93.3246 20.3301 33.1804 0.0000 -23.4472 0.0000
# 2 20.3301 66.9812 16.1803 0.0000 -9.4897 0.0000
# 3 33.1804 16.1803 155.3522 0.0001 -22.2276 0.0000
# 4 0.0000 0.0000 0.0001 -103.6332 0.0001 -60.3515
# 5 -23.4472 -9.4897 -22.2276 0.0001 75.4886 0.0000
# 6 0.0000 0.0000 0.0000 -60.3515 0.0000 -7.5698
#
#
#
# Elastic Compliance Matrix: (Units=1/GPa)
#
#
# Indices 1 2 3 4 5 6 
#
# 1 0.012835 -0.002985 -0.001998 0.000000 0.003023 0.000000
# 2 -0.002985 0.016178 -0.000928 0.000000 0.000833 0.000000
# 3 -0.001998 -0.000928 0.007156 0.000000 0.001370 0.000000
# 4 0.000000 0.000000 0.000000 0.002649 0.000000 -0.021118
# 5 0.003023 0.000833 0.001370 0.000000 0.014694 0.000000
# 6 0.000000 0.000000 0.000000 -0.021118 0.000000 0.036263
#
#
# Mechanical properties :
#
#
# Convention : Reuss Voigt Hill
#
# Bulk Modulus (GPa) = 41.07189 50.55997 45.81593
# Shear Modulus (GPa) = 45.57323 9.25493 27.41408
#
# Velocity S-wave (km/s) = 4.18594 1.88636 3.24657
# Velocity P-wave (km/s) = 6.25734 4.91771 5.62753
#
# Compressibility (1/GPa) = 0.02434755
#
# Stress axis : x y z
#
# Youngs Moduli (GPa) = 77.90932 61.81304 139.73500
#
# Poissons Ratio (x) = 0.18450 0.27919
# Poissons Ratio (y) = 0.23255 0.12971
# Poissons Ratio (z) = 0.15566 0.05738
#
# Static dielectric constant tensor:
#      x y z
#    x 2.101810 0.000000 0.002780 
#    y 0.000000 1.998610 0.000000 
#    z 0.002780 0.000000 1.988250 
# 
# From -- ./inp_files/197327.got.cif
#   From: 2010.05.17/outbox.cif.g08.bks.cpg/sg12_99_cif.got.tgz:197327.got - 2010.06.03 13:09:07.
