data_PCOD9220648
_publ_section_title
;
Structure prediction by ZEFSAII (Michael W. Deem and Ramdas Pophale) SiO2 
 PCOD9220648
Probable space group: C 2/M
;
_chemical_formula_sum "Si O2"
_cell_formula_units_Z 48
_cell_length_a 21.781789
_cell_length_b 8.988747
_cell_length_c 12.161327
_cell_angle_alpha 90.000000
_cell_angle_beta 80.092882
_cell_angle_gamma 90.000000
_cell_volume 2345.571524
_symmetry_space_group_name_H-M "C 2/M"
_symmetry_group_IT_number 12
_symmetry_cell_setting 'monoclinic'
loop_
_space_group_symop_operation_xyz
x,y,z
-x,y,-z
-x,-y,-z
x,-y,z
1/2+x,1/2+y,z
1/2-x,1/2+y,-z
1/2-x,1/2-y,-z
1/2+x,1/2-y,z
loop_
_atom_site_type_symbol
_atom_site_label
_atom_site_fract_x
_atom_site_fract_y
_atom_site_fract_z
Si Si1 0.065198 0.821595 0.419306
Si Si2 0.743376 0.175110 0.121668
Si Si3 0.819074 0.324897 0.486373
Si Si4 0.573417 0.333598 0.973114
Si Si5 0.148636 0.327162 0.776577
Si Si6 0.100034 0.673122 0.190761
O O1 0.127881 0.750750 0.453886
O O2 0.063777 0.766084 0.293700
O O3 0.000000 0.779351 0.500000
O O4 0.070607 0.000000 0.422325
O O5 0.789748 0.257227 0.189130
O O6 0.673726 0.188478 0.188715
O O7 0.757016 0.000000 0.108514
O O8 0.750000 0.250000 0.000000
O O9 0.811883 0.500000 0.518449
O O10 0.750000 0.250000 0.500000
O O11 0.847184 0.315334 0.354875
O O12 0.599856 0.500000 0.976932
O O13 0.592845 0.232955 0.069575
O O14 0.500000 0.342886 0.000000
O O15 0.593994 0.262743 0.852169
O O16 0.143938 0.500000 0.808597
O O17 0.082419 0.500000 0.202546
#
# Coordination Sequence:
#
# PCOD9220648 Si02
#       6
#     8   8   8   8   8   8
#     4  11  26  46  69  98 133 176 225 277 333 395
#     4  11  22  37  61  94 128 165 207 258 318 384
#     4  11  25  45  70 100 134 176 225 277 333 396
#     4  11  25  42  63  93 128 169 214 263 323 386
#     4  11  24  41  64  96 130 168 213 264 322 385
#     4  11  24  42  67  96 129 168 213 266 324 386
#
# _framework density 20.464096000000001
#
# number of rings (size 3 to 8) (size 9 to 14) (size 15 to 20)
#    0.000    1.000    1.667    4.000    2.333   10.000 
#    0.000    0.000    0.000    0.000    0.000    0.000 
#    0.000    0.000    0.000    0.000    0.000    0.000 
#
# Total GULP energy -134181.695091 kJ/mol
# GULP energy per Si atom -5590.903962 kJ/mol
# Density = 2.041752 g / cm^3
# Si number density = 20.464096 Si / 1000 Ang^3
#
#
#
# Elastic Constant Matrix: (Units=GPa)
#
#
# Indices 1 2 3 4 5 6 
#
# 1 83.3715 31.4996 10.9630 0.0000 -22.8231 0.0000
# 2 31.4996 101.8771 38.5010 0.0000 -14.8657 0.0000
# 3 10.9630 38.5010 73.8525 0.0000 -19.7715 0.0000
# 4 0.0000 0.0000 0.0000 34.9142 0.0000 -10.8918
# 5 -22.8231 -14.8657 -19.7715 0.0000 32.4540 0.0000
# 6 0.0000 0.0000 0.0000 -10.8918 0.0000 81.4522
#
#
#
# Elastic Compliance Matrix: (Units=1/GPa)
#
#
# Indices 1 2 3 4 5 6 
#
# 1 0.016403 -0.004543 0.002945 0.000000 0.011248 0.000000
# 2 -0.004543 0.013598 -0.006694 0.000000 -0.001045 0.000000
# 3 0.002945 -0.006694 0.019508 0.000000 0.010890 0.000000
# 4 0.000000 0.000000 0.000000 0.029888 0.000000 0.003997
# 5 0.011248 -0.001045 0.010890 0.000000 0.044879 0.000000
# 6 0.000000 0.000000 0.000000 0.003997 0.000000 0.012812
#
#
# Mechanical properties :
#
#
# Convention : Reuss Voigt Hill
#
# Bulk Modulus (GPa) = 30.37252 46.78090 38.57671
# Shear Modulus (GPa) = 30.36782 41.63993 36.00387
#
# Velocity S-wave (km/s) = 3.85639 4.51575 4.19903
# Velocity P-wave (km/s) = 5.89093 7.07806 6.51161
#
# Compressibility (1/GPa) = 0.03292450
#
# Stress axis : x y z
#
# Youngs Moduli (GPa) = 60.96420 73.54084 51.25981
#
# Poissons Ratio (x) = 0.33412 -0.15096
# Poissons Ratio (y) = 0.27698 0.34314
# Poissons Ratio (z) = -0.17954 0.49229
#
# Static dielectric constant tensor:
#      x y z
#    x 1.743570 0.000000 0.002350 
#    y 0.000000 1.725780 0.000000 
#    z 0.002350 0.000000 1.749250 
# 
# From -- ./inp_files/172163.got.cif
#   From: 2010.05.17/outbox.cif.g08.bks.cpg/sg12_87_cif.got.tgz:172163.got - 2010.06.03 13:09:07.
