data_PCOD9220060
_publ_section_title
;
Structure prediction by ZEFSAII (Michael W. Deem and Ramdas Pophale) SiO2 
 PCOD9220060
Probable space group: C 2/M
;
_chemical_formula_sum "Si O2"
_cell_formula_units_Z 60
_cell_length_a 23.294035
_cell_length_b 14.450095
_cell_length_c 13.848013
_cell_angle_alpha 90.000000
_cell_angle_beta 32.306244
_cell_angle_gamma 90.000000
_cell_volume 2491.182069
_symmetry_space_group_name_H-M "C 2/M"
_symmetry_group_IT_number 12
_symmetry_cell_setting 'monoclinic'
loop_
_space_group_symop_operation_xyz
x,y,z
-x,y,-z
-x,-y,-z
x,-y,z
1/2+x,1/2+y,z
1/2-x,1/2+y,-z
1/2-x,1/2-y,-z
1/2+x,1/2-y,z
loop_
_atom_site_type_symbol
_atom_site_label
_atom_site_fract_x
_atom_site_fract_y
_atom_site_fract_z
Si Si1 0.088465 0.308728 0.569890
Si Si2 0.662101 0.398583 0.207240
Si Si3 0.925614 0.896640 0.453782
Si Si4 0.846049 0.000000 0.248397
Si Si5 0.110605 0.604923 0.898938
Si Si6 0.644435 0.777000 0.041865
Si Si7 0.265908 0.603637 0.183142
Si Si8 0.731639 0.858268 0.534761
O O1 0.103735 0.197382 0.559966
O O2 0.159949 0.345047 0.378038
O O3 0.133087 0.369507 0.596389
O O4 0.959545 0.310157 0.749947
O O5 0.702773 0.500000 0.123445
O O6 0.547530 0.385646 0.319974
O O7 0.641759 0.397363 0.351422
O O8 0.750136 0.322778 0.064533
O O9 0.919414 0.000000 0.419548
O O10 0.841451 0.920486 0.168049
O O11 0.826479 0.919270 0.357032
O O12 0.110236 0.500000 0.938078
O O13 0.126753 0.676956 0.961099
O O14 0.196471 0.611894 0.690691
O O15 0.000000 0.622598 0.000000
O O16 0.670138 0.670312 0.979219
O O17 0.237427 0.500000 0.186821
O O18 0.750000 0.750000 0.500000
#
# Coordination Sequence:
#
# PCOD9220060 Si02
#       8
#     8   8   8   4   8   8   8   8
#     4  11  22  38  63  88 116 160 209 250 294 370
#     4   9  19  37  63  91 118 149 187 251 319 360
#     4   9  19  39  63  88 120 148 189 251 316 365
#     4   8  18  38  57  73 109 162 199 228 306 348
#     4  11  22  35  55  85 124 149 191 255 302 339
#     4  12  22  37  63  91 119 162 210 247 296 371
#     4   9  21  39  59  79 123 168 196 239 312 360
#     4  11  21  38  57  81 114 157 201 246 295 356
#
# _framework density 24.084952999999999
#
# number of rings (size 3 to 8) (size 9 to 14) (size 15 to 20)
#    0.400    1.467    3.333    2.800    0.000    2.133 
#    1.200    0.000    0.000    2.800    0.000    0.000 
#    0.000    0.000    0.000    0.000    0.000    0.000 
#
# Total GULP energy -167096.696791 kJ/mol
# GULP energy per Si atom -5569.889893 kJ/mol
# Density = 2.403013 g / cm^3
# Si number density = 24.084953 Si / 1000 Ang^3
#
#
#
# Elastic Constant Matrix: (Units=GPa)
#
#
# Indices 1 2 3 4 5 6 
#
# 1 53.8853 30.5598 10.0970 0.0000 5.4258 0.0000
# 2 30.5598 139.0906 -3.4850 0.0000 3.1394 0.0000
# 3 10.0970 -3.4850 71.1072 0.0000 -1.9153 0.0000
# 4 0.0000 0.0000 0.0000 15.1663 0.0000 5.3365
# 5 5.4258 3.1394 -1.9153 0.0000 36.6503 0.0000
# 6 0.0000 0.0000 0.0000 5.3365 0.0000 37.1600
#
#
#
# Elastic Compliance Matrix: (Units=1/GPa)
#
#
# Indices 1 2 3 4 5 6 
#
# 1 0.022311 -0.004920 -0.003492 0.000000 -0.003064 0.000000
# 2 -0.004920 0.008297 0.001107 0.000000 0.000076 0.000000
# 3 -0.003492 0.001107 0.014645 0.000000 0.001187 0.000000
# 4 0.000000 0.000000 0.000000 0.069445 0.000000 -0.009973
# 5 -0.003064 0.000076 0.001187 0.000000 0.027794 0.000000
# 6 0.000000 0.000000 0.000000 -0.009973 0.000000 0.028343
#
#
# Mechanical properties :
#
#
# Convention : Reuss Voigt Hill
#
# Bulk Modulus (GPa) = 32.63330 37.60299 35.11815
# Shear Modulus (GPa) = 25.55465 32.92274 29.23869
#
# Velocity S-wave (km/s) = 3.26087 3.70123 3.48800
# Velocity P-wave (km/s) = 5.26843 5.82340 5.55285
#
# Compressibility (1/GPa) = 0.03064354
#
# Stress axis : x y z
#
# Youngs Moduli (GPa) = 44.82054 120.53057 68.28108
#
# Poissons Ratio (x) = 0.59305 0.23842
# Poissons Ratio (y) = 0.22053 -0.07561
# Poissons Ratio (z) = 0.15650 -0.13347
#
# Static dielectric constant tensor:
#      x y z
#    x 1.985760 0.000000 -0.046240 
#    y 0.000000 1.918740 0.000000 
#    z -0.046240 0.000000 1.943430 
# 
# From -- ./inp_files/246706.got.cif
#   From: 2010.05.17/outbox.cif.g08.bks.cpg/sg12_124_cif.got.tgz:246706.got - 2010.06.03 13:09:07.
