data_PCOD9220529
_publ_section_title
;
Structure prediction by ZEFSAII (Michael W. Deem and Ramdas Pophale) SiO2 
 PCOD9220529
Probable space group: C 2/M
;
_chemical_formula_sum "Si O2"
_cell_formula_units_Z 40
_cell_length_a 32.340370
_cell_length_b 8.628736
_cell_length_c 22.989132
_cell_angle_alpha 90.000000
_cell_angle_beta 19.451118
_cell_angle_gamma 90.000000
_cell_volume 2136.300106
_symmetry_space_group_name_H-M "C 2/M"
_symmetry_group_IT_number 12
_symmetry_cell_setting 'monoclinic'
loop_
_space_group_symop_operation_xyz
x,y,z
-x,y,-z
-x,-y,-z
x,-y,z
1/2+x,1/2+y,z
1/2-x,1/2+y,-z
1/2-x,1/2-y,-z
1/2+x,1/2-y,z
loop_
_atom_site_type_symbol
_atom_site_label
_atom_site_fract_x
_atom_site_fract_y
_atom_site_fract_z
Si Si1 0.525652 0.185574 0.645146
Si Si2 0.582134 0.189010 0.336386
Si Si3 0.199178 0.313103 0.718995
Si Si4 0.868701 0.814429 0.960317
Si Si5 0.966301 0.686874 0.951233
O O1 0.476387 0.238499 0.647307
O O2 0.666649 0.240358 0.466402
O O3 0.439029 0.250120 0.810895
O O4 0.521234 0.000000 0.652310
O O5 0.500000 0.241753 0.500000
O O6 0.581145 0.000000 0.338376
O O7 0.725109 0.238546 0.151689
O O8 0.209184 0.500000 0.704762
O O9 0.099570 0.268371 0.801560
O O10 0.136614 0.269473 0.863760
O O11 0.935477 0.759468 0.930471
O O12 0.869718 0.000000 0.956662
O O13 0.964862 0.500000 0.948452
#
# Coordination Sequence:
#
# PCOD9220529 Si02
#       5
#     8   8   8   8   8
#     4  11  22  36  56  81 112 147 182 223 270 322
#     4   9  19  36  57  81 108 139 178 225 274 322
#     4   9  19  37  59  82 110 143 180 225 274 323
#     4  11  22  36  56  81 112 147 182 223 270 322
#     4   9  19  37  59  82 110 143 180 225 274 323
#
# _framework density 18.723962
#
# number of rings (size 3 to 8) (size 9 to 14) (size 15 to 20)
#    0.000    2.200    0.000    4.200    0.000    4.000 
#    0.000    5.000    0.000    7.200    0.000    0.000 
#    0.000    0.000    0.000    0.000    0.000    0.000 
#
# Total GULP energy -111706.926515 kJ/mol
# GULP energy per Si atom -5585.346326 kJ/mol
# Density = 1.868135 g / cm^3
# Si number density = 18.723962 Si / 1000 Ang^3
#
#
#
# Elastic Constant Matrix: (Units=GPa)
#
#
# Indices 1 2 3 4 5 6 
#
# 1 155.1285 41.5867 166.5529 -0.0007 0.0813 0.0000
# 2 41.5867 28.1531 38.5117 -0.0027 3.3210 -0.0005
# 3 166.5529 38.5117 129.8379 -0.0020 24.4365 -0.0013
# 4 -0.0007 -0.0027 -0.0020 -6.7444 0.0004 -19.4461
# 5 0.0813 3.3210 24.4365 0.0004 17.1906 0.0005
# 6 0.0000 -0.0005 -0.0013 -19.4461 0.0005 7.4308
#
#
#
# Elastic Compliance Matrix: (Units=1/GPa)
#
#
# Indices 1 2 3 4 5 6 
#
# 1 -0.006408 -0.007260 0.013794 -0.000001 -0.018176 0.000000
# 2 -0.007260 0.056270 -0.007288 -0.000003 -0.000477 -0.000006
# 3 0.013794 -0.007288 -0.011036 0.000002 0.017031 0.000001
# 4 -0.000001 -0.000003 0.000002 -0.017351 0.000000 -0.045407
# 5 -0.018176 -0.000477 0.017031 0.000000 0.034140 0.000000
# 6 0.000000 -0.000006 0.000001 -0.045407 0.000000 0.015748
#
#
# Mechanical properties :
#
#
# Convention : Reuss Voigt Hill
#
# Bulk Modulus (GPa) = 26.79683 89.60244 58.19964
# Shear Modulus (GPa) = 58.61083 8.00662 33.30873
#
# Velocity S-wave (km/s) = 5.60094 2.07013 4.22232
# Velocity P-wave (km/s) = 7.49466 7.32613 7.41088
#
# Compressibility (1/GPa) = 0.03731784
#
# Stress axis : x y z
#
# Youngs Moduli (GPa) = -156.05736 17.77161 -90.60859
#
# Poissons Ratio (x) = 0.12902 1.24986
# Poissons Ratio (y) = -1.13296 -0.66034
# Poissons Ratio (z) = 2.15266 0.12952
#
# Static dielectric constant tensor:
#      x y z
#    x 1.625010 0.000000 -0.006290 
#    y 0.000000 1.634260 0.000000 
#    z -0.006290 0.000000 1.619910 
# 
# From -- ./inp_files/118905.got.cif
#   From: 2010.05.17/outbox.cif.g08.bks.cpg/sg12_60_cif.got.tgz:118905.got - 2010.06.03 13:09:07.
