data_PCOD9220252
_publ_section_title
;
Structure prediction by ZEFSAII (Michael W. Deem and Ramdas Pophale) SiO2 
 PCOD9220252
Probable space group: C 2/M
;
_chemical_formula_sum "Si O2"
_cell_formula_units_Z 50
_cell_length_a 12.270951
_cell_length_b 27.576090
_cell_length_c 10.019758
_cell_angle_alpha 90.000000
_cell_angle_beta 131.196824
_cell_angle_gamma 90.000000
_cell_volume 2551.212348
_symmetry_space_group_name_H-M "C 2/M"
_symmetry_group_IT_number 12
_symmetry_cell_setting 'monoclinic'
loop_
_space_group_symop_operation_xyz
x,y,z
-x,y,-z
-x,-y,-z
x,-y,z
1/2+x,1/2+y,z
1/2-x,1/2+y,-z
1/2-x,1/2-y,-z
1/2+x,1/2-y,z
loop_
_atom_site_type_symbol
_atom_site_label
_atom_site_fract_x
_atom_site_fract_y
_atom_site_fract_z
Si Si1 0.875609 0.789411 0.294427
Si Si2 0.669997 0.946875 0.166681
Si Si3 0.500000 0.500000 0.500000
Si Si4 0.381898 0.153158 0.788850
Si Si5 0.918353 0.325174 0.299419
Si Si6 0.918148 0.947610 0.173587
Si Si7 0.399187 0.652341 0.036534
O O1 0.730363 0.807605 0.248363
O O2 0.879193 0.731817 0.276860
O O3 0.000000 0.802557 0.500000
O O4 0.895847 0.815554 0.168384
O O5 0.690061 0.900377 0.275589
O O6 0.754475 0.938457 0.096816
O O7 0.730033 0.000000 0.264131
O O8 0.500000 0.951964 0.000000
O O9 0.498583 0.457951 0.378397
O O10 0.466806 0.167072 0.725544
O O11 0.500000 0.148482 0.000000
O O12 0.766321 0.351371 0.147938
O O13 0.000000 0.340014 0.500000
O O14 0.921919 0.000000 0.104837
O O15 0.960277 0.900497 0.126719
O O16 0.500000 0.672961 0.000000
#
# Coordination Sequence:
#
# PCOD9220252 Si02
#       7
#     8   8   2   8   8   8   8
#     4  11  26  41  66  94 125 171 231 270 326 391
#     4   9  16  31  57  90 114 151 209 260 302 370
#     4   8  20  36  64  92 130 158 214 268 302 392
#     4  11  21  40  69  88 124 174 217 275 323 391
#     4  11  27  45  60  94 133 173 219 275 335 387
#     4   9  19  38  61  90 129 160 206 260 319 379
#     4  12  25  41  65  96 134 171 213 271 334 395
#
# _framework density 19.598524000000001
#
# number of rings (size 3 to 8) (size 9 to 14) (size 15 to 20)
#    0.480    1.120    3.200    1.440    5.600    1.600 
#    0.000    0.000    0.000    1.920    0.000    0.000 
#    0.000    0.000    0.000    0.000    0.000    0.000 
#
# Total GULP energy -139181.212041 kJ/mol
# GULP energy per Si atom -5567.248482 kJ/mol
# Density = 1.955392 g / cm^3
# Si number density = 19.598524 Si / 1000 Ang^3
#
#
#
# Elastic Constant Matrix: (Units=GPa)
#
#
# Indices 1 2 3 4 5 6 
#
# 1 102.8316 16.9636 28.9786 0.0000 -26.1291 0.0000
# 2 16.9636 74.5053 29.1631 0.0000 -5.0062 0.0000
# 3 28.9786 29.1631 108.1448 0.0000 -16.3951 0.0000
# 4 0.0000 0.0000 0.0000 3.8601 0.0000 -26.0644
# 5 -26.1291 -5.0062 -16.3951 0.0000 25.1682 0.0000
# 6 0.0000 0.0000 0.0000 -26.0644 0.0000 -8.3679
#
#
#
# Elastic Compliance Matrix: (Units=1/GPa)
#
#
# Indices 1 2 3 4 5 6 
#
# 1 0.013674 -0.001763 -0.001209 0.000000 0.013058 0.000000
# 2 -0.001763 0.015236 -0.003833 0.000000 -0.001296 0.000000
# 3 -0.001209 -0.003833 0.011427 0.000000 0.005426 0.000000
# 4 0.000000 0.000000 0.000000 0.011758 0.000000 -0.036625
# 5 0.013058 -0.001296 0.005426 0.000000 0.056566 0.000000
# 6 0.000000 0.000000 0.000000 -0.036625 0.000000 -0.005424
#
#
# Mechanical properties :
#
#
# Convention : Reuss Voigt Hill
#
# Bulk Modulus (GPa) = 37.41388 48.41026 42.91207
# Shear Modulus (GPa) = 39.75935 18.15719 28.95827
#
# Velocity S-wave (km/s) = 4.50899 3.04708 3.84809
# Velocity P-wave (km/s) = 6.79997 6.09378 6.45654
#
# Compressibility (1/GPa) = 0.02672805
#
# Stress axis : x y z
#
# Youngs Moduli (GPa) = 73.13084 65.63228 87.51128
#
# Poissons Ratio (x) = 0.11569 0.10582
# Poissons Ratio (y) = 0.12891 0.33542
# Poissons Ratio (z) = 0.08843 0.25156
#
# Static dielectric constant tensor:
#      x y z
#    x 1.648400 0.000000 0.017640 
#    y 0.000000 1.749560 0.000000 
#    z 0.017640 0.000000 1.703950 
# 
# From -- ./inp_files/54372.got.cif
#   From: 2010.05.17/outbox.cif.g08.bks.cpg/sg12_28_cif.got.tgz:54372.got - 2010.06.03 13:09:07.
