data_PCOD9220490
_publ_section_title
;
Structure prediction by ZEFSAII (Michael W. Deem and Ramdas Pophale) SiO2 
 PCOD9220490
Probable space group: C 2/M
;
_chemical_formula_sum "Si O2"
_cell_formula_units_Z 40
_cell_length_a 22.704923
_cell_length_b 7.872930
_cell_length_c 11.302054
_cell_angle_alpha 90.000000
_cell_angle_beta 93.062765
_cell_angle_gamma 90.000000
_cell_volume 2017.404631
_symmetry_space_group_name_H-M "C 2/M"
_symmetry_group_IT_number 12
_symmetry_cell_setting 'monoclinic'
loop_
_space_group_symop_operation_xyz
x,y,z
-x,y,-z
-x,-y,-z
x,-y,z
1/2+x,1/2+y,z
1/2-x,1/2+y,-z
1/2-x,1/2-y,-z
1/2+x,1/2-y,z
loop_
_atom_site_type_symbol
_atom_site_label
_atom_site_fract_x
_atom_site_fract_y
_atom_site_fract_z
Si Si1 0.150915 0.310230 0.736737
Si Si2 0.319563 0.702781 0.002391
Si Si3 0.764524 0.699535 0.634197
Si Si4 0.086961 0.000000 0.601193
Si Si5 0.047070 0.000000 0.326998
Si Si6 0.885172 0.695123 0.770357
O O1 0.128571 0.500000 0.710708
O O2 0.220305 0.301543 0.712419
O O3 0.120178 0.167092 0.653470
O O4 0.148777 0.265395 0.874656
O O5 0.323239 0.500000 0.996527
O O6 0.353073 0.779228 0.892987
O O7 0.250000 0.750000 0.000000
O O8 0.752928 0.500000 0.652466
O O9 0.750000 0.750000 0.500000
O O10 0.832244 0.727880 0.671900
O O11 0.079970 0.000000 0.458525
O O12 0.021708 0.000000 0.649818
O O13 0.065995 0.165637 0.254513
O O14 0.905260 0.500000 0.761673
#
# Coordination Sequence:
#
# PCOD9220490 Si02
#       6
#     8   8   8   4   4   8
#     4  12  24  41  65  97 134 174 220 276 334 398
#     4  12  22  39  64  98 140 179 218 266 338 409
#     4  11  22  35  57  93 135 170 212 270 334 401
#     4  11  26  49  69  97 131 178 236 275 334 395
#     4  11  26  47  73  93 131 184 226 283 330 395
#     4  11  24  41  63  99 134 172 222 273 333 400
#
# _framework density 19.827456000000002
#
# number of rings (size 3 to 8) (size 9 to 14) (size 15 to 20)
#    0.000    0.600    5.000    3.600    2.800    3.200 
#    0.000    4.000    0.000    2.400    0.000    0.000 
#    0.000    0.000    0.000    0.000    0.000    0.000 
#
# Total GULP energy -111861.579252 kJ/mol
# GULP energy per Si atom -5593.078963 kJ/mol
# Density = 1.978233 g / cm^3
# Si number density = 19.827456 Si / 1000 Ang^3
#
#
#
# Elastic Constant Matrix: (Units=GPa)
#
#
# Indices 1 2 3 4 5 6 
#
# 1 39.8930 38.9564 -1.7329 0.0000 -15.7567 0.0000
# 2 38.9564 141.0335 -0.6105 0.0000 -12.0178 0.0000
# 3 -1.7329 -0.6105 53.8587 0.0000 -18.6515 0.0000
# 4 0.0000 0.0000 0.0000 27.8327 0.0000 -3.1704
# 5 -15.7567 -12.0178 -18.6515 0.0000 30.1668 0.0000
# 6 0.0000 0.0000 0.0000 -3.1704 0.0000 16.4061
#
#
#
# Elastic Compliance Matrix: (Units=1/GPa)
#
#
# Indices 1 2 3 4 5 6 
#
# 1 0.046195 -0.010458 0.010537 0.000000 0.026477 0.000000
# 2 -0.010458 0.009791 -0.000975 0.000000 -0.002165 0.000000
# 3 0.010537 -0.000975 0.026297 0.000000 0.021374 0.000000
# 4 0.000000 0.000000 0.000000 0.036738 0.000000 0.007099
# 5 0.026477 -0.002165 0.021374 0.000000 0.059331 0.000000
# 6 0.000000 0.000000 0.000000 0.007099 0.000000 0.062325
#
#
# Mechanical properties :
#
#
# Convention : Reuss Voigt Hill
#
# Bulk Modulus (GPa) = 12.42404 34.22348 23.32376
# Shear Modulus (GPa) = 18.56668 28.09260 23.32964
#
# Velocity S-wave (km/s) = 3.06341 3.76819 3.43393
# Velocity P-wave (km/s) = 4.33501 6.01918 5.24513
#
# Compressibility (1/GPa) = 0.08048911
#
# Stress axis : x y z
#
# Youngs Moduli (GPa) = 21.64721 102.13883 38.02732
#
# Poissons Ratio (x) = 1.06820 -0.40069
# Poissons Ratio (y) = 0.22639 0.03709
# Poissons Ratio (z) = -0.22809 0.09962
#
# Static dielectric constant tensor:
#      x y z
#    x 1.677910 0.000000 0.003900 
#    y 0.000000 1.697710 0.000000 
#    z 0.003900 0.000000 1.705510 
# 
# From -- ./inp_files/162533.got.cif
#   From: 2010.05.17/outbox.cif.g08.bks.cpg/sg12_82_cif.got.tgz:162533.got - 2010.06.03 13:09:07.
