data_PCOD9220120
_publ_section_title
;
Structure prediction by ZEFSAII (Michael W. Deem and Ramdas Pophale) SiO2 
 PCOD9220120
Probable space group: C 2/M
;
_chemical_formula_sum "Si O2"
_cell_formula_units_Z 40
_cell_length_a 15.023051
_cell_length_b 13.354555
_cell_length_c 17.567870
_cell_angle_alpha 90.000000
_cell_angle_beta 146.423500
_cell_angle_gamma 90.000000
_cell_volume 1949.265394
_symmetry_space_group_name_H-M "C 2/M"
_symmetry_group_IT_number 12
_symmetry_cell_setting 'monoclinic'
loop_
_space_group_symop_operation_xyz
x,y,z
-x,y,-z
-x,-y,-z
x,-y,z
1/2+x,1/2+y,z
1/2-x,1/2+y,-z
1/2-x,1/2-y,-z
1/2+x,1/2-y,z
loop_
_atom_site_type_symbol
_atom_site_label
_atom_site_fract_x
_atom_site_fract_y
_atom_site_fract_z
Si Si1 0.557715 0.611809 0.954436
Si Si2 0.845329 0.262051 0.202984
Si Si3 0.325758 0.381189 0.334278
Si Si4 0.140879 0.227786 0.301677
Si Si5 0.555240 0.111952 0.452025
O O1 0.615442 0.500000 0.973990
O O2 0.689614 0.700148 0.046790
O O3 0.500000 0.608688 0.000000
O O4 0.410065 0.644511 0.796435
O O5 0.821903 0.175256 0.249726
O O6 0.989737 0.237544 0.248992
O O7 0.905479 0.357435 0.294204
O O8 0.500000 0.366280 0.500000
O O9 0.300209 0.500000 0.308166
O O10 0.194185 0.327296 0.294327
O O11 0.298799 0.187630 0.456571
O O12 0.500000 0.119407 0.500000
O O13 0.608784 0.000000 0.473587
#
# Coordination Sequence:
#
# PCOD9220120 Si02
#       5
#     8   8   8   8   8
#     4  11  23  42  68  91 124 162 206 266 330 378
#     4  12  23  42  64  95 128 169 212 263 316 382
#     4  11  24  43  64  93 133 175 211 257 318 381
#     4  12  23  42  64  95 128 169 212 263 316 382
#     4  11  21  38  66  95 126 160 212 268 320 372
#
# _framework density 20.520551000000001
#
# number of rings (size 3 to 8) (size 9 to 14) (size 15 to 20)
#    0.000    0.600    6.000    2.400    0.000    6.400 
#    0.000    2.000    0.000    0.000    0.000    0.000 
#    0.000    0.000    0.000    0.000    0.000    0.000 
#
# Total GULP energy -111777.434041 kJ/mol
# GULP energy per Si atom -5588.871702 kJ/mol
# Density = 2.047385 g / cm^3
# Si number density = 20.520551 Si / 1000 Ang^3
#
#
#
# Elastic Constant Matrix: (Units=GPa)
#
#
# Indices 1 2 3 4 5 6 
#
# 1 67.4705 32.9344 -12.0540 -0.0001 7.1474 0.0001
# 2 32.9344 138.2671 10.0157 -0.0002 6.4145 0.0000
# 3 -12.0540 10.0157 56.3800 -0.0005 -2.3131 0.0000
# 4 -0.0001 -0.0002 -0.0005 25.0062 -0.0001 6.2239
# 5 7.1474 6.4145 -2.3131 -0.0001 29.3330 0.0001
# 6 0.0001 0.0000 0.0000 6.2239 0.0001 5.0087
#
#
#
# Elastic Compliance Matrix: (Units=1/GPa)
#
#
# Indices 1 2 3 4 5 6 
#
# 1 0.018166 -0.004514 0.004559 0.000000 -0.003080 -0.000001
# 2 -0.004514 0.008535 -0.002521 0.000000 -0.000965 0.000000
# 3 0.004559 -0.002521 0.019199 0.000001 0.000954 -0.000001
# 4 0.000000 0.000000 0.000001 0.057896 0.000000 -0.071942
# 5 -0.003080 -0.000965 0.000954 0.000000 0.035128 -0.000001
# 6 -0.000001 0.000000 -0.000001 -0.071942 -0.000001 0.289047
#
#
# Mechanical properties :
#
#
# Convention : Reuss Voigt Hill
#
# Bulk Modulus (GPa) = 24.42154 35.98999 30.20577
# Shear Modulus (GPa) = 11.19641 27.28433 19.24037
#
# Velocity S-wave (km/s) = 2.33838 3.65034 3.06537
# Velocity P-wave (km/s) = 4.38378 5.94502 5.22306
#
# Compressibility (1/GPa) = 0.04094746
#
# Stress axis : x y z
#
# Youngs Moduli (GPa) = 55.04880 117.16362 52.08718
#
# Poissons Ratio (x) = 0.52892 -0.23749
# Poissons Ratio (y) = 0.24851 0.13131
# Poissons Ratio (z) = -0.25099 0.29537
#
# Static dielectric constant tensor:
#      x y z
#    x 1.757890 0.000000 0.001480 
#    y 0.000000 1.720660 0.000000 
#    z 0.001480 0.000000 1.697260 
# 
# From -- ./inp_files/59115.got.cif
#   From: 2010.05.17/outbox.cif.g08.bks.cpg/sg12_30_cif.got.tgz:59115.got - 2010.06.03 13:09:07.
