data_PCOD9220041
_publ_section_title
;
Structure prediction by ZEFSAII (Michael W. Deem and Ramdas Pophale) SiO2 
 PCOD9220041
Probable space group: C 2/M
;
_chemical_formula_sum "Si O2"
_cell_formula_units_Z 58
_cell_length_a 14.581437
_cell_length_b 13.960292
_cell_length_c 26.299404
_cell_angle_alpha 90.000000
_cell_angle_beta 151.095018
_cell_angle_gamma 90.000000
_cell_volume 2587.677201
_symmetry_space_group_name_H-M "C 2/M"
_symmetry_group_IT_number 12
_symmetry_cell_setting 'monoclinic'
loop_
_space_group_symop_operation_xyz
x,y,z
-x,y,-z
-x,-y,-z
x,-y,z
1/2+x,1/2+y,z
1/2-x,1/2+y,-z
1/2-x,1/2-y,-z
1/2+x,1/2-y,z
loop_
_atom_site_type_symbol
_atom_site_label
_atom_site_fract_x
_atom_site_fract_y
_atom_site_fract_z
Si Si1 0.263422 0.824512 0.652012
Si Si2 0.309122 0.887149 0.124458
Si Si3 0.874962 0.765250 0.610257
Si Si4 0.950350 0.616340 0.031580
Si Si5 0.407829 0.616112 0.081373
Si Si6 0.500000 0.500000 0.500000
Si Si7 0.707230 0.887947 0.769699
Si Si8 0.687028 0.386217 0.722468
O O1 0.484814 0.840016 0.772690
O O2 0.261910 0.742307 0.608546
O O3 0.165592 0.916050 0.578174
O O4 0.168238 0.826110 0.661395
O O5 0.217097 0.879953 0.135441
O O6 0.345601 0.000000 0.133009
O O7 0.185119 0.854018 0.017144
O O8 0.750000 0.750000 0.500000
O O9 0.023973 0.677342 0.680331
O O10 0.007337 0.858788 0.669633
O O11 0.946740 0.500000 0.027292
O O12 0.118694 0.636729 0.153238
O O13 0.000000 0.653844 0.000000
O O14 0.741578 0.645708 0.948521
O O15 0.414162 0.500000 0.084606
O O16 0.626554 0.645200 0.187446
O O17 0.663320 0.000000 0.739796
O O18 0.686490 0.500000 0.708920
#
# Coordination Sequence:
#
# PCOD9220041 Si02
#       8
#     8   8   8   8   8   2   8   8
#     4  11  21  37  65  98 129 167 226 282 330 395
#     4   9  14  27  52  90 128 159 203 262 329 391
#     4  11  26  42  60  98 139 169 221 296 349 389
#     4   9  18  34  61  93 125 168 224 271 320 397
#     4   9  15  28  54  89 126 167 209 263 328 406
#     4  12  20  32  68 108 118 166 232 280 330 374
#     4   9  19  34  57  89 130 173 212 260 343 417
#     4  11  22  44  71  98 130 178 231 277 334 408
#
# _framework density 22.413924000000002
#
# number of rings (size 3 to 8) (size 9 to 14) (size 15 to 20)
#    0.000    2.069    2.759    1.241    0.966    2.207 
#    2.483    3.448    0.000    0.000    0.000    2.414 
#    0.000    0.000    0.000    0.000    0.000    0.000 
#
# Total GULP energy -161738.457148 kJ/mol
# GULP energy per Si atom -5577.188178 kJ/mol
# Density = 2.236291 g / cm^3
# Si number density = 22.413924 Si / 1000 Ang^3
#
#
#
# Elastic Constant Matrix: (Units=GPa)
#
#
# Indices 1 2 3 4 5 6 
#
# 1 111.4976 22.1840 21.1829 0.0000 -8.9069 0.0000
# 2 22.1840 71.0585 7.4801 0.0000 -1.1624 0.0000
# 3 21.1829 7.4801 62.9665 0.0007 1.7988 0.0000
# 4 0.0000 0.0000 0.0007 17.9471 0.0000 2.9057
# 5 -8.9069 -1.1624 1.7988 0.0000 28.7469 0.0000
# 6 0.0000 0.0000 0.0000 2.9057 0.0000 16.1778
#
#
#
# Elastic Compliance Matrix: (Units=1/GPa)
#
#
# Indices 1 2 3 4 5 6 
#
# 1 0.010422 -0.002856 -0.003262 0.000000 0.003318 0.000000
# 2 -0.002856 0.015047 -0.000820 0.000000 -0.000225 0.000000
# 3 -0.003262 -0.000820 0.017137 -0.000001 -0.002116 0.000000
# 4 0.000000 0.000000 -0.000001 0.057388 0.000000 -0.010308
# 5 0.003318 -0.000225 -0.002116 0.000000 0.035938 0.000000
# 6 0.000000 0.000000 0.000000 -0.010308 0.000000 0.063664
#
#
# Mechanical properties :
#
#
# Convention : Reuss Voigt Hill
#
# Bulk Modulus (GPa) = 34.80696 38.57960 36.69328
# Shear Modulus (GPa) = 22.41671 25.55273 23.98472
#
# Velocity S-wave (km/s) = 3.16590 3.38011 3.27476
# Velocity P-wave (km/s) = 5.37837 5.69940 5.54121
#
# Compressibility (1/GPa) = 0.02872988
#
# Stress axis : x y z
#
# Youngs Moduli (GPa) = 95.95354 66.45754 58.35471
#
# Poissons Ratio (x) = 0.18980 0.19032
# Poissons Ratio (y) = 0.27404 0.04787
# Poissons Ratio (z) = 0.31295 0.05451
#
# Static dielectric constant tensor:
#      x y z
#    x 1.893410 0.000000 -0.004630 
#    y 0.000000 1.828430 0.000000 
#    z -0.004630 0.000000 1.817440 
# 
# From -- ./inp_files/361731.got.cif
#   From: 2010.05.17/outbox.cif.g08.bks.cpg/sg12_181_cif.got.tgz:361731.got - 2010.06.03 13:09:07.
