data_PCOD9220781
_publ_section_title
;
Structure prediction by ZEFSAII (Michael W. Deem and Ramdas Pophale) SiO2 
 PCOD9220781
Probable space group: C 2/M
;
_chemical_formula_sum "Si O2"
_cell_formula_units_Z 52
_cell_length_a 18.007474
_cell_length_b 14.000199
_cell_length_c 15.805775
_cell_angle_alpha 90.000000
_cell_angle_beta 42.500985
_cell_angle_gamma 90.000000
_cell_volume 2692.119255
_symmetry_space_group_name_H-M "C 2/M"
_symmetry_group_IT_number 12
_symmetry_cell_setting 'monoclinic'
loop_
_space_group_symop_operation_xyz
x,y,z
-x,y,-z
-x,-y,-z
x,-y,z
1/2+x,1/2+y,z
1/2-x,1/2+y,-z
1/2-x,1/2-y,-z
1/2+x,1/2-y,z
loop_
_atom_site_type_symbol
_atom_site_label
_atom_site_fract_x
_atom_site_fract_y
_atom_site_fract_z
Si Si1 0.969736 0.111627 0.846102
Si Si2 0.240466 0.388885 0.135782
Si Si3 0.179891 0.806086 0.752740
Si Si4 0.767401 0.107050 0.639246
Si Si5 0.691356 0.112033 0.517201
Si Si6 0.500000 0.677079 0.500000
Si Si7 0.028376 0.269063 0.296417
O O1 0.975778 0.174076 0.756417
O O2 0.057323 0.157404 0.837312
O O3 0.997687 0.000000 0.808879
O O4 0.848039 0.117616 0.986873
O O5 0.208676 0.500000 0.169360
O O6 0.274209 0.350124 0.199716
O O7 0.139217 0.327600 0.186163
O O8 0.195024 0.691832 0.739675
O O9 0.251027 0.843236 0.612986
O O10 0.765055 0.121247 0.539595
O O11 0.890990 0.118307 0.569189
O O12 0.726300 0.000000 0.690778
O O13 0.578315 0.166579 0.630975
O O14 0.671840 0.000000 0.518501
O O15 0.525843 0.741298 0.396964
#
# Coordination Sequence:
#
# PCOD9220781 Si02
#       7
#     8   8   8   8   8   4   8
#     4  11  25  42  65  91 120 167 217 256 303 364
#     4  11  24  42  64  92 123 164 214 260 304 359
#     4  12  21  42  64  92 126 160 203 265 314 361
#     4  11  23  39  60  91 129 165 203 245 306 381
#     4  11  22  38  64  94 125 162 200 252 317 378
#     4  12  23  38  63  92 128 162 197 250 313 364
#     4  12  22  41  63  91 131 163 199 255 313 372
#
# _framework density 19.315639000000001
#
# number of rings (size 3 to 8) (size 9 to 14) (size 15 to 20)
#    0.000    0.615    4.615    4.385    0.000    3.692 
#    0.000    2.308    0.000    2.769    0.000    0.000 
#    0.000    0.000    0.000    0.000    0.000    0.000 
#
# Total GULP energy -145451.925140 kJ/mol
# GULP energy per Si atom -5594.304813 kJ/mol
# Density = 1.927168 g / cm^3
# Si number density = 19.315639 Si / 1000 Ang^3
#
#
#
# Elastic Constant Matrix: (Units=GPa)
#
#
# Indices 1 2 3 4 5 6 
#
# 1 103.5429 38.9599 14.1697 0.0000 -9.6666 0.0000
# 2 38.9599 155.7347 34.6727 0.0000 -6.2675 0.0000
# 3 14.1697 34.6727 22.7601 0.0000 -10.7424 0.0000
# 4 0.0000 0.0000 0.0000 19.3159 0.0000 -3.7187
# 5 -9.6666 -6.2675 -10.7424 0.0000 30.0510 0.0000
# 6 0.0000 0.0000 0.0000 -3.7187 0.0000 22.2252
#
#
#
# Elastic Compliance Matrix: (Units=1/GPa)
#
#
# Indices 1 2 3 4 5 6 
#
# 1 0.011004 -0.002069 -0.002686 0.000000 0.002148 0.000000
# 2 -0.002069 0.010507 -0.016839 0.000000 -0.004494 0.000000
# 3 -0.002686 -0.016839 0.083241 0.000000 0.025380 0.000000
# 4 0.000000 0.000000 0.000000 0.053494 0.000000 0.008951
# 5 0.002148 -0.004494 0.025380 0.000000 0.042103 0.000000
# 6 0.000000 0.000000 0.000000 0.008951 0.000000 0.046492
#
#
# Mechanical properties :
#
#
# Convention : Reuss Voigt Hill
#
# Bulk Modulus (GPa) = 16.24310 50.84916 33.54613
# Shear Modulus (GPa) = 16.10047 27.26742 21.68395
#
# Velocity S-wave (km/s) = 2.89025 3.76130 3.35417
# Velocity P-wave (km/s) = 4.42331 6.72650 5.69260
#
# Compressibility (1/GPa) = 0.06156460
#
# Stress axis : x y z
#
# Youngs Moduli (GPa) = 90.87397 95.17534 12.01335
#
# Poissons Ratio (x) = 0.19687 0.03227
# Poissons Ratio (y) = 0.18797 0.20230
# Poissons Ratio (z) = 0.24407 1.60269
#
# Static dielectric constant tensor:
#      x y z
#    x 1.667950 0.000000 -0.014930 
#    y 0.000000 1.675400 0.000000 
#    z -0.014930 0.000000 1.652550 
# 
# From -- ./inp_files/225624.got.cif
#   From: 2010.05.17/outbox.cif.g08.bks.cpg/sg12_113_cif.got.tgz:225624.got - 2010.06.03 13:09:07.
