data_PCOD9220872
_publ_section_title
;
Structure prediction by ZEFSAII (Michael W. Deem and Ramdas Pophale) SiO2 
 PCOD9220872
Probable space group: C 2/M
;
_chemical_formula_sum "Si O2"
_cell_formula_units_Z 56
_cell_length_a 13.871622
_cell_length_b 27.664650
_cell_length_c 10.791984
_cell_angle_alpha 90.000000
_cell_angle_beta 30.111505
_cell_angle_gamma 90.000000
_cell_volume 2077.707265
_symmetry_space_group_name_H-M "C 2/M"
_symmetry_group_IT_number 12
_symmetry_cell_setting 'monoclinic'
loop_
_space_group_symop_operation_xyz
x,y,z
-x,y,-z
-x,-y,-z
x,-y,z
1/2+x,1/2+y,z
1/2-x,1/2+y,-z
1/2-x,1/2-y,-z
1/2+x,1/2-y,z
loop_
_atom_site_type_symbol
_atom_site_label
_atom_site_fract_x
_atom_site_fract_y
_atom_site_fract_z
Si Si1 0.287926 0.819746 0.179681
Si Si2 0.659828 0.710550 0.923904
Si Si3 0.792227 0.056316 0.691288
Si Si4 0.609116 0.945996 0.131493
Si Si5 0.544936 0.846622 0.262486
Si Si6 0.636523 0.663149 0.611441
Si Si7 0.451840 0.445024 0.257154
O O1 0.255678 0.762668 0.199917
O O2 0.164927 0.841727 0.430295
O O3 0.500000 0.823978 0.000000
O O4 0.309049 0.840289 0.017673
O O5 0.833898 0.675148 0.760323
O O6 0.500000 0.697158 0.000000
O O7 0.514631 0.706534 0.202059
O O8 0.793541 0.056024 0.543028
O O9 0.000000 0.076165 0.500000
O O10 0.799601 0.000000 0.718137
O O11 0.624047 0.070834 0.970784
O O12 0.507568 0.903688 0.319113
O O13 0.532475 0.000000 0.231791
O O14 0.830559 0.947058 0.932709
O O15 0.342420 0.824297 0.444782
O O16 0.566207 0.612650 0.755995
O O17 0.428197 0.500000 0.223656
#
# Coordination Sequence:
#
# PCOD9220872 Si02
#       7
#     8   8   8   8   8   8   8
#     4   9  22  41  64  97 129 161 213 266 325 397
#     4  11  25  46  66  90 127 170 222 273 323 382
#     4   7  11  20  40  73 114 157 198 233 287 367
#     4   9  16  29  53  87 129 169 207 256 309 377
#     4  11  22  39  64  97 131 167 218 261 323 390
#     4  11  23  41  67  97 133 170 209 270 323 382
#     4   9  16  30  55  89 128 171 207 246 314 387
#
# _framework density 26.952787000000001
#
# number of rings (size 3 to 8) (size 9 to 14) (size 15 to 20)
#    0.000    2.429    1.429    3.000    0.000    6.857 
#    0.000    4.286    0.000    6.857    0.000    2.000 
#    0.000    0.000    0.000    0.000    0.000    0.000 
#
# Total GULP energy -156139.144313 kJ/mol
# GULP energy per Si atom -5576.398011 kJ/mol
# Density = 2.689144 g / cm^3
# Si number density = 26.952787 Si / 1000 Ang^3
#
#
#
# Elastic Constant Matrix: (Units=GPa)
#
#
# Indices 1 2 3 4 5 6 
#
# 1 101.8924 46.8849 8.1533 -0.0001 -20.0210 0.0000
# 2 46.8849 175.4210 14.6582 0.0000 -8.7801 0.0000
# 3 8.1533 14.6582 86.7971 -0.0003 -16.1719 -0.0001
# 4 -0.0001 0.0000 -0.0003 62.8037 0.0002 9.1203
# 5 -20.0210 -8.7801 -16.1719 0.0002 25.7209 0.0001
# 6 0.0000 0.0000 -0.0001 9.1203 0.0001 34.1852
#
#
#
# Elastic Compliance Matrix: (Units=1/GPa)
#
#
# Indices 1 2 3 4 5 6 
#
# 1 0.013082 -0.003098 0.001127 0.000000 0.009834 0.000000
# 2 -0.003098 0.006570 -0.000963 0.000000 -0.000774 0.000000
# 3 0.001127 -0.000963 0.013230 0.000000 0.008866 0.000000
# 4 0.000000 0.000000 0.000000 0.016564 0.000000 -0.004419
# 5 0.009834 -0.000774 0.008866 0.000000 0.051844 0.000000
# 6 0.000000 0.000000 0.000000 -0.004419 0.000000 0.030431
#
#
# Mechanical properties :
#
#
# Convention : Reuss Voigt Hill
#
# Bulk Modulus (GPa) = 37.01914 55.94480 46.48197
# Shear Modulus (GPa) = 34.10747 44.16959 39.13853
#
# Velocity S-wave (km/s) = 3.56118 4.05257 3.81480
# Velocity P-wave (km/s) = 5.53841 6.53448 6.05695
#
# Compressibility (1/GPa) = 0.02701305
#
# Stress axis : x y z
#
# Youngs Moduli (GPa) = 76.44061 152.19820 75.58650
#
# Poissons Ratio (x) = 0.47157 -0.08515
# Poissons Ratio (y) = 0.23684 0.07278
# Poissons Ratio (z) = -0.08612 0.14654
#
# Static dielectric constant tensor:
#      x y z
#    x 2.180390 0.000000 0.111530 
#    y 0.000000 2.136690 0.000000 
#    z 0.111530 0.000000 2.157630 
# 
# From -- ./inp_files/150434.got.cif
#   From: 2010.05.17/outbox.cif.g08.bks.cpg/sg12_76_cif.got.tgz:150434.got - 2010.06.03 13:09:07.
