data_PCOD9220383
_publ_section_title
;
Structure prediction by ZEFSAII (Michael W. Deem and Ramdas Pophale) SiO2 
 PCOD9220383
Probable space group: C 2/M
;
_chemical_formula_sum "Si O2"
_cell_formula_units_Z 56
_cell_length_a 17.160832
_cell_length_b 14.942309
_cell_length_c 11.885900
_cell_angle_alpha 90.000000
_cell_angle_beta 126.877868
_cell_angle_gamma 90.000000
_cell_volume 2437.994911
_symmetry_space_group_name_H-M "C 2/M"
_symmetry_group_IT_number 12
_symmetry_cell_setting 'monoclinic'
loop_
_space_group_symop_operation_xyz
x,y,z
-x,y,-z
-x,-y,-z
x,-y,z
1/2+x,1/2+y,z
1/2-x,1/2+y,-z
1/2-x,1/2-y,-z
1/2+x,1/2-y,z
loop_
_atom_site_type_symbol
_atom_site_label
_atom_site_fract_x
_atom_site_fract_y
_atom_site_fract_z
Si Si1 0.698875 0.149572 0.275950
Si Si2 0.018708 0.212504 0.822948
Si Si3 0.669423 0.903423 0.505523
Si Si4 0.352588 0.641538 0.792570
Si Si5 0.104343 0.600010 0.962125
Si Si6 0.303654 0.599964 0.005828
Si Si7 0.908014 0.782357 0.495911
O O1 0.664967 0.114568 0.368151
O O2 0.667921 0.252365 0.231965
O O3 0.653877 0.101877 0.128543
O O4 0.816295 0.156102 0.385385
O O5 0.124245 0.174114 0.881764
O O6 0.966289 0.141246 0.859994
O O7 0.946342 0.210942 0.655760
O O8 0.036408 0.312478 0.887533
O O9 0.782574 0.902268 0.639950
O O10 0.623922 0.821963 0.536468
O O11 0.625998 0.000000 0.494100
O O12 0.318552 0.608429 0.884702
O O13 0.060830 0.500000 0.908161
O O14 0.192868 0.611858 0.949980
O O15 0.332356 0.500000 0.066874
O O16 0.000000 0.801601 0.500000
#
# Coordination Sequence:
#
# PCOD9220383 Si02
#       7
#     8   8   8   8   8   8   8
#     4  11  21  46  66  90 131 183 223 262 331 404
#     4  12  23  43  67  99 135 172 222 280 332 394
#     4  11  23  41  66  95 133 176 220 272 332 399
#     4  11  22  41  65  94 131 172 222 273 330 395
#     4  11  26  44  68 101 136 179 223 272 339 403
#     4  11  25  42  65  98 134 173 220 273 338 399
#     4  11  24  41  68  98 129 176 224 274 334 391
#
# _framework density 22.969695000000002
#
# number of rings (size 3 to 8) (size 9 to 14) (size 15 to 20)
#    0.000    0.857    4.286    3.429    4.000    2.571 
#    0.000    0.714    0.000    3.000    0.000    0.000 
#    0.000    0.000    0.000    0.000    0.000    0.000 
#
# Total GULP energy -156486.826055 kJ/mol
# GULP energy per Si atom -5588.815216 kJ/mol
# Density = 2.291741 g / cm^3
# Si number density = 22.969695 Si / 1000 Ang^3
#
#
#
# Elastic Constant Matrix: (Units=GPa)
#
#
# Indices 1 2 3 4 5 6 
#
# 1 67.5027 -16.7296 11.7817 0.0000 4.6355 0.0000
# 2 -16.7296 78.9927 4.7764 0.0000 10.0977 0.0000
# 3 11.7817 4.7764 82.6963 0.0000 7.9125 0.0000
# 4 0.0000 0.0000 0.0000 8.6277 0.0000 -21.2687
# 5 4.6355 10.0977 7.9125 0.0000 25.9881 0.0000
# 6 0.0000 0.0000 0.0000 -21.2687 0.0000 -8.2795
#
#
#
# Elastic Compliance Matrix: (Units=1/GPa)
#
#
# Indices 1 2 3 4 5 6 
#
# 1 0.016488 0.004120 -0.002217 0.000000 -0.003867 0.000000
# 2 0.004120 0.014357 -0.000837 0.000000 -0.006059 0.000000
# 3 -0.002217 -0.000837 0.012759 0.000000 -0.003164 0.000000
# 4 0.000000 0.000000 0.000000 0.015807 0.000000 -0.040605
# 5 -0.003867 -0.006059 -0.003164 0.000000 0.042486 0.000000
# 6 0.000000 0.000000 0.000000 -0.040605 0.000000 -0.016472
#
#
# Mechanical properties :
#
#
# Convention : Reuss Voigt Hill
#
# Bulk Modulus (GPa) = 21.86380 25.42764 23.64572
# Shear Modulus (GPa) = 50.74162 20.55814 35.64988
#
# Velocity S-wave (km/s) = 4.70517 2.99492 3.94387
# Velocity P-wave (km/s) = 6.24959 4.80141 5.57274
#
# Compressibility (1/GPa) = 0.04573771
#
# Stress axis : x y z
#
# Youngs Moduli (GPa) = 60.65069 69.65208 78.37374
#
# Poissons Ratio (x) = -0.28698 0.17375
# Poissons Ratio (y) = -0.24990 0.06556
# Poissons Ratio (z) = 0.13446 0.05827
#
# Static dielectric constant tensor:
#      x y z
#    x 1.903820 0.000000 0.004500 
#    y 0.000000 1.857480 0.000000 
#    z 0.004500 0.000000 1.889640 
# 
# From -- ./inp_files/156746.got.cif
#   From: 2010.05.17/outbox.cif.g08.bks.cpg/sg12_79_cif.got.tgz:156746.got - 2010.06.03 13:09:07.
