data_PCOD9220167
_publ_section_title
;
Structure prediction by ZEFSAII (Michael W. Deem and Ramdas Pophale) SiO2 
 PCOD9220167
Probable space group: C 2/M
;
_chemical_formula_sum "Si O2"
_cell_formula_units_Z 48
_cell_length_a 13.199288
_cell_length_b 21.573785
_cell_length_c 8.996338
_cell_angle_alpha 90.000000
_cell_angle_beta 113.131441
_cell_angle_gamma 90.000000
_cell_volume 2355.832678
_symmetry_space_group_name_H-M "C 2/M"
_symmetry_group_IT_number 12
_symmetry_cell_setting 'monoclinic'
loop_
_space_group_symop_operation_xyz
x,y,z
-x,y,-z
-x,-y,-z
x,-y,z
1/2+x,1/2+y,z
1/2-x,1/2+y,-z
1/2-x,1/2-y,-z
1/2+x,1/2-y,z
loop_
_atom_site_type_symbol
_atom_site_label
_atom_site_fract_x
_atom_site_fract_y
_atom_site_fract_z
Si Si1 0.889322 0.799698 0.021928
Si Si2 0.164491 0.000000 0.174471
Si Si3 0.470035 0.833946 0.135360
Si Si4 0.438910 0.500000 0.216255
Si Si5 0.697402 0.815451 0.423060
Si Si6 0.106968 0.131600 0.661221
Si Si7 0.703804 0.873281 0.742911
O O1 0.897853 0.725866 0.045405
O O2 0.888002 0.828549 0.185066
O O3 0.788899 0.824478 0.866457
O O4 0.000000 0.820543 0.000000
O O5 0.235563 0.061547 0.231416
O O6 0.067266 0.000000 0.241290
O O7 0.118720 0.000000 0.978949
O O8 0.581863 0.808389 0.272522
O O9 0.401667 0.873751 0.211649
O O10 0.500000 0.868178 0.000000
O O11 0.406720 0.560881 0.290883
O O12 0.750000 0.750000 0.500000
O O13 0.785016 0.852793 0.372786
O O14 0.674743 0.851011 0.562613
O O15 0.000000 0.147616 0.500000
#
# Coordination Sequence:
#
# PCOD9220167 Si02
#       7
#     8   4   8   4   8   8   8
#     4  11  21  39  65  96 130 175 220 276 339 402
#     4  11  24  44  71  99 132 179 227 281 337 401
#     4  11  24  42  65  96 132 175 223 277 335 404
#     4  11  23  42  65  98 135 171 231 282 335 393
#     4  12  25  43  66 101 138 176 222 280 338 409
#     4  12  23  38  65  99 135 174 222 277 339 397
#     4  12  24  44  68  94 135 180 223 275 339 403
#
# _framework density 20.374963000000001
#
# number of rings (size 3 to 8) (size 9 to 14) (size 15 to 20)
#    0.000    0.500    1.667    9.250    0.000    0.667 
#    0.000    2.917    0.000    0.000    0.000    0.000 
#    0.000    0.000    0.000    0.000    0.000    0.000 
#
# Total GULP energy -134352.042852 kJ/mol
# GULP energy per Si atom -5598.001786 kJ/mol
# Density = 2.032859 g / cm^3
# Si number density = 20.374963 Si / 1000 Ang^3
#
#
#
# Elastic Constant Matrix: (Units=GPa)
#
#
# Indices 1 2 3 4 5 6 
#
# 1 123.7963 48.3230 25.3684 0.0000 -34.9172 0.0000
# 2 48.3230 90.6727 22.4659 0.0000 -13.9686 0.0000
# 3 25.3684 22.4659 101.1118 0.0000 -24.2001 0.0000
# 4 0.0000 0.0000 0.0000 -7.3835 0.0000 -19.5610
# 5 -34.9172 -13.9686 -24.2001 0.0000 51.2815 0.0000
# 6 0.0000 0.0000 0.0000 -19.5610 0.0000 19.3218
#
#
#
# Elastic Compliance Matrix: (Units=1/GPa)
#
#
# Indices 1 2 3 4 5 6 
#
# 1 0.012100 -0.005360 -0.000251 0.000000 0.006660 0.000000
# 2 -0.005360 0.014271 -0.001994 0.000000 -0.000704 0.000000
# 3 -0.000251 -0.001994 0.011527 0.000000 0.004726 0.000000
# 4 0.000000 0.000000 0.000000 -0.036783 0.000000 -0.037238
# 5 0.006660 -0.000704 0.004726 0.000000 0.026074 0.000000
# 6 0.000000 0.000000 0.000000 -0.037238 0.000000 0.014056
#
#
# Mechanical properties :
#
#
# Convention : Reuss Voigt Hill
#
# Bulk Modulus (GPa) = 44.07740 56.43281 50.25511
# Shear Modulus (GPa) = 78.10151 27.27218 52.68685
#
# Velocity S-wave (km/s) = 6.19801 3.66254 5.09065
# Velocity P-wave (km/s) = 8.53818 6.75595 7.69881
#
# Compressibility (1/GPa) = 0.02268736
#
# Stress axis : x y z
#
# Youngs Moduli (GPa) = 82.64328 70.07116 86.75169
#
# Poissons Ratio (x) = 0.37561 0.02175
# Poissons Ratio (y) = 0.44301 0.17302
# Poissons Ratio (z) = 0.02072 0.13975
#
# Static dielectric constant tensor:
#      x y z
#    x 1.732350 0.000000 -0.011170 
#    y 0.000000 1.697830 0.000000 
#    z -0.011170 0.000000 1.713180 
# 
# From -- ./inp_files/51505.got.cif
#   From: 2010.05.17/outbox.cif.g08.bks.cpg/sg12_26_cif.got.tgz:51505.got - 2010.06.03 13:09:07.
