data_PCOD9220300
_publ_section_title
;
Structure prediction by ZEFSAII (Michael W. Deem and Ramdas Pophale) SiO2 
 PCOD9220300
Probable space group: C 2/M
;
_chemical_formula_sum "Si O2"
_cell_formula_units_Z 36
_cell_length_a 18.148712
_cell_length_b 16.767800
_cell_length_c 6.489214
_cell_angle_alpha 90.000000
_cell_angle_beta 101.355043
_cell_angle_gamma 90.000000
_cell_volume 1936.104501
_symmetry_space_group_name_H-M "C 2/M"
_symmetry_group_IT_number 12
_symmetry_cell_setting 'monoclinic'
loop_
_space_group_symop_operation_xyz
x,y,z
-x,y,-z
-x,-y,-z
x,-y,z
1/2+x,1/2+y,z
1/2-x,1/2+y,-z
1/2-x,1/2-y,-z
1/2+x,1/2-y,z
loop_
_atom_site_type_symbol
_atom_site_label
_atom_site_fract_x
_atom_site_fract_y
_atom_site_fract_z
Si Si1 0.467654 0.500000 0.733995
Si Si2 0.086413 0.707810 0.607726
Si Si3 0.827346 0.281982 0.943879
Si Si4 0.195559 0.593858 0.411605
Si Si5 0.139270 0.149424 0.375091
O O1 0.500000 0.500000 0.500000
O O2 0.419110 0.580310 0.703276
O O3 0.500000 0.500000 0.000000
O O4 0.136628 0.641569 0.520604
O O5 0.113668 0.795644 0.551692
O O6 0.000000 0.698489 0.500000
O O7 0.107455 0.702345 0.857025
O O8 0.810228 0.362729 0.811376
O O9 0.853600 0.213347 0.803093
O O10 0.750000 0.250000 0.000000
O O11 0.181688 0.500000 0.397390
O O12 0.279168 0.611874 0.539820
#
# Coordination Sequence:
#
# PCOD9220300 Si02
#       5
#     4   8   8   8   8
#     4  12  30  46  68 114 155 187 233 297 370 432
#     4  11  24  42  66  93 132 173 226 284 351 416
#     4  11  21  41  69  95 126 181 236 279 347 431
#     4  11  23  42  64  97 129 170 229 286 346 422
#     4  11  23  42  67  97 137 179 229 285 348 429
#
# _framework density 18.594037
#
# number of rings (size 3 to 8) (size 9 to 14) (size 15 to 20)
#    0.000    0.889    5.556    2.000    6.222    4.000 
#    2.000    1.111    0.000    0.000    0.000    0.000 
#    0.000    0.000    0.000    0.000    0.000    0.000 
#
# Total GULP energy -100348.047126 kJ/mol
# GULP energy per Si atom -5574.891507 kJ/mol
# Density = 1.855172 g / cm^3
# Si number density = 18.594037 Si / 1000 Ang^3
#
#
#
# Elastic Constant Matrix: (Units=GPa)
#
#
# Indices 1 2 3 4 5 6 
#
# 1 65.2341 25.9365 19.3975 0.0000 19.7548 0.0000
# 2 25.9365 159.9941 33.4384 0.0000 11.7002 0.0000
# 3 19.3975 33.4384 106.3615 0.0000 19.9701 0.0000
# 4 0.0000 0.0000 0.0000 15.7455 0.0000 16.9004
# 5 19.7548 11.7002 19.9701 0.0000 25.6998 0.0000
# 6 0.0000 0.0000 0.0000 16.9004 0.0000 27.6099
#
#
#
# Elastic Compliance Matrix: (Units=1/GPa)
#
#
# Indices 1 2 3 4 5 6 
#
# 1 0.020759 -0.002222 -0.000329 0.000000 -0.014690 0.000000
# 2 -0.002222 0.006988 -0.001774 0.000000 -0.000095 0.000000
# 3 -0.000329 -0.001774 0.011498 0.000000 -0.007874 0.000000
# 4 0.000000 0.000000 0.000000 0.185167 0.000000 -0.113343
# 5 -0.014690 -0.000095 -0.007874 0.000000 0.056364 0.000000
# 6 0.000000 0.000000 0.000000 -0.113343 0.000000 0.105598
#
#
# Mechanical properties :
#
#
# Convention : Reuss Voigt Hill
#
# Bulk Modulus (GPa) = 32.68535 54.34827 43.51681
# Shear Modulus (GPa) = 12.33888 30.66553 21.50220
#
# Velocity S-wave (km/s) = 2.57882 4.06546 3.40428
# Velocity P-wave (km/s) = 5.14623 7.16447 6.23752
#
# Compressibility (1/GPa) = 0.03059474
#
# Stress axis : x y z
#
# Youngs Moduli (GPa) = 48.17126 143.09950 86.97173
#
# Poissons Ratio (x) = 0.31800 0.02864
# Poissons Ratio (y) = 0.10705 0.15428
# Poissons Ratio (z) = 0.01586 0.25384
#
# Static dielectric constant tensor:
#      x y z
#    x 1.645680 0.000000 -0.016760 
#    y 0.000000 1.596410 0.000000 
#    z -0.016760 0.000000 1.658870 
# 
# From -- ./inp_files/15043.got.cif
#   From: 2010.05.17/outbox.cif.g08.bks.cpg/sg12_8_cif.got.tgz:15043.got - 2010.06.03 13:09:07.
