data_PCOD9220614
_publ_section_title
;
Structure prediction by ZEFSAII (Michael W. Deem and Ramdas Pophale) SiO2 
 PCOD9220614
Probable space group: C 2/M
;
_chemical_formula_sum "Si O2"
_cell_formula_units_Z 56
_cell_length_a 12.290838
_cell_length_b 17.041376
_cell_length_c 17.076363
_cell_angle_alpha 90.000000
_cell_angle_beta 57.870547
_cell_angle_gamma 90.000000
_cell_volume 3028.916684
_symmetry_space_group_name_H-M "C 2/M"
_symmetry_group_IT_number 12
_symmetry_cell_setting 'monoclinic'
loop_
_space_group_symop_operation_xyz
x,y,z
-x,y,-z
-x,-y,-z
x,-y,z
1/2+x,1/2+y,z
1/2-x,1/2+y,-z
1/2-x,1/2-y,-z
1/2+x,1/2-y,z
loop_
_atom_site_type_symbol
_atom_site_label
_atom_site_fract_x
_atom_site_fract_y
_atom_site_fract_z
Si Si1 0.697086 0.405743 0.881059
Si Si2 0.868858 0.911041 0.594702
Si Si3 0.425477 0.594599 0.908401
Si Si4 0.075437 0.146328 0.261791
Si Si5 0.781844 0.906979 0.365486
Si Si6 0.188654 0.331871 0.553277
Si Si7 0.387928 0.177301 0.701218
O O1 0.705430 0.500000 0.874840
O O2 0.572767 0.383290 0.875163
O O3 0.826237 0.368752 0.798062
O O4 0.660912 0.383410 0.983708
O O5 0.883823 0.908732 0.681986
O O6 0.758322 0.854782 0.606669
O O7 0.000000 0.885693 0.500000
O O8 0.843775 0.000000 0.578954
O O9 0.425080 0.500000 0.902363
O O10 0.379622 0.628420 0.843366
O O11 0.120134 0.231227 0.274116
O O12 0.922085 0.132526 0.314138
O O13 0.724770 0.895662 0.473749
O O14 0.692915 0.857721 0.340370
O O15 0.790363 0.000000 0.341512
O O16 0.250000 0.250000 0.500000
O O17 0.037375 0.332476 0.624190
#
# Coordination Sequence:
#
# PCOD9220614 Si02
#       7
#     8   8   8   8   8   8   8
#     4   9  19  37  64  95 124 156 206 266 317 370
#     4  11  22  37  58  84 116 159 210 255 297 366
#     4   9  18  37  65  94 123 159 206 261 316 375
#     4  12  23  38  64  89 128 165 207 255 319 374
#     4  12  24  42  66  93 122 166 219 263 307 376
#     4  12  24  42  59  88 131 171 204 255 322 375
#     4  12  25  38  63  91 129 163 207 260 326 367
#
# _framework density 18.488458999999999
#
# number of rings (size 3 to 8) (size 9 to 14) (size 15 to 20)
#    0.000    1.000    4.286    4.286    0.000    3.429 
#    0.000    0.000    0.000    0.857    0.000    3.000 
#    0.000    0.000    0.000    0.000    0.000    0.000 
#
# Total GULP energy -156283.879281 kJ/mol
# GULP energy per Si atom -5581.567117 kJ/mol
# Density = 1.844638 g / cm^3
# Si number density = 18.488459 Si / 1000 Ang^3
#
#
#
# Elastic Constant Matrix: (Units=GPa)
#
#
# Indices 1 2 3 4 5 6 
#
# 1 110.5399 45.7696 44.6024 0.0000 13.7800 0.0000
# 2 45.7696 77.8847 25.4377 0.0000 2.5914 0.0000
# 3 44.6024 25.4377 114.7265 0.0000 11.0059 0.0000
# 4 0.0000 0.0000 0.0000 23.2218 0.0000 -3.5957
# 5 13.7800 2.5914 11.0059 0.0000 38.6238 0.0000
# 6 0.0000 0.0000 0.0000 -3.5957 0.0000 17.9675
#
#
#
# Elastic Compliance Matrix: (Units=1/GPa)
#
#
# Indices 1 2 3 4 5 6 
#
# 1 0.013696 -0.006795 -0.003488 0.000000 -0.003436 0.000000
# 2 -0.006795 0.017213 -0.001333 0.000000 0.001649 0.000000
# 3 -0.003488 -0.001333 0.010528 0.000000 -0.001666 0.000000
# 4 0.000000 0.000000 0.000000 0.044440 0.000000 0.008893
# 5 -0.003436 0.001649 -0.001666 0.000000 0.027481 0.000000
# 6 0.000000 0.000000 0.000000 0.008893 0.000000 0.057436
#
#
# Mechanical properties :
#
#
# Convention : Reuss Voigt Hill
#
# Bulk Modulus (GPa) = 54.93207 59.41895 57.17551
# Shear Modulus (GPa) = 24.98821 28.45203 26.72012
#
# Velocity S-wave (km/s) = 3.68034 3.92715 3.80575
# Velocity P-wave (km/s) = 6.91635 7.26440 7.09251
#
# Compressibility (1/GPa) = 0.01820430
#
# Stress axis : x y z
#
# Youngs Moduli (GPa) = 73.01481 58.09541 94.98523
#
# Poissons Ratio (x) = 0.39475 0.33134
# Poissons Ratio (y) = 0.49612 0.12663
# Poissons Ratio (z) = 0.25470 0.07745
#
# Static dielectric constant tensor:
#      x y z
#    x 1.647020 0.000000 0.014250 
#    y 0.000000 1.655180 0.000000 
#    z 0.014250 0.000000 1.670960 
# 
# From -- ./inp_files/263211.got.cif
#   From: 2010.05.17/outbox.cif.g08.bks.cpg/sg12_132_cif.got.tgz:263211.got - 2010.06.03 13:09:07.
