data_PCOD9220408
_publ_section_title
;
Structure prediction by ZEFSAII (Michael W. Deem and Ramdas Pophale) SiO2 
 PCOD9220408
Probable space group: C 2/M
;
_chemical_formula_sum "Si O2"
_cell_formula_units_Z 48
_cell_length_a 18.480881
_cell_length_b 10.208233
_cell_length_c 15.310044
_cell_angle_alpha 90.000000
_cell_angle_beta 39.088170
_cell_angle_gamma 90.000000
_cell_volume 1821.149058
_symmetry_space_group_name_H-M "C 2/M"
_symmetry_group_IT_number 12
_symmetry_cell_setting 'monoclinic'
loop_
_space_group_symop_operation_xyz
x,y,z
-x,y,-z
-x,-y,-z
x,-y,z
1/2+x,1/2+y,z
1/2-x,1/2+y,-z
1/2-x,1/2-y,-z
1/2+x,1/2-y,z
loop_
_atom_site_type_symbol
_atom_site_label
_atom_site_fract_x
_atom_site_fract_y
_atom_site_fract_z
Si Si1 0.152201 0.655685 0.134047
Si Si2 0.906795 0.362429 0.510723
Si Si3 0.198936 0.149199 0.231807
Si Si4 0.349594 0.351961 0.160951
Si Si5 0.818422 0.867057 0.543580
Si Si6 0.449130 0.146951 0.186677
O O1 0.183912 0.500000 0.122867
O O2 0.127972 0.745224 0.242558
O O3 0.047900 0.652007 0.164837
O O4 0.250000 0.750000 0.000000
O O5 0.935649 0.500000 0.441194
O O6 0.776308 0.368791 0.673463
O O7 0.888984 0.256967 0.452647
O O8 0.000000 0.347591 0.500000
O O9 0.318725 0.228849 0.126876
O O10 0.160683 0.130785 0.369385
O O11 0.206196 0.000000 0.189616
O O12 0.376104 0.500000 0.105946
O O13 0.441220 0.283380 0.139138
O O14 0.683725 0.858421 0.656534
O O15 0.863917 0.000000 0.461455
O O16 0.460232 0.000000 0.132720
#
# Coordination Sequence:
#
# PCOD9220408 Si02
#       6
#     8   8   8   8   8   8
#     4  11  22  34  48  67  90 114 143 181 225 267
#     4   8  13  21  36  63  95 118 138 172 215 252
#     4   9  17  31  48  65  89 117 146 181 219 261
#     4   9  16  28  48  70  90 117 152 183 213 257
#     4   8  15  29  47  65  85 114 149 179 212 256
#     4   8  16  31  47  63  87 116 144 178 219 262
#
# _framework density 26.356985999999999
#
# number of rings (size 3 to 8) (size 9 to 14) (size 15 to 20)
#    0.000    3.500    0.000    2.500    0.000    2.333 
#    0.000    3.333    0.000   18.000    0.000   18.667 
#    0.000   21.333    0.000    0.000    0.000    0.000 
#
# Total GULP energy -133610.919762 kJ/mol
# GULP energy per Si atom -5567.121657 kJ/mol
# Density = 2.629700 g / cm^3
# Si number density = 26.356986 Si / 1000 Ang^3
#
#
#
# Elastic Constant Matrix: (Units=GPa)
#
#
# Indices 1 2 3 4 5 6 
#
# 1 147.9788 84.8950 23.7724 0.0000 -21.2645 0.0000
# 2 84.8950 303.7470 7.2664 0.0000 -6.5103 0.0000
# 3 23.7724 7.2664 83.6809 0.0000 -5.2841 0.0000
# 4 0.0000 0.0000 0.0000 -0.5857 0.0000 0.2994
# 5 -21.2645 -6.5103 -5.2841 0.0000 37.5541 0.0000
# 6 0.0000 0.0000 0.0000 0.2994 0.0000 10.8297
#
#
#
# Elastic Compliance Matrix: (Units=1/GPa)
#
#
# Indices 1 2 3 4 5 6 
#
# 1 0.009112 -0.002401 -0.002099 0.000000 0.004448 0.000000
# 2 -0.002401 0.003943 0.000300 0.000000 -0.000634 0.000000
# 3 -0.002099 0.000300 0.012560 0.000000 0.000631 0.000000
# 4 0.000000 0.000000 0.000000 -1.683689 0.000000 0.046546
# 5 0.004448 -0.000634 0.000631 0.000000 0.029126 0.000000
# 6 0.000000 0.000000 0.000000 0.046546 0.000000 0.091052
#
#
# Mechanical properties :
#
#
# Convention : Reuss Voigt Hill
#
# Bulk Modulus (GPa) = 58.09399 85.25272 71.67336
# Shear Modulus (GPa) = -3.28136 37.52448 17.12156
#
# Velocity S-wave (km/s) = -1.11699 3.77729 2.55149
# Velocity P-wave (km/s) = 4.51946 7.17213 5.99437
#
# Compressibility (1/GPa) = 0.01721348
#
# Stress axis : x y z
#
# Youngs Moduli (GPa) = 109.75072 253.64375 79.61608
#
# Poissons Ratio (x) = 0.60902 0.16712
# Poissons Ratio (y) = 0.26352 -0.02386
# Poissons Ratio (z) = 0.23038 -0.07602
#
# Static dielectric constant tensor:
#      x y z
#    x 2.097450 0.000000 0.092110 
#    y 0.000000 2.376560 0.000000 
#    z 0.092110 0.000000 2.275560 
# 
# From -- ./inp_files/276312.got.cif
#   From: 2010.05.17/outbox.cif.g08.bks.cpg/sg12_139_cif.got.tgz:276312.got - 2010.06.03 13:09:07.
