data_PCOD9220558
_publ_section_title
;
Structure prediction by ZEFSAII (Michael W. Deem and Ramdas Pophale) SiO2 
 PCOD9220558
Probable space group: C 2/M
;
_chemical_formula_sum "Si O2"
_cell_formula_units_Z 48
_cell_length_a 22.259382
_cell_length_b 8.659634
_cell_length_c 12.727061
_cell_angle_alpha 90.000000
_cell_angle_beta 108.629823
_cell_angle_gamma 90.000000
_cell_volume 2324.699666
_symmetry_space_group_name_H-M "C 2/M"
_symmetry_group_IT_number 12
_symmetry_cell_setting 'monoclinic'
loop_
_space_group_symop_operation_xyz
x,y,z
-x,y,-z
-x,-y,-z
x,-y,z
1/2+x,1/2+y,z
1/2-x,1/2+y,-z
1/2-x,1/2-y,-z
1/2+x,1/2-y,z
loop_
_atom_site_type_symbol
_atom_site_label
_atom_site_fract_x
_atom_site_fract_y
_atom_site_fract_z
Si Si1 0.601452 0.185720 0.537394
Si Si2 0.877542 0.683850 0.677258
Si Si3 0.479254 0.684473 0.872607
Si Si4 0.749882 0.815659 0.667441
Si Si5 0.926919 0.687106 0.250867
Si Si6 0.281632 0.814786 0.121208
O O1 0.589378 0.241565 0.412441
O O2 0.676700 0.212465 0.597218
O O3 0.566255 0.240164 0.623380
O O4 0.592022 0.000000 0.530087
O O5 0.884795 0.500000 0.685940
O O6 0.803578 0.726874 0.634236
O O7 0.910587 0.758631 0.796419
O O8 0.480359 0.500000 0.874136
O O9 0.526118 0.746149 0.808804
O O10 0.500000 0.739816 0.000000
O O11 0.754377 0.768725 0.792376
O O12 0.760468 0.000000 0.663176
O O13 0.932520 0.500000 0.254092
O O14 0.855285 0.728793 0.176225
O O15 0.280247 0.000000 0.117023
O O16 0.250000 0.750000 0.000000
#
# Coordination Sequence:
#
# PCOD9220558 Si02
#       6
#     8   8   8   8   8   8
#     4   8  17  36  61  88 118 149 182 228 286 338
#     4  11  22  36  59  88 115 150 193 233 277 334
#     4  11  26  44  58  77 111 153 192 236 290 338
#     4   9  18  35  56  83 121 155 182 223 282 337
#     4   9  19  39  62  83 110 146 189 234 278 332
#     4   9  19  33  54  82 112 148 185 227 278 328
#
# _framework density 20.647829999999999
#
# number of rings (size 3 to 8) (size 9 to 14) (size 15 to 20)
#    0.000    2.500    0.000    3.500    2.333    3.333 
#    0.000    8.333    0.000    0.000    0.000    0.000 
#    0.000    0.000    0.000    0.000    0.000    0.000 
#
# Total GULP energy -133954.684378 kJ/mol
# GULP energy per Si atom -5581.445182 kJ/mol
# Density = 2.060083 g / cm^3
# Si number density = 20.647830 Si / 1000 Ang^3
#
#
#
# Elastic Constant Matrix: (Units=GPa)
#
#
# Indices 1 2 3 4 5 6 
#
# 1 68.9921 8.2804 9.6356 0.0000 -21.1521 0.0000
# 2 8.2804 12.2919 16.0871 0.0000 -3.7888 0.0000
# 3 9.6356 16.0871 122.3325 0.0000 -17.7485 0.0000
# 4 0.0000 0.0000 0.0000 17.7738 0.0000 -3.0351
# 5 -21.1521 -3.7888 -17.7485 0.0000 24.8915 0.0000
# 6 0.0000 0.0000 0.0000 -3.0351 0.0000 29.6594
#
#
#
# Elastic Compliance Matrix: (Units=1/GPa)
#
#
# Indices 1 2 3 4 5 6 
#
# 1 0.021055 -0.011957 0.002505 0.000000 0.017858 0.000000
# 2 -0.011957 0.105982 -0.013528 0.000000 -0.003675 0.000000
# 3 0.002505 -0.013528 0.010893 0.000000 0.007837 0.000000
# 4 0.000000 0.000000 0.000000 0.057263 0.000000 0.005860
# 5 0.017858 -0.003675 0.007837 0.000000 0.060377 0.000000
# 6 0.000000 0.000000 0.000000 0.005860 0.000000 0.034316
#
#
# Mechanical properties :
#
#
# Convention : Reuss Voigt Hill
#
# Bulk Modulus (GPa) = 10.87334 30.18029 20.52681
# Shear Modulus (GPa) = 13.64243 25.77249 19.70746
#
# Velocity S-wave (km/s) = 2.57324 3.53681 3.09278
# Velocity P-wave (km/s) = 3.75583 5.59706 4.76620
#
# Compressibility (1/GPa) = 0.09196810
#
# Stress axis : x y z
#
# Youngs Moduli (GPa) = 47.49558 9.43558 91.80120
#
# Poissons Ratio (x) = 0.11282 -0.22995
# Poissons Ratio (y) = 0.56792 1.24191
# Poissons Ratio (z) = -0.11897 0.12765
#
# Static dielectric constant tensor:
#      x y z
#    x 1.766810 0.000000 0.008820 
#    y 0.000000 1.693180 0.000000 
#    z 0.008820 0.000000 1.773250 
# 
# From -- ./inp_files/173080.got.cif
#   From: 2010.05.17/outbox.cif.g08.bks.cpg/sg12_87_cif.got.tgz:173080.got - 2010.06.03 13:09:07.
