data_PCOD9220841
_publ_section_title
;
Structure prediction by ZEFSAII (Michael W. Deem and Ramdas Pophale) SiO2 
 PCOD9220841
Probable space group: C 2/M
;
_chemical_formula_sum "Si O2"
_cell_formula_units_Z 48
_cell_length_a 8.735665
_cell_length_b 17.179756
_cell_length_c 20.222501
_cell_angle_alpha 90.000000
_cell_angle_beta 48.287630
_cell_angle_gamma 90.000000
_cell_volume 2265.554248
_symmetry_space_group_name_H-M "C 2/M"
_symmetry_group_IT_number 12
_symmetry_cell_setting 'monoclinic'
loop_
_space_group_symop_operation_xyz
x,y,z
-x,y,-z
-x,-y,-z
x,-y,z
1/2+x,1/2+y,z
1/2-x,1/2+y,-z
1/2-x,1/2-y,-z
1/2+x,1/2-y,z
loop_
_atom_site_type_symbol
_atom_site_label
_atom_site_fract_x
_atom_site_fract_y
_atom_site_fract_z
Si Si1 0.598047 0.363865 0.704545
Si Si2 0.034902 0.585449 0.568169
Si Si3 0.581726 0.152011 0.085309
Si Si4 0.220785 0.413637 0.724559
Si Si5 0.802982 0.178491 0.900520
Si Si6 0.267049 0.293714 0.590888
O O1 0.421347 0.406542 0.713659
O O2 0.502718 0.343610 0.802616
O O3 0.661529 0.286704 0.644276
O O4 0.803009 0.410882 0.660054
O O5 0.129993 0.500000 0.553488
O O6 0.155075 0.657428 0.565230
O O7 0.000000 0.593045 0.500000
O O8 0.482567 0.101455 0.172286
O O9 0.384865 0.171044 0.096288
O O10 0.671129 0.231346 0.088984
O O11 0.749855 0.128407 0.981495
O O12 0.211478 0.500000 0.698591
O O13 0.248278 0.349498 0.660220
O O14 0.500000 0.282158 0.500000
#
# Coordination Sequence:
#
# PCOD9220841 Si02
#       6
#     8   8   8   8   8   8
#     4  11  22  39  62  91 117 156 202 251 294 350
#     4  11  25  43  61  84 120 160 197 244 308 367
#     4   9  18  35  56  89 115 157 194 240 286 351
#     4  11  23  39  60  90 127 160 197 249 305 356
#     4   9  18  33  59  87 117 150 198 242 288 342
#     4  12  25  41  63  89 117 157 208 253 297 357
#
# _framework density 21.186869000000002
#
# number of rings (size 3 to 8) (size 9 to 14) (size 15 to 20)
#    0.000    1.500    1.667    3.500    2.333    4.667 
#    0.000    7.500    0.000    0.000    0.000    5.833 
#    0.000    0.000    0.000    0.000    0.000    0.000 
#
# Total GULP energy -133994.824805 kJ/mol
# GULP energy per Si atom -5583.117700 kJ/mol
# Density = 2.113865 g / cm^3
# Si number density = 21.186869 Si / 1000 Ang^3
#
#
#
# Elastic Constant Matrix: (Units=GPa)
#
#
# Indices 1 2 3 4 5 6 
#
# 1 31.2341 8.0580 26.4806 0.0001 1.6916 0.0000
# 2 8.0580 93.9208 36.4594 0.0001 -4.2085 0.0002
# 3 26.4806 36.4594 155.0038 0.0002 -4.1040 -0.0001
# 4 0.0001 0.0001 0.0002 7.0738 -0.0001 -6.8002
# 5 1.6916 -4.2085 -4.1040 -0.0001 26.0772 0.0000
# 6 0.0000 0.0002 -0.0001 -6.8002 0.0000 0.7581
#
#
#
# Elastic Compliance Matrix: (Units=1/GPa)
#
#
# Indices 1 2 3 4 5 6 
#
# 1 0.037827 -0.000948 -0.006335 0.000000 -0.003604 0.000001
# 2 -0.000948 0.011797 -0.002572 0.000000 0.001561 0.000000
# 3 -0.006335 -0.002572 0.008172 0.000000 0.001282 0.000000
# 4 0.000000 0.000000 0.000000 -0.018546 0.000000 -0.166348
# 5 -0.003604 0.001561 0.001282 0.000000 0.039035 0.000000
# 6 0.000001 0.000000 0.000000 -0.166348 0.000000 -0.173042
#
#
# Mechanical properties :
#
#
# Convention : Reuss Voigt Hill
#
# Bulk Modulus (GPa) = 26.25509 46.90606 36.58058
# Shear Modulus (GPa) = -80.18873 20.72589 -29.73142
#
# Velocity S-wave (km/s) = -6.15877 3.13108 -3.75012
# Velocity P-wave (km/s) = 6.17697 5.93791 1.20335
#
# Compressibility (1/GPa) = 0.03808785
#
# Stress axis : x y z
#
# Youngs Moduli (GPa) = 26.43641 84.76893 122.36178
#
# Poissons Ratio (x) = 0.08034 0.77513
# Poissons Ratio (y) = 0.02505 0.31466
# Poissons Ratio (z) = 0.16747 0.21799
#
# Static dielectric constant tensor:
#      x y z
#    x 1.752700 0.000000 0.043030 
#    y 0.000000 1.746710 0.000000 
#    z 0.043030 0.000000 1.242510 
# 
# From -- ./inp_files/300612.got.cif
#   From: 2010.05.17/outbox.cif.g08.bks.cpg/sg12_151_cif.got.tgz:300612.got - 2010.06.03 13:09:07.
