data_PCOD9220797
_publ_section_title
;
Structure prediction by ZEFSAII (Michael W. Deem and Ramdas Pophale) SiO2 
 PCOD9220797
Probable space group: C 2/M
;
_chemical_formula_sum "Si O2"
_cell_formula_units_Z 60
_cell_length_a 18.829515
_cell_length_b 19.766284
_cell_length_c 8.391431
_cell_angle_alpha 90.000000
_cell_angle_beta 98.300311
_cell_angle_gamma 90.000000
_cell_volume 3090.487320
_symmetry_space_group_name_H-M "C 2/M"
_symmetry_group_IT_number 12
_symmetry_cell_setting 'monoclinic'
loop_
_space_group_symop_operation_xyz
x,y,z
-x,y,-z
-x,-y,-z
x,-y,z
1/2+x,1/2+y,z
1/2-x,1/2+y,-z
1/2-x,1/2-y,-z
1/2+x,1/2-y,z
loop_
_atom_site_type_symbol
_atom_site_label
_atom_site_fract_x
_atom_site_fract_y
_atom_site_fract_z
Si Si1 0.086603 0.500000 0.707027
Si Si2 0.070526 0.631199 0.918764
Si Si3 0.649654 0.119103 0.502587
Si Si4 0.260197 0.710972 0.740476
Si Si5 0.941849 0.772933 0.252871
Si Si6 0.688598 0.663073 0.902583
Si Si7 0.405669 0.254077 0.603031
Si Si8 0.804825 0.423043 0.827342
O O1 0.062303 0.561092 0.821497
O O2 0.115386 0.559310 0.592131
O O3 0.079356 0.697430 0.811971
O O4 0.140470 0.623629 0.054181
O O5 0.000000 0.642355 0.000000
O O6 0.706105 0.162974 0.625174
O O7 0.591236 0.173002 0.420035
O O8 0.686298 0.090184 0.356133
O O9 0.222797 0.778989 0.796640
O O10 0.328773 0.728798 0.653189
O O11 0.286978 0.674885 0.909245
O O12 0.895858 0.826150 0.138913
O O13 0.918836 0.781913 0.429820
O O14 0.027471 0.777687 0.270053
O O15 0.724655 0.594696 0.854685
O O16 0.823269 0.500000 0.872129
#
# Coordination Sequence:
#
# PCOD9220797 Si02
#       8
#     4   8   8   8   8   8   8   8
#     4  12  23  40  59  82 130 176 214 247 295 374
#     4  12  25  42  58  87 129 174 213 258 302 366
#     4  12  22  41  59  92 121 167 215 254 306 368
#     4  11  22  38  66  89 122 159 208 272 314 362
#     4  11  24  40  62  90 125 163 209 261 321 368
#     4  11  22  39  62  94 119 164 206 260 320 364
#     4  11  22  40  60  92 125 158 203 269 317 368
#     4  12  25  40  62  88 124 165 212 250 306 374
#
# _framework density 19.414413
#
# number of rings (size 3 to 8) (size 9 to 14) (size 15 to 20)
#    0.000    0.533    5.333    4.600    1.867    0.000 
#    0.000    2.667    0.000    0.000    1.733    2.800 
#    0.000    0.000    0.000    0.000    0.000    0.000 
#
# Total GULP energy -167214.272564 kJ/mol
# GULP energy per Si atom -5573.809085 kJ/mol
# Density = 1.937022 g / cm^3
# Si number density = 19.414413 Si / 1000 Ang^3
#
#
#
# Elastic Constant Matrix: (Units=GPa)
#
#
# Indices 1 2 3 4 5 6 
#
# 1 79.2789 1.9028 28.2699 0.0000 3.8404 0.0000
# 2 1.9028 12.0042 6.9412 0.0000 -2.0585 0.0000
# 3 28.2699 6.9412 66.8782 0.0000 -1.3581 0.0000
# 4 0.0000 0.0000 0.0000 27.9744 0.0000 -6.8992
# 5 3.8404 -2.0585 -1.3581 0.0000 36.5610 0.0000
# 6 0.0000 0.0000 0.0000 -6.8992 0.0000 11.3586
#
#
#
# Elastic Compliance Matrix: (Units=1/GPa)
#
#
# Indices 1 2 3 4 5 6 
#
# 1 0.014984 0.001071 -0.006481 0.000000 -0.001754 0.000000
# 2 0.001071 0.089497 -0.009649 0.000000 0.004568 0.000000
# 3 -0.006481 -0.009649 0.018710 0.000000 0.000833 0.000000
# 4 0.000000 0.000000 0.000000 0.042046 0.000000 0.025539
# 5 -0.001754 0.004568 0.000833 0.000000 0.027824 0.000000
# 6 0.000000 0.000000 0.000000 0.025539 0.000000 0.103551
#
#
# Mechanical properties :
#
#
# Convention : Reuss Voigt Hill
#
# Bulk Modulus (GPa) = 10.74407 25.82103 18.28255
# Shear Modulus (GPa) = 13.97611 23.24860 18.61236
#
# Velocity S-wave (km/s) = 2.68598 3.46423 3.09963
# Velocity P-wave (km/s) = 3.89427 5.41572 4.71675
#
# Compressibility (1/GPa) = 0.09307462
#
# Stress axis : x y z
#
# Youngs Moduli (GPa) = 66.73836 11.17359 53.44639
#
# Poissons Ratio (x) = -0.01197 0.34637
# Poissons Ratio (y) = -0.07150 0.51570
# Poissons Ratio (z) = 0.43251 0.10781
#
# Static dielectric constant tensor:
#      x y z
#    x 1.722560 0.000000 0.022300 
#    y 0.000000 1.644630 0.000000 
#    z 0.022300 0.000000 1.725070 
# 
# From -- ./inp_files/77554.got.cif
#   From: 2010.05.17/outbox.cif.g08.bks.cpg/sg12_39_cif.got.tgz:77554.got - 2010.06.03 13:09:07.
