data_PCOD9220358
_publ_section_title
;
Structure prediction by ZEFSAII (Michael W. Deem and Ramdas Pophale) SiO2 
 PCOD9220358
Probable space group: C 2/M
;
_chemical_formula_sum "Si O2"
_cell_formula_units_Z 56
_cell_length_a 13.714586
_cell_length_b 19.029170
_cell_length_c 20.058099
_cell_angle_alpha 90.000000
_cell_angle_beta 148.512622
_cell_angle_gamma 90.000000
_cell_volume 2734.143204
_symmetry_space_group_name_H-M "C 2/M"
_symmetry_group_IT_number 12
_symmetry_cell_setting 'monoclinic'
loop_
_space_group_symop_operation_xyz
x,y,z
-x,y,-z
-x,-y,-z
x,-y,z
1/2+x,1/2+y,z
1/2-x,1/2+y,-z
1/2-x,1/2-y,-z
1/2+x,1/2-y,z
loop_
_atom_site_type_symbol
_atom_site_label
_atom_site_fract_x
_atom_site_fract_y
_atom_site_fract_z
Si Si1 0.499486 0.219902 0.771746
Si Si2 0.657762 0.627513 0.888153
Si Si3 0.954543 0.920260 0.894891
Si Si4 0.713201 0.792327 0.767663
Si Si5 0.922192 0.349194 0.863611
Si Si6 0.960832 0.919803 0.321760
Si Si7 0.904037 0.795555 0.513869
O O1 0.590092 0.291564 0.851926
O O2 0.641370 0.191750 0.799566
O O3 0.455659 0.166681 0.805186
O O4 0.301334 0.232974 0.620429
O O5 0.618496 0.592297 0.936546
O O6 0.545649 0.592930 0.761571
O O7 0.875556 0.625980 0.994734
O O8 0.804779 0.860659 0.790213
O O9 0.887802 0.000000 0.848475
O O10 0.000000 0.910221 0.000000
O O11 0.539858 0.762508 0.624761
O O12 0.856951 0.726865 0.853638
O O13 0.748916 0.400528 0.775073
O O14 0.090491 0.862554 0.433934
O O15 0.007911 0.000000 0.364338
O O16 0.000000 0.816767 0.500000
#
# Coordination Sequence:
#
# PCOD9220358 Si02
#       7
#     8   8   8   8   8   8   8
#     4  12  22  40  67 101 122 166 218 274 318 376
#     4  12  23  40  70  96 129 164 218 268 324 382
#     4  11  25  43  62  91 135 176 207 255 322 390
#     4  11  23  37  66  93 128 161 218 267 316 377
#     4  11  23  40  63 101 128 163 213 271 322 378
#     4  11  25  42  64  95 133 173 212 264 329 388
#     4  11  21  43  66  94 128 170 217 271 323 370
#
# _framework density 20.481736000000001
#
# number of rings (size 3 to 8) (size 9 to 14) (size 15 to 20)
#    0.000    0.714    7.143    2.571    2.000    2.000 
#    0.000    1.429    0.000    1.286    0.000    0.000 
#    0.000    0.000    0.000    0.000    0.000    0.000 
#
# Total GULP energy -156505.543975 kJ/mol
# GULP energy per Si atom -5589.483713 kJ/mol
# Density = 2.043512 g / cm^3
# Si number density = 20.481736 Si / 1000 Ang^3
#
#
#
# Elastic Constant Matrix: (Units=GPa)
#
#
# Indices 1 2 3 4 5 6 
#
# 1 110.1526 -9.8509 -3.4020 0.0012 -7.9633 0.0001
# 2 -9.8509 65.4125 10.4029 0.0024 6.1258 0.0005
# 3 -3.4020 10.4029 28.3696 0.0052 -9.0627 0.0015
# 4 0.0012 0.0024 0.0052 8.0038 0.0013 -1.8167
# 5 -7.9633 6.1258 -9.0627 0.0013 30.4303 0.0002
# 6 0.0001 0.0005 0.0015 -1.8167 0.0002 22.2717
#
#
#
# Elastic Compliance Matrix: (Units=1/GPa)
#
#
# Indices 1 2 3 4 5 6 
#
# 1 0.009412 0.000887 0.001694 -0.000003 0.002789 0.000000
# 2 0.000887 0.017220 -0.008003 0.000001 -0.005618 0.000000
# 3 0.001694 -0.008003 0.043148 -0.000029 0.014905 -0.000005
# 4 -0.000003 0.000001 -0.000029 0.127297 -0.000015 0.010383
# 5 0.002789 -0.005618 0.014905 -0.000015 0.039162 -0.000002
# 6 0.000000 0.000000 -0.000005 0.010383 -0.000002 0.045747
#
#
# Mechanical properties :
#
#
# Convention : Reuss Voigt Hill
#
# Bulk Modulus (GPa) = 16.96743 22.02607 19.49675
# Shear Modulus (GPa) = 16.00133 25.92680 20.96406
#
# Velocity S-wave (km/s) = 2.79811 3.56174 3.20277
# Velocity P-wave (km/s) = 4.32914 5.26232 4.81837
#
# Compressibility (1/GPa) = 0.05893643
#
# Stress axis : x y z
#
# Youngs Moduli (GPa) = 106.25217 58.07217 23.17600
#
# Poissons Ratio (x) = -0.05149 -0.03927
# Poissons Ratio (y) = -0.09421 0.18547
# Poissons Ratio (z) = -0.18004 0.46473
#
# Static dielectric constant tensor:
#      x y z
#    x 1.774010 0.000000 -0.023780 
#    y 0.000000 1.697570 0.000000 
#    z -0.023780 0.000000 1.760200 
# 
# From -- ./inp_files/311758.got.cif
#   From: 2010.05.17/outbox.cif.g08.bks.cpg/sg12_156_cif.got.tgz:311758.got - 2010.06.03 13:09:07.
