data_PCOD9220005
_publ_section_title
;
Structure prediction by ZEFSAII (Michael W. Deem and Ramdas Pophale) SiO2 
 PCOD9220005
Probable space group: C 2/M
;
_chemical_formula_sum "Si O2"
_cell_formula_units_Z 28
_cell_length_a 12.986991
_cell_length_b 20.903515
_cell_length_c 5.065160
_cell_angle_alpha 90.000000
_cell_angle_beta 98.164776
_cell_angle_gamma 90.000000
_cell_volume 1361.120075
_symmetry_space_group_name_H-M "C 2/M"
_symmetry_group_IT_number 12
_symmetry_cell_setting 'monoclinic'
loop_
_space_group_symop_operation_xyz
x,y,z
-x,y,-z
-x,-y,-z
x,-y,z
1/2+x,1/2+y,z
1/2-x,1/2+y,-z
1/2-x,1/2-y,-z
1/2+x,1/2-y,z
loop_
_atom_site_type_symbol
_atom_site_label
_atom_site_fract_x
_atom_site_fract_y
_atom_site_fract_z
Si Si1 0.700553 0.127702 0.719029
Si Si2 0.389136 0.192860 0.832788
Si Si3 0.575515 0.000000 0.777707
Si Si4 0.071212 0.158046 0.269579
O O1 0.639196 0.155657 0.444155
O O2 0.820389 0.120835 0.680599
O O3 0.647711 0.062380 0.792041
O O4 0.691553 0.176067 0.964409
O O5 0.397734 0.267412 0.763694
O O6 0.500000 0.173651 0.000000
O O7 0.500000 0.000000 0.500000
O O8 0.500000 0.000000 0.000000
O O9 0.000000 0.153546 0.500000
O O10 0.000000 0.137612 0.000000
#
# Coordination Sequence:
#
# PCOD9220005 Si02
#       4
#     8   8   4   8
#     4  12  23  40  61  87 121 161 195 240 296 346
#     4  11  21  37  62  91 121 153 193 244 300 353
#     4  12  26  42  62  88 118 152 198 244 289 352
#     4  11  23  39  60  90 121 154 198 244 290 351
#
# _framework density 20.571292
#
# number of rings (size 3 to 8) (size 9 to 14) (size 15 to 20)
#    0.000    0.571    0.000   12.000    0.000    0.000 
#    0.000    1.429    0.000    0.000    0.000    0.000 
#    0.000    0.000    0.000    0.000    0.000    0.000 
#
# Total GULP energy -78391.854858 kJ/mol
# GULP energy per Si atom -5599.418204 kJ/mol
# Density = 2.052447 g / cm^3
# Si number density = 20.571292 Si / 1000 Ang^3
#
#
#
# Elastic Constant Matrix: (Units=GPa)
#
#
# Indices 1 2 3 4 5 6 
#
# 1 163.1826 75.1080 59.0991 0.0000 -30.4787 0.0000
# 2 75.1080 70.3625 44.2000 0.0000 0.0393 0.0000
# 3 59.0991 44.2000 164.8210 0.0000 -26.8807 0.0000
# 4 0.0000 0.0000 0.0000 29.3078 0.0000 -8.0031
# 5 -30.4787 0.0393 -26.8807 0.0000 42.8101 0.0000
# 6 0.0000 0.0000 0.0000 -8.0031 0.0000 27.5822
#
#
#
# Elastic Compliance Matrix: (Units=1/GPa)
#
#
# Indices 1 2 3 4 5 6 
#
# 1 0.016444 -0.018185 0.000994 0.000000 0.012349 0.000000
# 2 -0.018185 0.037610 -0.006331 0.000000 -0.016956 0.000000
# 3 0.000994 -0.006331 0.008383 0.000000 0.005978 0.000000
# 4 0.000000 0.000000 0.000000 0.037057 0.000000 0.010752
# 5 0.012349 -0.016956 0.005978 0.000000 0.035919 0.000000
# 6 0.000000 0.000000 0.000000 0.010752 0.000000 0.039375
#
#
# Mechanical properties :
#
#
# Convention : Reuss Voigt Hill
#
# Bulk Modulus (GPa) = 64.95814 83.90892 74.43353
# Shear Modulus (GPa) = 22.03001 34.60395 28.31698
#
# Velocity S-wave (km/s) = 3.27603 4.10585 3.71419
# Velocity P-wave (km/s) = 6.77904 7.95960 7.39292
#
# Compressibility (1/GPa) = 0.01539453
#
# Stress axis : x y z
#
# Youngs Moduli (GPa) = 60.81090 26.58887 119.28462
#
# Poissons Ratio (x) = 0.48352 -0.11859
# Poissons Ratio (y) = 1.10584 0.75516
# Poissons Ratio (z) = -0.06046 0.16833
#
# Static dielectric constant tensor:
#      x y z
#    x 1.861110 0.000000 -0.072190 
#    y 0.000000 1.735100 0.000000 
#    z -0.072190 0.000000 1.740440 
# 
# From -- ./inp_files/5705.got.cif
#   From: 2010.05.17/outbox.cif.g08.bks.cpg/sg12_3_cif.got.tgz:5705.got - 2010.06.03 13:09:07.
