data_PCOD9220074
_publ_section_title
;
Structure prediction by ZEFSAII (Michael W. Deem and Ramdas Pophale) SiO2 
 PCOD9220074
Probable space group: C 2/M
;
_chemical_formula_sum "Si O2"
_cell_formula_units_Z 56
_cell_length_a 10.944784
_cell_length_b 16.958620
_cell_length_c 24.290306
_cell_angle_alpha 90.000000
_cell_angle_beta 43.012451
_cell_angle_gamma 90.000000
_cell_volume 3075.496272
_symmetry_space_group_name_H-M "C 2/M"
_symmetry_group_IT_number 12
_symmetry_cell_setting 'monoclinic'
loop_
_space_group_symop_operation_xyz
x,y,z
-x,y,-z
-x,-y,-z
x,-y,z
1/2+x,1/2+y,z
1/2-x,1/2+y,-z
1/2-x,1/2-y,-z
1/2+x,1/2-y,z
loop_
_atom_site_type_symbol
_atom_site_label
_atom_site_fract_x
_atom_site_fract_y
_atom_site_fract_z
Si Si1 0.746286 0.815220 0.858186
Si Si2 0.220816 0.298379 0.595634
Si Si3 0.819861 0.667231 0.000514
Si Si4 0.710617 0.500000 0.990406
Si Si5 0.747642 0.592526 0.253908
Si Si6 0.694491 0.500000 0.863861
Si Si7 0.520011 0.677825 0.581341
Si Si8 0.936295 0.351251 0.774612
O O1 0.785733 0.843670 0.906913
O O2 0.799151 0.869285 0.789335
O O3 0.830545 0.729409 0.820794
O O4 0.531466 0.816145 0.931795
O O5 0.333945 0.346554 0.512620
O O6 0.367422 0.276293 0.594923
O O7 0.125230 0.229447 0.592106
O O8 0.064215 0.342363 0.679597
O O9 0.799216 0.583227 0.977259
O O10 0.750000 0.750000 0.000000
O O11 0.513391 0.500000 0.082138
O O12 0.698597 0.500000 0.928759
O O13 0.775591 0.500000 0.239427
O O14 0.591078 0.612334 0.349246
O O15 0.928931 0.630345 0.219233
O O16 0.799074 0.422174 0.811399
#
# Coordination Sequence:
#
# PCOD9220074 Si02
#       8
#     8   8   8   4   8   4   8   8
#     4  11  23  37  62  82 118 155 203 245 309 368
#     4   9  18  35  60  90 125 161 212 249 312 366
#     4  11  24  40  58  87 115 156 203 256 305 371
#     4  11  24  41  60  80 117 160 203 251 308 374
#     4  11  22  37  60  92 124 159 202 256 311 362
#     4  11  22  38  60  81 117 159 197 246 314 361
#     4   9  18  36  59  91 121 169 204 256 302 380
#     4  11  21  38  59  91 119 159 201 257 301 371
#
# _framework density 18.208444
#
# number of rings (size 3 to 8) (size 9 to 14) (size 15 to 20)
#    0.000    1.571    2.143    3.429    2.000    2.857 
#    1.286    1.429    0.000    0.000    0.000    2.000 
#    0.000    0.000    0.000    0.000    0.000    0.000 
#
# Total GULP energy -155986.869015 kJ/mol
# GULP energy per Si atom -5570.959608 kJ/mol
# Density = 1.816700 g / cm^3
# Si number density = 18.208444 Si / 1000 Ang^3
#
#
#
# Elastic Constant Matrix: (Units=GPa)
#
#
# Indices 1 2 3 4 5 6 
#
# 1 61.7940 48.9244 28.0558 0.0000 8.9545 0.0000
# 2 48.9244 124.4600 49.5446 0.0002 1.5093 -0.0002
# 3 28.0558 49.5446 126.0353 0.0003 0.8283 -0.0002
# 4 0.0000 0.0002 0.0003 22.5630 -0.0001 -6.6250
# 5 8.9545 1.5093 0.8283 -0.0001 33.8980 0.0001
# 6 0.0000 -0.0002 -0.0002 -6.6250 0.0001 22.6576
#
#
#
# Elastic Compliance Matrix: (Units=1/GPa)
#
#
# Indices 1 2 3 4 5 6 
#
# 1 0.025116 -0.008996 -0.002014 0.000000 -0.006185 0.000000
# 2 -0.008996 0.012751 -0.003022 0.000000 0.001883 0.000000
# 3 -0.002014 -0.003022 0.009568 0.000000 0.000433 0.000000
# 4 0.000000 0.000000 0.000000 0.048483 0.000000 0.014176
# 5 -0.006185 0.001883 0.000433 0.000000 0.031040 0.000000
# 6 0.000000 0.000000 0.000000 0.014176 0.000000 0.048280
#
#
# Mechanical properties :
#
#
# Convention : Reuss Voigt Hill
#
# Bulk Modulus (GPa) = 51.62536 62.81543 57.22040
# Shear Modulus (GPa) = 23.83680 28.20802 26.02241
#
# Velocity S-wave (km/s) = 3.62208 3.94022 3.78450
# Velocity P-wave (km/s) = 6.77544 7.43460 7.11266
#
# Compressibility (1/GPa) = 0.01937032
#
# Stress axis : x y z
#
# Youngs Moduli (GPa) = 39.81527 78.42286 104.51712
#
# Poissons Ratio (x) = 0.70551 0.21048
# Poissons Ratio (y) = 0.35819 0.31589
# Poissons Ratio (z) = 0.08018 0.23702
#
# Static dielectric constant tensor:
#      x y z
#    x 1.688020 0.000000 0.017060 
#    y 0.000000 1.540690 0.000000 
#    z 0.017060 0.000000 1.653280 
# 
# From -- ./inp_files/358207.got.cif
#   From: 2010.05.17/outbox.cif.g08.bks.cpg/sg12_180_cif.got.tgz:358207.got - 2010.06.03 13:09:07.
