data_PCOD9220307
_publ_section_title
;
Structure prediction by ZEFSAII (Michael W. Deem and Ramdas Pophale) SiO2 
 PCOD9220307
Probable space group: C 2/M
;
_chemical_formula_sum "Si O2"
_cell_formula_units_Z 40
_cell_length_a 22.911479
_cell_length_b 20.396974
_cell_length_c 5.932136
_cell_angle_alpha 90.000000
_cell_angle_beta 43.395660
_cell_angle_gamma 90.000000
_cell_volume 1904.615134
_symmetry_space_group_name_H-M "C 2/M"
_symmetry_group_IT_number 12
_symmetry_cell_setting 'monoclinic'
loop_
_space_group_symop_operation_xyz
x,y,z
-x,y,-z
-x,-y,-z
x,-y,z
1/2+x,1/2+y,z
1/2-x,1/2+y,-z
1/2-x,1/2-y,-z
1/2+x,1/2-y,z
loop_
_atom_site_type_symbol
_atom_site_label
_atom_site_fract_x
_atom_site_fract_y
_atom_site_fract_z
Si Si1 0.657794 0.376230 0.944841
Si Si2 0.453489 0.000000 0.881657
Si Si3 0.774440 0.179250 0.830320
Si Si4 0.048366 0.000000 0.114811
Si Si5 0.342341 0.129955 0.190028
Si Si6 0.085093 0.768107 0.897931
O O1 0.754551 0.373554 0.578049
O O2 0.598820 0.311274 0.081903
O O3 0.676958 0.374163 0.156011
O O4 0.607690 0.435593 0.971169
O O5 0.500000 0.000000 0.500000
O O6 0.500000 0.000000 0.000000
O O7 0.395333 0.935535 0.049182
O O8 0.689923 0.146866 0.969833
O O9 0.838212 0.200894 0.457800
O O10 0.750000 0.250000 0.000000
O O11 0.000000 0.000000 0.500000
O O12 0.000000 0.000000 0.000000
O O13 0.397034 0.192006 0.116077
O O14 0.000000 0.779035 0.000000
#
# Coordination Sequence:
#
# PCOD9220307 Si02
#       6
#     8   4   8   4   8   8
#     4  11  24  45  70  99 141 191 237 296 357 437
#     4  12  31  51  72 110 150 193 248 303 367 431
#     4  11  21  41  71 104 136 183 246 293 360 440
#     4  12  31  49  68 106 148 191 244 299 361 425
#     4  11  24  45  72 100 143 191 240 297 359 438
#     4  11  23  39  67 105 141 179 239 303 368 419
#
# _framework density 21.001615999999999
#
# number of rings (size 3 to 8) (size 9 to 14) (size 15 to 20)
#    0.000    0.800    4.000    3.000   11.200    2.400 
#    0.000    0.000    0.000    0.000    0.000    0.000 
#    0.000    0.000    0.000    0.000    0.000    0.000 
#
# Total GULP energy -111436.903254 kJ/mol
# GULP energy per Si atom -5571.845163 kJ/mol
# Density = 2.095382 g / cm^3
# Si number density = 21.001616 Si / 1000 Ang^3
#
#
#
# Elastic Constant Matrix: (Units=GPa)
#
#
# Indices 1 2 3 4 5 6 
#
# 1 150.6679 58.0995 15.3285 0.0000 -0.4475 0.0000
# 2 58.0995 149.4701 12.7225 0.0000 -14.0362 0.0000
# 3 15.3285 12.7225 30.8515 0.0000 -1.6946 0.0000
# 4 0.0000 0.0000 0.0000 17.3202 0.0000 -7.1737
# 5 -0.4475 -14.0362 -1.6946 0.0000 29.0714 0.0000
# 6 0.0000 0.0000 0.0000 -7.1737 0.0000 54.2494
#
#
#
# Elastic Compliance Matrix: (Units=1/GPa)
#
#
# Indices 1 2 3 4 5 6 
#
# 1 0.008098 -0.003047 -0.002850 0.000000 -0.001513 0.000000
# 2 -0.003047 0.008388 -0.001731 0.000000 0.003902 0.000000
# 3 -0.002850 -0.001731 0.034606 0.000000 0.001138 0.000000
# 4 0.000000 0.000000 0.000000 0.061081 0.000000 0.008077
# 5 -0.001513 0.003902 0.001138 0.000000 0.036325 0.000000
# 6 0.000000 0.000000 0.000000 0.008077 0.000000 0.019501
#
#
# Mechanical properties :
#
#
# Convention : Reuss Voigt Hill
#
# Bulk Modulus (GPa) = 27.90493 55.92117 41.91305
# Shear Modulus (GPa) = 25.61467 36.45079 31.03273
#
# Velocity S-wave (km/s) = 3.49614 4.17059 3.84817
# Velocity P-wave (km/s) = 5.44180 7.06234 6.30436
#
# Compressibility (1/GPa) = 0.03583596
#
# Stress axis : x y z
#
# Youngs Moduli (GPa) = 123.49464 119.21119 28.89710
#
# Poissons Ratio (x) = 0.36324 0.08235
# Poissons Ratio (y) = 0.37629 0.05002
# Poissons Ratio (z) = 0.35193 0.20635
#
# Static dielectric constant tensor:
#      x y z
#    x 1.801570 0.000000 0.162410 
#    y 0.000000 1.654530 0.000000 
#    z 0.162410 0.000000 2.152640 
# 
# From -- ./inp_files/21146.got.cif
#   From: 2010.05.17/outbox.cif.g08.bks.cpg/sg12_11_cif.got.tgz:21146.got - 2010.06.03 13:09:07.
