data_PCOD9220562
_publ_section_title
;
Structure prediction by ZEFSAII (Michael W. Deem and Ramdas Pophale) SiO2 
 PCOD9220562
Probable space group: C 2/M
;
_chemical_formula_sum "Si O2"
_cell_formula_units_Z 58
_cell_length_a 8.684311
_cell_length_b 21.631209
_cell_length_c 19.380184
_cell_angle_alpha 90.000000
_cell_angle_beta 58.178776
_cell_angle_gamma 90.000000
_cell_volume 3093.416265
_symmetry_space_group_name_H-M "C 2/M"
_symmetry_group_IT_number 12
_symmetry_cell_setting 'monoclinic'
loop_
_space_group_symop_operation_xyz
x,y,z
-x,y,-z
-x,-y,-z
x,-y,z
1/2+x,1/2+y,z
1/2-x,1/2+y,-z
1/2-x,1/2-y,-z
1/2+x,1/2-y,z
loop_
_atom_site_type_symbol
_atom_site_label
_atom_site_fract_x
_atom_site_fract_y
_atom_site_fract_z
Si Si1 0.149237 0.185575 0.525318
Si Si2 0.323904 0.930510 0.260478
Si Si3 0.500000 0.500000 0.000000
Si Si4 0.654196 0.288943 0.797515
Si Si5 0.272406 0.896074 0.875050
Si Si6 0.091860 0.701264 0.050454
Si Si7 0.279530 0.567047 0.554675
Si Si8 0.424898 0.317014 0.716827
O O1 0.250000 0.250000 0.500000
O O2 0.272880 0.126734 0.476734
O O3 0.000000 0.189296 0.500000
O O4 0.055444 0.174077 0.620739
O O5 0.537729 0.924111 0.196542
O O6 0.281665 0.924970 0.351946
O O7 0.215614 0.874435 0.250115
O O8 0.265458 0.000000 0.252669
O O9 0.622653 0.445922 0.931297
O O10 0.706054 0.345823 0.834468
O O11 0.546855 0.238069 0.867977
O O12 0.533654 0.311881 0.762406
O O13 0.824460 0.248944 0.730793
O O14 0.326447 0.857236 0.930227
O O15 0.250000 0.750000 0.000000
O O16 0.000000 0.684519 0.000000
O O17 0.500000 0.564703 0.500000
O O18 0.213612 0.500000 0.545462
#
# Coordination Sequence:
#
# PCOD9220562 Si02
#       8
#     8   8   2   8   8   8   8   8
#     4  11  22  36  59  97 136 174 214 279 327 378
#     4  11  22  42  67  94 131 179 230 272 320 399
#     4  12  28  52  70  92 130 182 214 280 350 402
#     4  12  24  40  66  95 135 171 216 271 329 406
#     4  12  25  46  68  94 132 172 220 271 342 402
#     4  12  22  40  66  98 122 160 212 267 326 400
#     4   9  18  36  63  89 123 176 225 265 316 382
#     4  12  22  40  64 100 134 175 224 267 332 386
#
# _framework density 18.749497999999999
#
# number of rings (size 3 to 8) (size 9 to 14) (size 15 to 20)
#    0.000    0.690    7.586    1.655    1.931    0.000 
#    1.241    0.345    0.000    0.414    0.000    0.000 
#    0.000    0.000    0.000    0.000    0.000    0.000 
#
# Total GULP energy -161667.088324 kJ/mol
# GULP energy per Si atom -5574.727184 kJ/mol
# Density = 1.870682 g / cm^3
# Si number density = 18.749498 Si / 1000 Ang^3
#
#
#
# Elastic Constant Matrix: (Units=GPa)
#
#
# Indices 1 2 3 4 5 6 
#
# 1 70.5732 59.3300 40.8082 0.0000 10.9868 0.0000
# 2 59.3300 188.1911 51.0300 0.0000 10.4157 0.0000
# 3 40.8082 51.0300 102.8326 0.0000 4.3762 0.0000
# 4 0.0000 0.0000 0.0000 71.8336 0.0000 12.7669
# 5 10.9868 10.4157 4.3762 0.0000 23.3910 0.0000
# 6 0.0000 0.0000 0.0000 12.7669 0.0000 28.6242
#
#
#
# Elastic Compliance Matrix: (Units=1/GPa)
#
#
# Indices 1 2 3 4 5 6 
#
# 1 0.023429 -0.005243 -0.006378 0.000000 -0.007477 0.000000
# 2 -0.005243 0.007426 -0.001581 0.000000 -0.000548 0.000000
# 3 -0.006378 -0.001581 0.012986 0.000000 0.001270 0.000000
# 4 0.000000 0.000000 0.000000 0.015120 0.000000 -0.006744
# 5 -0.007477 -0.000548 0.001270 0.000000 0.046270 0.000000
# 6 0.000000 0.000000 0.000000 -0.006744 0.000000 0.037943
#
#
# Mechanical properties :
#
#
# Convention : Reuss Voigt Hill
#
# Bulk Modulus (GPa) = 57.34777 73.77039 65.55908
# Shear Modulus (GPa) = 28.50788 38.79833 33.65310
#
# Velocity S-wave (km/s) = 3.90354 4.55389 4.24120
# Velocity P-wave (km/s) = 7.13929 8.19031 7.68280
#
# Compressibility (1/GPa) = 0.01743747
#
# Stress axis : x y z
#
# Youngs Moduli (GPa) = 42.68134 134.66587 77.00643
#
# Poissons Ratio (x) = 0.70609 0.49112
# Poissons Ratio (y) = 0.22379 0.12174
# Poissons Ratio (z) = 0.27221 0.21290
#
# Static dielectric constant tensor:
#      x y z
#    x -0.498700 0.000000 2.594200 
#    y 0.000000 1.714140 0.000000 
#    z 2.594200 0.000000 -1.537740 
# 
# From -- ./inp_files/258489.got.cif
#   From: 2010.05.17/outbox.cif.g08.bks.cpg/sg12_130_cif.got.tgz:258489.got - 2010.06.03 13:09:07.
