data_PCOD9220225
_publ_section_title
;
Structure prediction by ZEFSAII (Michael W. Deem and Ramdas Pophale) SiO2 
 PCOD9220225
Probable space group: C 2/M
;
_chemical_formula_sum "Si O2"
_cell_formula_units_Z 56
_cell_length_a 9.937597
_cell_length_b 16.862399
_cell_length_c 18.752772
_cell_angle_alpha 90.000000
_cell_angle_beta 115.115755
_cell_angle_gamma 90.000000
_cell_volume 2845.323858
_symmetry_space_group_name_H-M "C 2/M"
_symmetry_group_IT_number 12
_symmetry_cell_setting 'monoclinic'
loop_
_space_group_symop_operation_xyz
x,y,z
-x,y,-z
-x,-y,-z
x,-y,z
1/2+x,1/2+y,z
1/2-x,1/2+y,-z
1/2-x,1/2-y,-z
1/2+x,1/2-y,z
loop_
_atom_site_type_symbol
_atom_site_label
_atom_site_fract_x
_atom_site_fract_y
_atom_site_fract_z
Si Si1 0.421995 0.739207 0.553195
Si Si2 0.944463 0.208197 0.836795
Si Si3 0.686862 0.090585 0.830246
Si Si4 0.413156 0.175246 0.697083
Si Si5 0.005254 0.369896 0.083611
Si Si6 0.599251 0.591664 0.635007
Si Si7 0.159957 0.911948 0.814934
O O1 0.500000 0.771178 0.500000
O O2 0.250000 0.750000 0.500000
O O3 0.462761 0.783959 0.635040
O O4 0.472635 0.648404 0.575648
O O5 0.815174 0.151965 0.837463
O O6 0.895342 0.257957 0.755072
O O7 0.988745 0.275305 0.903234
O O8 0.084654 0.155258 0.845474
O O9 0.540594 0.116181 0.753044
O O10 0.630872 0.099184 0.899334
O O11 0.729516 0.000000 0.825436
O O12 0.257942 0.130305 0.650738
O O13 0.162611 0.401597 0.148824
O O14 0.000000 0.391391 0.000000
O O15 0.589124 0.500000 0.610928
O O16 0.596565 0.594473 0.720702
O O17 0.126441 0.000000 0.835000
#
# Coordination Sequence:
#
# PCOD9220225 Si02
#       7
#     8   8   8   8   8   8   8
#     4  12  25  42  65  95 127 168 209 256 319 375
#     4  11  22  38  64  92 125 163 206 260 313 372
#     4  11  23  39  64  96 125 161 206 261 318 367
#     4  11  21  40  66  91 125 164 212 256 304 379
#     4  11  24  41  63  91 125 168 216 258 304 372
#     4  11  22  40  66  94 124 165 213 258 304 378
#     4  11  22  39  63  92 124 165 208 255 316 374
#
# _framework density 19.681415000000001
#
# number of rings (size 3 to 8) (size 9 to 14) (size 15 to 20)
#    0.000    0.857    5.714    3.857    0.000    3.714 
#    0.000    0.000    0.000    4.714    0.000    0.000 
#    0.000    0.000    0.000    0.000    0.000    0.000 
#
# Total GULP energy -156515.856682 kJ/mol
# GULP energy per Si atom -5589.852024 kJ/mol
# Density = 1.963662 g / cm^3
# Si number density = 19.681415 Si / 1000 Ang^3
#
#
#
# Elastic Constant Matrix: (Units=GPa)
#
#
# Indices 1 2 3 4 5 6 
#
# 1 68.8479 8.5875 -4.5585 0.0000 -11.3129 0.0000
# 2 8.5875 105.6743 -0.0517 0.0000 -5.3139 0.0000
# 3 -4.5585 -0.0517 59.9846 0.0000 -29.7260 0.0000
# 4 0.0000 0.0000 0.0000 -0.7067 0.0000 -24.0439
# 5 -11.3129 -5.3139 -29.7260 0.0000 26.7885 0.0000
# 6 0.0000 0.0000 0.0000 -24.0439 0.0000 -7.4809
#
#
#
# Elastic Compliance Matrix: (Units=1/GPa)
#
#
# Indices 1 2 3 4 5 6 
#
# 1 0.018811 -0.000469 0.011819 0.000000 0.020966 0.000000
# 2 -0.000469 0.009691 0.001838 0.000000 0.003764 0.000000
# 3 0.011819 0.001838 0.044934 0.000000 0.055218 0.000000
# 4 0.000000 0.000000 0.000000 0.013060 0.000000 -0.041974
# 5 0.020966 0.003764 0.055218 0.000000 0.108203 0.000000
# 6 0.000000 0.000000 0.000000 -0.041974 0.000000 0.001234
#
#
# Mechanical properties :
#
#
# Convention : Reuss Voigt Hill
#
# Bulk Modulus (GPa) = 10.01865 26.94016 18.47941
# Shear Modulus (GPa) = 24.65158 19.08881 21.87019
#
# Velocity S-wave (km/s) = 3.54295 3.11768 3.33710
# Velocity P-wave (km/s) = 4.67313 5.16505 4.92524
#
# Compressibility (1/GPa) = 0.09981384
#
# Stress axis : x y z
#
# Youngs Moduli (GPa) = 53.16081 103.18536 22.25466
#
# Poissons Ratio (x) = 0.04835 -0.26303
# Poissons Ratio (y) = 0.02491 -0.04091
# Poissons Ratio (z) = -0.62831 -0.18967
#
# Static dielectric constant tensor:
#      x y z
#    x 1.670280 0.000000 -0.015170 
#    y 0.000000 1.698280 0.000000 
#    z -0.015170 0.000000 1.707370 
# 
# From -- ./inp_files/257155.got.cif
#   From: 2010.05.17/outbox.cif.g08.bks.cpg/sg12_129_cif.got.tgz:257155.got - 2010.06.03 13:09:07.
