data_PCOD9220568
_publ_section_title
;
Structure prediction by ZEFSAII (Michael W. Deem and Ramdas Pophale) SiO2 
 PCOD9220568
Probable space group: C 2/M
;
_chemical_formula_sum "Si O2"
_cell_formula_units_Z 52
_cell_length_a 10.877044
_cell_length_b 21.742464
_cell_length_c 12.292312
_cell_angle_alpha 90.000000
_cell_angle_beta 108.543283
_cell_angle_gamma 90.000000
_cell_volume 2756.131229
_symmetry_space_group_name_H-M "C 2/M"
_symmetry_group_IT_number 12
_symmetry_cell_setting 'monoclinic'
loop_
_space_group_symop_operation_xyz
x,y,z
-x,y,-z
-x,-y,-z
x,-y,z
1/2+x,1/2+y,z
1/2-x,1/2+y,-z
1/2-x,1/2-y,-z
1/2+x,1/2-y,z
loop_
_atom_site_type_symbol
_atom_site_label
_atom_site_fract_x
_atom_site_fract_y
_atom_site_fract_z
Si Si1 0.192408 0.357859 0.030315
Si Si2 0.000000 0.749985 0.000000
Si Si3 0.763582 0.927459 0.840457
Si Si4 0.500864 0.355115 0.835703
Si Si5 0.961770 0.574642 0.371168
Si Si6 0.649863 0.071518 0.233093
Si Si7 0.957392 0.928512 0.363394
O O1 0.120284 0.293182 0.001540
O O2 0.345993 0.355560 0.097823
O O3 0.131309 0.392014 0.116693
O O4 0.188223 0.395970 0.918372
O O5 0.960534 0.791572 0.884271
O O6 0.682863 0.910878 0.709279
O O7 0.909598 0.904028 0.871161
O O8 0.760992 0.000000 0.855105
O O9 0.489319 0.377684 0.706779
O O10 0.970766 0.500000 0.377143
O O11 0.000000 0.598388 0.500000
O O12 0.062214 0.595187 0.307054
O O13 0.801198 0.074171 0.309576
O O14 0.617481 0.000000 0.205043
O O15 0.000000 0.918669 0.500000
O O16 0.995170 0.000000 0.344098
#
# Coordination Sequence:
#
# PCOD9220568 Si02
#       7
#     8   4   8   8   8   8   8
#     4  11  22  39  61  87 118 160 205 249 299 361
#     4  12  24  42  62  82 120 168 212 248 292 354
#     4  11  22  36  60  93 125 156 193 254 322 366
#     4  11  23  38  58  90 123 157 200 252 295 364
#     4   9  19  33  51  81 121 159 193 231 290 368
#     4   9  18  34  56  86 120 154 195 252 305 355
#     4   9  19  35  60  90 122 159 196 243 308 368
#
# _framework density 18.867025000000002
#
# number of rings (size 3 to 8) (size 9 to 14) (size 15 to 20)
#    0.000    1.846    1.538    2.308    2.154    2.462 
#    0.000    3.077    0.000    7.385    0.000    0.000 
#    0.000    0.000    0.000    0.000    0.000    0.000 
#
# Total GULP energy -144946.650233 kJ/mol
# GULP energy per Si atom -5574.871163 kJ/mol
# Density = 1.882408 g / cm^3
# Si number density = 18.867025 Si / 1000 Ang^3
#
#
#
# Elastic Constant Matrix: (Units=GPa)
#
#
# Indices 1 2 3 4 5 6 
#
# 1 87.6065 38.7222 34.3892 0.0000 -13.8777 0.0000
# 2 38.7222 89.5746 58.1672 0.0000 -5.0145 0.0000
# 3 34.3892 58.1672 126.6845 0.0000 -8.5945 0.0000
# 4 0.0000 0.0000 0.0000 -13.8979 0.0000 9.8253
# 5 -13.8777 -5.0145 -8.5945 0.0000 24.0733 0.0000
# 6 0.0000 0.0000 0.0000 9.8253 0.0000 31.1213
#
#
#
# Elastic Compliance Matrix: (Units=1/GPa)
#
#
# Indices 1 2 3 4 5 6 
#
# 1 0.015479 -0.005521 -0.001168 0.000000 0.007356 0.000000
# 2 -0.005521 0.017888 -0.006844 0.000000 -0.001900 0.000000
# 3 -0.001168 -0.006844 0.011489 0.000000 0.002003 0.000000
# 4 0.000000 0.000000 0.000000 -0.058824 0.000000 0.018571
# 5 0.007356 -0.001900 0.002003 0.000000 0.046100 0.000000
# 6 0.000000 0.000000 0.000000 0.018571 0.000000 0.026269
#
#
# Mechanical properties :
#
#
# Convention : Reuss Voigt Hill
#
# Bulk Modulus (GPa) = 56.20873 62.93586 59.57230
# Shear Modulus (GPa) = 54.70731 19.76515 37.23623
#
# Velocity S-wave (km/s) = 5.39066 3.24018 4.44736
# Velocity P-wave (km/s) = 8.28265 6.88683 7.61678
#
# Compressibility (1/GPa) = 0.01779083
#
# Stress axis : x y z
#
# Youngs Moduli (GPa) = 64.60485 55.90248 87.04221
#
# Poissons Ratio (x) = 0.30865 0.10164
# Poissons Ratio (y) = 0.35670 0.59568
# Poissons Ratio (z) = 0.07544 0.38257
#
# Static dielectric constant tensor:
#      x y z
#    x 1.686360 0.000000 -0.001780 
#    y 0.000000 1.645350 0.000000 
#    z -0.001780 0.000000 1.672100 
# 
# From -- ./inp_files/133337.got.cif
#   From: 2010.05.17/outbox.cif.g08.bks.cpg/sg12_67_cif.got.tgz:133337.got - 2010.06.03 13:09:07.
