data_PCOD9220610
_publ_section_title
;
Structure prediction by ZEFSAII (Michael W. Deem and Ramdas Pophale) SiO2 
 PCOD9220610
Probable space group: C 2/M
;
_chemical_formula_sum "Si O2"
_cell_formula_units_Z 48
_cell_length_a 13.171631
_cell_length_b 30.501299
_cell_length_c 8.582424
_cell_angle_alpha 90.000000
_cell_angle_beta 34.082992
_cell_angle_gamma 90.000000
_cell_volume 1932.238300
_symmetry_space_group_name_H-M "C 2/M"
_symmetry_group_IT_number 12
_symmetry_cell_setting 'monoclinic'
loop_
_space_group_symop_operation_xyz
x,y,z
-x,y,-z
-x,-y,-z
x,-y,z
1/2+x,1/2+y,z
1/2-x,1/2+y,-z
1/2-x,1/2-y,-z
1/2+x,1/2-y,z
loop_
_atom_site_type_symbol
_atom_site_label
_atom_site_fract_x
_atom_site_fract_y
_atom_site_fract_z
Si Si1 0.068020 0.000000 0.668514
Si Si2 0.924750 0.906741 0.344639
Si Si3 0.523745 0.681834 0.137851
Si Si4 0.185830 0.757435 0.403474
Si Si5 0.694111 0.903992 0.944439
Si Si6 0.620007 0.808899 0.128106
Si Si7 0.301579 0.000000 0.050527
O O1 0.098323 0.046585 0.708463
O O2 0.862151 0.000000 0.866056
O O3 0.196202 0.000000 0.351035
O O4 0.924504 0.864215 0.240877
O O5 0.121806 0.904962 0.182425
O O6 0.772753 0.902846 0.670182
O O7 0.435715 0.699914 0.407091
O O8 0.500000 0.704973 0.000000
O O9 0.730240 0.683185 0.928398
O O10 0.250000 0.750000 0.500000
O O11 0.305304 0.775916 0.105923
O O12 0.047002 0.716663 0.585947
O O13 0.587733 0.858609 0.108340
O O14 0.603414 0.952278 0.082677
#
# Coordination Sequence:
#
# PCOD9220610 Si02
#       7
#     4   8   8   8   8   8   4
#     4   7  10  18  39  72 109 159 193 243 296 364
#     4   8  13  25  46  75 118 156 202 245 306 359
#     4  11  22  37  57  87 122 166 208 254 308 373
#     4  12  25  43  63  88 116 159 213 264 319 381
#     4   8  13  26  50  82 116 158 197 252 309 366
#     4  11  23  41  64  89 126 165 207 261 318 369
#     4   7  10  18  42  80 116 146 198 245 299 369
#
# _framework density 24.841656
#
# number of rings (size 3 to 8) (size 9 to 14) (size 15 to 20)
#    0.000    2.500    1.667    4.500    0.000    1.333 
#    0.000    0.417    0.000    0.000    0.000    3.500 
#    0.000    2.667    0.000   48.750    0.000    0.417 
#
# Total GULP energy -133605.045338 kJ/mol
# GULP energy per Si atom -5566.876889 kJ/mol
# Density = 2.478512 g / cm^3
# Si number density = 24.841656 Si / 1000 Ang^3
#
#
#
# Elastic Constant Matrix: (Units=GPa)
#
#
# Indices 1 2 3 4 5 6 
#
# 1 86.2873 0.3581 15.5054 0.0000 11.4843 0.0000
# 2 0.3581 239.7755 52.4995 0.0000 8.2703 0.0000
# 3 15.5054 52.4995 101.5740 0.0000 29.1389 0.0000
# 4 0.0000 0.0000 0.0000 38.5925 0.0000 -6.2584
# 5 11.4843 8.2703 29.1389 0.0000 24.8539 0.0000
# 6 0.0000 0.0000 0.0000 -6.2584 0.0000 19.2124
#
#
#
# Elastic Compliance Matrix: (Units=1/GPa)
#
#
# Indices 1 2 3 4 5 6 
#
# 1 0.012375 0.000281 -0.000553 0.000000 -0.005163 0.000000
# 2 0.000281 0.004772 -0.003038 0.000000 0.001845 0.000000
# 3 -0.000553 -0.003038 0.016780 0.000000 -0.018407 0.000000
# 4 0.000000 0.000000 0.000000 0.027357 0.000000 0.008911
# 5 -0.005163 0.001845 -0.018407 0.000000 0.063588 0.000000
# 6 0.000000 0.000000 0.000000 0.008911 0.000000 0.054952
#
#
# Mechanical properties :
#
#
# Convention : Reuss Voigt Hill
#
# Bulk Modulus (GPa) = 36.62273 62.70696 49.66485
# Shear Modulus (GPa) = 25.56935 40.48334 33.02635
#
# Velocity S-wave (km/s) = 3.21174 4.04128 3.65015
# Velocity P-wave (km/s) = 5.34118 6.86100 6.14823
#
# Compressibility (1/GPa) = 0.02730544
#
# Stress axis : x y z
#
# Youngs Moduli (GPa) = 80.81100 209.56528 59.59364
#
# Poissons Ratio (x) = -0.05882 0.03295
# Poissons Ratio (y) = -0.02268 0.18107
# Poissons Ratio (z) = 0.04468 0.63674
#
# Static dielectric constant tensor:
#      x y z
#    x 2.266240 0.000000 -0.238760 
#    y 0.000000 2.164560 0.000000 
#    z -0.238760 0.000000 2.040420 
# 
# From -- ./inp_files/170418.got.cif
#   From: 2010.05.17/outbox.cif.g08.bks.cpg/sg12_86_cif.got.tgz:170418.got - 2010.06.03 13:09:07.
