data_PCOD9220128
_publ_section_title
;
Structure prediction by ZEFSAII (Michael W. Deem and Ramdas Pophale) SiO2 
 PCOD9220128
Probable space group: C 2/M
;
_chemical_formula_sum "Si O2"
_cell_formula_units_Z 40
_cell_length_a 24.350444
_cell_length_b 9.732129
_cell_length_c 16.093661
_cell_angle_alpha 90.000000
_cell_angle_beta 146.958566
_cell_angle_gamma 90.000000
_cell_volume 2079.512757
_symmetry_space_group_name_H-M "C 2/M"
_symmetry_group_IT_number 12
_symmetry_cell_setting 'monoclinic'
loop_
_space_group_symop_operation_xyz
x,y,z
-x,y,-z
-x,-y,-z
x,-y,z
1/2+x,1/2+y,z
1/2-x,1/2+y,-z
1/2-x,1/2-y,-z
1/2+x,1/2-y,z
loop_
_atom_site_type_symbol
_atom_site_label
_atom_site_fract_x
_atom_site_fract_y
_atom_site_fract_z
Si Si1 0.426238 0.500000 0.718353
Si Si2 0.444780 0.202956 0.342655
Si Si3 0.923831 0.000000 0.246642
Si Si4 0.419844 0.000000 0.578397
Si Si5 0.289744 0.500000 0.773803
Si Si6 0.761311 0.500000 0.107903
Si Si7 0.092724 0.765561 0.174903
Si Si8 0.187335 0.500000 0.378833
O O1 0.493163 0.500000 0.721312
O O2 0.444939 0.364666 0.798282
O O3 0.306864 0.500000 0.546097
O O4 0.500000 0.174265 0.500000
O O5 0.436422 0.363334 0.316071
O O6 0.336260 0.130129 0.203723
O O7 0.511125 0.131131 0.354753
O O8 0.814601 0.000000 0.064691
O O9 0.327750 0.000000 0.397089
O O10 0.370988 0.000000 0.607029
O O11 0.302212 0.500000 0.887880
O O12 0.338620 0.366707 0.793392
O O13 0.153675 0.636846 0.287624
O O14 0.000000 0.719725 0.000000
#
# Coordination Sequence:
#
# PCOD9220128 Si02
#       8
#     4   8   4   4   4   4   8   4
#     4  11  23  39  62  90 121 168 205 233 300 370
#     4  11  23  42  65  90 118 163 207 247 304 361
#     4  12  25  38  63  96 130 143 201 271 304 340
#     4  11  21  40  66  86 119 165 207 242 286 372
#     4  11  21  38  68  83 121 165 206 238 294 366
#     4  11  22  44  65  88 117 170 203 242 305 369
#     4  11  23  40  60  92 126 161 201 247 299 359
#     4  12  24  38  64  93 126 157 201 254 301 346
#
# _framework density 19.235274
#
# number of rings (size 3 to 8) (size 9 to 14) (size 15 to 20)
#    0.000    0.800    4.000    6.000    2.800    0.000 
#    0.000    1.000    0.000    0.000    0.000    0.000 
#    0.000    0.000    0.000    0.000    0.000    0.000 
#
# Total GULP energy -111866.317947 kJ/mol
# GULP energy per Si atom -5593.315897 kJ/mol
# Density = 1.919149 g / cm^3
# Si number density = 19.235274 Si / 1000 Ang^3
#
#
#
# Elastic Constant Matrix: (Units=GPa)
#
#
# Indices 1 2 3 4 5 6 
#
# 1 73.6068 21.1391 29.9057 0.0000 12.1690 0.0000
# 2 21.1391 110.0580 30.6387 0.0000 3.6135 0.0000
# 3 29.9057 30.6387 105.5544 0.0000 -8.1440 0.0000
# 4 0.0000 0.0000 0.0000 26.6400 0.0000 -4.3980
# 5 12.1690 3.6135 -8.1440 0.0000 25.2499 0.0000
# 6 0.0000 0.0000 0.0000 -4.3980 0.0000 2.2339
#
#
#
# Elastic Compliance Matrix: (Units=1/GPa)
#
#
# Indices 1 2 3 4 5 6 
#
# 1 0.017915 -0.001607 -0.005392 0.000000 -0.010143 0.000000
# 2 -0.001607 0.010173 -0.002615 0.000000 -0.001525 0.000000
# 3 -0.005392 -0.002615 0.012296 0.000000 0.006939 0.000000
# 4 0.000000 0.000000 0.000000 0.055612 0.000000 0.109485
# 5 -0.010143 -0.001525 0.006939 0.000000 0.046949 0.000000
# 6 0.000000 0.000000 0.000000 0.109485 0.000000 0.663191
#
#
# Mechanical properties :
#
#
# Convention : Reuss Voigt Hill
#
# Bulk Modulus (GPa) = 47.26863 50.28734 48.77799
# Shear Modulus (GPa) = 6.00662 24.66048 15.33355
#
# Velocity S-wave (km/s) = 1.76904 3.58445 2.82646
# Velocity P-wave (km/s) = 5.36656 6.58264 6.00546
#
# Compressibility (1/GPa) = 0.02115568
#
# Stress axis : x y z
#
# Youngs Moduli (GPa) = 55.82021 98.30074 81.32852
#
# Poissons Ratio (x) = 0.15796 0.43850
# Poissons Ratio (y) = 0.08970 0.21269
# Poissons Ratio (z) = 0.30097 0.25708
#
# Static dielectric constant tensor:
#      x y z
#    x 1.654640 0.000000 0.004850 
#    y 0.000000 1.641630 0.000000 
#    z 0.004850 0.000000 1.655550 
# 
# From -- ./inp_files/274702.got.cif
#   From: 2010.05.17/outbox.cif.g08.bks.cpg/sg12_138_cif.got.tgz:274702.got - 2010.06.03 13:09:07.
