data_PCOD9220069
_publ_section_title
;
Structure prediction by ZEFSAII (Michael W. Deem and Ramdas Pophale) SiO2 
 PCOD9220069
Probable space group: C 2/M
;
_chemical_formula_sum "Si O2"
_cell_formula_units_Z 56
_cell_length_a 9.499548
_cell_length_b 28.142761
_cell_length_c 17.116540
_cell_angle_alpha 90.000000
_cell_angle_beta 35.975970
_cell_angle_gamma 90.000000
_cell_volume 2688.149995
_symmetry_space_group_name_H-M "C 2/M"
_symmetry_group_IT_number 12
_symmetry_cell_setting 'monoclinic'
loop_
_space_group_symop_operation_xyz
x,y,z
-x,y,-z
-x,-y,-z
x,-y,z
1/2+x,1/2+y,z
1/2-x,1/2+y,-z
1/2-x,1/2-y,-z
1/2+x,1/2-y,z
loop_
_atom_site_type_symbol
_atom_site_label
_atom_site_fract_x
_atom_site_fract_y
_atom_site_fract_z
Si Si1 0.449340 0.420494 0.106873
Si Si2 0.715238 0.553541 0.646733
Si Si3 0.966683 0.354682 0.685690
Si Si4 0.359551 0.802200 0.254842
Si Si5 0.077395 0.862776 0.600625
Si Si6 0.806324 0.655299 0.022386
Si Si7 0.328368 0.302247 0.305227
O O1 0.352412 0.444985 0.230455
O O2 0.224411 0.387171 0.185795
O O3 0.670039 0.387507 0.038614
O O4 0.500000 0.444996 0.000000
O O5 0.661322 0.500000 0.642836
O O6 0.566354 0.594403 0.668107
O O7 0.000000 0.561692 0.500000
O O8 0.836099 0.339951 0.665181
O O9 0.015433 0.310215 0.718377
O O10 0.220168 0.377589 0.551495
O O11 0.256543 0.749562 0.308405
O O12 0.164148 0.843566 0.328946
O O13 0.552306 0.810757 0.100772
O O14 0.175653 0.816043 0.602551
O O15 0.599793 0.686194 0.156812
O O16 0.000000 0.638693 0.000000
#
# Coordination Sequence:
#
# PCOD9220069 Si02
#       7
#     8   8   8   8   8   8   8
#     4  11  21  40  66  93 126 162 205 268 316 379
#     4  11  22  42  74 100 122 162 213 263 325 389
#     4  11  23  37  59  90 123 166 212 258 322 369
#     4  12  24  37  57  91 128 172 212 258 320 370
#     4  12  22  42  62  89 131 164 215 268 308 383
#     4  11  21  38  58  85 123 173 217 259 309 369
#     4  11  23  37  60  86 126 172 219 264 301 381
#
# _framework density 20.832170000000001
#
# number of rings (size 3 to 8) (size 9 to 14) (size 15 to 20)
#    0.000    0.714    7.143    2.143    0.000    3.714 
#    0.000    0.000    0.000    6.429    0.000    0.000 
#    0.000    0.000    0.000    0.000    0.000    0.000 
#
# Total GULP energy -156142.137851 kJ/mol
# GULP energy per Si atom -5576.504923 kJ/mol
# Density = 2.078476 g / cm^3
# Si number density = 20.832170 Si / 1000 Ang^3
#
#
#
# Elastic Constant Matrix: (Units=GPa)
#
#
# Indices 1 2 3 4 5 6 
#
# 1 68.9002 20.0992 41.2809 0.0000 9.6240 0.0000
# 2 20.0992 94.6018 7.9156 0.0000 -3.7069 0.0000
# 3 41.2809 7.9156 74.6433 0.0001 -4.2362 0.0000
# 4 0.0000 0.0000 0.0001 18.0498 0.0000 -0.4884
# 5 9.6240 -3.7069 -4.2362 0.0000 33.1428 0.0000
# 6 0.0000 0.0000 0.0000 -0.4884 0.0000 13.0575
#
#
#
# Elastic Compliance Matrix: (Units=1/GPa)
#
#
# Indices 1 2 3 4 5 6 
#
# 1 0.025867 -0.004680 -0.014370 0.000000 -0.009871 0.000000
# 2 -0.004680 0.011549 0.001525 0.000000 0.002846 0.000000
# 3 -0.014370 0.001525 0.021585 0.000000 0.007102 0.000000
# 4 0.000000 0.000000 0.000000 0.055459 0.000000 0.002074
# 5 -0.009871 0.002846 0.007102 0.000000 0.034265 0.000000
# 6 0.000000 0.000000 0.000000 0.002074 0.000000 0.076662
#
#
# Mechanical properties :
#
#
# Convention : Reuss Voigt Hill
#
# Bulk Modulus (GPa) = 41.74989 41.85964 41.80476
# Shear Modulus (GPa) = 18.62749 24.10665 21.36707
#
# Velocity S-wave (km/s) = 2.99351 3.40543 3.20609
# Velocity P-wave (km/s) = 5.65975 5.96657 5.81518
#
# Compressibility (1/GPa) = 0.02395216
#
# Stress axis : x y z
#
# Youngs Moduli (GPa) = 38.65884 86.58850 46.32761
#
# Poissons Ratio (x) = 0.40525 0.66571
# Poissons Ratio (y) = 0.18093 -0.07066
# Poissons Ratio (z) = 0.55551 -0.13206
#
# Static dielectric constant tensor:
#      x y z
#    x 1.739470 0.000000 0.026950 
#    y 0.000000 1.729780 0.000000 
#    z 0.026950 0.000000 1.806240 
# 
# From -- ./inp_files/260112.got.cif
#   From: 2010.05.17/outbox.cif.g08.bks.cpg/sg12_131_cif.got.tgz:260112.got - 2010.06.03 13:09:07.
