data_PCOD9220589
_publ_section_title
;
Structure prediction by ZEFSAII (Michael W. Deem and Ramdas Pophale) SiO2 
 PCOD9220589
Probable space group: C 2/M
;
_chemical_formula_sum "Si O2"
_cell_formula_units_Z 56
_cell_length_a 14.682271
_cell_length_b 8.329273
_cell_length_c 25.452223
_cell_angle_alpha 90.000000
_cell_angle_beta 72.098096
_cell_angle_gamma 90.000000
_cell_volume 2961.919630
_symmetry_space_group_name_H-M "C 2/M"
_symmetry_group_IT_number 12
_symmetry_cell_setting 'monoclinic'
loop_
_space_group_symop_operation_xyz
x,y,z
-x,y,-z
-x,-y,-z
x,-y,z
1/2+x,1/2+y,z
1/2-x,1/2+y,-z
1/2-x,1/2-y,-z
1/2+x,1/2-y,z
loop_
_atom_site_type_symbol
_atom_site_label
_atom_site_fract_x
_atom_site_fract_y
_atom_site_fract_z
Si Si1 0.961803 0.805950 0.563036
Si Si2 0.438663 0.694079 0.347537
Si Si3 0.664697 0.807303 0.137030
Si Si4 0.853768 0.686976 0.045497
Si Si5 0.963667 0.813117 0.929532
Si Si6 0.229021 0.694069 0.350296
Si Si7 0.129941 0.306354 0.261316
O O1 0.855277 0.748366 0.595844
O O2 0.000000 0.749399 0.500000
O O3 0.029501 0.753919 0.599546
O O4 0.961225 0.000000 0.562642
O O5 0.437983 0.500000 0.347155
O O6 0.333735 0.750906 0.349129
O O7 0.522761 0.751705 0.294219
O O8 0.760714 0.751129 0.091107
O O9 0.576503 0.737849 0.119417
O O10 0.661446 0.752223 0.198056
O O11 0.660320 0.000000 0.136446
O O12 0.842655 0.500000 0.034701
O O13 0.945222 0.712982 0.067144
O O14 0.880967 0.780297 0.987424
O O15 0.989379 0.000000 0.926092
O O16 0.230539 0.500000 0.349607
O O17 0.197251 0.749189 0.297566
O O18 0.132032 0.500000 0.261108
#
# Coordination Sequence:
#
# PCOD9220589 Si02
#       7
#     8   8   8   8   8   8   8
#     4   9  18  32  49  74 107 138 170 211 257 306
#     4   9  18  33  53  74 101 137 174 213 258 309
#     4  11  22  37  55  79 109 141 177 220 270 323
#     4  11  22  38  58  82 110 141 176 218 268 323
#     4  11  22  38  58  81 108 141 178 219 267 320
#     4   9  18  34  53  74 100 134 173 212 257 305
#     4   9  20  36  53  74 102 133 170 216 260 306
#
# _framework density 18.906658
#
# number of rings (size 3 to 8) (size 9 to 14) (size 15 to 20)
#    0.000    2.143    0.000    4.286    0.000    3.714 
#    0.000    1.429    0.000    0.000    0.000    0.000 
#    0.000    0.000    0.000    0.000    0.000    0.000 
#
# Total GULP energy -156345.038632 kJ/mol
# GULP energy per Si atom -5583.751380 kJ/mol
# Density = 1.886363 g / cm^3
# Si number density = 18.906658 Si / 1000 Ang^3
#
#
#
# Elastic Constant Matrix: (Units=GPa)
#
#
# Indices 1 2 3 4 5 6 
#
# 1 116.6537 -2.5778 38.3479 0.0000 1.5452 0.0000
# 2 -2.5778 23.0706 -0.7795 0.0000 3.6465 0.0000
# 3 38.3479 -0.7795 63.3085 0.0000 9.3728 0.0000
# 4 0.0000 0.0000 0.0000 20.7877 0.0000 -9.4527
# 5 1.5452 3.6465 9.3728 0.0000 9.0539 0.0000
# 6 0.0000 0.0000 0.0000 -9.4527 0.0000 21.5880
#
#
#
# Elastic Compliance Matrix: (Units=1/GPa)
#
#
# Indices 1 2 3 4 5 6 
#
# 1 0.010965 0.000040 -0.007514 0.000000 0.005891 0.000000
# 2 0.000040 0.047137 0.003977 0.000000 -0.023109 0.000000
# 3 -0.007514 0.003977 0.024143 0.000000 -0.025313 0.000000
# 4 0.000000 0.000000 0.000000 0.060065 0.000000 0.026300
# 5 0.005891 -0.023109 -0.025313 0.000000 0.144956 0.000000
# 6 0.000000 0.000000 0.000000 0.026300 0.000000 0.057838
#
#
# Mechanical properties :
#
#
# Convention : Reuss Voigt Hill
#
# Bulk Modulus (GPa) = 13.28847 30.33490 21.81168
# Shear Modulus (GPa) = 13.25623 21.48874 17.37249
#
# Velocity S-wave (km/s) = 2.65078 3.37496 3.03455
# Velocity P-wave (km/s) = 4.05124 5.59165 4.88258
#
# Compressibility (1/GPa) = 0.07525320
#
# Stress axis : x y z
#
# Youngs Moduli (GPa) = 91.19761 21.21495 41.41908
#
# Poissons Ratio (x) = -0.00085 0.31120
# Poissons Ratio (y) = -0.00367 -0.16474
# Poissons Ratio (z) = 0.68522 -0.08438
#
# Static dielectric constant tensor:
#      x y z
#    x 1.651580 0.000000 0.025480 
#    y 0.000000 1.644310 0.000000 
#    z 0.025480 0.000000 1.641290 
# 
# From -- ./inp_files/337859.got.cif
#   From: 2010.05.17/outbox.cif.g08.bks.cpg/sg12_169_cif.got.tgz:337859.got - 2010.06.03 13:09:07.
