data_PCOD9220570
_publ_section_title
;
Structure prediction by ZEFSAII (Michael W. Deem and Ramdas Pophale) SiO2 
 PCOD9220570
Probable space group: C 2/M
;
_chemical_formula_sum "Si O2"
_cell_formula_units_Z 40
_cell_length_a 8.372431
_cell_length_b 19.837511
_cell_length_c 15.568520
_cell_angle_alpha 90.000000
_cell_angle_beta 137.508068
_cell_angle_gamma 90.000000
_cell_volume 1746.637117
_symmetry_space_group_name_H-M "C 2/M"
_symmetry_group_IT_number 12
_symmetry_cell_setting 'monoclinic'
loop_
_space_group_symop_operation_xyz
x,y,z
-x,y,-z
-x,-y,-z
x,-y,z
1/2+x,1/2+y,z
1/2-x,1/2+y,-z
1/2-x,1/2-y,-z
1/2+x,1/2-y,z
loop_
_atom_site_type_symbol
_atom_site_label
_atom_site_fract_x
_atom_site_fract_y
_atom_site_fract_z
Si Si1 0.725672 0.570269 0.023931
Si Si2 0.082227 0.920492 0.265430
Si Si3 0.926571 0.296943 0.342934
Si Si4 0.041705 0.151665 0.425637
Si Si5 0.224659 0.704402 0.906996
O O1 0.856786 0.500000 0.082940
O O2 0.620827 0.579074 0.887454
O O3 0.500000 0.565793 0.000000
O O4 0.884605 0.633130 0.110308
O O5 0.257016 0.859851 0.301291
O O6 0.001923 0.894565 0.326874
O O7 0.168964 0.000000 0.302758
O O8 0.888286 0.277367 0.227778
O O9 0.896407 0.222501 0.371366
O O10 0.185102 0.324137 0.468923
O O11 0.000000 0.116059 0.500000
O O12 0.500000 0.692366 0.000000
O O13 0.250000 0.750000 0.000000
#
# Coordination Sequence:
#
# PCOD9220570 Si02
#       5
#     8   8   8   8   8
#     4   9  17  35  61  89 119 152 192 250 310 356
#     4  11  22  41  68  95 122 161 217 263 305 374
#     4  11  22  40  63  91 124 167 212 257 307 374
#     4  11  25  40  60  87 130 170 205 258 320 369
#     4  11  22  36  61  95 124 157 202 255 308 373
#
# _framework density 22.901153000000001
#
# number of rings (size 3 to 8) (size 9 to 14) (size 15 to 20)
#    0.000    1.400    4.000    4.200    2.800    2.000 
#    0.000    0.000    0.000    0.600    0.000    0.000 
#    0.000    0.000    0.000    0.000    0.000    0.000 
#
# Total GULP energy -111473.612309 kJ/mol
# GULP energy per Si atom -5573.680615 kJ/mol
# Density = 2.284903 g / cm^3
# Si number density = 22.901153 Si / 1000 Ang^3
#
#
#
# Elastic Constant Matrix: (Units=GPa)
#
#
# Indices 1 2 3 4 5 6 
#
# 1 51.7089 27.3648 21.7728 0.0000 -27.2000 0.0000
# 2 27.3648 128.7741 23.8870 0.0000 -26.5885 0.0000
# 3 21.7728 23.8870 102.4485 0.0001 -50.6730 0.0000
# 4 0.0000 0.0000 0.0001 55.2731 0.0000 -15.2082
# 5 -27.2000 -26.5885 -50.6730 0.0000 53.4940 0.0000
# 6 0.0000 0.0000 0.0000 -15.2082 0.0000 12.8808
#
#
#
# Elastic Compliance Matrix: (Units=1/GPa)
#
#
# Indices 1 2 3 4 5 6 
#
# 1 0.027817 -0.003311 0.001961 0.000000 0.014356 0.000000
# 2 -0.003311 0.009050 -0.000027 0.000000 0.002789 0.000000
# 3 0.001961 -0.000027 0.018509 0.000000 0.018517 0.000000
# 4 0.000000 0.000000 0.000000 0.026798 0.000000 0.031640
# 5 0.014356 0.002789 0.018517 0.000000 0.044920 0.000000
# 6 0.000000 0.000000 0.000000 0.031640 0.000000 0.114991
#
#
# Mechanical properties :
#
#
# Convention : Reuss Voigt Hill
#
# Bulk Modulus (GPa) = 19.00309 47.66452 33.33381
# Shear Modulus (GPa) = 19.05632 38.32336 28.68984
#
# Velocity S-wave (km/s) = 2.88776 4.09519 3.54329
# Velocity P-wave (km/s) = 4.40849 6.57412 5.59705
#
# Compressibility (1/GPa) = 0.05262301
#
# Stress axis : x y z
#
# Youngs Moduli (GPa) = 35.94917 110.49740 54.02660
#
# Poissons Ratio (x) = 0.36583 -0.10594
# Poissons Ratio (y) = 0.11902 0.00145
# Poissons Ratio (z) = -0.07049 0.00296
#
# Static dielectric constant tensor:
#      x y z
#    x 1.898990 0.000000 0.027910 
#    y 0.000000 2.174610 0.000000 
#    z 0.027910 0.000000 1.800150 
# 
# From -- ./inp_files/197328.got.cif
#   From: 2010.05.17/outbox.cif.g08.bks.cpg/sg12_99_cif.got.tgz:197328.got - 2010.06.03 13:09:07.
