data_PCOD9220201
_publ_section_title
;
Structure prediction by ZEFSAII (Michael W. Deem and Ramdas Pophale) SiO2 
 PCOD9220201
Probable space group: C 2/M
;
_chemical_formula_sum "Si O2"
_cell_formula_units_Z 40
_cell_length_a 13.852991
_cell_length_b 13.426908
_cell_length_c 10.678377
_cell_angle_alpha 90.000000
_cell_angle_beta 60.043510
_cell_angle_gamma 90.000000
_cell_volume 1720.860594
_symmetry_space_group_name_H-M "C 2/M"
_symmetry_group_IT_number 12
_symmetry_cell_setting 'monoclinic'
loop_
_space_group_symop_operation_xyz
x,y,z
-x,y,-z
-x,-y,-z
x,-y,z
1/2+x,1/2+y,z
1/2-x,1/2+y,-z
1/2-x,1/2-y,-z
1/2+x,1/2-y,z
loop_
_atom_site_type_symbol
_atom_site_label
_atom_site_fract_x
_atom_site_fract_y
_atom_site_fract_z
Si Si1 0.868965 0.383331 0.106373
Si Si2 0.577471 0.890137 0.573346
Si Si3 0.625088 0.193391 0.157982
Si Si4 0.234804 0.210759 0.682405
Si Si5 0.501549 0.614191 0.847556
O O1 0.856760 0.500000 0.133561
O O2 0.811401 0.319911 0.252676
O O3 0.821097 0.349219 0.002827
O O4 0.000000 0.359077 0.000000
O O5 0.500000 0.891575 0.500000
O O6 0.487591 0.868194 0.738166
O O7 0.670695 0.808169 0.482453
O O8 0.627688 0.000000 0.556097
O O9 0.705325 0.180994 0.224625
O O10 0.578977 0.304691 0.163272
O O11 0.127870 0.141930 0.728082
O O12 0.474041 0.500000 0.834498
O O13 0.500000 0.625188 0.000000
#
# Coordination Sequence:
#
# PCOD9220201 Si02
#       5
#     8   8   8   8   8
#     4  11  22  38  59  87 120 154 199 252 301 354
#     4   9  20  37  61  91 121 157 202 249 297 359
#     4  11  21  40  63  89 121 158 202 251 300 360
#     4  11  21  40  61  88 120 160 201 246 302 362
#     4  11  23  39  59  90 127 159 199 252 305 359
#
# _framework density 23.244183
#
# number of rings (size 3 to 8) (size 9 to 14) (size 15 to 20)
#    0.000    1.400    4.000    1.800    0.000    4.000 
#    0.000    1.000    0.000    3.600    0.000    0.000 
#    0.000    0.000    0.000    0.000    0.000    0.000 
#
# Total GULP energy -111915.691692 kJ/mol
# GULP energy per Si atom -5595.784585 kJ/mol
# Density = 2.319128 g / cm^3
# Si number density = 23.244183 Si / 1000 Ang^3
#
#
#
# Elastic Constant Matrix: (Units=GPa)
#
#
# Indices 1 2 3 4 5 6 
#
# 1 87.9383 8.8411 12.4456 0.0000 -10.9113 0.0000
# 2 8.8411 160.3834 35.2115 0.0000 -17.7212 0.0000
# 3 12.4456 35.2115 136.1548 0.0000 -9.2158 0.0000
# 4 0.0000 0.0000 0.0000 25.5837 0.0000 -3.9305
# 5 -10.9113 -17.7212 -9.2158 0.0000 42.5409 0.0000
# 6 0.0000 0.0000 0.0000 -3.9305 0.0000 17.5734
#
#
#
# Elastic Compliance Matrix: (Units=1/GPa)
#
#
# Indices 1 2 3 4 5 6 
#
# 1 0.011854 -0.000158 -0.000854 0.000000 0.002790 0.000000
# 2 -0.000158 0.006867 -0.001594 0.000000 0.002475 0.000000
# 3 -0.000854 -0.001594 0.007891 0.000000 0.000826 0.000000
# 4 0.000000 0.000000 0.000000 0.040478 0.000000 0.009054
# 5 0.002790 0.002475 0.000826 0.000000 0.025432 0.000000
# 6 0.000000 0.000000 0.000000 0.009054 0.000000 0.058929
#
#
# Mechanical properties :
#
#
# Convention : Reuss Voigt Hill
#
# Bulk Modulus (GPa) = 46.72671 55.27477 51.00074
# Shear Modulus (GPa) = 30.52552 39.00482 34.76517
#
# Velocity S-wave (km/s) = 3.62782 4.10084 3.87156
# Velocity P-wave (km/s) = 6.13956 6.80104 6.47875
#
# Compressibility (1/GPa) = 0.02140104
#
# Stress axis : x y z
#
# Youngs Moduli (GPa) = 84.35619 145.62053 126.72973
#
# Poissons Ratio (x) = 0.02297 0.10822
# Poissons Ratio (y) = 0.01331 0.20201
# Poissons Ratio (z) = 0.07204 0.23212
#
# Static dielectric constant tensor:
#      x y z
#    x 1.944950 0.000000 0.022630 
#    y 0.000000 1.845990 0.000000 
#    z 0.022630 0.000000 1.852580 
# 
# From -- ./inp_files/142511.got.cif
#   From: 2010.05.17/outbox.cif.g08.bks.cpg/sg12_72_cif.got.tgz:142511.got - 2010.06.03 13:09:07.
