data_PCOD9220286
_publ_section_title
;
Structure prediction by ZEFSAII (Michael W. Deem and Ramdas Pophale) SiO2 
 PCOD9220286
Probable space group: C 2/M
;
_chemical_formula_sum "Si O2"
_cell_formula_units_Z 42
_cell_length_a 17.519013
_cell_length_b 20.752346
_cell_length_c 5.629974
_cell_angle_alpha 90.000000
_cell_angle_beta 116.597117
_cell_angle_gamma 90.000000
_cell_volume 1830.233941
_symmetry_space_group_name_H-M "C 2/M"
_symmetry_group_IT_number 12
_symmetry_cell_setting 'monoclinic'
loop_
_space_group_symop_operation_xyz
x,y,z
-x,y,-z
-x,-y,-z
x,-y,z
1/2+x,1/2+y,z
1/2-x,1/2+y,-z
1/2-x,1/2-y,-z
1/2+x,1/2-y,z
loop_
_atom_site_type_symbol
_atom_site_label
_atom_site_fract_x
_atom_site_fract_y
_atom_site_fract_z
Si Si1 0.630739 0.619977 0.650481
Si Si2 0.202377 0.795452 0.119122
Si Si3 0.500000 0.500000 0.500000
Si Si4 0.923954 0.757875 0.711252
Si Si5 0.170036 0.423131 0.122287
Si Si6 0.131040 0.633205 0.564351
O O1 0.574465 0.556547 0.586099
O O2 0.589520 0.670858 0.410371
O O3 0.731468 0.604131 0.745534
O O4 0.630576 0.661821 0.891992
O O5 0.161588 0.749138 0.253229
O O6 0.269864 0.846305 0.304601
O O7 0.250000 0.750000 0.000000
O O8 0.920305 0.700244 0.519210
O O9 0.000000 0.751575 0.000000
O O10 0.176931 0.500000 0.124576
O O11 0.121209 0.403821 0.299250
O O12 0.123239 0.400173 0.812071
#
# Coordination Sequence:
#
# PCOD9220286 Si02
#       6
#     8   8   2   8   8   8
#     4  11  23  40  61  94 140 192 236 282 344 441
#     4  11  21  41  67  96 134 184 247 305 350 407
#     4  12  24  44  58  96 160 206 224 268 384 458
#     4  12  24  41  64 103 139 183 235 300 369 423
#     4  11  23  44  71 100 133 179 242 291 352 428
#     4  11  23  41  72 100 136 180 239 304 353 414
#
# _framework density 22.947886
#
# number of rings (size 3 to 8) (size 9 to 14) (size 15 to 20)
#    0.000    0.762    4.762    4.571    0.000    0.000 
#    0.000    4.286    0.000    3.429    0.000    0.000 
#    0.000    0.000    0.000    0.000    0.000    0.000 
#
# Total GULP energy -117069.496541 kJ/mol
# GULP energy per Si atom -5574.737931 kJ/mol
# Density = 2.289566 g / cm^3
# Si number density = 22.947886 Si / 1000 Ang^3
#
#
#
# Elastic Constant Matrix: (Units=GPa)
#
#
# Indices 1 2 3 4 5 6 
#
# 1 64.9234 27.3864 26.3546 0.0000 -15.6651 0.0000
# 2 27.3864 164.7126 69.8063 0.0000 1.6438 0.0000
# 3 26.3546 69.8063 143.2575 0.0000 -8.7747 0.0000
# 4 0.0000 0.0000 0.0000 26.3216 0.0000 4.0463
# 5 -15.6651 1.6438 -8.7747 0.0000 31.7667 0.0000
# 6 0.0000 0.0000 0.0000 4.0463 0.0000 7.6853
#
#
#
# Elastic Compliance Matrix: (Units=1/GPa)
#
#
# Indices 1 2 3 4 5 6 
#
# 1 0.019430 -0.002580 -0.001752 0.000000 0.009231 0.000000
# 2 -0.002580 0.008060 -0.003618 0.000000 -0.002689 0.000000
# 3 -0.001752 -0.003618 0.009179 0.000000 0.001859 0.000000
# 4 0.000000 0.000000 0.000000 0.041337 0.000000 -0.021764
# 5 0.009231 -0.002689 0.001859 0.000000 0.036684 0.000000
# 6 0.000000 0.000000 0.000000 -0.021764 0.000000 0.141578
#
#
# Mechanical properties :
#
#
# Convention : Reuss Voigt Hill
#
# Bulk Modulus (GPa) = 48.14624 68.88757 58.51691
# Shear Modulus (GPa) = 17.91532 29.77778 23.84655
#
# Velocity S-wave (km/s) = 2.79713 3.60617 3.22710
# Velocity P-wave (km/s) = 5.60875 6.88648 6.28019
#
# Compressibility (1/GPa) = 0.02077005
#
# Stress axis : x y z
#
# Youngs Moduli (GPa) = 51.46796 124.06684 108.94066
#
# Poissons Ratio (x) = 0.32013 0.19083
# Poissons Ratio (y) = 0.13280 0.39410
# Poissons Ratio (z) = 0.09016 0.44882
#
# Static dielectric constant tensor:
#      x y z
#    x 1.931580 0.000000 -0.058000 
#    y 0.000000 1.806290 0.000000 
#    z -0.058000 0.000000 1.948680 
# 
# From -- ./inp_files/20859.got.cif
#   From: 2010.05.17/outbox.cif.g08.bks.cpg/sg12_11_cif.got.tgz:20859.got - 2010.06.03 13:09:07.
