data_PCOD9220049
_publ_section_title
;
Structure prediction by ZEFSAII (Michael W. Deem and Ramdas Pophale) SiO2 
 PCOD9220049
Probable space group: C 2/M
;
_chemical_formula_sum "Si O2"
_cell_formula_units_Z 48
_cell_length_a 19.401608
_cell_length_b 13.995799
_cell_length_c 8.337374
_cell_angle_alpha 90.000000
_cell_angle_beta 89.709285
_cell_angle_gamma 90.000000
_cell_volume 2263.909780
_symmetry_space_group_name_H-M "C 2/M"
_symmetry_group_IT_number 12
_symmetry_cell_setting 'monoclinic'
loop_
_space_group_symop_operation_xyz
x,y,z
-x,y,-z
-x,-y,-z
x,-y,z
1/2+x,1/2+y,z
1/2-x,1/2+y,-z
1/2-x,1/2-y,-z
1/2+x,1/2-y,z
loop_
_atom_site_type_symbol
_atom_site_label
_atom_site_fract_x
_atom_site_fract_y
_atom_site_fract_z
Si Si1 0.262925 0.000000 0.196350
Si Si2 0.398001 0.500000 0.785801
Si Si3 0.336956 0.791438 0.659503
Si Si4 0.042442 0.789325 0.160820
Si Si5 0.218878 0.500000 0.419141
Si Si6 0.910212 0.210600 0.338964
Si Si7 0.620991 0.500000 0.597393
Si Si8 0.213269 0.290712 0.845229
O O1 0.295055 0.903054 0.133215
O O2 0.181538 0.000000 0.155606
O O3 0.274903 0.000000 0.387900
O O4 0.434772 0.401130 0.833762
O O5 0.390612 0.500000 0.593258
O O6 0.389267 0.771556 0.805012
O O7 0.375164 0.749224 0.502085
O O8 0.267601 0.731557 0.699787
O O9 0.317336 0.901972 0.635357
O O10 0.988165 0.761685 0.301409
O O11 0.000000 0.772067 0.000000
O O12 0.298136 0.500000 0.361229
O O13 0.858371 0.243356 0.200245
O O14 0.911305 0.096345 0.338730
O O15 0.250000 0.250000 0.000000
#
# Coordination Sequence:
#
# PCOD9220049 Si02
#       8
#     4   4   8   8   4   8   4   8
#     4  11  22  42  72 105 136 174 228 278 337 404
#     4  11  22  39  70  97 139 177 212 278 346 414
#     4  12  23  45  69  97 130 182 232 276 330 400
#     4  12  26  44  63  99 141 175 220 277 348 407
#     4  11  22  42  72 103 126 175 239 286 321 396
#     4  12  24  41  69  98 133 181 224 276 336 401
#     4  11  21  37  69 104 132 162 233 282 326 406
#     4  12  25  43  69 101 142 180 220 282 343 399
#
# _framework density 21.202259000000002
#
# number of rings (size 3 to 8) (size 9 to 14) (size 15 to 20)
#    0.000    0.333    6.667    3.750    0.000    2.000 
#    0.000    2.917    0.000    0.000    0.000    0.000 
#    0.000    0.000    0.000    0.000    0.000    0.000 
#
# Total GULP energy -134329.689404 kJ/mol
# GULP energy per Si atom -5597.070392 kJ/mol
# Density = 2.115400 g / cm^3
# Si number density = 21.202259 Si / 1000 Ang^3
#
#
#
# Elastic Constant Matrix: (Units=GPa)
#
#
# Indices 1 2 3 4 5 6 
#
# 1 89.3821 2.7268 12.5185 0.0000 13.5869 0.0000
# 2 2.7268 113.9388 17.4906 0.0000 12.9084 0.0000
# 3 12.5185 17.4906 60.6155 0.0000 18.1214 0.0000
# 4 0.0000 0.0000 0.0000 17.8008 0.0000 20.1155
# 5 13.5869 12.9084 18.1214 0.0000 39.1878 0.0000
# 6 0.0000 0.0000 0.0000 20.1155 0.0000 -2.7972
#
#
#
# Elastic Compliance Matrix: (Units=1/GPa)
#
#
# Indices 1 2 3 4 5 6 
#
# 1 0.011928 0.000348 -0.001501 0.000000 -0.003556 0.000000
# 2 0.000348 0.009343 -0.002102 0.000000 -0.002226 0.000000
# 3 -0.001501 -0.002102 0.019787 0.000000 -0.007937 0.000000
# 4 0.000000 0.000000 0.000000 0.006155 0.000000 0.044266
# 5 -0.003556 -0.002226 -0.007937 0.000000 0.031155 0.000000
# 6 0.000000 0.000000 0.000000 0.044266 0.000000 -0.039172
#
#
# Mechanical properties :
#
#
# Convention : Reuss Voigt Hill
#
# Bulk Modulus (GPa) = 28.94537 36.60092 32.77315
# Shear Modulus (GPa) = 87.37838 26.25165 56.81502
#
# Velocity S-wave (km/s) = 6.42661 3.52256 5.18217
# Velocity P-wave (km/s) = 8.29157 5.81763 7.16222
#
# Compressibility (1/GPa) = 0.03454783
#
# Stress axis : x y z
#
# Youngs Moduli (GPa) = 83.83584 107.02925 50.53872
#
# Poissons Ratio (x) = -0.03722 0.07584
# Poissons Ratio (y) = -0.02916 0.10625
# Poissons Ratio (z) = 0.12581 0.22501
#
# Static dielectric constant tensor:
#      x y z
#    x 1.732960 0.000000 -0.023730 
#    y 0.000000 1.716100 0.000000 
#    z -0.023730 0.000000 1.834950 
# 
# From -- ./inp_files/73694.got.cif
#   From: 2010.05.17/outbox.cif.g08.bks.cpg/sg12_37_cif.got.tgz:73694.got - 2010.06.03 13:09:07.
