data_PCOD9220769
_publ_section_title
;
Structure prediction by ZEFSAII (Michael W. Deem and Ramdas Pophale) SiO2 
 PCOD9220769
Probable space group: C 2/M
;
_chemical_formula_sum "Si O2"
_cell_formula_units_Z 56
_cell_length_a 28.764863
_cell_length_b 8.131102
_cell_length_c 20.004398
_cell_angle_alpha 90.000000
_cell_angle_beta 146.347493
_cell_angle_gamma 90.000000
_cell_volume 2592.794912
_symmetry_space_group_name_H-M "C 2/M"
_symmetry_group_IT_number 12
_symmetry_cell_setting 'monoclinic'
loop_
_space_group_symop_operation_xyz
x,y,z
-x,y,-z
-x,-y,-z
x,-y,z
1/2+x,1/2+y,z
1/2-x,1/2+y,-z
1/2-x,1/2-y,-z
1/2+x,1/2-y,z
loop_
_atom_site_type_symbol
_atom_site_label
_atom_site_fract_x
_atom_site_fract_y
_atom_site_fract_z
Si Si1 0.876961 0.304659 0.331369
Si Si2 0.487546 0.310696 0.729798
Si Si3 0.984833 0.694811 0.593964
Si Si4 0.163015 0.803426 0.357947
Si Si5 0.908573 0.308346 0.869665
Si Si6 0.695435 0.693608 0.131504
Si Si7 0.173477 0.693265 0.957302
O O1 0.865548 0.500000 0.303079
O O2 0.925593 0.238568 0.325375
O O3 0.788193 0.232777 0.241591
O O4 0.930538 0.293851 0.462138
O O5 0.505240 0.500000 0.768036
O O6 0.445271 0.294609 0.606639
O O7 0.420851 0.241488 0.702987
O O8 0.575814 0.220562 0.820618
O O9 0.988761 0.500000 0.615075
O O10 0.250000 0.750000 0.500000
O O11 0.143444 0.761320 0.256467
O O12 0.162924 0.000000 0.363276
O O13 0.921630 0.500000 0.869247
O O14 0.857913 0.286268 0.877493
O O15 0.000000 0.235008 0.000000
O O16 0.694740 0.500000 0.148942
O O17 0.672091 0.712294 0.026248
O O18 0.186271 0.500000 0.983104
O O19 0.250000 0.750000 0.000000
#
# Coordination Sequence:
#
# PCOD9220769 Si02
#       7
#     8   8   8   8   8   8   8
#     4   8  17  33  55  86 119 156 199 241 294 367
#     4  11  24  41  62  92 127 164 211 270 331 393
#     4   9  17  34  59  85 119 161 202 242 295 374
#     4  11  26  46  69  98 135 178 230 292 353 416
#     4  11  25  45  68  95 130 175 228 283 342 409
#     4  11  22  38  63  94 127 165 210 262 322 386
#     4  12  25  42  65  96 133 176 219 269 326 393
#
# _framework density 21.598314999999999
#
# number of rings (size 3 to 8) (size 9 to 14) (size 15 to 20)
#    0.000    1.571    0.000    5.571    2.000    6.857 
#    0.000    2.857    0.000    0.000    0.000    0.000 
#    0.000    0.000    0.000    0.000    0.000    0.000 
#
# Total GULP energy -156026.618836 kJ/mol
# GULP energy per Si atom -5572.379244 kJ/mol
# Density = 2.154916 g / cm^3
# Si number density = 21.598315 Si / 1000 Ang^3
#
#
#
# Elastic Constant Matrix: (Units=GPa)
#
#
# Indices 1 2 3 4 5 6 
#
# 1 120.5333 1.9613 47.9578 0.0000 -23.4261 0.0000
# 2 1.9613 39.3701 11.6516 0.0000 8.0512 0.0000
# 3 47.9578 11.6516 97.8920 0.0000 1.2968 0.0000
# 4 0.0000 0.0000 0.0000 25.2876 0.0000 -3.3781
# 5 -23.4261 8.0512 1.2968 0.0000 11.6143 0.0000
# 6 0.0000 0.0000 0.0000 -3.3781 0.0000 24.1606
#
#
#
# Elastic Compliance Matrix: (Units=1/GPa)
#
#
# Indices 1 2 3 4 5 6 
#
# 1 0.023686 -0.009180 -0.011245 0.000000 0.055394 0.000000
# 2 -0.009180 0.034227 0.000985 0.000000 -0.042353 0.000000
# 3 -0.011245 0.000985 0.015940 0.000000 -0.025144 0.000000
# 4 0.000000 0.000000 0.000000 0.040298 0.000000 0.005634
# 5 0.055394 -0.042353 -0.025144 0.000000 0.229998 0.000000
# 6 0.000000 0.000000 0.000000 0.005634 0.000000 0.042177
#
#
# Mechanical properties :
#
#
# Convention : Reuss Voigt Hill
#
# Bulk Modulus (GPa) = 28.59417 42.32630 35.46024
# Shear Modulus (GPa) = 11.44517 25.29416 18.36967
#
# Velocity S-wave (km/s) = 2.30448 3.42587 2.91952
# Velocity P-wave (km/s) = 4.51095 5.94040 5.27432
#
# Compressibility (1/GPa) = 0.03497216
#
# Stress axis : x y z
#
# Youngs Moduli (GPa) = 42.21876 29.21664 62.73416
#
# Poissons Ratio (x) = 0.26821 0.70545
# Poissons Ratio (y) = 0.38757 -0.06177
# Poissons Ratio (z) = 0.47476 -0.02877
#
# Static dielectric constant tensor:
#      x y z
#    x 1.520390 0.000000 1.111260 
#    y 0.000000 1.814120 0.000000 
#    z 1.111260 0.000000 -2.064080 
# 
# From -- ./inp_files/292550.got.cif
#   From: 2010.05.17/outbox.cif.g08.bks.cpg/sg12_147_cif.got.tgz:292550.got - 2010.06.03 13:09:07.
