data_PCOD9220017
_publ_section_title
;
Structure prediction by ZEFSAII (Michael W. Deem and Ramdas Pophale) SiO2 
 PCOD9220017
Probable space group: C 2/M
;
_chemical_formula_sum "Si O2"
_cell_formula_units_Z 48
_cell_length_a 25.720200
_cell_length_b 8.480366
_cell_length_c 20.717146
_cell_angle_alpha 90.000000
_cell_angle_beta 145.019908
_cell_angle_gamma 90.000000
_cell_volume 2590.565504
_symmetry_space_group_name_H-M "C 2/M"
_symmetry_group_IT_number 12
_symmetry_cell_setting 'monoclinic'
loop_
_space_group_symop_operation_xyz
x,y,z
-x,y,-z
-x,-y,-z
x,-y,z
1/2+x,1/2+y,z
1/2-x,1/2+y,-z
1/2-x,1/2-y,-z
1/2+x,1/2-y,z
loop_
_atom_site_type_symbol
_atom_site_label
_atom_site_fract_x
_atom_site_fract_y
_atom_site_fract_z
Si Si1 0.763257 0.189753 0.782307
Si Si2 0.920397 0.185294 0.738687
Si Si3 0.951602 0.689060 0.018590
Si Si4 0.063944 0.308039 0.624138
Si Si5 0.051953 0.687391 0.372609
Si Si6 0.741088 0.314234 0.615691
O O1 0.667363 0.237849 0.716195
O O2 0.767113 0.262123 0.714517
O O3 0.765426 0.000000 0.779179
O O4 0.849356 0.248867 0.909796
O O5 0.955083 0.228025 0.702987
O O6 0.826054 0.274323 0.656694
O O7 0.992030 0.237743 0.865620
O O8 0.903026 0.000000 0.726354
O O9 0.952639 0.500000 0.025492
O O10 0.000000 0.731088 0.000000
O O11 0.061238 0.500000 0.620954
O O12 0.000000 0.254516 0.500000
O O13 0.020655 0.257752 0.647791
O O14 0.041931 0.500000 0.353100
O O15 0.151381 0.722555 0.502684
O O16 0.722682 0.500000 0.595133
#
# Coordination Sequence:
#
# PCOD9220017 Si02
#       6
#     8   8   8   8   8   8
#     4  11  21  37  63  93 121 155 202 247 295 350
#     4  12  25  41  61  88 121 159 203 247 299 359
#     4  11  23  40  62  89 122 156 198 247 299 355
#     4   9  18  36  62  91 120 156 199 244 293 352
#     4  11  22  40  63  88 123 162 199 245 301 355
#     4  12  23  37  58  90 126 159 197 245 301 357
#
# _framework density 18.528773000000001
#
# number of rings (size 3 to 8) (size 9 to 14) (size 15 to 20)
#    0.000    1.000    3.333    5.000    0.000    0.667 
#    0.000    5.000    0.000    0.000    0.000    0.000 
#    0.000    0.000    0.000    0.000    0.000    0.000 
#
# Total GULP energy -134223.935336 kJ/mol
# GULP energy per Si atom -5592.663972 kJ/mol
# Density = 1.848660 g / cm^3
# Si number density = 18.528773 Si / 1000 Ang^3
#
#
#
# Elastic Constant Matrix: (Units=GPa)
#
#
# Indices 1 2 3 4 5 6 
#
# 1 111.8019 -4.2245 12.6421 0.0000 7.8636 0.0000
# 2 -4.2245 30.0853 -10.6528 0.0000 0.4560 0.0000
# 3 12.6421 -10.6528 45.3613 0.0000 13.3518 0.0000
# 4 0.0000 0.0000 0.0000 23.2885 0.0000 -2.3140
# 5 7.8636 0.4560 13.3518 0.0000 32.3999 0.0000
# 6 0.0000 0.0000 0.0000 -2.3140 0.0000 20.4105
#
#
#
# Elastic Compliance Matrix: (Units=1/GPa)
#
#
# Indices 1 2 3 4 5 6 
#
# 1 0.009297 0.000609 -0.002027 0.000000 -0.001430 0.000000
# 2 0.000609 0.036899 0.009892 0.000000 -0.004744 0.000000
# 3 -0.002027 0.009892 0.028257 0.000000 -0.011292 0.000000
# 4 0.000000 0.000000 0.000000 0.043429 0.000000 0.004924
# 5 -0.001430 -0.004744 -0.011292 0.000000 0.035931 0.000000
# 6 0.000000 0.000000 0.000000 0.004924 0.000000 0.049553
#
#
# Mechanical properties :
#
#
# Convention : Reuss Voigt Hill
#
# Bulk Modulus (GPa) = 10.94079 20.30867 15.62473
# Shear Modulus (GPa) = 23.05373 27.85203 25.45288
#
# Velocity S-wave (km/s) = 3.53117 3.88129 3.71036
# Velocity P-wave (km/s) = 4.74796 5.57407 5.17752
#
# Compressibility (1/GPa) = 0.09140109
#
# Stress axis : x y z
#
# Youngs Moduli (GPa) = 107.55921 27.10108 35.38958
#
# Poissons Ratio (x) = -0.01651 0.07174
# Poissons Ratio (y) = -0.06554 -0.35007
# Poissons Ratio (z) = 0.21804 -0.26808
#
# Static dielectric constant tensor:
#      x y z
#    x 1.630410 0.000000 0.004210 
#    y 0.000000 1.625100 0.000000 
#    z 0.004210 0.000000 1.605030 
# 
# From -- ./inp_files/327332.got.cif
#   From: 2010.05.17/outbox.cif.g08.bks.cpg/sg12_164_cif.got.tgz:327332.got - 2010.06.03 13:09:07.
