data_PCOD9220471
_publ_section_title
;
Structure prediction by ZEFSAII (Michael W. Deem and Ramdas Pophale) SiO2 
 PCOD9220471
Probable space group: C 2/M
;
_chemical_formula_sum "Si O2"
_cell_formula_units_Z 64
_cell_length_a 29.274693
_cell_length_b 8.522184
_cell_length_c 21.246919
_cell_angle_alpha 90.000000
_cell_angle_beta 136.533483
_cell_angle_gamma 90.000000
_cell_volume 3646.563826
_symmetry_space_group_name_H-M "C 2/M"
_symmetry_group_IT_number 12
_symmetry_cell_setting 'monoclinic'
loop_
_space_group_symop_operation_xyz
x,y,z
-x,y,-z
-x,-y,-z
x,-y,z
1/2+x,1/2+y,z
1/2-x,1/2+y,-z
1/2-x,1/2-y,-z
1/2+x,1/2-y,z
loop_
_atom_site_type_symbol
_atom_site_label
_atom_site_fract_x
_atom_site_fract_y
_atom_site_fract_z
Si Si1 0.323234 0.190720 0.189172
Si Si2 0.324841 0.189035 0.338592
Si Si3 0.460188 0.687166 0.522566
Si Si4 0.460189 0.187166 0.897811
Si Si5 0.963286 0.312430 0.280080
Si Si6 0.536714 0.312430 0.853507
Si Si7 0.823234 0.190720 0.957296
Si Si8 0.324841 0.310965 0.811090
O O1 0.331730 0.231729 0.271475
O O2 0.387663 0.246901 0.216427
O O3 0.322561 0.000000 0.185726
O O4 0.250000 0.245700 0.095030
O O5 0.383940 0.265015 0.436503
O O6 0.250000 0.233017 0.283323
O O7 0.330233 0.000000 0.347642
O O8 0.500000 0.742768 0.500000
O O9 0.466220 0.500000 0.531862
O O10 0.492616 0.759027 0.617099
O O11 0.492618 0.259028 0.868136
O O12 0.383940 0.234986 0.831377
O O13 0.466220 0.000000 0.900578
O O14 0.500000 0.242768 0.000000
O O15 0.961831 0.500000 0.277323
O O16 0.987633 0.250001 0.237633
O O17 0.538170 0.500000 0.853662
O O18 0.612338 0.253100 0.941101
O O19 0.822561 0.000000 0.959395
O O20 0.831730 0.231730 0.891985
O O21 0.330233 0.500000 0.812823
#
# Coordination Sequence:
#
# PCOD9220471 Si02
#       8
#     8   8   8   8   8   8   8   8
#     4   8  15  29  50  76 106 142 181 218 260 317
#     4   9  17  32  56  83 108 138 180 224 270 324
#     4  11  22  35  54  81 112 143 182 228 272 319
#     4  11  22  35  54  81 112 143 182 228 272 319
#     4  11  22  36  55  77 109 147 186 227 273 324
#     4  11  22  36  55  77 109 147 186 227 273 324
#     4   8  15  29  50  76 106 142 181 218 260 317
#     4   9  17  32  56  83 108 138 180 224 270 324
#
# _framework density 17.550768999999999
#
# number of rings (size 3 to 8) (size 9 to 14) (size 15 to 20)
#    0.000    2.250    2.500    3.000    0.000    2.000 
#    0.000    0.000    0.000    3.000    0.000    0.000 
#    0.000    0.000    0.000    0.000    0.000    0.000 
#
# Total GULP energy -178548.436140 kJ/mol
# GULP energy per Si atom -5579.638629 kJ/mol
# Density = 1.751082 g / cm^3
# Si number density = 17.550769 Si / 1000 Ang^3
#
#
#
# Elastic Constant Matrix: (Units=GPa)
#
#
# Indices 1 2 3 4 5 6 
#
# 1 105.1636 27.7625 69.7311 0.0000 -2.8602 0.0000
# 2 27.7625 32.0221 28.4289 0.0000 -3.3848 0.0000
# 3 69.7311 28.4289 106.5443 0.0000 -4.1457 0.0000
# 4 0.0000 0.0000 0.0000 15.9574 0.0000 -0.0918
# 5 -2.8602 -3.3848 -4.1457 0.0000 24.5431 0.0000
# 6 0.0000 0.0000 0.0000 -0.0918 0.0000 15.9392
#
#
#
# Elastic Compliance Matrix: (Units=1/GPa)
#
#
# Indices 1 2 3 4 5 6 
#
# 1 0.017833 -0.006731 -0.009896 0.000000 -0.000522 0.000000
# 2 -0.006731 0.043823 -0.007130 0.000000 0.004055 0.000000
# 3 -0.009896 -0.007130 0.017799 0.000000 0.000870 0.000000
# 4 0.000000 0.000000 0.000000 0.062669 0.000000 0.000361
# 5 -0.000522 0.004055 0.000870 0.000000 0.041390 0.000000
# 6 0.000000 0.000000 0.000000 0.000361 0.000000 0.062741
#
#
# Mechanical properties :
#
#
# Convention : Reuss Voigt Hill
#
# Bulk Modulus (GPa) = 31.30761 55.06388 43.18574
# Shear Modulus (GPa) = 16.42494 19.14177 17.78335
#
# Velocity S-wave (km/s) = 3.06249 3.30608 3.18662
# Velocity P-wave (km/s) = 5.51200 6.78349 6.18053
#
# Compressibility (1/GPa) = 0.03194112
#
# Stress axis : x y z
#
# Youngs Moduli (GPa) = 56.07437 22.81931 56.18349
#
# Poissons Ratio (x) = 0.15359 0.55599
# Poissons Ratio (y) = 0.37743 0.40059
# Poissons Ratio (z) = 0.55491 0.16270
#
# Static dielectric constant tensor:
#      x y z
#    x 1.593990 0.000000 0.017810 
#    y 0.000000 1.586320 0.000000 
#    z 0.017810 0.000000 1.590490 
# 
# From -- ./inp_files/295829.got.cif
#   From: 2010.05.17/outbox.cif.g08.bks.cpg/sg12_148_cif.got.tgz:295829.got - 2010.06.03 13:09:07.
