data_PCOD9220013
_publ_section_title
;
Structure prediction by ZEFSAII (Michael W. Deem and Ramdas Pophale) SiO2 
 PCOD9220013
Probable space group: C 2/M
;
_chemical_formula_sum "Si O2"
_cell_formula_units_Z 56
_cell_length_a 9.319770
_cell_length_b 17.512831
_cell_length_c 26.752084
_cell_angle_alpha 90.000000
_cell_angle_beta 138.168447
_cell_angle_gamma 90.000000
_cell_volume 2912.110351
_symmetry_space_group_name_H-M "C 2/M"
_symmetry_group_IT_number 12
_symmetry_cell_setting 'monoclinic'
loop_
_space_group_symop_operation_xyz
x,y,z
-x,y,-z
-x,-y,-z
x,-y,z
1/2+x,1/2+y,z
1/2-x,1/2+y,-z
1/2-x,1/2-y,-z
1/2+x,1/2-y,z
loop_
_atom_site_type_symbol
_atom_site_label
_atom_site_fract_x
_atom_site_fract_y
_atom_site_fract_z
Si Si1 0.134412 0.797802 0.781552
Si Si2 0.871295 0.588860 0.772644
Si Si3 0.049450 0.306521 0.955110
Si Si4 0.166756 0.316651 0.698459
Si Si5 0.784002 0.411199 0.632273
Si Si6 0.001542 0.760619 0.446077
Si Si7 0.259116 0.409183 0.934530
O O1 0.203182 0.867670 0.763591
O O2 0.336841 0.780881 0.869918
O O3 0.106553 0.731679 0.732598
O O4 0.925640 0.819371 0.760300
O O5 0.863656 0.500000 0.783374
O O6 0.825766 0.595693 0.702566
O O7 0.109799 0.618124 0.849811
O O8 0.128604 0.384387 0.949434
O O9 0.250000 0.250000 0.000000
O O10 0.000000 0.315959 0.000000
O O11 0.008130 0.389238 0.662697
O O12 0.109316 0.276371 0.630980
O O13 0.723720 0.500000 0.606108
O O14 0.607819 0.344692 0.575922
O O15 0.250000 0.750000 0.500000
O O16 0.000000 0.721410 0.500000
O O17 0.277633 0.500000 0.935548
O O18 0.500000 0.376877 0.000000
#
# Coordination Sequence:
#
# PCOD9220013 Si02
#       7
#     8   8   8   8   8   8   8
#     4  11  21  37  63  84 120 167 212 257 309 380
#     4   9  19  37  59  86 120 160 204 257 315 368
#     4  11  23  36  53  86 122 159 205 268 313 355
#     4  12  22  40  63  93 119 163 215 247 307 376
#     4  11  24  42  66  97 131 163 207 262 313 367
#     4  12  23  42  68  94 123 161 203 251 304 379
#     4   9  19  36  58  81 113 160 207 251 310 376
#
# _framework density 19.230041
#
# number of rings (size 3 to 8) (size 9 to 14) (size 15 to 20)
#    0.000    1.286    4.286    1.286    0.000    5.714 
#    0.000    0.000    0.000    0.857    0.000    0.000 
#    0.000    0.000    0.000    0.000    0.000    0.000 
#
# Total GULP energy -156009.509313 kJ/mol
# GULP energy per Si atom -5571.768190 kJ/mol
# Density = 1.918627 g / cm^3
# Si number density = 19.230041 Si / 1000 Ang^3
#
#
#
# Elastic Constant Matrix: (Units=GPa)
#
#
# Indices 1 2 3 4 5 6 
#
# 1 97.7973 11.6348 24.1835 0.0000 12.0171 0.0000
# 2 11.6348 42.0621 10.6776 0.0000 7.8900 0.0000
# 3 24.1835 10.6776 92.9972 0.0000 4.4991 0.0001
# 4 0.0000 0.0000 0.0000 -17.8132 0.0000 32.1146
# 5 12.0171 7.8900 4.4991 0.0000 48.6374 0.0000
# 6 0.0000 0.0000 0.0001 32.1146 0.0000 13.8628
#
#
#
# Elastic Compliance Matrix: (Units=1/GPa)
#
#
# Indices 1 2 3 4 5 6 
#
# 1 0.011393 -0.002067 -0.002617 0.000000 -0.002238 0.000000
# 2 -0.002067 0.025556 -0.002231 0.000000 -0.003429 0.000000
# 3 -0.002617 -0.002231 0.011693 0.000000 -0.000073 0.000000
# 4 0.000000 0.000000 0.000000 -0.010845 0.000000 0.025123
# 5 -0.002238 -0.003429 -0.000073 0.000000 0.021676 0.000000
# 6 0.000000 0.000000 0.000000 0.025123 0.000000 0.013935
#
#
# Mechanical properties :
#
#
# Convention : Reuss Voigt Hill
#
# Bulk Modulus (GPa) = 28.72602 36.20537 32.46569
# Shear Modulus (GPa) = 50.58519 21.36143 35.97331
#
# Velocity S-wave (km/s) = 5.13443 3.33654 4.32983
# Velocity P-wave (km/s) = 7.07958 5.80618 6.47426
#
# Compressibility (1/GPa) = 0.03481165
#
# Stress axis : x y z
#
# Youngs Moduli (GPa) = 87.77083 39.13032 85.51940
#
# Poissons Ratio (x) = 0.08090 0.22382
# Poissons Ratio (y) = 0.18146 0.19077
# Poissons Ratio (z) = 0.22971 0.08729
#
# Static dielectric constant tensor:
#      x y z
#    x 1.645110 0.000000 0.063820 
#    y 0.000000 1.692980 0.000000 
#    z 0.063820 0.000000 1.803120 
# 
# From -- ./inp_files/356741.got.cif
#   From: 2010.05.17/outbox.cif.g08.bks.cpg/sg12_179_cif.got.tgz:356741.got - 2010.06.03 13:09:07.
