data_PCOD9220907
_publ_section_title
;
Structure prediction by ZEFSAII (Michael W. Deem and Ramdas Pophale) SiO2 
 PCOD9220907
Probable space group: C 2/M
;
_chemical_formula_sum "Si O2"
_cell_formula_units_Z 36
_cell_length_a 11.499631
_cell_length_b 17.300110
_cell_length_c 10.598419
_cell_angle_alpha 90.000000
_cell_angle_beta 51.049235
_cell_angle_gamma 90.000000
_cell_volume 1639.752836
_symmetry_space_group_name_H-M "C 2/M"
_symmetry_group_IT_number 12
_symmetry_cell_setting 'monoclinic'
loop_
_space_group_symop_operation_xyz
x,y,z
-x,y,-z
-x,-y,-z
x,-y,z
1/2+x,1/2+y,z
1/2-x,1/2+y,-z
1/2-x,1/2-y,-z
1/2+x,1/2-y,z
loop_
_atom_site_type_symbol
_atom_site_label
_atom_site_fract_x
_atom_site_fract_y
_atom_site_fract_z
Si Si1 0.195967 0.916447 0.812505
Si Si2 0.879200 0.297716 0.339761
Si Si3 0.000000 0.625292 0.500000
Si Si4 0.076346 0.840147 0.122062
Si Si5 0.834279 0.907377 0.675020
O O1 0.344761 0.916523 0.629743
O O2 0.057407 0.900896 0.815012
O O3 0.183999 0.000000 0.883910
O O4 0.184001 0.851286 0.928618
O O5 0.750000 0.250000 0.500000
O O6 0.793485 0.363734 0.319029
O O7 0.977354 0.328701 0.387336
O O8 0.988041 0.240675 0.188543
O O9 0.155132 0.864809 0.197088
O O10 0.000000 0.897337 0.500000
O O11 0.806834 0.000000 0.703985
#
# Coordination Sequence:
#
# PCOD9220907 Si02
#       5
#     8   8   4   8   8
#     4  11  24  44  70 101 135 178 230 284 344 410
#     4  12  23  42  66 100 139 178 228 283 342 409
#     4  12  25  44  68  96 139 178 224 282 353 402
#     4  11  23  43  70  96 135 181 227 281 333 412
#     4  11  22  39  67 100 139 184 230 280 343 412
#
# _framework density 21.954528
#
# number of rings (size 3 to 8) (size 9 to 14) (size 15 to 20)
#    0.000    0.667    4.444    4.333    0.000    4.444 
#    4.000    0.000    0.000    2.667    0.000    0.000 
#    0.000    0.000    0.000    0.000    0.000    0.000 
#
# Total GULP energy -100562.101542 kJ/mol
# GULP energy per Si atom -5586.783419 kJ/mol
# Density = 2.190456 g / cm^3
# Si number density = 21.954528 Si / 1000 Ang^3
#
#
#
# Elastic Constant Matrix: (Units=GPa)
#
#
# Indices 1 2 3 4 5 6 
#
# 1 107.6060 37.7110 27.6427 0.0000 16.4006 0.0000
# 2 37.7110 115.3202 40.3534 0.0000 -0.4403 0.0000
# 3 27.6427 40.3534 104.5277 0.0000 -14.3830 0.0000
# 4 0.0000 0.0000 0.0000 12.7378 0.0000 41.8464
# 5 16.4006 -0.4403 -14.3830 0.0000 38.0341 0.0000
# 6 0.0000 0.0000 0.0000 41.8464 0.0000 -42.4933
#
#
#
# Elastic Compliance Matrix: (Units=1/GPa)
#
#
# Indices 1 2 3 4 5 6 
#
# 1 0.012038 -0.002939 -0.002920 0.000000 -0.006329 0.000000
# 2 -0.002939 0.010817 -0.003383 0.000000 0.000113 0.000000
# 3 -0.002920 -0.003383 0.012461 0.000000 0.005932 0.000000
# 4 0.000000 0.000000 0.000000 0.018537 0.000000 0.018254
# 5 -0.006329 0.000113 0.005932 0.000000 0.031266 0.000000
# 6 0.000000 0.000000 0.000000 0.018254 0.000000 -0.005557
#
#
# Mechanical properties :
#
#
# Convention : Reuss Voigt Hill
#
# Bulk Modulus (GPa) = 59.40926 59.87425 59.64175
# Shear Modulus (GPa) = 48.23631 16.43882 32.33757
#
# Velocity S-wave (km/s) = 4.69241 2.73933 3.84205
# Velocity P-wave (km/s) = 7.51513 6.11035 6.84885
#
# Compressibility (1/GPa) = 0.01683239
#
# Stress axis : x y z
#
# Youngs Moduli (GPa) = 83.07172 92.44829 80.24850
#
# Poissons Ratio (x) = 0.27170 0.23430
# Poissons Ratio (y) = 0.24415 0.27149
# Poissons Ratio (z) = 0.24254 0.31276
#
# Static dielectric constant tensor:
#      x y z
#    x 1.199420 0.000000 0.232760 
#    y 0.000000 1.767760 0.000000 
#    z 0.232760 0.000000 1.702960 
# 
# From -- ./inp_files/130803.got.cif
#   From: 2010.05.17/outbox.cif.g08.bks.cpg/sg12_66_cif.got.tgz:130803.got - 2010.06.03 13:09:07.
