data_PCOD9220435
_publ_section_title
;
Structure prediction by ZEFSAII (Michael W. Deem and Ramdas Pophale) SiO2 
 PCOD9220435
Probable space group: C 2/M
;
_chemical_formula_sum "Si O2"
_cell_formula_units_Z 64
_cell_length_a 9.716883
_cell_length_b 15.295499
_cell_length_c 24.385870
_cell_angle_alpha 90.000000
_cell_angle_beta 53.406365
_cell_angle_gamma 90.000000
_cell_volume 2909.923162
_symmetry_space_group_name_H-M "C 2/M"
_symmetry_group_IT_number 12
_symmetry_cell_setting 'monoclinic'
loop_
_space_group_symop_operation_xyz
x,y,z
-x,y,-z
-x,-y,-z
x,-y,z
1/2+x,1/2+y,z
1/2-x,1/2+y,-z
1/2-x,1/2-y,-z
1/2+x,1/2-y,z
loop_
_atom_site_type_symbol
_atom_site_label
_atom_site_fract_x
_atom_site_fract_y
_atom_site_fract_z
Si Si1 0.222612 0.394880 0.079622
Si Si2 0.288090 0.845459 0.338659
Si Si3 0.539300 0.397168 0.074121
Si Si4 0.355909 0.828673 0.200318
Si Si5 0.412176 0.356242 0.434728
Si Si6 0.471924 0.650581 0.801223
Si Si7 0.709854 0.632011 0.653358
Si Si8 0.584402 0.143699 0.580057
O O1 0.219122 0.500000 0.080626
O O2 0.351474 0.364178 0.098191
O O3 0.026981 0.366834 0.132371
O O4 0.315388 0.362492 0.001890
O O5 0.315750 0.872504 0.269256
O O6 0.289437 0.738931 0.341152
O O7 0.420800 0.873274 0.353561
O O8 0.105156 0.877324 0.404657
O O9 0.531774 0.500000 0.064475
O O10 0.581933 0.388563 0.127768
O O11 0.419307 0.733350 0.203391
O O12 0.191172 0.829737 0.199492
O O13 0.384938 0.389472 0.379884
O O14 0.410893 0.249350 0.431016
O O15 0.256852 0.386662 0.509431
O O16 0.606019 0.599815 0.730652
O O17 0.907214 0.607561 0.599722
#
# Coordination Sequence:
#
# PCOD9220435 Si02
#       8
#     8   8   8   8   8   8   8   8
#     4   9  20  40  63  84 107 136 172 217 266 318
#     4   9  17  26  39  63  96 135 174 215 259 309
#     4   9  20  40  63  84 107 136 172 217 266 318
#     4  11  22  34  53  79 112 149 180 219 266 316
#     4   9  14  26  36  58  92 131 176 214 257 309
#     4  11  22  34  53  79 112 149 180 219 266 316
#     4   9  17  26  39  63  96 135 174 215 259 309
#     4   9  16  22  40  58  88 135 176 214 261 307
#
# _framework density 21.993708000000002
#
# number of rings (size 3 to 8) (size 9 to 14) (size 15 to 20)
#    0.000    2.500    1.250    2.250    7.000    4.500 
#    0.000    1.250    0.000    0.000    0.000    0.000 
#    0.000    6.000    0.000    0.000    0.000    0.000 
#
# Total GULP energy -178345.541603 kJ/mol
# GULP energy per Si atom -5573.298175 kJ/mol
# Density = 2.194365 g / cm^3
# Si number density = 21.993708 Si / 1000 Ang^3
#
#
#
# Elastic Constant Matrix: (Units=GPa)
#
#
# Indices 1 2 3 4 5 6 
#
# 1 92.4108 4.6112 36.3523 0.0000 0.5597 0.0000
# 2 4.6112 30.5099 9.2533 0.0000 -2.1397 0.0000
# 3 36.3523 9.2533 117.7532 0.0001 1.5028 0.0000
# 4 0.0000 0.0000 0.0001 42.6151 0.0000 -1.0665
# 5 0.5597 -2.1397 1.5028 0.0000 38.9194 0.0000
# 6 0.0000 0.0000 0.0000 -1.0665 0.0000 5.6954
#
#
#
# Elastic Compliance Matrix: (Units=1/GPa)
#
#
# Indices 1 2 3 4 5 6 
#
# 1 0.012333 -0.000732 -0.003749 0.000000 -0.000073 0.000000
# 2 -0.000732 0.033768 -0.002453 0.000000 0.001962 0.000000
# 3 -0.003749 -0.002453 0.009848 0.000000 -0.000461 0.000000
# 4 0.000000 0.000000 0.000000 0.023576 0.000000 0.004415
# 5 -0.000073 0.001962 -0.000461 0.000000 0.025821 0.000000
# 6 0.000000 0.000000 0.000000 0.004415 0.000000 0.176406
#
#
# Mechanical properties :
#
#
# Convention : Reuss Voigt Hill
#
# Bulk Modulus (GPa) = 23.76295 37.90085 30.83190
# Shear Modulus (GPa) = 16.14742 30.14314 23.14528
#
# Velocity S-wave (km/s) = 2.71252 3.70609 3.24753
# Velocity P-wave (km/s) = 4.54293 5.96519 5.30197
#
# Compressibility (1/GPa) = 0.04208232
#
# Stress axis : x y z
#
# Youngs Moduli (GPa) = 81.08350 29.61356 101.54023
#
# Poissons Ratio (x) = 0.02168 0.38067
# Poissons Ratio (y) = 0.05936 0.24904
# Poissons Ratio (z) = 0.30398 0.07263
#
# Static dielectric constant tensor:
#      x y z
#    x 1.768170 0.000000 0.014650 
#    y 0.000000 1.988510 0.000000 
#    z 0.014650 0.000000 1.835490 
# 
# From -- ./inp_files/333721.got.cif
#   From: 2010.05.17/outbox.cif.g08.bks.cpg/sg12_167_cif.got.tgz:333721.got - 2010.06.03 13:09:07.
