data_PCOD9220403
_publ_section_title
;
Structure prediction by ZEFSAII (Michael W. Deem and Ramdas Pophale) SiO2 
 PCOD9220403
Probable space group: C 2/M
;
_chemical_formula_sum "Si O2"
_cell_formula_units_Z 56
_cell_length_a 5.335958
_cell_length_b 26.956657
_cell_length_c 27.460797
_cell_angle_alpha 90.000000
_cell_angle_beta 89.999951
_cell_angle_gamma 90.000000
_cell_volume 3949.949770
_symmetry_space_group_name_H-M "C 2/M"
_symmetry_group_IT_number 12
_symmetry_cell_setting 'monoclinic'
loop_
_space_group_symop_operation_xyz
x,y,z
-x,y,-z
-x,-y,-z
x,-y,z
1/2+x,1/2+y,z
1/2-x,1/2+y,-z
1/2-x,1/2-y,-z
1/2+x,1/2-y,z
loop_
_atom_site_type_symbol
_atom_site_label
_atom_site_fract_x
_atom_site_fract_y
_atom_site_fract_z
Si Si1 0.999940 0.939697 0.717977
Si Si2 0.500031 0.559681 0.604437
Si Si3 0.499974 0.439539 0.943707
Si Si4 0.499941 0.939481 0.774261
Si Si5 0.999996 0.278289 0.440767
Si Si6 0.999967 0.605851 0.441430
Si Si7 0.999975 0.439556 0.886922
O O1 0.250157 0.923432 0.745994
O O2 0.999990 0.925659 0.661397
O O3 0.749688 0.923431 0.745981
O O4 0.999937 0.000000 0.719021
O O5 0.500025 0.500000 0.601439
O O6 0.750038 0.580464 0.579274
O O7 0.250059 0.580468 0.579263
O O8 0.499970 0.500000 0.943840
O O9 0.249979 0.423846 0.915309
O O10 0.749955 0.423847 0.915304
O O11 0.500000 0.423772 0.000000
O O12 0.499982 0.923909 0.830608
O O13 0.499940 0.000000 0.774177
O O14 0.250006 0.250003 0.424302
O O15 0.999972 0.336033 0.427488
O O16 0.000000 0.276739 0.500000
O O17 0.000000 0.602349 0.500000
O O18 0.999977 0.500000 0.886847
#
# Coordination Sequence:
#
# PCOD9220403 Si02
#       7
#     8   8   8   8   8   8   8
#     4   9  17  28  40  52  68  93 122 154 191 225
#     4  11  22  34  46  62  87 116 142 166 196 240
#     4   9  15  21  27  37  56  79  99 123 166 226
#     4   9  15  24  37  50  62  79 112 155 191 221
#     4   9  17  31  50  69  87 105 128 163 203 237
#     4  11  22  34  49  68  87 110 139 166 196 240
#     4   9  15  21  30  43  56  73 101 138 176 216
#
# _framework density 14.177396
#
# number of rings (size 3 to 8) (size 9 to 14) (size 15 to 20)
#    0.000    2.429    0.000    3.857    0.000   11.429 
#    0.000    0.000    0.000    0.000    0.000    0.000 
#    0.000    0.000    0.000    0.000    0.000    0.000 
#
# Total GULP energy -156063.632244 kJ/mol
# GULP energy per Si atom -5573.701152 kJ/mol
# Density = 1.414513 g / cm^3
# Si number density = 14.177396 Si / 1000 Ang^3
#
#
#
# Elastic Constant Matrix: (Units=GPa)
#
#
# Indices 1 2 3 4 5 6 
#
# 1 180.3296 40.8215 88.9835 0.0000 -2.8657 0.0000
# 2 40.8215 48.8704 27.6817 0.0000 -1.0043 0.0000
# 3 88.9835 27.6817 130.7261 0.0000 -0.9207 0.0000
# 4 0.0000 0.0000 0.0000 -1.1209 0.0000 -1.0929
# 5 -2.8657 -1.0043 -0.9207 0.0000 27.0859 0.0000
# 6 0.0000 0.0000 0.0000 -1.0929 0.0000 13.0823
#
#
#
# Elastic Compliance Matrix: (Units=1/GPa)
#
#
# Indices 1 2 3 4 5 6 
#
# 1 0.009225 -0.004702 -0.005279 0.000000 0.000622 0.000000
# 2 -0.004702 0.025661 -0.002230 0.000000 0.000378 0.000000
# 3 -0.005279 -0.002230 0.011713 0.000000 -0.000243 0.000000
# 4 0.000000 0.000000 0.000000 -0.824920 0.000000 -0.068915
# 5 0.000622 0.000378 -0.000243 0.000000 0.036991 0.000000
# 6 0.000000 0.000000 0.000000 -0.068915 0.000000 0.070682
#
#
# Mechanical properties :
#
#
# Convention : Reuss Voigt Hill
#
# Bulk Modulus (GPa) = 45.09380 74.98881 60.04131
# Shear Modulus (GPa) = -7.82679 21.30541 6.73931
#
# Velocity S-wave (km/s) = -2.35215 3.88077 2.18263
# Velocity P-wave (km/s) = 4.94966 8.54918 6.98526
#
# Compressibility (1/GPa) = 0.02217600
#
# Stress axis : x y z
#
# Youngs Moduli (GPa) = 108.40470 38.96919 85.37166
#
# Poissons Ratio (x) = 0.18325 0.45068
# Poissons Ratio (y) = 0.50976 0.19041
# Poissons Ratio (z) = 0.57227 0.08691
#
# Static dielectric constant tensor:
#      x y z
#    x 1.471590 0.000000 -0.000640 
#    y 0.000000 1.424150 0.000000 
#    z -0.000640 0.000000 1.463180 
# 
# From -- ./inp_files/331497.got.cif
#   From: 2010.05.17/outbox.cif.g08.bks.cpg/sg12_166_cif.got.tgz:331497.got - 2010.06.03 13:09:07.
