data_PCOD9220266
_publ_section_title
;
Structure prediction by ZEFSAII (Michael W. Deem and Ramdas Pophale) SiO2 
 PCOD9220266
Probable space group: C 2/M
;
_chemical_formula_sum "Si O2"
_cell_formula_units_Z 54
_cell_length_a 19.369890
_cell_length_b 14.234404
_cell_length_c 9.671426
_cell_angle_alpha 90.000000
_cell_angle_beta 132.099986
_cell_angle_gamma 90.000000
_cell_volume 1978.549026
_symmetry_space_group_name_H-M "C 2/M"
_symmetry_group_IT_number 12
_symmetry_cell_setting 'monoclinic'
loop_
_space_group_symop_operation_xyz
x,y,z
-x,y,-z
-x,-y,-z
x,-y,z
1/2+x,1/2+y,z
1/2-x,1/2+y,-z
1/2-x,1/2-y,-z
1/2+x,1/2-y,z
loop_
_atom_site_type_symbol
_atom_site_label
_atom_site_fract_x
_atom_site_fract_y
_atom_site_fract_z
Si Si1 0.500000 0.500000 0.000000
Si Si2 0.228557 0.137399 0.735086
Si Si3 0.937151 0.344241 0.782082
Si Si4 0.231523 0.365087 0.752008
Si Si5 0.094950 0.868182 0.328145
Si Si6 0.103393 0.861016 0.821878
Si Si7 0.605773 0.864822 0.837063
Si Si8 0.198154 0.500000 0.445801
O O1 0.571755 0.419111 0.155439
O O2 0.235664 0.251658 0.734900
O O3 0.185255 0.097971 0.533401
O O4 0.143750 0.115795 0.727434
O O5 0.317389 0.107541 0.945524
O O6 0.899906 0.243311 0.683927
O O7 0.859837 0.417611 0.718658
O O8 0.003343 0.389558 0.752607
O O9 0.000000 0.324246 0.000000
O O10 0.222319 0.418574 0.597702
O O11 0.322077 0.392144 0.963730
O O12 0.144746 0.388622 0.738204
O O13 0.000351 0.892245 0.284953
O O14 0.103083 0.748380 0.831855
#
# Coordination Sequence:
#
# PCOD9220266 Si02
#       8
#     2   8   8   8   8   8   8   4
#     4  12  28  42  58  80 114 158 220 272 292 338
#     4   9  16  37  64  90 118 157 200 243 308 370
#     4  11  23  41  58  84 126 167 206 246 296 358
#     4   9  18  34  56  96 127 152 190 244 311 370
#     4  11  21  41  63  86 115 161 210 257 303 355
#     4   8  17  34  63  90 123 154 190 250 313 361
#     4   8  18  35  60  87 126 163 191 243 302 357
#     4  12  23  36  62  95 125 157 200 247 300 382
#
# _framework density 27.292729999999999
#
# number of rings (size 3 to 8) (size 9 to 14) (size 15 to 20)
#    0.000    2.370    2.222    2.444    0.000    2.370 
#    0.000    8.889    0.000    0.000    0.000    0.000 
#    0.000    0.000    0.000    0.000    0.000    0.000 
#
# Total GULP energy -150558.648258 kJ/mol
# GULP energy per Si atom -5576.246232 kJ/mol
# Density = 2.723061 g / cm^3
# Si number density = 27.292730 Si / 1000 Ang^3
#
#
#
# Elastic Constant Matrix: (Units=GPa)
#
#
# Indices 1 2 3 4 5 6 
#
# 1 103.2595 -49.3514 -4.1641 0.0000 12.1905 0.0000
# 2 -49.3514 155.7664 -11.5649 0.0000 19.1108 0.0000
# 3 -4.1641 -11.5649 129.0058 0.0000 -1.5050 0.0000
# 4 0.0000 0.0000 0.0000 73.6972 0.0000 -6.9342
# 5 12.1905 19.1108 -1.5050 0.0000 50.6715 0.0000
# 6 0.0000 0.0000 0.0000 -6.9342 0.0000 -75.9360
#
#
#
# Elastic Compliance Matrix: (Units=1/GPa)
#
#
# Indices 1 2 3 4 5 6 
#
# 1 0.012459 0.004581 0.000758 0.000000 -0.004703 0.000000
# 2 0.004581 0.008458 0.000856 0.000000 -0.004267 0.000000
# 3 0.000758 0.000856 0.007850 0.000000 -0.000272 0.000000
# 4 0.000000 0.000000 0.000000 0.013453 0.000000 -0.001229
# 5 -0.004703 -0.004267 -0.000272 0.000000 0.022467 0.000000
# 6 0.000000 0.000000 0.000000 -0.001229 0.000000 -0.013057
#
#
# Mechanical properties :
#
#
# Convention : Reuss Voigt Hill
#
# Bulk Modulus (GPa) = 24.29706 28.65233 26.47470
# Shear Modulus (GPa) = 94.41034 39.89402 67.15218
#
# Velocity S-wave (km/s) = 5.88786 3.82738 4.96567
# Velocity P-wave (km/s) = 7.42591 5.48203 6.52675
#
# Compressibility (1/GPa) = 0.04115724
#
# Stress axis : x y z
#
# Youngs Moduli (GPa) = 80.26090 118.22813 127.39427
#
# Poissons Ratio (x) = -0.54157 -0.09656
# Poissons Ratio (y) = -0.36765 -0.10909
# Poissons Ratio (z) = -0.06083 -0.10124
#
# Static dielectric constant tensor:
#      x y z
#    x 2.306720 0.000000 -0.042850 
#    y 0.000000 2.085860 0.000000 
#    z -0.042850 0.000000 2.048500 
# 
# From -- ./inp_files/98221.got.cif
#   From: 2010.05.17/outbox.cif.g08.bks.cpg/sg12_50_cif.got.tgz:98221.got - 2010.06.03 13:09:07.
