data_PCOD9220125
_publ_section_title
;
Structure prediction by ZEFSAII (Michael W. Deem and Ramdas Pophale) SiO2 
 PCOD9220125
Probable space group: C 2/M
;
_chemical_formula_sum "Si O2"
_cell_formula_units_Z 40
_cell_length_a 9.357784
_cell_length_b 18.011569
_cell_length_c 11.497166
_cell_angle_alpha 90.000000
_cell_angle_beta 109.444153
_cell_angle_gamma 90.000000
_cell_volume 1827.307291
_symmetry_space_group_name_H-M "C 2/M"
_symmetry_group_IT_number 12
_symmetry_cell_setting 'monoclinic'
loop_
_space_group_symop_operation_xyz
x,y,z
-x,y,-z
-x,-y,-z
x,-y,z
1/2+x,1/2+y,z
1/2-x,1/2+y,-z
1/2-x,1/2-y,-z
1/2+x,1/2-y,z
loop_
_atom_site_type_symbol
_atom_site_label
_atom_site_fract_x
_atom_site_fract_y
_atom_site_fract_z
Si Si1 0.221775 0.673085 0.110883
Si Si2 0.795230 0.655935 0.142822
Si Si3 0.873860 0.843338 0.566869
Si Si4 0.977820 0.917696 0.815435
Si Si5 0.606527 0.176824 0.333223
O O1 0.221585 0.762200 0.117249
O O2 0.391604 0.643229 0.136191
O O3 0.172931 0.650974 0.226950
O O4 0.140980 0.646344 0.970660
O O5 0.664491 0.599237 0.140927
O O6 0.929358 0.658151 0.273871
O O7 0.918014 0.906898 0.668225
O O8 0.711236 0.855540 0.463143
O O9 0.875818 0.765584 0.639415
O O10 0.000000 0.835713 0.500000
O O11 0.038121 0.000000 0.851048
#
# Coordination Sequence:
#
# PCOD9220125 Si02
#       5
#     8   8   8   8   8
#     4  11  21  41  66  96 128 172 221 268 322 396
#     4  11  22  39  67  97 131 165 220 277 326 381
#     4  11  22  39  66  96 133 172 218 268 329 389
#     4  12  26  44  65  98 140 177 216 264 336 403
#     4  11  21  38  67  99 125 163 222 284 320 373
#
# _framework density 21.890131
#
# number of rings (size 3 to 8) (size 9 to 14) (size 15 to 20)
#    0.000    0.800    6.000    1.200    2.800    5.200 
#    0.000    3.000    0.000    2.400    0.000    0.000 
#    0.000    0.000    0.000    0.000    0.000    0.000 
#
# Total GULP energy -111740.332546 kJ/mol
# GULP energy per Si atom -5587.016627 kJ/mol
# Density = 2.184031 g / cm^3
# Si number density = 21.890131 Si / 1000 Ang^3
#
#
#
# Elastic Constant Matrix: (Units=GPa)
#
#
# Indices 1 2 3 4 5 6 
#
# 1 56.2134 4.6023 21.8099 0.0000 -12.7194 0.0000
# 2 4.6023 45.3335 10.3664 0.0000 -2.6648 0.0000
# 3 21.8099 10.3664 122.5919 0.0000 2.1288 0.0000
# 4 0.0000 0.0000 0.0000 11.1727 0.0000 -4.8715
# 5 -12.7194 -2.6648 2.1288 0.0000 45.8297 0.0000
# 6 0.0000 0.0000 0.0000 -4.8715 0.0000 13.8224
#
#
#
# Elastic Compliance Matrix: (Units=1/GPa)
#
#
# Indices 1 2 3 4 5 6 
#
# 1 0.020618 -0.000905 -0.003693 0.000000 0.005841 0.000000
# 2 -0.000905 0.022623 -0.001772 0.000000 0.001146 0.000000
# 3 -0.003693 -0.001772 0.008991 0.000000 -0.001546 0.000000
# 4 0.000000 0.000000 0.000000 0.105755 0.000000 0.037272
# 5 0.005841 0.001146 -0.001546 0.000000 0.023579 0.000000
# 6 0.000000 0.000000 0.000000 0.037272 0.000000 0.085482
#
#
# Mechanical properties :
#
#
# Convention : Reuss Voigt Hill
#
# Bulk Modulus (GPa) = 25.32179 33.07735 29.19957
# Shear Modulus (GPa) = 17.06760 26.65564 21.86162
#
# Velocity S-wave (km/s) = 2.79533 3.49334 3.16365
# Velocity P-wave (km/s) = 4.69162 5.60488 5.16846
#
# Compressibility (1/GPa) = 0.03949167
#
# Stress axis : x y z
#
# Youngs Moduli (GPa) = 48.50144 44.20239 111.22458
#
# Poissons Ratio (x) = 0.04002 0.41075
# Poissons Ratio (y) = 0.04391 0.19708
# Poissons Ratio (z) = 0.17911 0.07832
#
# Static dielectric constant tensor:
#      x y z
#    x 2.054450 0.000000 0.177430 
#    y 0.000000 1.739780 0.000000 
#    z 0.177430 0.000000 2.009140 
# 
# From -- ./inp_files/120395.got.cif
#   From: 2010.05.17/outbox.cif.g08.bks.cpg/sg12_61_cif.got.tgz:120395.got - 2010.06.03 13:09:07.
