data_PCOD9220439
_publ_section_title
;
Structure prediction by ZEFSAII (Michael W. Deem and Ramdas Pophale) SiO2 
 PCOD9220439
Probable space group: C 2/M
;
_chemical_formula_sum "Si O2"
_cell_formula_units_Z 36
_cell_length_a 15.603097
_cell_length_b 18.759757
_cell_length_c 6.690650
_cell_angle_alpha 90.000000
_cell_angle_beta 121.611650
_cell_angle_gamma 90.000000
_cell_volume 1667.832266
_symmetry_space_group_name_H-M "C 2/M"
_symmetry_group_IT_number 12
_symmetry_cell_setting 'monoclinic'
loop_
_space_group_symop_operation_xyz
x,y,z
-x,y,-z
-x,-y,-z
x,-y,z
1/2+x,1/2+y,z
1/2-x,1/2+y,-z
1/2-x,1/2-y,-z
1/2+x,1/2-y,z
loop_
_atom_site_type_symbol
_atom_site_label
_atom_site_fract_x
_atom_site_fract_y
_atom_site_fract_z
Si Si1 0.000000 0.747309 0.000000
Si Si2 0.285149 0.160319 0.341640
Si Si3 0.881976 0.192961 0.524140
Si Si4 0.390354 0.892243 0.822009
Si Si5 0.699545 0.419374 0.854646
O O1 0.018616 0.790987 0.224207
O O2 0.906639 0.691914 0.900108
O O3 0.199993 0.175772 0.403443
O O4 0.344035 0.234098 0.372497
O O5 0.233920 0.123066 0.092742
O O6 0.362653 0.108900 0.554811
O O7 0.878262 0.127755 0.367997
O O8 0.300215 0.922000 0.840767
O O9 0.500000 0.922830 0.000000
O O10 0.666034 0.500000 0.855978
#
# Coordination Sequence:
#
# PCOD9220439 Si02
#       5
#     4   8   8   8   8
#     4   8  16  36  60  80 102 132 186 234 274 302
#     4   9  18  34  56  79 105 142 188 224 266 312
#     4   9  18  36  58  78 103 141 183 233 269 310
#     4   8  18  36  54  78 111 140 179 225 267 314
#     4  11  22  34  53  83 115 148 178 214 270 333
#
# _framework density 21.584903000000001
#
# number of rings (size 3 to 8) (size 9 to 14) (size 15 to 20)
#    0.667    2.222    0.000    2.000    0.000    4.889 
#    0.000    5.000    0.000    1.333    0.000    0.000 
#    0.000    0.000    0.000    0.000    0.000    0.000 
#
# Total GULP energy -100391.606940 kJ/mol
# GULP energy per Si atom -5577.311497 kJ/mol
# Density = 2.153577 g / cm^3
# Si number density = 21.584903 Si / 1000 Ang^3
#
#
#
# Elastic Constant Matrix: (Units=GPa)
#
#
# Indices 1 2 3 4 5 6 
#
# 1 39.1602 6.8532 4.6273 0.0000 3.7579 0.0000
# 2 6.8532 136.5491 101.9541 0.0000 -7.8525 0.0000
# 3 4.6273 101.9541 178.3788 0.0000 8.4680 0.0000
# 4 0.0000 0.0000 0.0000 -26.8995 0.0000 -6.3466
# 5 3.7579 -7.8525 8.4680 0.0000 20.1619 0.0000
# 6 0.0000 0.0000 0.0000 -6.3466 0.0000 8.5114
#
#
#
# Elastic Compliance Matrix: (Units=1/GPa)
#
#
# Indices 1 2 3 4 5 6 
#
# 1 0.026450 -0.002445 0.001011 0.000000 -0.006306 0.000000
# 2 -0.002445 0.014487 -0.008679 0.000000 0.009743 0.000000
# 3 0.001011 -0.008679 0.010928 0.000000 -0.008158 0.000000
# 4 0.000000 0.000000 0.000000 -0.031614 0.000000 -0.023573
# 5 -0.006306 0.009743 -0.008158 0.000000 0.057995 0.000000
# 6 0.000000 0.000000 0.000000 -0.023573 0.000000 0.099912
#
#
# Mechanical properties :
#
#
# Convention : Reuss Voigt Hill
#
# Bulk Modulus (GPa) = 31.60789 64.55082 48.07935
# Shear Modulus (GPa) = 23.93150 16.39832 20.16491
#
# Velocity S-wave (km/s) = 3.33335 2.75928 3.05981
# Velocity P-wave (km/s) = 5.43049 6.33419 5.89967
#
# Compressibility (1/GPa) = 0.03163767
#
# Stress axis : x y z
#
# Youngs Moduli (GPa) = 37.80757 69.02975 91.51067
#
# Poissons Ratio (x) = 0.16875 -0.09247
# Poissons Ratio (y) = 0.09243 0.79422
# Poissons Ratio (z) = -0.03820 0.59911
#
# Static dielectric constant tensor:
#      x y z
#    x 1.804160 0.000000 0.027930 
#    y 0.000000 1.819810 0.000000 
#    z 0.027930 0.000000 1.807050 
# 
# From -- ./inp_files/21101.got.cif
#   From: 2010.05.17/outbox.cif.g08.bks.cpg/sg12_11_cif.got.tgz:21101.got - 2010.06.03 13:09:07.
