data_PCOD9220340
_publ_section_title
;
Structure prediction by ZEFSAII (Michael W. Deem and Ramdas Pophale) SiO2 
 PCOD9220340
Probable space group: C 2/M
;
_chemical_formula_sum "Si O2"
_cell_formula_units_Z 40
_cell_length_a 21.722940
_cell_length_b 14.689378
_cell_length_c 15.128071
_cell_angle_alpha 90.000000
_cell_angle_beta 20.553731
_cell_angle_gamma 90.000000
_cell_volume 1694.800595
_symmetry_space_group_name_H-M "C 2/M"
_symmetry_group_IT_number 12
_symmetry_cell_setting 'monoclinic'
loop_
_space_group_symop_operation_xyz
x,y,z
-x,y,-z
-x,-y,-z
x,-y,z
1/2+x,1/2+y,z
1/2-x,1/2+y,-z
1/2-x,1/2-y,-z
1/2+x,1/2-y,z
loop_
_atom_site_type_symbol
_atom_site_label
_atom_site_fract_x
_atom_site_fract_y
_atom_site_fract_z
Si Si1 0.773317 0.106180 0.133089
Si Si2 0.202826 0.401802 0.832278
Si Si3 0.580186 0.604453 0.273539
Si Si4 0.523293 0.183245 0.337146
Si Si5 0.046024 0.263215 0.761634
O O1 0.678407 0.118488 0.164838
O O2 0.641708 0.156042 0.379254
O O3 0.790233 0.000000 0.133167
O O4 0.948168 0.165458 0.890382
O O5 0.116444 0.500000 0.938264
O O6 0.315341 0.403620 0.772667
O O7 0.365518 0.391332 0.548024
O O8 0.062210 0.322118 0.022019
O O9 0.606021 0.500000 0.203967
O O10 0.596325 0.715361 0.248920
O O11 0.477176 0.178194 0.297090
O O12 0.250000 0.250000 0.500000
#
# Coordination Sequence:
#
# PCOD9220340 Si02
#       5
#     8   8   8   8   8
#     4  11  24  45  69  99 132 170 225 283 330 388
#     4   9  17  34  59  88 118 150 202 262 316 377
#     4   9  16  32  64  93 112 148 206 270 327 367
#     4  11  21  42  69  94 125 169 220 282 330 381
#     4  12  26  41  61  94 135 178 215 259 327 405
#
# _framework density 23.601597000000002
#
# number of rings (size 3 to 8) (size 9 to 14) (size 15 to 20)
#    0.000    1.600    4.000    4.200    0.000    4.000 
#    0.000    1.000    0.000    2.400    0.000    0.000 
#    0.000    0.000    0.000    0.000    0.000    0.000 
#
# Total GULP energy -111381.129274 kJ/mol
# GULP energy per Si atom -5569.056464 kJ/mol
# Density = 2.354788 g / cm^3
# Si number density = 23.601597 Si / 1000 Ang^3
#
#
#
# Elastic Constant Matrix: (Units=GPa)
#
#
# Indices 1 2 3 4 5 6 
#
# 1 40.3704 40.0934 21.0052 0.0001 -8.8726 0.0001
# 2 40.0934 174.2690 144.6385 -0.0005 34.1319 0.0000
# 3 21.0052 144.6385 150.0386 -0.0013 -50.8015 0.0010
# 4 0.0001 -0.0005 -0.0013 31.9936 0.0005 17.1226
# 5 -8.8726 34.1319 -50.8015 0.0005 7.5689 -0.0003
# 6 0.0001 0.0000 0.0010 17.1226 -0.0003 35.4194
#
#
#
# Elastic Compliance Matrix: (Units=1/GPa)
#
#
# Indices 1 2 3 4 5 6 
#
# 1 0.026509 -0.000164 -0.005673 0.000000 -0.006261 0.000000
# 2 -0.000164 0.001331 0.002638 0.000000 0.011514 0.000000
# 3 -0.005673 0.002638 0.001072 0.000000 -0.011351 0.000000
# 4 0.000000 0.000000 0.000000 0.042165 -0.000001 -0.020384
# 5 -0.006261 0.011514 -0.011351 -0.000001 -0.003331 0.000001
# 6 0.000000 0.000000 0.000000 -0.020384 0.000001 0.038087
#
#
# Mechanical properties :
#
#
# Convention : Reuss Voigt Hill
#
# Bulk Modulus (GPa) = 44.41450 86.23912 65.32681
# Shear Modulus (GPa) = 41.75847 25.59243 33.67545
#
# Velocity S-wave (km/s) = 4.21088 3.29652 3.78144
# Velocity P-wave (km/s) = 6.51930 7.14900 6.84140
#
# Compressibility (1/GPa) = 0.02251517
#
# Stress axis : x y z
#
# Youngs Moduli (GPa) = 37.72262 751.29573 932.59465
#
# Poissons Ratio (x) = 0.12330 5.29065
# Poissons Ratio (y) = 0.00619 -2.46060
# Poissons Ratio (z) = 0.21400 -1.98225
#
# Static dielectric constant tensor:
#      x y z
#    x 1.717350 0.000000 -0.144660 
#    y 0.000000 1.918200 0.000000 
#    z -0.144660 0.000000 1.744870 
# 
# From -- ./inp_files/289830.got.cif
#   From: 2010.05.17/outbox.cif.g08.bks.cpg/sg12_145_cif.got.tgz:289830.got - 2010.06.03 13:09:07.
