data_PCOD9220022
_publ_section_title
;
Structure prediction by ZEFSAII (Michael W. Deem and Ramdas Pophale) SiO2 
 PCOD9220022
Probable space group: C 2/M
;
_chemical_formula_sum "Si O2"
_cell_formula_units_Z 64
_cell_length_a 14.352468
_cell_length_b 18.972589
_cell_length_c 12.445908
_cell_angle_alpha 90.000000
_cell_angle_beta 53.276121
_cell_angle_gamma 90.000000
_cell_volume 2716.424633
_symmetry_space_group_name_H-M "C 2/M"
_symmetry_group_IT_number 12
_symmetry_cell_setting 'monoclinic'
loop_
_space_group_symop_operation_xyz
x,y,z
-x,y,-z
-x,-y,-z
x,-y,z
1/2+x,1/2+y,z
1/2-x,1/2+y,-z
1/2-x,1/2-y,-z
1/2+x,1/2-y,z
loop_
_atom_site_type_symbol
_atom_site_label
_atom_site_fract_x
_atom_site_fract_y
_atom_site_fract_z
Si Si1 0.765478 0.918221 0.788923
Si Si2 0.791671 0.720474 0.853281
Si Si3 0.571833 0.267992 0.851651
Si Si4 0.882118 0.364612 0.301841
Si Si5 0.483560 0.328789 0.637143
Si Si6 0.798300 0.081520 0.430109
Si Si7 0.632740 0.079887 0.100855
Si Si8 0.971540 0.076292 0.143701
O O1 0.714996 0.879827 0.720494
O O2 0.896001 0.894181 0.717655
O O3 0.759185 0.000000 0.771890
O O4 0.687231 0.903373 0.946942
O O5 0.694497 0.721876 0.827047
O O6 0.903228 0.765173 0.737881
O O7 0.820881 0.639071 0.852110
O O8 0.750000 0.750000 0.000000
O O9 0.586547 0.216277 0.741674
O O10 0.503351 0.339138 0.862223
O O11 0.500000 0.233953 0.000000
O O12 0.825815 0.386667 0.453188
O O13 0.994273 0.410746 0.196144
O O14 0.500000 0.314135 0.500000
O O15 0.606590 0.362702 0.589944
O O16 0.839352 0.076385 0.278328
O O17 0.805404 0.000000 0.467178
O O18 0.665434 0.000000 0.105584
O O19 0.019340 0.000000 0.156526
O O20 0.000000 0.069933 0.000000
#
# Coordination Sequence:
#
# PCOD9220022 Si02
#       8
#     8   8   8   8   8   8   8   8
#     4  11  21  37  63  95 135 175 215 269 337 404
#     4  12  24  44  66  97 136 173 226 280 328 397
#     4  11  23  40  69  97 129 177 223 279 335 391
#     4  12  22  41  65  98 136 174 225 273 337 407
#     4  12  24  41  63 100 137 176 217 274 346 405
#     4  11  24  41  67  99 134 174 220 278 344 404
#     4  11  25  42  67  98 136 183 227 272 331 402
#     4   9  22  42  64  93 126 166 221 279 330 390
#
# _framework density 23.560382000000001
#
# number of rings (size 3 to 8) (size 9 to 14) (size 15 to 20)
#    0.000    0.875    3.750    3.375    5.250    2.500 
#    2.250    0.000    0.000    0.375    0.000    0.000 
#    0.000    0.000    0.000    0.000    0.000    0.000 
#
# Total GULP energy -178534.467299 kJ/mol
# GULP energy per Si atom -5579.202103 kJ/mol
# Density = 2.350676 g / cm^3
# Si number density = 23.560382 Si / 1000 Ang^3
#
#
#
# Elastic Constant Matrix: (Units=GPa)
#
#
# Indices 1 2 3 4 5 6 
#
# 1 56.3019 21.2535 12.2330 0.0000 -6.1226 0.0000
# 2 21.2535 145.7348 41.3391 0.0000 13.2024 0.0000
# 3 12.2330 41.3391 190.4712 0.0000 -2.0939 0.0000
# 4 0.0000 0.0000 0.0000 70.4340 0.0000 26.8181
# 5 -6.1226 13.2024 -2.0939 0.0000 25.6078 0.0000
# 6 0.0000 0.0000 0.0000 26.8181 0.0000 32.3245
#
#
#
# Elastic Compliance Matrix: (Units=1/GPa)
#
#
# Indices 1 2 3 4 5 6 
#
# 1 0.019823 -0.003337 -0.000478 0.000000 0.006421 0.000000
# 2 -0.003337 0.008285 -0.001641 0.000000 -0.005204 0.000000
# 3 -0.000478 -0.001641 0.005650 0.000000 0.001194 0.000000
# 4 0.000000 0.000000 0.000000 0.020754 0.000000 -0.017218
# 5 0.006421 -0.005204 0.001194 0.000000 0.043366 0.000000
# 6 0.000000 0.000000 0.000000 -0.017218 0.000000 0.045221
#
#
# Mechanical properties :
#
#
# Convention : Reuss Voigt Hill
#
# Bulk Modulus (GPa) = 43.77138 60.23991 52.00565
# Shear Modulus (GPa) = 30.93523 46.85210 38.89367
#
# Velocity S-wave (km/s) = 3.62749 4.46421 4.06742
# Velocity P-wave (km/s) = 6.01362 7.22468 6.64679
#
# Compressibility (1/GPa) = 0.02284598
#
# Stress axis : x y z
#
# Youngs Moduli (GPa) = 50.44587 120.69498 176.98619
#
# Poissons Ratio (x) = 0.40275 0.08466
# Poissons Ratio (y) = 0.16834 0.29045
# Poissons Ratio (z) = 0.02413 0.19807
#
# Static dielectric constant tensor:
#      x y z
#    x 1.873540 0.000000 0.039810 
#    y 0.000000 1.957900 0.000000 
#    z 0.039810 0.000000 1.903140 
# 
# From -- ./inp_files/226826.got.cif
#   From: 2010.05.17/outbox.cif.g08.bks.cpg/sg12_114_cif.got.tgz:226826.got - 2010.06.03 13:09:07.
