data_PCOD9220305
_publ_section_title
;
Structure prediction by ZEFSAII (Michael W. Deem and Ramdas Pophale) SiO2 
 PCOD9220305
Probable space group: C 2/M
;
_chemical_formula_sum "Si O2"
_cell_formula_units_Z 52
_cell_length_a 30.346641
_cell_length_b 14.683142
_cell_length_c 9.318327
_cell_angle_alpha 90.000000
_cell_angle_beta 148.630575
_cell_angle_gamma 90.000000
_cell_volume 2161.391414
_symmetry_space_group_name_H-M "C 2/M"
_symmetry_group_IT_number 12
_symmetry_cell_setting 'monoclinic'
loop_
_space_group_symop_operation_xyz
x,y,z
-x,y,-z
-x,-y,-z
x,-y,z
1/2+x,1/2+y,z
1/2-x,1/2+y,-z
1/2-x,1/2-y,-z
1/2+x,1/2-y,z
loop_
_atom_site_type_symbol
_atom_site_label
_atom_site_fract_x
_atom_site_fract_y
_atom_site_fract_z
Si Si1 0.301644 0.500000 0.182518
Si Si2 0.007015 0.728657 0.849093
Si Si3 0.055850 0.105818 0.800246
Si Si4 0.575684 0.105324 0.597726
Si Si5 0.744582 0.650581 0.759139
Si Si6 0.261774 0.642232 0.816330
Si Si7 0.669695 0.896594 0.277327
O O1 0.275462 0.578999 0.991002
O O2 0.320465 0.580673 0.353595
O O3 0.015941 0.828047 0.805968
O O4 0.934380 0.672931 0.563254
O O5 0.090941 0.670386 0.044681
O O6 0.000000 0.730716 0.000000
O O7 0.000000 0.108051 0.500000
O O8 0.062221 0.000000 0.861739
O O9 0.146951 0.143477 0.007808
O O10 0.500000 0.123976 0.500000
O O11 0.569938 0.000000 0.535377
O O12 0.664355 0.117426 0.925140
O O13 0.734359 0.754900 0.770902
O O14 0.755531 0.638557 0.618779
O O15 0.198633 0.603377 0.521939
O O16 0.647765 0.000000 0.172495
#
# Coordination Sequence:
#
# PCOD9220305 Si02
#       7
#     4   8   8   8   8   8   8
#     4  12  26  44  66 109 135 179 231 292 327 412
#     4  12  27  41  68 107 138 179 227 281 341 411
#     4  11  24  50  77  94 131 186 234 283 345 407
#     4  11  21  41  70  99 136 181 227 274 340 413
#     4  12  24  43  71 100 137 185 232 280 339 410
#     4  12  25  47  72 102 139 183 229 284 347 410
#     4  12  24  45  70 101 142 186 222 277 356 415
#
# _framework density 24.058577
#
# number of rings (size 3 to 8) (size 9 to 14) (size 15 to 20)
#    0.000    0.308    6.154    2.769    2.154    1.538 
#    2.769    0.000    0.000    0.000    0.000    0.000 
#    0.000    0.000    0.000    0.000    0.000    0.000 
#
# Total GULP energy -145278.757307 kJ/mol
# GULP energy per Si atom -5587.644512 kJ/mol
# Density = 2.400382 g / cm^3
# Si number density = 24.058577 Si / 1000 Ang^3
#
#
#
# Elastic Constant Matrix: (Units=GPa)
#
#
# Indices 1 2 3 4 5 6 
#
# 1 98.9445 65.2018 11.3706 0.0000 -29.9179 0.0000
# 2 65.2018 217.5096 -0.9244 0.0000 -19.7698 0.0000
# 3 11.3706 -0.9244 43.0629 0.0000 0.0590 0.0000
# 4 0.0000 0.0000 0.0000-7779.5290 0.0000**********
# 5 -29.9179 -19.7698 0.0590 0.0000 34.6119 0.0000
# 6 0.0000 0.0000 0.0000********** 0.0000**********
#
#
#
# Elastic Compliance Matrix: (Units=1/GPa)
#
#
# Indices 1 2 3 4 5 6 
#
# 1 0.017031 -0.003993 -0.004600 0.000000 0.012448 0.000000
# 2 -0.003993 0.005786 0.001179 0.000000 -0.000149 0.000000
# 3 -0.004600 0.001179 0.024466 0.000000 -0.003344 0.000000
# 4 0.000000 0.000000 0.000000 0.025523 0.000000 -0.015981
# 5 0.012448 -0.000149 -0.003344 0.000000 0.039572 0.000000
# 6 0.000000 0.000000 0.000000 -0.015981 0.000000 0.009957
#
#
# Mechanical properties :
#
#
# Convention : Reuss Voigt Hill
#
# Bulk Modulus (GPa) = 30.81222 56.75698 43.78460
# Shear Modulus (GPa) = 33.78798 -5518.51499 -2742.36351
#
# Velocity S-wave (km/s) = 3.75160 -47.94541 -33.79858
# Velocity P-wave (km/s) = 5.62148 55.14866 38.79287
#
# Compressibility (1/GPa) = 0.03245465
#
# Stress axis : x y z
#
# Youngs Moduli (GPa) = 58.71776 172.82983 40.87260
#
# Poissons Ratio (x) = 0.69017 0.18800
# Poissons Ratio (y) = 0.23448 -0.04818
# Poissons Ratio (z) = 0.27008 -0.20374
#
# Static dielectric constant tensor:
#      x y z
#    x 1.983410 0.000000 0.029670 
#    y 0.000000 1.877880 0.000000 
#    z 0.029670 0.000000 1.943690 
# 
# From -- ./inp_files/112060.got.cif
#   From: 2010.05.17/outbox.cif.g08.bks.cpg/sg12_57_cif.got.tgz:112060.got - 2010.06.03 13:09:07.
