data_PCOD9220831
_publ_section_title
;
Structure prediction by ZEFSAII (Michael W. Deem and Ramdas Pophale) SiO2 
 PCOD9220831
Probable space group: C 2/M
;
_chemical_formula_sum "Si O2"
_cell_formula_units_Z 48
_cell_length_a 8.058622
_cell_length_b 28.720761
_cell_length_c 18.954576
_cell_angle_alpha 90.000000
_cell_angle_beta 31.300779
_cell_angle_gamma 90.000000
_cell_volume 2279.197933
_symmetry_space_group_name_H-M "C 2/M"
_symmetry_group_IT_number 12
_symmetry_cell_setting 'monoclinic'
loop_
_space_group_symop_operation_xyz
x,y,z
-x,y,-z
-x,-y,-z
x,-y,z
1/2+x,1/2+y,z
1/2-x,1/2+y,-z
1/2-x,1/2-y,-z
1/2+x,1/2-y,z
loop_
_atom_site_type_symbol
_atom_site_label
_atom_site_fract_x
_atom_site_fract_y
_atom_site_fract_z
Si Si1 0.527666 0.193903 0.870986
Si Si2 0.877083 0.948142 0.464730
Si Si3 0.710346 0.886704 0.302666
Si Si4 0.512760 0.707121 0.824810
Si Si5 0.957863 0.946441 0.931250
Si Si6 0.292535 0.907236 0.197648
O O1 0.590371 0.238360 0.799471
O O2 0.763341 0.199497 0.852116
O O3 0.594623 0.143348 0.815518
O O4 0.173354 0.196451 0.033951
O O5 0.614054 0.908240 0.550151
O O6 0.000000 0.945948 0.500000
O O7 0.165756 0.939231 0.306383
O O8 0.741469 0.000000 0.501836
O O9 0.716964 0.831483 0.285613
O O10 0.800092 0.913800 0.198505
O O11 0.000364 0.898818 0.250328
O O12 0.004298 0.000000 0.892924
O O13 0.596468 0.929675 0.049123
O O14 0.000000 0.943006 0.000000
#
# Coordination Sequence:
#
# PCOD9220831 Si02
#       6
#     8   8   8   8   8   8
#     4   9  18  34  56  86 119 149 187 236 287 342
#     4  11  25  43  60  83 118 157 198 243 294 353
#     4  11  22  39  61  87 117 152 197 243 290 346
#     4   9  18  34  56  86 119 149 187 236 287 342
#     4  11  23  37  56  85 118 151 192 243 294 345
#     4  11  22  39  61  87 117 152 197 243 290 346
#
# _framework density 21.060040000000001
#
# number of rings (size 3 to 8) (size 9 to 14) (size 15 to 20)
#    0.000    1.667    1.667    3.000    0.000    9.333 
#    0.000    0.833    0.000    0.000    0.000    0.000 
#    0.000    0.000    0.000    0.000    0.000    0.000 
#
# Total GULP energy -134149.340350 kJ/mol
# GULP energy per Si atom -5589.555848 kJ/mol
# Density = 2.101211 g / cm^3
# Si number density = 21.060040 Si / 1000 Ang^3
#
#
#
# Elastic Constant Matrix: (Units=GPa)
#
#
# Indices 1 2 3 4 5 6 
#
# 1 26.6820 8.7160 -4.9392 0.0000 2.9900 -0.0001
# 2 8.7160 107.1664 0.8777 0.0002 1.4927 -0.0001
# 3 -4.9392 0.8777 44.9616 0.0004 -0.8408 -0.0009
# 4 0.0000 0.0002 0.0004 27.6475 -0.0001 4.3333
# 5 2.9900 1.4927 -0.8408 -0.0001 25.5427 0.0003
# 6 -0.0001 -0.0001 -0.0009 4.3333 0.0003 0.9503
#
#
#
# Elastic Compliance Matrix: (Units=1/GPa)
#
#
# Indices 1 2 3 4 5 6 
#
# 1 0.039820 -0.003214 0.004356 -0.000005 -0.004330 0.000031
# 2 -0.003214 0.009600 -0.000544 0.000000 -0.000203 0.000000
# 3 0.004356 -0.000544 0.022735 -0.000013 0.000270 0.000082
# 4 -0.000005 0.000000 -0.000013 0.126771 0.000006 -0.578065
# 5 -0.004330 -0.000203 0.000270 0.000006 0.039678 -0.000040
# 6 0.000031 0.000000 0.000082 -0.578065 -0.000040 3.688233
#
#
# Mechanical properties :
#
#
# Convention : Reuss Voigt Hill
#
# Bulk Modulus (GPa) = 13.63306 20.90211 17.26759
# Shear Modulus (GPa) = 1.26579 22.43846 11.85213
#
# Velocity S-wave (km/s) = 0.77611 3.26767 2.37487
# Velocity P-wave (km/s) = 2.70011 4.91766 3.96699
#
# Compressibility (1/GPa) = 0.07335111
#
# Stress axis : x y z
#
# Youngs Moduli (GPa) = 25.11302 104.16709 43.98423
#
# Poissons Ratio (x) = 0.33479 -0.19160
# Poissons Ratio (y) = 0.08071 0.02394
# Poissons Ratio (z) = -0.10940 0.05669
#
# Static dielectric constant tensor:
#      x y z
#    x 1.778820 0.000000 -0.012510 
#    y 0.000000 1.756280 0.000000 
#    z -0.012510 0.000000 1.720390 
# 
# From -- ./inp_files/42210.got.cif
#   From: 2010.05.17/outbox.cif.g08.bks.cpg/sg12_22_cif.got.tgz:42210.got - 2010.06.03 13:09:07.
