data_PCOD9220960
_publ_section_title
;
Structure prediction by ZEFSAII (Michael W. Deem and Ramdas Pophale) SiO2 
 PCOD9220960
Probable space group: C 2/M
;
_chemical_formula_sum "Si O2"
_cell_formula_units_Z 54
_cell_length_a 11.365025
_cell_length_b 17.826806
_cell_length_c 22.947378
_cell_angle_alpha 90.000000
_cell_angle_beta 147.989454
_cell_angle_gamma 90.000000
_cell_volume 2464.419357
_symmetry_space_group_name_H-M "C 2/M"
_symmetry_group_IT_number 12
_symmetry_cell_setting 'monoclinic'
loop_
_space_group_symop_operation_xyz
x,y,z
-x,y,-z
-x,-y,-z
x,-y,z
1/2+x,1/2+y,z
1/2-x,1/2+y,-z
1/2-x,1/2-y,-z
1/2+x,1/2-y,z
loop_
_atom_site_type_symbol
_atom_site_label
_atom_site_fract_x
_atom_site_fract_y
_atom_site_fract_z
Si Si1 0.549551 0.364254 0.113098
Si Si2 0.585785 0.689417 0.254313
Si Si3 0.179542 0.914940 0.467238
Si Si4 0.208942 0.352419 0.259946
Si Si5 0.500000 0.500000 0.000000
Si Si6 0.000000 0.377036 0.500000
Si Si7 0.397764 0.197897 0.899006
Si Si8 0.955316 0.412457 0.691135
O O1 0.518845 0.363215 0.170652
O O2 0.467272 0.432308 0.037205
O O3 0.493145 0.280049 0.066783
O O4 0.815791 0.370119 0.218909
O O5 0.667255 0.767435 0.261468
O O6 0.794422 0.662800 0.380449
O O7 0.365465 0.704163 0.199398
O O8 0.370180 0.916475 0.498545
O O9 0.279790 0.884634 0.569826
O O10 0.967299 0.868332 0.359233
O O11 0.103810 0.000000 0.446264
O O12 0.073659 0.357135 0.143483
O O13 0.129130 0.403814 0.279026
O O14 0.500000 0.165980 0.000000
O O15 0.998107 0.500000 0.696481
#
# Coordination Sequence:
#
# PCOD9220960 Si02
#       8
#     8   8   8   8   2   4   8   8
#     4  11  23  41  67  99 127 172 225 276 330 387
#     4  11  25  41  68 102 135 174 220 277 336 399
#     4  11  24  42  67  98 133 180 221 270 332 403
#     4  11  24  40  67  96 132 173 220 275 333 394
#     4  12  24  44  68  94 128 168 226 288 310 392
#     4  12  23  42  70 100 137 178 218 272 340 399
#     4  11  24  45  68  95 133 175 226 277 337 393
#     4  11  22  40  64  95 135 172 222 270 331 398
#
# _framework density 21.911854999999999
#
# number of rings (size 3 to 8) (size 9 to 14) (size 15 to 20)
#    0.000    0.889    5.926    1.111    2.074    5.333 
#    1.333    0.000    0.000    1.778    0.000    0.000 
#    0.000    0.000    0.000    0.000    0.000    0.000 
#
# Total GULP energy -150450.284595 kJ/mol
# GULP energy per Si atom -5572.232763 kJ/mol
# Density = 2.186198 g / cm^3
# Si number density = 21.911855 Si / 1000 Ang^3
#
#
#
# Elastic Constant Matrix: (Units=GPa)
#
#
# Indices 1 2 3 4 5 6 
#
# 1 77.8759 17.1497 16.2029 -0.0003 -21.0452 0.0002
# 2 17.1497 21.1491 9.1662 0.0002 -4.6015 -0.0001
# 3 16.2029 9.1662 57.6348 0.0063 -29.2884 -0.0027
# 4 -0.0003 0.0002 0.0063 48.4165 0.0003 -7.5218
# 5 -21.0452 -4.6015 -29.2884 0.0003 49.7412 0.0000
# 6 0.0002 -0.0001 -0.0027 -7.5218 0.0000 16.1408
#
#
#
# Elastic Compliance Matrix: (Units=1/GPa)
#
#
# Indices 1 2 3 4 5 6 
#
# 1 0.017302 -0.012823 0.000417 0.000000 0.006380 0.000000
# 2 -0.012823 0.060287 -0.008428 0.000001 -0.004811 -0.000001
# 3 0.000417 -0.008428 0.026067 -0.000003 0.014745 0.000003
# 4 0.000000 0.000001 -0.000003 0.022266 -0.000002 0.010376
# 5 0.006380 -0.004811 0.014745 -0.000002 0.031041 0.000001
# 6 0.000000 -0.000001 0.000003 0.010376 0.000001 0.066790
#
#
# Mechanical properties :
#
#
# Convention : Reuss Voigt Hill
#
# Bulk Modulus (GPa) = 16.13175 26.85527 21.49351
# Shear Modulus (GPa) = 17.47741 30.46910 23.97326
#
# Velocity S-wave (km/s) = 2.82729 3.73303 3.31127
# Velocity P-wave (km/s) = 4.24690 5.55548 4.94467
#
# Compressibility (1/GPa) = 0.06198955
#
# Stress axis : x y z
#
# Youngs Moduli (GPa) = 57.79655 16.58721 38.36283
#
# Poissons Ratio (x) = 0.21270 -0.01601
# Poissons Ratio (y) = 0.74112 0.32331
# Poissons Ratio (z) = -0.02412 0.13979
#
# Static dielectric constant tensor:
#      x y z
#    x 1.888740 0.000000 -0.038140 
#    y 0.000000 1.758850 0.000000 
#    z -0.038140 0.000000 1.828940 
# 
# From -- ./inp_files/336817.got.cif
#   From: 2010.05.17/outbox.cif.g08.bks.cpg/sg12_169_cif.got.tgz:336817.got - 2010.06.03 13:09:07.
