data_PCOD9220670
_publ_section_title
;
Structure prediction by ZEFSAII (Michael W. Deem and Ramdas Pophale) SiO2 
 PCOD9220670
Probable space group: C 2/M
;
_chemical_formula_sum "Si O2"
_cell_formula_units_Z 64
_cell_length_a 31.303207
_cell_length_b 18.316931
_cell_length_c 11.476820
_cell_angle_alpha 90.000000
_cell_angle_beta 25.574549
_cell_angle_gamma 90.000000
_cell_volume 2840.731457
_symmetry_space_group_name_H-M "C 2/M"
_symmetry_group_IT_number 12
_symmetry_cell_setting 'monoclinic'
loop_
_space_group_symop_operation_xyz
x,y,z
-x,y,-z
-x,-y,-z
x,-y,z
1/2+x,1/2+y,z
1/2-x,1/2+y,-z
1/2-x,1/2-y,-z
1/2+x,1/2-y,z
loop_
_atom_site_type_symbol
_atom_site_label
_atom_site_fract_x
_atom_site_fract_y
_atom_site_fract_z
Si Si1 0.312802 0.583947 0.753708
Si Si2 0.403214 0.415488 0.155382
Si Si3 0.249746 0.664688 0.682919
Si Si4 0.288234 0.586477 0.081170
Si Si5 0.473368 0.651339 0.750444
Si Si6 0.858743 0.686023 0.407303
Si Si7 0.478395 0.192529 0.805666
Si Si8 0.570160 0.077375 0.940663
O O1 0.301609 0.500000 0.742853
O O2 0.265841 0.637945 0.775566
O O3 0.428906 0.602549 0.480503
O O4 0.269613 0.591900 0.989280
O O5 0.400625 0.500000 0.121917
O O6 0.305267 0.396081 0.468838
O O7 0.500000 0.407263 0.000000
O O8 0.416658 0.361524 0.013054
O O9 0.308146 0.737829 0.512193
O O10 0.136973 0.686824 0.941999
O O11 0.287412 0.500000 0.115422
O O12 0.206765 0.633880 0.348972
O O13 0.395289 0.622032 0.848067
O O14 0.506779 0.736336 0.659569
O O15 0.863801 0.641870 0.274272
O O16 0.960739 0.707521 0.223571
O O17 0.489289 0.103525 0.798364
O O18 0.619104 0.000000 0.840387
O O19 0.500000 0.069883 0.000000
#
# Coordination Sequence:
#
# PCOD9220670 Si02
#       8
#     8   8   8   8   8   8   8   8
#     4  11  24  45  68  94 132 172 217 277 334 384
#     4  11  22  37  63  97 135 172 209 262 325 395
#     4  12  24  41  64  97 135 174 212 262 334 399
#     4  11  25  43  68  97 126 171 229 278 320 380
#     4  12  22  42  67 100 134 171 216 271 331 392
#     4  11  22  43  65  91 131 174 222 269 316 384
#     4  11  24  41  63 100 132 174 214 263 331 394
#     4   9  20  38  62  90 131 178 215 258 313 380
#
# _framework density 22.529409999999999
#
# number of rings (size 3 to 8) (size 9 to 14) (size 15 to 20)
#    0.000    1.000    3.750    3.000    1.750    5.000 
#    0.000    0.625    0.000    1.500    0.000    0.000 
#    0.000    0.000    0.000    0.000    0.000    0.000 
#
# Total GULP energy -178236.347390 kJ/mol
# GULP energy per Si atom -5569.885856 kJ/mol
# Density = 2.247813 g / cm^3
# Si number density = 22.529410 Si / 1000 Ang^3
#
#
#
# Elastic Constant Matrix: (Units=GPa)
#
#
# Indices 1 2 3 4 5 6 
#
# 1 61.0580 16.9968 4.2928 0.0000 -10.9649 0.0000
# 2 16.9968 132.4589 -4.4948 0.0000 6.7836 0.0000
# 3 4.2928 -4.4948 25.1530 0.0000 -11.0656 0.0000
# 4 0.0000 0.0000 0.0000 30.7233 0.0000 -14.1151
# 5 -10.9649 6.7836 -11.0656 0.0000 39.8516 0.0000
# 6 0.0000 0.0000 0.0000 -14.1151 0.0000 59.5215
#
#
#
# Elastic Compliance Matrix: (Units=1/GPa)
#
#
# Indices 1 2 3 4 5 6 
#
# 1 0.018112 -0.002629 -0.001335 0.000000 0.005060 0.000000
# 2 -0.002629 0.008015 0.001096 0.000000 -0.001783 0.000000
# 3 -0.001335 0.001096 0.045494 0.000000 0.012078 0.000000
# 4 0.000000 0.000000 0.000000 0.036528 0.000000 0.008662
# 5 0.005060 -0.001783 0.012078 0.000000 0.030143 0.000000
# 6 0.000000 0.000000 0.000000 0.008662 0.000000 0.018855
#
#
# Mechanical properties :
#
#
# Convention : Reuss Voigt Hill
#
# Bulk Modulus (GPa) = 15.17728 28.02884 21.60306
# Shear Modulus (GPa) = 27.04987 39.47763 33.26375
#
# Velocity S-wave (km/s) = 3.46879 4.19055 3.84664
# Velocity P-wave (km/s) = 4.77438 5.99019 5.41650
#
# Compressibility (1/GPa) = 0.06588795
#
# Stress axis : x y z
#
# Youngs Moduli (GPa) = 55.21152 124.76089 21.98089
#
# Poissons Ratio (x) = 0.32794 0.02934
# Poissons Ratio (y) = 0.14513 -0.02410
# Poissons Ratio (z) = 0.07369 -0.13680
#
# Static dielectric constant tensor:
#      x y z
#    x 1.871950 0.000000 0.004630 
#    y 0.000000 1.870040 0.000000 
#    z 0.004630 0.000000 1.949250 
# 
# From -- ./inp_files/190052.got.cif
#   From: 2010.05.17/outbox.cif.g08.bks.cpg/sg12_96_cif.got.tgz:190052.got - 2010.06.03 13:09:07.
