data_PCOD9220759
_publ_section_title
;
Structure prediction by ZEFSAII (Michael W. Deem and Ramdas Pophale) SiO2 
 PCOD9220759
Probable space group: C 2/M
;
_chemical_formula_sum "Si O2"
_cell_formula_units_Z 56
_cell_length_a 12.405106
_cell_length_b 19.664564
_cell_length_c 13.592080
_cell_angle_alpha 90.000000
_cell_angle_beta 62.124083
_cell_angle_gamma 90.000000
_cell_volume 2930.923176
_symmetry_space_group_name_H-M "C 2/M"
_symmetry_group_IT_number 12
_symmetry_cell_setting 'monoclinic'
loop_
_space_group_symop_operation_xyz
x,y,z
-x,y,-z
-x,-y,-z
x,-y,z
1/2+x,1/2+y,z
1/2-x,1/2+y,-z
1/2-x,1/2-y,-z
1/2+x,1/2-y,z
loop_
_atom_site_type_symbol
_atom_site_label
_atom_site_fract_x
_atom_site_fract_y
_atom_site_fract_z
Si Si1 0.547931 0.920527 0.591233
Si Si2 0.802560 0.187764 0.734936
Si Si3 0.213788 0.173000 0.486715
Si Si4 0.530924 0.776339 0.875514
Si Si5 0.120147 0.923525 0.884117
Si Si6 0.144097 0.335846 0.200886
Si Si7 0.529507 0.643397 0.738618
O O1 0.500000 0.916579 0.500000
O O2 0.670223 0.876289 0.550152
O O3 0.445203 0.886113 0.702692
O O4 0.567350 0.000000 0.607226
O O5 0.824554 0.173598 0.610838
O O6 0.658500 0.183423 0.816802
O O7 0.840456 0.265490 0.745235
O O8 0.888880 0.141363 0.765848
O O9 0.250000 0.250000 0.500000
O O10 0.109179 0.150680 0.606676
O O11 0.420081 0.817704 0.874382
O O12 0.546324 0.711058 0.798384
O O13 0.500000 0.757362 0.000000
O O14 0.225210 0.870467 0.865038
O O15 0.080068 0.914646 0.787871
O O16 0.164844 0.000000 0.882314
O O17 0.000000 0.912190 0.000000
#
# Coordination Sequence:
#
# PCOD9220759 Si02
#       7
#     8   8   8   8   8   8   8
#     4  11  23  38  62  93 124 161 207 257 310 370
#     4  11  22  38  62  95 124 161 196 253 315 371
#     4  12  20  39  59  92 128 160 208 251 312 373
#     4  11  23  38  62  97 122 157 203 257 315 364
#     4  11  24  42  63  88 119 163 213 251 297 364
#     4  11  22  40  65  89 125 160 201 259 309 367
#     4  11  23  37  61  88 127 161 198 251 308 367
#
# _framework density 19.106608000000001
#
# number of rings (size 3 to 8) (size 9 to 14) (size 15 to 20)
#    0.000    0.857    4.286    3.857    2.000    2.857 
#    0.000    0.714    0.000    3.429    0.000    0.000 
#    0.000    0.000    0.000    0.000    0.000    0.000 
#
# Total GULP energy -156530.173383 kJ/mol
# GULP energy per Si atom -5590.363335 kJ/mol
# Density = 1.906312 g / cm^3
# Si number density = 19.106608 Si / 1000 Ang^3
#
#
#
# Elastic Constant Matrix: (Units=GPa)
#
#
# Indices 1 2 3 4 5 6 
#
# 1 130.5252 35.9099 34.8385 0.0000 7.0866 0.0000
# 2 35.9099 82.1244 8.0022 0.0000 -1.0563 0.0000
# 3 34.8385 8.0022 93.4563 0.0000 -2.7076 0.0000
# 4 0.0000 0.0000 0.0000 17.5890 0.0000 -0.0643
# 5 7.0866 -1.0563 -2.7076 0.0000 19.6334 0.0000
# 6 0.0000 0.0000 0.0000 -0.0643 0.0000 16.6912
#
#
#
# Elastic Compliance Matrix: (Units=1/GPa)
#
#
# Indices 1 2 3 4 5 6 
#
# 1 0.009941 -0.004063 -0.003482 0.000000 -0.004287 0.000000
# 2 -0.004063 0.013945 0.000386 0.000000 0.002270 0.000000
# 3 -0.003482 0.000386 0.012050 0.000000 0.002940 0.000000
# 4 0.000000 0.000000 0.000000 0.056855 0.000000 0.000219
# 5 -0.004287 0.002270 0.002940 0.000000 0.053009 0.000000
# 6 0.000000 0.000000 0.000000 0.000219 0.000000 0.059913
#
#
# Mechanical properties :
#
#
# Convention : Reuss Voigt Hill
#
# Bulk Modulus (GPa) = 46.25586 51.51191 48.88388
# Shear Modulus (GPa) = 22.00354 25.93972 23.97163
#
# Velocity S-wave (km/s) = 3.39723 3.68860 3.54591
# Velocity P-wave (km/s) = 6.29684 6.72011 6.51191
#
# Compressibility (1/GPa) = 0.02161888
#
# Stress axis : x y z
#
# Youngs Moduli (GPa) = 100.59042 71.71179 82.98495
#
# Poissons Ratio (x) = 0.29135 0.28897
# Poissons Ratio (y) = 0.40868 -0.03205
# Poissons Ratio (z) = 0.35028 -0.02770
#
# Static dielectric constant tensor:
#      x y z
#    x 1.676370 0.000000 -0.003840 
#    y 0.000000 1.653560 0.000000 
#    z -0.003840 0.000000 1.650110 
# 
# From -- ./inp_files/133874.got.cif
#   From: 2010.05.17/outbox.cif.g08.bks.cpg/sg12_67_cif.got.tgz:133874.got - 2010.06.03 13:09:07.
