data_PCOD9220837
_publ_section_title
;
Structure prediction by ZEFSAII (Michael W. Deem and Ramdas Pophale) SiO2 
 PCOD9220837
Probable space group: C 2/M
;
_chemical_formula_sum "Si O2"
_cell_formula_units_Z 44
_cell_length_a 8.606416
_cell_length_b 22.269921
_cell_length_c 13.374448
_cell_angle_alpha 90.000000
_cell_angle_beta 121.641805
_cell_angle_gamma 90.000000
_cell_volume 2182.338706
_symmetry_space_group_name_H-M "C 2/M"
_symmetry_group_IT_number 12
_symmetry_cell_setting 'monoclinic'
loop_
_space_group_symop_operation_xyz
x,y,z
-x,y,-z
-x,-y,-z
x,-y,z
1/2+x,1/2+y,z
1/2-x,1/2+y,-z
1/2-x,1/2-y,-z
1/2+x,1/2-y,z
loop_
_atom_site_type_symbol
_atom_site_label
_atom_site_fract_x
_atom_site_fract_y
_atom_site_fract_z
Si Si1 0.500000 0.868763 0.500000
Si Si2 0.888104 0.931365 0.654311
Si Si3 0.417391 0.680406 0.364577
Si Si4 0.017026 0.297675 0.297655
Si Si5 0.106416 0.065877 0.930564
Si Si6 0.209438 0.813618 0.037243
O O1 0.682146 0.907936 0.574658
O O2 0.523183 0.828894 0.408131
O O3 0.960096 0.928609 0.792372
O O4 0.017991 0.886245 0.638078
O O5 0.901408 0.000000 0.624607
O O6 0.500000 0.697217 0.500000
O O7 0.201243 0.688285 0.300150
O O8 0.498020 0.726515 0.310793
O O9 0.843667 0.319461 0.176596
O O10 0.226311 0.126444 0.974908
O O11 0.198049 0.000000 0.949558
O O12 0.000000 0.064311 0.000000
O O13 0.250000 0.750000 0.000000
O O14 0.000000 0.810731 0.000000
#
# Coordination Sequence:
#
# PCOD9220837 Si02
#       6
#     4   8   8   8   8   8
#     4  12  21  40  62  96 125 164 218 262 326 382
#     4  11  24  41  64  93 131 173 213 262 318 385
#     4  12  23  44  62  94 131 169 210 265 322 388
#     4  12  24  39  68  95 127 168 214 268 329 383
#     4   9  19  39  63  88 122 166 211 258 312 372
#     4  11  22  39  61  94 125 160 207 264 313 373
#
# _framework density 20.161857000000001
#
# number of rings (size 3 to 8) (size 9 to 14) (size 15 to 20)
#    0.000    0.909    2.727    6.273    0.000    0.364 
#    0.000    1.818    0.000    2.727    0.000    0.000 
#    0.000    0.000    0.000    0.000    0.000    0.000 
#
# Total GULP energy -122978.681390 kJ/mol
# GULP energy per Si atom -5589.940063 kJ/mol
# Density = 2.011597 g / cm^3
# Si number density = 20.161857 Si / 1000 Ang^3
#
#
#
# Elastic Constant Matrix: (Units=GPa)
#
#
# Indices 1 2 3 4 5 6 
#
# 1 96.9733 53.0771 17.7458 0.0000 13.1306 0.0000
# 2 53.0771 204.6226 46.5945 0.0000 7.7856 0.0000
# 3 17.7458 46.5945 108.5002 0.0000 13.4950 0.0000
# 4 0.0000 0.0000 0.0000 21.3766 0.0000 2.9505
# 5 13.1306 7.7856 13.4950 0.0000 19.1703 0.0000
# 6 0.0000 0.0000 0.0000 2.9505 0.0000 24.9825
#
#
#
# Elastic Compliance Matrix: (Units=1/GPa)
#
#
# Indices 1 2 3 4 5 6 
#
# 1 0.013047 -0.003128 0.000179 0.000000 -0.007792 0.000000
# 2 -0.003128 0.006174 -0.002295 0.000000 0.001251 0.000000
# 3 0.000179 -0.002295 0.011039 0.000000 -0.006961 0.000000
# 4 0.000000 0.000000 0.000000 0.047555 0.000000 -0.005616
# 5 -0.007792 0.001251 -0.006961 0.000000 0.061893 0.000000
# 6 0.000000 0.000000 0.000000 -0.005616 0.000000 0.040691
#
#
# Mechanical properties :
#
#
# Convention : Reuss Voigt Hill
#
# Bulk Modulus (GPa) = 50.58338 71.65898 61.12118
# Shear Modulus (GPa) = 25.31929 32.61781 28.96855
#
# Velocity S-wave (km/s) = 3.54757 4.02655 3.79463
# Velocity P-wave (km/s) = 6.47483 7.56548 7.04131
#
# Compressibility (1/GPa) = 0.01976934
#
# Stress axis : x y z
#
# Youngs Moduli (GPa) = 76.64757 161.98148 90.58984
#
# Poissons Ratio (x) = 0.50675 -0.01619
# Poissons Ratio (y) = 0.23979 0.20792
# Poissons Ratio (z) = -0.01370 0.37177
#
# Static dielectric constant tensor:
#      x y z
#    x 1.691870 0.000000 -0.021670 
#    y 0.000000 1.765150 0.000000 
#    z -0.021670 0.000000 1.711040 
# 
# From -- ./inp_files/120947.got.cif
#   From: 2010.05.17/outbox.cif.g08.bks.cpg/sg12_61_cif.got.tgz:120947.got - 2010.06.03 13:09:07.
