data_PCOD9220635
_publ_section_title
;
Structure prediction by ZEFSAII (Michael W. Deem and Ramdas Pophale) SiO2 
 PCOD9220635
Probable space group: C 2/M
;
_chemical_formula_sum "Si O2"
_cell_formula_units_Z 56
_cell_length_a 10.666328
_cell_length_b 28.690676
_cell_length_c 9.097247
_cell_angle_alpha 90.000000
_cell_angle_beta 72.369656
_cell_angle_gamma 90.000000
_cell_volume 2653.215070
_symmetry_space_group_name_H-M "C 2/M"
_symmetry_group_IT_number 12
_symmetry_cell_setting 'monoclinic'
loop_
_space_group_symop_operation_xyz
x,y,z
-x,y,-z
-x,-y,-z
x,-y,z
1/2+x,1/2+y,z
1/2-x,1/2+y,-z
1/2-x,1/2-y,-z
1/2+x,1/2-y,z
loop_
_atom_site_type_symbol
_atom_site_label
_atom_site_fract_x
_atom_site_fract_y
_atom_site_fract_z
Si Si1 0.161496 0.635150 0.649421
Si Si2 0.941064 0.053929 0.758750
Si Si3 0.757476 0.131138 0.932196
Si Si4 0.938200 0.778566 0.858635
Si Si5 0.117073 0.323512 0.234960
Si Si6 0.188804 0.201597 0.575098
Si Si7 0.796467 0.946585 0.489807
O O1 0.167996 0.624932 0.819957
O O2 0.292238 0.665171 0.563367
O O3 0.176842 0.588820 0.547807
O O4 0.030949 0.664326 0.666228
O O5 0.865219 0.089999 0.889240
O O6 0.867429 0.055027 0.625605
O O7 0.091634 0.067230 0.667865
O O8 0.937567 0.000000 0.810060
O O9 0.832185 0.180522 0.892302
O O10 0.669653 0.136751 0.107166
O O11 0.885442 0.727050 0.842672
O O12 0.047893 0.790094 0.696616
O O13 0.000000 0.778219 0.000000
O O14 0.217247 0.318656 0.332180
O O15 0.250000 0.250000 0.500000
O O16 0.759532 0.000000 0.475295
#
# Coordination Sequence:
#
# PCOD9220635 Si02
#       7
#     8   8   8   8   8   8   8
#     4  11  22  37  60  89 119 154 197 246 297 353
#     4   8  15  31  58  89 117 147 195 254 295 339
#     4  11  22  38  61  87 119 157 197 241 305 358
#     4  12  24  40  61  82 115 157 200 245 292 348
#     4  12  25  40  57  83 125 160 191 244 299 361
#     4  12  25  41  60  86 112 155 205 247 287 345
#     4   8  15  31  57  89 118 149 195 249 297 343
#
# _framework density 21.106468
#
# number of rings (size 3 to 8) (size 9 to 14) (size 15 to 20)
#    0.000    1.429    2.857    4.714    0.000    2.857 
#    0.000    0.714    0.000    6.429    0.000    0.000 
#    0.000    0.000    0.000    0.000    0.000    0.000 
#
# Total GULP energy -156530.918336 kJ/mol
# GULP energy per Si atom -5590.389941 kJ/mol
# Density = 2.105843 g / cm^3
# Si number density = 21.106468 Si / 1000 Ang^3
#
#
#
# Elastic Constant Matrix: (Units=GPa)
#
#
# Indices 1 2 3 4 5 6 
#
# 1 41.5038 19.8712 11.3249 0.0000 -9.1984 0.0000
# 2 19.8712 99.5868 24.3261 0.0000 -20.8596 0.0000
# 3 11.3249 24.3261 87.3795 0.0000 -18.5056 0.0000
# 4 0.0000 0.0000 0.0000 33.6820 0.0000 -13.4814
# 5 -9.1984 -20.8596 -18.5056 0.0000 34.3062 0.0000
# 6 0.0000 0.0000 0.0000 -13.4814 0.0000 22.2192
#
#
#
# Elastic Compliance Matrix: (Units=1/GPa)
#
#
# Indices 1 2 3 4 5 6 
#
# 1 0.027430 -0.004276 -0.001533 0.000000 0.003928 0.000000
# 2 -0.004276 0.012474 -0.001755 0.000000 0.005491 0.000000
# 3 -0.001533 -0.001755 0.013343 0.000000 0.005719 0.000000
# 4 0.000000 0.000000 0.000000 0.039212 0.000000 0.023792
# 5 0.003928 0.005491 0.005719 0.000000 0.036626 0.000000
# 6 0.000000 0.000000 0.000000 0.023792 0.000000 0.059442
#
#
# Mechanical properties :
#
#
# Convention : Reuss Voigt Hill
#
# Bulk Modulus (GPa) = 26.23437 37.72383 31.97910
# Shear Modulus (GPa) = 23.10939 29.57135 26.34037
#
# Velocity S-wave (km/s) = 3.31251 3.74713 3.53650
# Velocity P-wave (km/s) = 5.20450 6.05254 5.64447
#
# Compressibility (1/GPa) = 0.03811793
#
# Stress axis : x y z
#
# Youngs Moduli (GPa) = 36.45606 80.16848 74.94607
#
# Poissons Ratio (x) = 0.34282 0.11488
# Poissons Ratio (y) = 0.15589 0.13157
# Poissons Ratio (z) = 0.05588 0.14074
#
# Static dielectric constant tensor:
#      x y z
#    x 1.748330 0.000000 0.017660 
#    y 0.000000 1.782340 0.000000 
#    z 0.017660 0.000000 1.814240 
# 
# From -- ./inp_files/54149.got.cif
#   From: 2010.05.17/outbox.cif.g08.bks.cpg/sg12_28_cif.got.tgz:54149.got - 2010.06.03 13:09:07.
