data_PCOD9220480
_publ_section_title
;
Structure prediction by ZEFSAII (Michael W. Deem and Ramdas Pophale) SiO2 
 PCOD9220480
Probable space group: C 2/M
;
_chemical_formula_sum "Si O2"
_cell_formula_units_Z 64
_cell_length_a 20.391128
_cell_length_b 19.302338
_cell_length_c 10.075816
_cell_angle_alpha 90.000000
_cell_angle_beta 106.651536
_cell_angle_gamma 90.000000
_cell_volume 3799.500173
_symmetry_space_group_name_H-M "C 2/M"
_symmetry_group_IT_number 12
_symmetry_cell_setting 'monoclinic'
loop_
_space_group_symop_operation_xyz
x,y,z
-x,y,-z
-x,-y,-z
x,-y,z
1/2+x,1/2+y,z
1/2-x,1/2+y,-z
1/2-x,1/2-y,-z
1/2+x,1/2-y,z
loop_
_atom_site_type_symbol
_atom_site_label
_atom_site_fract_x
_atom_site_fract_y
_atom_site_fract_z
Si Si1 0.329983 0.281065 0.697941
Si Si2 0.103307 0.080293 0.163463
Si Si3 0.614349 0.078693 0.570345
Si Si4 0.322820 0.775807 0.395993
Si Si5 0.048355 0.795594 0.656016
Si Si6 0.501431 0.078154 0.725738
Si Si7 0.444416 0.420707 0.159515
Si Si8 0.031001 0.716031 0.156815
O O1 0.351942 0.360040 0.742622
O O2 0.329187 0.263603 0.540593
O O3 0.253470 0.265379 0.702678
O O4 0.388832 0.232840 0.793695
O O5 0.025645 0.084749 0.174250
O O6 0.125892 0.000000 0.194648
O O7 0.095287 0.094072 0.000994
O O8 0.665946 0.141703 0.580470
O O9 0.570962 0.088517 0.681101
O O10 0.558759 0.083328 0.419470
O O11 0.642125 0.000000 0.586276
O O12 0.385160 0.748258 0.344202
O O13 0.071086 0.867805 0.732996
O O14 0.000000 0.804096 0.500000
O O15 0.003837 0.756991 0.742059
O O16 0.487343 0.136505 0.825052
O O17 0.501659 0.000000 0.778565
O O18 0.430339 0.500000 0.187901
O O19 0.000000 0.739839 0.000000
#
# Coordination Sequence:
#
# PCOD9220480 Si02
#       8
#     8   8   8   8   8   8   8   8
#     4  11  22  36  53  84 116 142 183 233 279 322
#     4   9  17  34  55  79 110 146 183 222 274 335
#     4   9  16  31  56  82 107 139 181 225 272 327
#     4  11  22  35  55  83 115 145 181 235 277 326
#     4  12  20  35  59  82 111 147 188 227 275 330
#     4   9  17  31  55  83 107 137 183 229 270 321
#     4   9  18  32  56  83 108 140 184 231 273 321
#     4  12  22  35  58  83 113 146 187 228 275 332
#
# _framework density 16.84432
#
# number of rings (size 3 to 8) (size 9 to 14) (size 15 to 20)
#    0.000    1.750    5.000    2.250    0.000    1.000 
#    0.000    3.125    0.000    1.500    0.000    0.000 
#    0.000    0.000    0.000    0.000    0.000    0.000 
#
# Total GULP energy -178456.618161 kJ/mol
# GULP energy per Si atom -5576.769318 kJ/mol
# Density = 1.680598 g / cm^3
# Si number density = 16.844320 Si / 1000 Ang^3
#
#
#
# Elastic Constant Matrix: (Units=GPa)
#
#
# Indices 1 2 3 4 5 6 
#
# 1 66.0444 32.5648 25.7902 0.0000 11.1069 0.0000
# 2 32.5648 118.6645 47.9978 0.0000 0.9009 0.0000
# 3 25.7902 47.9978 70.5354 0.0000 4.7635 0.0000
# 4 0.0000 0.0000 0.0000 1.4438 0.0000 -13.9082
# 5 11.1069 0.9009 4.7635 0.0000 16.8727 0.0000
# 6 0.0000 0.0000 0.0000 -13.9082 0.0000 8.7170
#
#
#
# Elastic Compliance Matrix: (Units=1/GPa)
#
#
# Indices 1 2 3 4 5 6 
#
# 1 0.020747 -0.003957 -0.004063 0.000000 -0.012299 0.000000
# 2 -0.003957 0.012427 -0.007279 0.000000 0.003996 0.000000
# 3 -0.004063 -0.007279 0.020806 0.000000 -0.002811 0.000000
# 4 0.000000 0.000000 0.000000 -0.048200 0.000000 -0.076904
# 5 -0.012299 0.003996 -0.002811 0.000000 0.067944 0.000000
# 6 0.000000 0.000000 0.000000 -0.076904 0.000000 -0.007984
#
#
# Mechanical properties :
#
#
# Convention : Reuss Voigt Hill
#
# Bulk Modulus (GPa) = 42.76751 51.99442 47.38097
# Shear Modulus (GPa) = 48.01541 15.33279 31.67410
#
# Velocity S-wave (km/s) = 5.34484 3.02033 4.34107
# Velocity P-wave (km/s) = 7.97087 6.56490 7.30180
#
# Compressibility (1/GPa) = 0.02338224
#
# Stress axis : x y z
#
# Youngs Moduli (GPa) = 48.19912 80.46932 48.06279
#
# Poissons Ratio (x) = 0.31841 0.19527
# Poissons Ratio (y) = 0.19072 0.34987
# Poissons Ratio (z) = 0.19582 0.58577
#
# Static dielectric constant tensor:
#      x y z
#    x 1.555670 0.000000 -0.003790 
#    y 0.000000 1.606990 0.000000 
#    z -0.003790 0.000000 1.553210 
# 
# From -- ./inp_files/89190.got.cif
#   From: 2010.05.17/outbox.cif.g08.bks.cpg/sg12_45_cif.got.tgz:89190.got - 2010.06.03 13:09:07.
