data_PCOD9220700
_publ_section_title
;
Structure prediction by ZEFSAII (Michael W. Deem and Ramdas Pophale) SiO2 
 PCOD9220700
Probable space group: C 2/M
;
_chemical_formula_sum "Si O2"
_cell_formula_units_Z 56
_cell_length_a 8.750483
_cell_length_b 25.000348
_cell_length_c 15.220354
_cell_angle_alpha 90.000000
_cell_angle_beta 112.081604
_cell_angle_gamma 90.000000
_cell_volume 3085.448283
_symmetry_space_group_name_H-M "C 2/M"
_symmetry_group_IT_number 12
_symmetry_cell_setting 'monoclinic'
loop_
_space_group_symop_operation_xyz
x,y,z
-x,y,-z
-x,-y,-z
x,-y,z
1/2+x,1/2+y,z
1/2-x,1/2+y,-z
1/2-x,1/2-y,-z
1/2+x,1/2-y,z
loop_
_atom_site_type_symbol
_atom_site_label
_atom_site_fract_x
_atom_site_fract_y
_atom_site_fract_z
Si Si1 0.274938 0.846177 0.302589
Si Si2 0.983270 0.176918 0.900291
Si Si3 0.609690 0.153485 0.268422
Si Si4 0.175111 0.235803 0.575765
Si Si5 0.846018 0.292085 0.907905
Si Si6 0.700051 0.437572 0.629202
Si Si7 0.690266 0.564032 0.426250
O O1 0.430306 0.850797 0.271560
O O2 0.306802 0.789197 0.359668
O O3 0.261910 0.894290 0.370956
O O4 0.112479 0.847246 0.204743
O O5 0.166218 0.194507 0.907829
O O6 0.871445 0.228710 0.899923
O O7 0.000000 0.148236 0.000000
O O8 0.727105 0.188895 0.356155
O O9 0.622435 0.181521 0.178512
O O10 0.689215 0.095541 0.281696
O O11 0.250000 0.250000 0.500000
O O12 0.000000 0.217237 0.500000
O O13 0.000000 0.309959 0.000000
O O14 0.727085 0.500000 0.643142
O O15 0.507545 0.428182 0.608356
O O16 0.747141 0.423644 0.538339
O O17 0.720646 0.500000 0.415157
#
# Coordination Sequence:
#
# PCOD9220700 Si02
#       7
#     8   8   8   8   8   8   8
#     4  12  24  38  57  86 117 156 196 235 292 346
#     4  11  22  38  59  83 116 151 191 240 287 347
#     4  12  24  37  59  85 116 156 195 239 287 347
#     4  12  26  38  51  80 121 156 193 233 282 341
#     4  11  22  38  59  84 114 151 193 239 288 345
#     4   9  20  38  59  84 113 154 200 241 287 339
#     4   9  20  38  60  83 114 154 198 243 287 339
#
# _framework density 18.149712000000001
#
# number of rings (size 3 to 8) (size 9 to 14) (size 15 to 20)
#    0.000    1.143    2.857    6.000    6.000    0.571 
#    0.000    1.429    0.000    0.857    0.000    0.000 
#    0.000    0.000    0.000    0.000    0.000    0.000 
#
# Total GULP energy -156141.132743 kJ/mol
# GULP energy per Si atom -5576.469027 kJ/mol
# Density = 1.810840 g / cm^3
# Si number density = 18.149712 Si / 1000 Ang^3
#
#
#
# Elastic Constant Matrix: (Units=GPa)
#
#
# Indices 1 2 3 4 5 6 
#
# 1 68.4089 26.9290 12.9980 0.0000 -0.2198 0.0000
# 2 26.9290 39.7744 21.0740 0.0000 -3.4097 0.0000
# 3 12.9980 21.0740 89.0131 0.0000 2.2505 0.0000
# 4 0.0000 0.0000 0.0000 25.3299 0.0000 -3.6443
# 5 -0.2198 -3.4097 2.2505 0.0000 32.6878 0.0000
# 6 0.0000 0.0000 0.0000 -3.6443 0.0000 22.5042
#
#
#
# Elastic Compliance Matrix: (Units=1/GPa)
#
#
# Indices 1 2 3 4 5 6 
#
# 1 0.019995 -0.013862 0.000396 0.000000 -0.001339 0.000000
# 2 -0.013862 0.038758 -0.007264 0.000000 0.004450 0.000000
# 3 0.000396 -0.007264 0.012938 0.000000 -0.001646 0.000000
# 4 0.000000 0.000000 0.000000 0.040421 0.000000 0.006546
# 5 -0.001339 0.004450 -0.001646 0.000000 0.031161 0.000000
# 6 0.000000 0.000000 0.000000 0.006546 0.000000 0.045496
#
#
# Mechanical properties :
#
#
# Convention : Reuss Voigt Hill
#
# Bulk Modulus (GPa) = 33.08002 35.46650 34.27326
# Shear Modulus (GPa) = 20.80680 25.18408 22.99544
#
# Velocity S-wave (km/s) = 3.38952 3.72906 3.56334
# Velocity P-wave (km/s) = 5.79519 6.17452 5.98786
#
# Compressibility (1/GPa) = 0.03022973
#
# Stress axis : x y z
#
# Youngs Moduli (GPa) = 50.01175 25.80145 77.29230
#
# Poissons Ratio (x) = 0.35767 -0.03061
# Poissons Ratio (y) = 0.69328 0.56147
# Poissons Ratio (z) = -0.01980 0.18743
#
# Static dielectric constant tensor:
#      x y z
#    x 1.609870 0.000000 0.001400 
#    y 0.000000 1.623890 0.000000 
#    z 0.001400 0.000000 1.638400 
# 
# From -- ./inp_files/199920.got.cif
#   From: 2010.05.17/outbox.cif.g08.bks.cpg/sg12_100_cif.got.tgz:199920.got - 2010.06.03 13:09:07.
