data_PCOD9220106
_publ_section_title
;
Structure prediction by ZEFSAII (Michael W. Deem and Ramdas Pophale) SiO2 
 PCOD9220106
Probable space group: C 2/M
;
_chemical_formula_sum "Si O2"
_cell_formula_units_Z 40
_cell_length_a 17.444863
_cell_length_b 21.861703
_cell_length_c 11.018766
_cell_angle_alpha 90.000000
_cell_angle_beta 31.289935
_cell_angle_gamma 90.000000
_cell_volume 2182.531599
_symmetry_space_group_name_H-M "C 2/M"
_symmetry_group_IT_number 12
_symmetry_cell_setting 'monoclinic'
loop_
_space_group_symop_operation_xyz
x,y,z
-x,y,-z
-x,-y,-z
x,-y,z
1/2+x,1/2+y,z
1/2-x,1/2+y,-z
1/2-x,1/2-y,-z
1/2+x,1/2-y,z
loop_
_atom_site_type_symbol
_atom_site_label
_atom_site_fract_x
_atom_site_fract_y
_atom_site_fract_z
Si Si1 0.744240 0.000000 0.636992
Si Si2 0.812251 0.868803 0.460980
Si Si3 0.000000 0.288199 0.500000
Si Si4 0.231634 0.285859 0.791515
Si Si5 0.551348 0.000000 0.129895
Si Si6 0.000000 0.810967 0.000000
Si Si7 0.998550 0.634226 0.745904
O O1 0.826569 0.062479 0.492103
O O2 0.595195 0.000000 0.756710
O O3 0.688097 0.000000 0.851396
O O4 0.809714 0.821362 0.575297
O O5 0.934185 0.851075 0.197752
O O6 0.651897 0.863386 0.613032
O O7 0.856278 0.245559 0.704028
O O8 0.015583 0.329897 0.597716
O O9 0.128171 0.233074 0.876437
O O10 0.126649 0.332694 0.004717
O O11 0.544763 0.936793 0.211569
#
# Coordination Sequence:
#
# PCOD9220106 Si02
#       7
#     4   8   4   8   4   4   8
#     4   9  18  35  62  92 112 147 204 255 293 340
#     4  11  21  38  64  91 119 155 204 252 292 348
#     4  12  26  37  56  95 130 158 190 240 314 360
#     4  12  22  40  63  87 124 160 200 245 294 358
#     4   9  18  35  64  88 112 153 202 251 291 344
#     4  12  22  35  62  89 124 158 192 246 306 344
#     4  11  21  39  62  91 121 156 203 248 292 355
#
# _framework density 18.327341000000001
#
# number of rings (size 3 to 8) (size 9 to 14) (size 15 to 20)
#    0.000    1.000    6.000    2.400    0.000    0.800 
#    0.000    0.000    0.000    4.800    0.000    0.000 
#    0.000    0.000    0.000    0.000    0.000    0.000 
#
# Total GULP energy -111762.047702 kJ/mol
# GULP energy per Si atom -5588.102385 kJ/mol
# Density = 1.828563 g / cm^3
# Si number density = 18.327341 Si / 1000 Ang^3
#
#
#
# Elastic Constant Matrix: (Units=GPa)
#
#
# Indices 1 2 3 4 5 6 
#
# 1 33.3512 13.6638 -9.5658 0.0004 -1.7318 0.0001
# 2 13.6638 124.3811 38.9570 0.0016 3.7779 -0.0004
# 3 -9.5658 38.9570 71.6657 0.0011 19.3620 0.0004
# 4 0.0004 0.0016 0.0011 -14.0969 0.0006 11.3744
# 5 -1.7318 3.7779 19.3620 0.0006 28.8481 -0.0002
# 6 0.0001 -0.0004 0.0004 11.3744 -0.0002 14.1426
#
#
#
# Elastic Compliance Matrix: (Units=1/GPa)
#
#
# Indices 1 2 3 4 5 6 
#
# 1 0.035163 -0.006634 0.009155 0.000000 -0.003165 -0.000001
# 2 -0.006634 0.011126 -0.007857 0.000001 0.003418 0.000000
# 3 0.009155 -0.007857 0.023233 0.000000 -0.014015 -0.000001
# 4 0.000000 0.000001 0.000000 -0.043020 0.000001 0.034599
# 5 -0.003165 0.003418 -0.014015 0.000001 0.043433 0.000000
# 6 -0.000001 0.000000 -0.000001 0.034599 0.000000 0.042881
#
#
# Mechanical properties :
#
#
# Convention : Reuss Voigt Hill
#
# Bulk Modulus (GPa) = 16.99243 35.05643 26.02443
# Shear Modulus (GPa) = 34.93955 18.20162 26.57058
#
# Velocity S-wave (km/s) = 4.37099 3.15483 3.81173
# Velocity P-wave (km/s) = 5.89626 5.69562 5.79681
#
# Compressibility (1/GPa) = 0.05884975
#
# Stress axis : x y z
#
# Youngs Moduli (GPa) = 28.43873 89.88341 43.04254
#
# Poissons Ratio (x) = 0.59629 -0.39404
# Poissons Ratio (y) = 0.18866 0.33817
# Poissons Ratio (z) = -0.26035 0.70618
#
# Static dielectric constant tensor:
#      x y z
#    x 1.607950 0.000000 -0.005430 
#    y 0.000000 1.625000 0.000000 
#    z -0.005430 0.000000 1.618320 
# 
# From -- ./inp_files/51028.got.cif
#   From: 2010.05.17/outbox.cif.g08.bks.cpg/sg12_26_cif.got.tgz:51028.got - 2010.06.03 13:09:07.
