data_PCOD9220870
_publ_section_title
;
Structure prediction by ZEFSAII (Michael W. Deem and Ramdas Pophale) SiO2 
 PCOD9220870
Probable space group: C 2/M
;
_chemical_formula_sum "Si O2"
_cell_formula_units_Z 56
_cell_length_a 9.528536
_cell_length_b 15.957179
_cell_length_c 18.649579
_cell_angle_alpha 90.000000
_cell_angle_beta 68.499443
_cell_angle_gamma 90.000000
_cell_volume 2638.320593
_symmetry_space_group_name_H-M "C 2/M"
_symmetry_group_IT_number 12
_symmetry_cell_setting 'monoclinic'
loop_
_space_group_symop_operation_xyz
x,y,z
-x,y,-z
-x,-y,-z
x,-y,z
1/2+x,1/2+y,z
1/2-x,1/2+y,-z
1/2-x,1/2-y,-z
1/2+x,1/2-y,z
loop_
_atom_site_type_symbol
_atom_site_label
_atom_site_fract_x
_atom_site_fract_y
_atom_site_fract_z
Si Si1 0.039195 0.328198 0.787275
Si Si2 0.063460 0.596599 0.339933
Si Si3 0.918618 0.726237 0.945511
Si Si4 0.592433 0.349558 0.701214
Si Si5 0.294994 0.588864 0.824142
Si Si6 0.509422 0.591585 0.083480
Si Si7 0.580554 0.259631 0.557015
O O1 0.065321 0.239650 0.744259
O O2 0.190446 0.345964 0.804006
O O3 0.994866 0.389330 0.730629
O O4 0.914404 0.326448 0.873319
O O5 0.033858 0.500000 0.367394
O O6 0.242610 0.615192 0.312094
O O7 0.985311 0.670466 0.401885
O O8 0.021876 0.808262 0.904339
O O9 0.750000 0.750000 0.000000
O O10 0.000000 0.687783 0.000000
O O11 0.459111 0.405799 0.757153
O O12 0.571962 0.327845 0.621617
O O13 0.220203 0.500000 0.823915
O O14 0.332947 0.593456 0.901320
O O15 0.440981 0.500000 0.120771
O O16 0.500000 0.584668 0.000000
O O17 0.500000 0.287363 0.500000
O O18 0.750000 0.250000 0.500000
#
# Coordination Sequence:
#
# PCOD9220870 Si02
#       7
#     8   8   8   8   8   8   8
#     4  11  23  41  64  93 132 170 220 278 328 393
#     4  11  25  43  68 102 135 173 217 271 328 386
#     4  11  23  37  61  89 121 168 225 271 329 393
#     4  11  23  41  70  93 128 173 224 260 314 395
#     4  11  22  39  64  94 128 169 217 274 330 386
#     4   9  19  36  57  85 121 161 210 270 328 378
#     4  11  23  45  70 101 135 176 213 263 323 389
#
# _framework density 21.225622999999999
#
# number of rings (size 3 to 8) (size 9 to 14) (size 15 to 20)
#    0.000    1.286    2.857    3.429    4.000    0.286 
#    0.000    2.857    0.000    6.000    0.000    0.000 
#    0.000    0.000    0.000    0.000    0.000    0.000 
#
# Total GULP energy -155904.456134 kJ/mol
# GULP energy per Si atom -5568.016290 kJ/mol
# Density = 2.117731 g / cm^3
# Si number density = 21.225623 Si / 1000 Ang^3
#
#
#
# Elastic Constant Matrix: (Units=GPa)
#
#
# Indices 1 2 3 4 5 6 
#
# 1 116.7239 -5.3311 53.2888 0.0000 13.8209 0.0000
# 2 -5.3311 69.3908 9.6289 0.0000 10.3032 0.0000
# 3 53.2888 9.6289 100.8995 0.0000 25.2251 0.0000
# 4 0.0000 0.0000 0.0000 16.1611 0.0000 -5.1828
# 5 13.8209 10.3032 25.2251 0.0000 51.2574 0.0000
# 6 0.0000 0.0000 0.0000 -5.1828 0.0000 -25.5811
#
#
#
# Elastic Compliance Matrix: (Units=1/GPa)
#
#
# Indices 1 2 3 4 5 6 
#
# 1 0.011504 0.001801 -0.006136 0.000000 -0.000444 0.000000
# 2 0.001801 0.015188 -0.001729 0.000000 -0.002688 0.000000
# 3 -0.006136 -0.001729 0.014614 0.000000 -0.005190 0.000000
# 4 0.000000 0.000000 0.000000 0.058102 0.000000 -0.011772
# 5 -0.000444 -0.002688 -0.005190 0.000000 0.022723 0.000000
# 6 0.000000 0.000000 0.000000 -0.011772 0.000000 -0.036706
#
#
# Mechanical properties :
#
#
# Convention : Reuss Voigt Hill
#
# Bulk Modulus (GPa) = 34.27189 44.68747 39.47968
# Shear Modulus (GPa) = 46.60744 23.66266 35.13505
#
# Velocity S-wave (km/s) = 4.69103 3.34251 4.07297
# Velocity P-wave (km/s) = 6.74704 5.99964 6.38429
#
# Compressibility (1/GPa) = 0.02917843
#
# Stress axis : x y z
#
# Youngs Moduli (GPa) = 86.92991 65.83931 68.42688
#
# Poissons Ratio (x) = -0.11859 0.41989
# Poissons Ratio (y) = -0.15658 0.11829
# Poissons Ratio (z) = 0.53343 0.11382
#
# Static dielectric constant tensor:
#      x y z
#    x 1.750940 0.000000 -0.016120 
#    y 0.000000 1.838930 0.000000 
#    z -0.016120 0.000000 1.798660 
# 
# From -- ./inp_files/256993.got.cif
#   From: 2010.05.17/outbox.cif.g08.bks.cpg/sg12_129_cif.got.tgz:256993.got - 2010.06.03 13:09:07.
