data_PCOD9220566
_publ_section_title
;
Structure prediction by ZEFSAII (Michael W. Deem and Ramdas Pophale) SiO2 
 PCOD9220566
Probable space group: C 2/M
;
_chemical_formula_sum "Si O2"
_cell_formula_units_Z 40
_cell_length_a 16.698399
_cell_length_b 8.548470
_cell_length_c 15.698792
_cell_angle_alpha 90.000000
_cell_angle_beta 127.505948
_cell_angle_gamma 90.000000
_cell_volume 1777.712464
_symmetry_space_group_name_H-M "C 2/M"
_symmetry_group_IT_number 12
_symmetry_cell_setting 'monoclinic'
loop_
_space_group_symop_operation_xyz
x,y,z
-x,y,-z
-x,-y,-z
x,-y,z
1/2+x,1/2+y,z
1/2-x,1/2+y,-z
1/2-x,1/2-y,-z
1/2+x,1/2-y,z
loop_
_atom_site_type_symbol
_atom_site_label
_atom_site_fract_x
_atom_site_fract_y
_atom_site_fract_z
Si Si1 0.398033 0.316945 0.960424
Si Si2 0.247207 0.686099 0.273316
Si Si3 0.153783 0.186792 0.386514
Si Si4 0.142150 0.320874 0.908180
Si Si5 0.948643 0.321161 0.336655
O O1 0.390886 0.500000 0.934183
O O2 0.307722 0.236193 0.850580
O O3 0.500000 0.234666 0.000000
O O4 0.417404 0.301427 0.073923
O O5 0.250265 0.500000 0.282024
O O6 0.177722 0.751353 0.305835
O O7 0.364570 0.746540 0.345811
O O8 0.250000 0.250000 0.500000
O O9 0.053968 0.242662 0.374455
O O10 0.151871 0.000000 0.382425
O O11 0.135589 0.500000 0.935508
O O12 0.111165 0.323548 0.791619
O O13 0.250000 0.250000 0.000000
O O14 0.968864 0.500000 0.376271
#
# Coordination Sequence:
#
# PCOD9220566 Si02
#       5
#     8   8   8   8   8
#     4  11  23  38  59  90 131 176 224 273 327 390
#     4  12  25  43  69 100 135 177 227 277 337 404
#     4  12  27  49  74 101 134 172 222 283 346 407
#     4  11  22  36  60  91 131 173 217 264 320 387
#     4  11  24  44  70 102 139 180 227 279 337 400
#
# _framework density 22.500827000000001
#
# number of rings (size 3 to 8) (size 9 to 14) (size 15 to 20)
#    0.000    0.600    2.000    6.600    0.000    8.000 
#    0.000    4.000    0.000    0.000    0.000    0.000 
#    0.000    0.000    0.000    0.000    0.000    0.000 
#
# Total GULP energy -111400.064907 kJ/mol
# GULP energy per Si atom -5570.003245 kJ/mol
# Density = 2.244961 g / cm^3
# Si number density = 22.500827 Si / 1000 Ang^3
#
#
#
# Elastic Constant Matrix: (Units=GPa)
#
#
# Indices 1 2 3 4 5 6 
#
# 1 141.2531 60.6738 15.6584 0.0000 20.2564 0.0000
# 2 60.6738 174.4747 25.6990 0.0000 17.7361 0.0000
# 3 15.6584 25.6990 56.6103 0.0000 -0.9791 0.0000
# 4 0.0000 0.0000 0.0000 16.4966 0.0000 -7.3412
# 5 20.2564 17.7361 -0.9791 0.0000 34.3769 0.0000
# 6 0.0000 0.0000 0.0000 -7.3412 0.0000 32.8115
#
#
#
# Elastic Compliance Matrix: (Units=1/GPa)
#
#
# Indices 1 2 3 4 5 6 
#
# 1 0.008869 -0.002472 -0.001400 0.000000 -0.003990 0.000000
# 2 -0.002472 0.007217 -0.002633 0.000000 -0.002342 0.000000
# 3 -0.001400 -0.002633 0.019294 0.000000 0.002733 0.000000
# 4 0.000000 0.000000 0.000000 0.067322 0.000000 0.015063
# 5 -0.003990 -0.002342 0.002733 0.000000 0.032726 0.000000
# 6 0.000000 0.000000 0.000000 0.015063 0.000000 0.033847
#
#
# Mechanical properties :
#
#
# Convention : Reuss Voigt Hill
#
# Bulk Modulus (GPa) = 44.70244 64.04449 54.37347
# Shear Modulus (GPa) = 26.35149 34.75746 30.55447
#
# Velocity S-wave (km/s) = 3.42590 3.93456 3.68900
# Velocity P-wave (km/s) = 5.96315 7.01184 6.50865
#
# Compressibility (1/GPa) = 0.02237014
#
# Stress axis : x y z
#
# Youngs Moduli (GPa) = 112.75418 138.55948 51.82862
#
# Poissons Ratio (x) = 0.34257 0.07255
# Poissons Ratio (y) = 0.27877 0.13646
# Poissons Ratio (z) = 0.15783 0.36482
#
# Static dielectric constant tensor:
#      x y z
#    x 1.763290 0.000000 0.127710 
#    y 0.000000 1.758420 0.000000 
#    z 0.127710 0.000000 1.695390 
# 
# From -- ./inp_files/221241.got.cif
#   From: 2010.05.17/outbox.cif.g08.bks.cpg/sg12_111_cif.got.tgz:221241.got - 2010.06.03 13:09:07.
