data_PCOD9220761
_publ_section_title
;
Structure prediction by ZEFSAII (Michael W. Deem and Ramdas Pophale) SiO2 
 PCOD9220761
Probable space group: C 2/M
;
_chemical_formula_sum "Si O2"
_cell_formula_units_Z 56
_cell_length_a 24.203949
_cell_length_b 21.695409
_cell_length_c 5.509748
_cell_angle_alpha 90.000000
_cell_angle_beta 127.203069
_cell_angle_gamma 90.000000
_cell_volume 2304.465663
_symmetry_space_group_name_H-M "C 2/M"
_symmetry_group_IT_number 12
_symmetry_cell_setting 'monoclinic'
loop_
_space_group_symop_operation_xyz
x,y,z
-x,y,-z
-x,-y,-z
x,-y,z
1/2+x,1/2+y,z
1/2-x,1/2+y,-z
1/2-x,1/2-y,-z
1/2+x,1/2-y,z
loop_
_atom_site_type_symbol
_atom_site_label
_atom_site_fract_x
_atom_site_fract_y
_atom_site_fract_z
Si Si1 0.704332 0.333441 0.176690
Si Si2 0.281046 0.930928 0.046069
Si Si3 0.159546 0.933749 0.377974
Si Si4 0.459944 0.392734 0.632604
Si Si5 0.576070 0.870244 0.688451
Si Si6 0.337140 0.785204 0.783918
Si Si7 0.434170 0.745480 0.647238
O O1 0.743826 0.374746 0.086253
O O2 0.650249 0.378295 0.166160
O O3 0.672793 0.266310 0.032068
O O4 0.764268 0.314625 0.526250
O O5 0.361816 0.913371 0.238809
O O6 0.273492 0.000000 0.134690
O O7 0.238979 0.933891 0.681042
O O8 0.112329 0.924954 0.490500
O O9 0.142870 0.000000 0.223391
O O10 0.500000 0.415845 0.500000
O O11 0.443057 0.320528 0.544481
O O12 0.500000 0.398483 0.000000
O O13 0.500000 0.899679 0.500000
O O14 0.565516 0.808473 0.501323
O O15 0.608518 0.839146 0.015864
O O16 0.366334 0.747308 0.634796
O O17 0.500000 0.748265 0.000000
#
# Coordination Sequence:
#
# PCOD9220761 Si02
#       7
#     8   8   8   8   8   8   8
#     4  11  23  42  67  95 132 170 225 287 354 417
#     4  11  26  44  65  95 133 185 241 286 341 415
#     4  11  25  44  68  94 132 183 234 289 340 413
#     4  11  27  46  69 103 144 186 234 294 363 434
#     4  12  24  40  68  96 138 177 223 289 351 420
#     4  11  23  38  64 103 128 166 222 285 354 427
#     4  11  22  38  62  96 134 173 216 277 360 420
#
# _framework density 24.300643000000001
#
# number of rings (size 3 to 8) (size 9 to 14) (size 15 to 20)
#    0.000    0.857    5.714    0.857    6.000    1.429 
#    0.000    0.000    0.000    1.286    0.000    0.000 
#    0.000    0.000    0.000    0.000    0.000    0.000 
#
# Total GULP energy -156525.215981 kJ/mol
# GULP energy per Si atom -5590.186285 kJ/mol
# Density = 2.424533 g / cm^3
# Si number density = 24.300643 Si / 1000 Ang^3
#
#
#
# Elastic Constant Matrix: (Units=GPa)
#
#
# Indices 1 2 3 4 5 6 
#
# 1 126.5617 10.5418 10.0473 0.0000 14.0518 0.0000
# 2 10.5418 93.2795 2.6903 0.0000 -3.7136 0.0000
# 3 10.0473 2.6903 65.4049 0.0000 15.4986 0.0000
# 4 0.0000 0.0000 0.0000 25.7338 0.0000 38.9566
# 5 14.0518 -3.7136 15.4986 0.0000 35.4065 0.0000
# 6 0.0000 0.0000 0.0000 38.9566 0.0000 208.9522
#
#
#
# Elastic Compliance Matrix: (Units=1/GPa)
#
#
# Indices 1 2 3 4 5 6 
#
# 1 0.008386 -0.001063 -0.000479 0.000000 -0.003230 0.000000
# 2 -0.001063 0.010937 -0.000735 0.000000 0.001890 0.000000
# 3 -0.000479 -0.000735 0.017145 0.000000 -0.007392 0.000000
# 4 0.000000 0.000000 0.000000 0.054140 0.000000 -0.010094
# 5 -0.003230 0.001890 -0.007392 0.000000 0.032959 0.000000
# 6 0.000000 0.000000 0.000000 -0.010094 0.000000 0.006668
#
#
# Mechanical properties :
#
#
# Convention : Reuss Voigt Hill
#
# Bulk Modulus (GPa) = 31.33271 36.86722 34.09996
# Shear Modulus (GPa) = 34.38178 71.48294 52.93236
#
# Velocity S-wave (km/s) = 3.76553 5.42954 4.67221
# Velocity P-wave (km/s) = 5.64158 7.38314 6.57032
#
# Compressibility (1/GPa) = 0.03191553
#
# Stress axis : x y z
#
# Youngs Moduli (GPa) = 119.23991 91.43277 58.32682
#
# Poissons Ratio (x) = 0.09715 0.02795
# Poissons Ratio (y) = 0.12670 0.04285
# Poissons Ratio (z) = 0.05714 0.06717
#
# Static dielectric constant tensor:
#      x y z
#    x 2.001080 0.000000 -0.030030 
#    y 0.000000 1.912050 0.000000 
#    z -0.030030 0.000000 2.030070 
# 
# From -- ./inp_files/26122.got.cif
#   From: 2010.05.17/outbox.cif.g08.bks.cpg/sg12_14_cif.got.tgz:26122.got - 2010.06.03 13:09:07.
