data_PCOD9220697
_publ_section_title
;
Structure prediction by ZEFSAII (Michael W. Deem and Ramdas Pophale) SiO2 
 PCOD9220697
Probable space group: C 2/M
;
_chemical_formula_sum "Si O2"
_cell_formula_units_Z 64
_cell_length_a 19.631290
_cell_length_b 9.072178
_cell_length_c 19.763114
_cell_angle_alpha 90.000000
_cell_angle_beta 89.998992
_cell_angle_gamma 90.000000
_cell_volume 3519.782090
_symmetry_space_group_name_H-M "C 2/M"
_symmetry_group_IT_number 12
_symmetry_cell_setting 'monoclinic'
loop_
_space_group_symop_operation_xyz
x,y,z
-x,y,-z
-x,-y,-z
x,-y,z
1/2+x,1/2+y,z
1/2-x,1/2+y,-z
1/2-x,1/2-y,-z
1/2+x,1/2-y,z
loop_
_atom_site_type_symbol
_atom_site_label
_atom_site_fract_x
_atom_site_fract_y
_atom_site_fract_z
Si Si1 0.327283 0.325116 0.720817
Si Si2 0.218434 0.828335 0.934713
Si Si3 0.524116 0.324253 0.075843
Si Si4 0.834925 0.675770 0.289458
Si Si5 0.819482 0.176550 0.572016
Si Si6 0.828943 0.174985 0.425246
Si Si7 0.400809 0.822852 0.146871
Si Si8 0.856462 0.330213 0.855609
O O1 0.334473 0.500000 0.734065
O O2 0.245841 0.291592 0.720394
O O3 0.353268 0.293408 0.644654
O O4 0.361753 0.234816 0.780477
O O5 0.153476 0.743145 0.906099
O O6 0.277976 0.823169 0.878575
O O7 0.201972 0.000000 0.948524
O O8 0.250000 0.750000 0.000000
O O9 0.521481 0.500000 0.083275
O O10 0.472947 0.246171 0.127867
O O11 0.598709 0.264305 0.092656
O O12 0.500000 0.286773 0.000000
O O13 0.839755 0.500000 0.297340
O O14 0.859706 0.750547 0.358716
O O15 0.875409 0.718721 0.222072
O O16 0.856546 0.208981 0.500932
O O17 0.748842 0.265957 0.572326
O O18 0.803542 0.000000 0.571922
O O19 0.829665 0.000000 0.416444
O O20 0.402008 0.000000 0.142039
O O21 0.878396 0.500000 0.858327
#
# Coordination Sequence:
#
# PCOD9220697 Si02
#       8
#     8   8   8   8   8   8   8   8
#     4   9  16  30  50  72 104 142 178 216 261 315
#     4  11  23  37  56  82 110 138 175 220 267 323
#     4  11  25  43  61  80 105 139 178 222 272 328
#     4   9  18  31  48  73 106 142 175 214 266 317
#     4   8  15  26  39  63 100 140 177 213 261 311
#     4   9  15  23  40  66  99 138 177 217 257 306
#     4  11  22  38  59  81 108 142 179 222 271 321
#     4  11  23  37  55  81 109 139 177 222 267 317
#
# _framework density 18.182943000000002
#
# number of rings (size 3 to 8) (size 9 to 14) (size 15 to 20)
#    0.000    2.125    1.250    3.375    0.000    8.000 
#    0.000    0.000    0.000    0.000    0.000    0.875 
#    0.000    7.000    0.000    0.000    0.000    0.000 
#
# Total GULP energy -178471.552815 kJ/mol
# GULP energy per Si atom -5577.236025 kJ/mol
# Density = 1.814156 g / cm^3
# Si number density = 18.182943 Si / 1000 Ang^3
#
#
#
# Elastic Constant Matrix: (Units=GPa)
#
#
# Indices 1 2 3 4 5 6 
#
# 1 21.1683 5.9430 -12.4735 0.0000 -2.5914 0.0000
# 2 5.9430 46.5178 35.1272 0.0000 -0.1377 0.0000
# 3 -12.4735 35.1272 100.7268 0.0000 -1.7238 0.0000
# 4 0.0000 0.0000 0.0000 31.3620 0.0000 2.2053
# 5 -2.5914 -0.1377 -1.7238 0.0000 17.1808 0.0000
# 6 0.0000 0.0000 0.0000 2.2053 0.0000 22.9288
#
#
#
# Elastic Compliance Matrix: (Units=1/GPa)
#
#
# Indices 1 2 3 4 5 6 
#
# 1 0.062397 -0.018887 0.014497 0.000000 0.010715 0.000000
# 2 -0.018887 0.034910 -0.014582 0.000000 -0.004032 0.000000
# 3 0.014497 -0.014582 0.016873 0.000000 0.003763 0.000000
# 4 0.000000 0.000000 0.000000 0.032103 0.000000 -0.003088
# 5 0.010715 -0.004032 0.003763 0.000000 0.060166 0.000000
# 6 0.000000 0.000000 0.000000 -0.003088 0.000000 0.043910
#
#
# Mechanical properties :
#
#
# Convention : Reuss Voigt Hill
#
# Bulk Modulus (GPa) = 13.11738 25.06739 19.09239
# Shear Modulus (GPa) = 15.93804 23.61540 19.77672
#
# Velocity S-wave (km/s) = 2.96385 3.60775 3.30154
# Velocity P-wave (km/s) = 4.35228 5.58307 5.00564
#
# Compressibility (1/GPa) = 0.07623471
#
# Stress axis : x y z
#
# Youngs Moduli (GPa) = 16.02641 28.64531 59.26681
#
# Poissons Ratio (x) = 0.54103 -0.85919
# Poissons Ratio (y) = 0.30269 0.86424
# Poissons Ratio (z) = -0.23233 0.41771
#
# Static dielectric constant tensor:
#      x y z
#    x 1.608500 0.000000 -0.015500 
#    y 0.000000 1.606880 0.000000 
#    z -0.015500 0.000000 1.668950 
# 
# From -- ./inp_files/281231.got.cif
#   From: 2010.05.17/outbox.cif.g08.bks.cpg/sg12_141_cif.got.tgz:281231.got - 2010.06.03 13:09:07.
