data_PCOD9220674
_publ_section_title
;
Structure prediction by ZEFSAII (Michael W. Deem and Ramdas Pophale) SiO2 
 PCOD9220674
Probable space group: C 2/M
;
_chemical_formula_sum "Si O2"
_cell_formula_units_Z 56
_cell_length_a 8.630999
_cell_length_b 18.182857
_cell_length_c 18.828055
_cell_angle_alpha 90.000000
_cell_angle_beta 112.668257
_cell_angle_gamma 90.000000
_cell_volume 2726.550363
_symmetry_space_group_name_H-M "C 2/M"
_symmetry_group_IT_number 12
_symmetry_cell_setting 'monoclinic'
loop_
_space_group_symop_operation_xyz
x,y,z
-x,y,-z
-x,-y,-z
x,-y,z
1/2+x,1/2+y,z
1/2-x,1/2+y,-z
1/2-x,1/2-y,-z
1/2+x,1/2-y,z
loop_
_atom_site_type_symbol
_atom_site_label
_atom_site_fract_x
_atom_site_fract_y
_atom_site_fract_z
Si Si1 0.315081 0.305954 0.949721
Si Si2 0.915976 0.582104 0.289368
Si Si3 0.982750 0.415004 0.079483
Si Si4 0.518753 0.681223 0.324541
Si Si5 0.280815 0.885639 0.757719
Si Si6 0.164613 0.216282 0.208762
Si Si7 0.083036 0.316910 0.590903
O O1 0.164384 0.364227 0.915599
O O2 0.352277 0.272984 0.878351
O O3 0.500000 0.337965 0.000000
O O4 0.250000 0.250000 0.000000
O O5 0.842212 0.500000 0.277792
O O6 0.789951 0.646882 0.241133
O O7 0.976000 0.611185 0.376449
O O8 0.075785 0.582064 0.266471
O O9 0.931191 0.500000 0.075027
O O10 0.158017 0.407364 0.152929
O O11 0.000000 0.395089 0.000000
O O12 0.406340 0.607112 0.306273
O O13 0.515982 0.698471 0.238232
O O14 0.715675 0.674186 0.377093
O O15 0.463246 0.746448 0.368209
O O16 0.292461 0.797307 0.756097
O O17 0.000000 0.309228 0.500000
#
# Coordination Sequence:
#
# PCOD9220674 Si02
#       7
#     8   8   8   8   8   8   8
#     4  12  26  39  63  98 131 174 229 285 337 394
#     4  11  23  42  67  95 133 176 216 269 340 401
#     4  11  26  46  65  93 138 183 226 282 350 399
#     4  11  22  37  65 102 128 172 225 277 327 398
#     4  12  20  40  67  93 131 175 230 277 325 398
#     4  11  22  39  65  93 131 171 226 278 326 396
#     4  11  22  41  67 100 140 173 216 274 341 410
#
# _framework density 20.538774
#
# number of rings (size 3 to 8) (size 9 to 14) (size 15 to 20)
#    0.000    0.714    5.714    3.000    4.000    0.571 
#    0.000    5.714    0.000    0.857    0.000    0.000 
#    0.000    0.000    0.000    0.000    0.000    0.000 
#
# Total GULP energy -155920.157808 kJ/mol
# GULP energy per Si atom -5568.577065 kJ/mol
# Density = 2.049203 g / cm^3
# Si number density = 20.538774 Si / 1000 Ang^3
#
#
#
# Elastic Constant Matrix: (Units=GPa)
#
#
# Indices 1 2 3 4 5 6 
#
# 1 88.5482 17.9285 32.9373 0.0000 12.6597 0.0000
# 2 17.9285 78.5689 29.7093 0.0000 -6.4563 0.0000
# 3 32.9373 29.7093 121.3899 0.0000 -4.0987 0.0000
# 4 0.0000 0.0000 0.0000 9.5766 0.0000 -0.0068
# 5 12.6597 -6.4563 -4.0987 0.0000 29.6877 0.0000
# 6 0.0000 0.0000 0.0000 -0.0068 0.0000 19.3682
#
#
#
# Elastic Compliance Matrix: (Units=1/GPa)
#
#
# Indices 1 2 3 4 5 6 
#
# 1 0.014084 -0.002486 -0.003450 0.000000 -0.007023 0.000000
# 2 -0.002486 0.014665 -0.002784 0.000000 0.003865 0.000000
# 3 -0.003450 -0.002784 0.009931 0.000000 0.002237 0.000000
# 4 0.000000 0.000000 0.000000 0.104421 0.000000 0.000037
# 5 -0.007023 0.003865 0.002237 0.000000 0.037828 0.000000
# 6 0.000000 0.000000 0.000000 0.000037 0.000000 0.051631
#
#
# Mechanical properties :
#
#
# Convention : Reuss Voigt Hill
#
# Bulk Modulus (GPa) = 47.08242 49.96192 48.52217
# Shear Modulus (GPa) = 19.44908 25.58863 22.51885
#
# Velocity S-wave (km/s) = 3.08058 3.53352 3.31480
# Velocity P-wave (km/s) = 5.96882 6.40516 6.19084
#
# Compressibility (1/GPa) = 0.02123935
#
# Stress axis : x y z
#
# Youngs Moduli (GPa) = 71.00202 68.18759 100.69499
#
# Poissons Ratio (x) = 0.16954 0.34741
# Poissons Ratio (y) = 0.17653 0.28035
# Poissons Ratio (z) = 0.24497 0.18984
#
# Static dielectric constant tensor:
#      x y z
#    x 1.931380 0.000000 0.084130 
#    y 0.000000 1.723930 0.000000 
#    z 0.084130 0.000000 1.818620 
# 
# From -- ./inp_files/257189.got.cif
#   From: 2010.05.17/outbox.cif.g08.bks.cpg/sg12_129_cif.got.tgz:257189.got - 2010.06.03 13:09:07.
