data_PCOD9220660
_publ_section_title
;
Structure prediction by ZEFSAII (Michael W. Deem and Ramdas Pophale) SiO2 
 PCOD9220660
Probable space group: C 2/M
;
_chemical_formula_sum "Si O2"
_cell_formula_units_Z 56
_cell_length_a 10.255996
_cell_length_b 21.683252
_cell_length_c 17.640683
_cell_angle_alpha 90.000000
_cell_angle_beta 52.136524
_cell_angle_gamma 90.000000
_cell_volume 3097.107771
_symmetry_space_group_name_H-M "C 2/M"
_symmetry_group_IT_number 12
_symmetry_cell_setting 'monoclinic'
loop_
_space_group_symop_operation_xyz
x,y,z
-x,y,-z
-x,-y,-z
x,-y,z
1/2+x,1/2+y,z
1/2-x,1/2+y,-z
1/2-x,1/2-y,-z
1/2+x,1/2-y,z
loop_
_atom_site_type_symbol
_atom_site_label
_atom_site_fract_x
_atom_site_fract_y
_atom_site_fract_z
Si Si1 0.802382 0.427568 0.572067
Si Si2 0.871199 0.337306 0.985422
Si Si3 0.750001 0.629775 0.750002
Si Si4 0.960258 0.226060 0.847635
Si Si5 0.628797 0.337307 0.514582
Si Si6 0.302381 0.572431 0.072065
Si Si7 0.460254 0.773939 0.347634
O O1 0.780193 0.500000 0.564841
O O2 0.734701 0.410344 0.679556
O O3 0.708110 0.386133 0.544094
O O4 0.000000 0.414798 0.500000
O O5 0.960107 0.283336 0.905453
O O6 0.791885 0.386131 0.955910
O O7 0.719829 0.304330 0.082495
O O8 0.000000 0.363743 0.000000
O O9 0.594660 0.674475 0.818732
O O10 0.765303 0.589655 0.820445
O O11 0.905340 0.674476 0.681273
O O12 0.000009 0.250000 0.749998
O O13 0.500000 0.363743 0.500000
O O14 0.539888 0.283338 0.594552
O O15 0.780169 0.304330 0.417510
O O16 0.280186 0.500000 0.064838
O O17 0.500000 0.585199 0.000000
#
# Coordination Sequence:
#
# PCOD9220660 Si02
#       7
#     8   8   8   8   8   8   8
#     4  11  24  43  64  88 124 170 213 251 297 367
#     4  11  24  39  61  94 127 160 201 252 316 369
#     4  12  21  40  66  94 119 162 212 258 300 364
#     4  11  22  37  62  92 128 158 198 253 316 367
#     4  11  24  39  61  94 127 160 201 252 316 369
#     4  11  24  43  64  88 124 170 213 251 297 367
#     4  11  22  37  62  92 128 158 198 253 316 367
#
# _framework density 18.081385000000001
#
# number of rings (size 3 to 8) (size 9 to 14) (size 15 to 20)
#    0.000    0.857    5.714    2.143    4.000    0.571 
#    0.000    0.000    0.000    1.714    0.000    0.000 
#    0.000    0.000    0.000    0.000    0.000    0.000 
#
# Total GULP energy -156481.651603 kJ/mol
# GULP energy per Si atom -5588.630414 kJ/mol
# Density = 1.804023 g / cm^3
# Si number density = 18.081385 Si / 1000 Ang^3
#
#
#
# Elastic Constant Matrix: (Units=GPa)
#
#
# Indices 1 2 3 4 5 6 
#
# 1 127.1734 52.9825 42.1523 0.0000 14.9854 0.0000
# 2 52.9825 85.7449 41.4612 0.0000 8.3163 0.0000
# 3 42.1523 41.4612 116.0604 0.0000 16.0648 0.0000
# 4 0.0000 0.0000 0.0000 16.7035 0.0000 -14.0963
# 5 14.9854 8.3163 16.0648 0.0000 23.2929 0.0000
# 6 0.0000 0.0000 0.0000 -14.0963 0.0000 14.2036
#
#
#
# Elastic Compliance Matrix: (Units=1/GPa)
#
#
# Indices 1 2 3 4 5 6 
#
# 1 0.011273 -0.005875 -0.001417 0.000000 -0.004177 0.000000
# 2 -0.005875 0.017223 -0.004080 0.000000 0.000445 0.000000
# 3 -0.001417 -0.004080 0.011344 0.000000 -0.005455 0.000000
# 4 0.000000 0.000000 0.000000 0.368488 0.000000 0.365703
# 5 -0.004177 0.000445 -0.005455 0.000000 0.049222 0.000000
# 6 0.000000 0.000000 0.000000 0.365703 0.000000 0.433343
#
#
# Mechanical properties :
#
#
# Convention : Reuss Voigt Hill
#
# Bulk Modulus (GPa) = 58.50078 66.90784 62.70431
# Shear Modulus (GPa) = 5.43871 23.66552 14.55211
#
# Velocity S-wave (km/s) = 1.73621 3.62170 2.84000
# Velocity P-wave (km/s) = 6.03686 7.38736 6.74599
#
# Compressibility (1/GPa) = 0.01709379
#
# Stress axis : x y z
#
# Youngs Moduli (GPa) = 88.70779 58.06283 88.15513
#
# Poissons Ratio (x) = 0.34113 0.12493
# Poissons Ratio (y) = 0.52118 0.35970
# Poissons Ratio (z) = 0.12572 0.23692
#
# Static dielectric constant tensor:
#      x y z
#    x 1.639480 0.000000 -0.004970 
#    y 0.000000 1.615860 0.000000 
#    z -0.004970 0.000000 1.618290 
# 
# From -- ./inp_files/259144.got.cif
#   From: 2010.05.17/outbox.cif.g08.bks.cpg/sg12_130_cif.got.tgz:259144.got - 2010.06.03 13:09:07.
