data_PCOD9220455
_publ_section_title
;
Structure prediction by ZEFSAII (Michael W. Deem and Ramdas Pophale) SiO2 
 PCOD9220455
Probable space group: C 2/M
;
_chemical_formula_sum "Si O2"
_cell_formula_units_Z 50
_cell_length_a 17.826416
_cell_length_b 11.862839
_cell_length_c 7.937191
_cell_angle_alpha 90.000000
_cell_angle_beta 97.577667
_cell_angle_gamma 90.000000
_cell_volume 1663.834634
_symmetry_space_group_name_H-M "C 2/M"
_symmetry_group_IT_number 12
_symmetry_cell_setting 'monoclinic'
loop_
_space_group_symop_operation_xyz
x,y,z
-x,y,-z
-x,-y,-z
x,-y,z
1/2+x,1/2+y,z
1/2-x,1/2+y,-z
1/2-x,1/2-y,-z
1/2+x,1/2-y,z
loop_
_atom_site_type_symbol
_atom_site_label
_atom_site_fract_x
_atom_site_fract_y
_atom_site_fract_z
Si Si1 0.690030 0.375212 0.639432
Si Si2 0.333509 0.624849 0.879283
Si Si3 0.500000 0.000000 0.500000
Si Si4 0.978054 0.349646 0.807618
Si Si5 0.171439 0.375415 0.085681
Si Si6 0.186879 0.374941 0.621345
Si Si7 0.473726 0.378851 0.686260
O O1 0.651258 0.500000 0.617815
O O2 0.743278 0.377374 0.821214
O O3 0.754188 0.374639 0.514666
O O4 0.651058 0.251136 0.616126
O O5 0.351373 0.500000 0.955496
O O6 0.345785 0.745593 0.974166
O O7 0.245090 0.623854 0.797918
O O8 0.385085 0.627368 0.720910
O O9 0.491491 0.095189 0.349020
O O10 0.888306 0.373644 0.775177
O O11 0.004545 0.222059 0.803415
O O12 0.000000 0.387581 0.000000
O O13 0.155559 0.500000 0.002448
O O14 0.147371 0.500000 0.598879
O O15 0.500000 0.368035 0.500000
O O16 0.500135 0.500000 0.752684
#
# Coordination Sequence:
#
# PCOD9220455 Si02
#       7
#     8   8   2   8   8   8   8
#     4   8  13  20  32  51  78 110 139 178 231 269
#     4   8  14  23  37  57  84 119 152 185 232 277
#     4  12  22  36  50  70  96 132 162 206 240 290
#     4  11  22  35  52  72  96 130 167 201 245 296
#     4   9  16  26  40  60  85 115 148 189 235 275
#     4   8  12  19  31  50  77 111 143 177 224 274
#     4   9  17  31  49  70  97 130 161 202 249 285
#
# _framework density 30.051064
#
# number of rings (size 3 to 8) (size 9 to 14) (size 15 to 20)
#    0.000    3.040    1.600    0.240    0.000    0.320 
#    0.000    0.000    0.000    0.000    0.000    0.000 
#    0.000    1.280    1.280   14.880    0.960    3.840 
#
# Total GULP energy -139326.964281 kJ/mol
# GULP energy per Si atom -5573.078571 kJ/mol
# Density = 2.998267 g / cm^3
# Si number density = 30.051064 Si / 1000 Ang^3
#
#
#
# Elastic Constant Matrix: (Units=GPa)
#
#
# Indices 1 2 3 4 5 6 
#
# 1 101.8671 62.4760 30.5753 0.0000 -28.7477 0.0000
# 2 62.4760 419.3997 98.4244 0.0000 -11.0794 0.0000
# 3 30.5753 98.4244 159.3555 0.0000 -5.9198 0.0000
# 4 0.0000 0.0000 0.0000 56.7710 0.0000 -14.6659
# 5 -28.7477 -11.0794 -5.9198 0.0000 50.4459 0.0000
# 6 0.0000 0.0000 0.0000 -14.6659 0.0000 21.8469
#
#
#
# Elastic Compliance Matrix: (Units=1/GPa)
#
#
# Indices 1 2 3 4 5 6 
#
# 1 0.013080 -0.001446 -0.001358 0.000000 0.006977 0.000000
# 2 -0.001446 0.002957 -0.001562 0.000000 -0.000358 0.000000
# 3 -0.001358 -0.001562 0.007492 0.000000 -0.000238 0.000000
# 4 0.000000 0.000000 0.000000 0.021310 0.000000 0.014306
# 5 0.006977 -0.000358 -0.000238 0.000000 0.023693 0.000000
# 6 0.000000 0.000000 0.000000 0.014306 0.000000 0.055377
#
#
# Mechanical properties :
#
#
# Convention : Reuss Voigt Hill
#
# Bulk Modulus (GPa) = 67.57787 118.17486 92.87637
# Shear Modulus (GPa) = 36.34477 58.42251 47.38364
#
# Velocity S-wave (km/s) = 3.48146 4.41399 3.97517
# Velocity P-wave (km/s) = 6.22071 8.08627 7.21405
#
# Compressibility (1/GPa) = 0.01479774
#
# Stress axis : x y z
#
# Youngs Moduli (GPa) = 76.45434 338.19633 133.47894
#
# Poissons Ratio (x) = 0.48887 0.18121
# Poissons Ratio (y) = 0.11052 0.20852
# Poissons Ratio (z) = 0.10379 0.52834
#
# Static dielectric constant tensor:
#      x y z
#    x 2.322020 0.000000 -0.013030 
#    y 0.000000 2.307140 0.000000 
#    z -0.013030 0.000000 2.365450 
# 
# From -- ./inp_files/102510.got.cif
#   From: 2010.05.17/outbox.cif.g08.bks.cpg/sg12_52_cif.got.tgz:102510.got - 2010.06.03 13:09:07.
