data_PCOD9220329
_publ_section_title
;
Structure prediction by ZEFSAII (Michael W. Deem and Ramdas Pophale) SiO2 
 PCOD9220329
Probable space group: C 2/M
;
_chemical_formula_sum "Si O2"
_cell_formula_units_Z 36
_cell_length_a 23.693407
_cell_length_b 16.861508
_cell_length_c 6.359205
_cell_angle_alpha 90.000000
_cell_angle_beta 134.580809
_cell_angle_gamma 90.000000
_cell_volume 1809.531025
_symmetry_space_group_name_H-M "C 2/M"
_symmetry_group_IT_number 12
_symmetry_cell_setting 'monoclinic'
loop_
_space_group_symop_operation_xyz
x,y,z
-x,y,-z
-x,-y,-z
x,-y,z
1/2+x,1/2+y,z
1/2-x,1/2+y,-z
1/2-x,1/2-y,-z
1/2+x,1/2-y,z
loop_
_atom_site_type_symbol
_atom_site_label
_atom_site_fract_x
_atom_site_fract_y
_atom_site_fract_z
Si Si1 0.532054 0.000000 0.836357
Si Si2 0.217967 0.905647 0.387957
Si Si3 0.804868 0.687641 0.267924
Si Si4 0.413259 0.287813 0.869515
Si Si5 0.630729 0.149045 0.974479
O O1 0.500000 0.000000 0.500000
O O2 0.500000 0.000000 0.000000
O O3 0.582117 0.919487 0.958728
O O4 0.249802 0.873929 0.247724
O O5 0.131570 0.869975 0.205351
O O6 0.279540 0.863651 0.708872
O O7 0.221821 0.000000 0.415695
O O8 0.859185 0.736748 0.568872
O O9 0.750000 0.750000 0.000000
O O10 0.862614 0.642887 0.257690
O O11 0.406698 0.233292 0.060587
O O12 0.500000 0.296012 0.000000
#
# Coordination Sequence:
#
# PCOD9220329 Si02
#       5
#     4   8   8   8   8
#     4  12  30  44  64 110 149 179 221 293 364 418
#     4  11  23  41  65  94 130 170 228 277 340 411
#     4  11  21  42  67  92 118 172 227 272 333 413
#     4  11  24  41  64  94 132 169 223 279 344 409
#     4  11  23  42  67  93 131 178 219 273 342 421
#
# _framework density 19.894659000000001
#
# number of rings (size 3 to 8) (size 9 to 14) (size 15 to 20)
#    0.000    0.889    5.556    2.000   10.889    0.444 
#    0.000    0.000    0.000    1.333    0.000    0.000 
#    0.000    0.000    0.000    0.000    0.000    0.000 
#
# Total GULP energy -100394.714414 kJ/mol
# GULP energy per Si atom -5577.484134 kJ/mol
# Density = 1.984938 g / cm^3
# Si number density = 19.894659 Si / 1000 Ang^3
#
#
#
# Elastic Constant Matrix: (Units=GPa)
#
#
# Indices 1 2 3 4 5 6 
#
# 1 165.1221 66.2333 30.1307 0.0000 -2.1322 0.0000
# 2 66.2333 84.6066 5.9212 0.0000 -1.5232 0.0000
# 3 30.1307 5.9212 36.9648 0.0000 -3.9491 0.0000
# 4 0.0000 0.0000 0.0000 19.6645 0.0000 -3.7843
# 5 -2.1322 -1.5232 -3.9491 0.0000 34.1436 0.0000
# 6 0.0000 0.0000 0.0000 -3.7843 0.0000 35.7952
#
#
#
# Elastic Compliance Matrix: (Units=1/GPa)
#
#
# Indices 1 2 3 4 5 6 
#
# 1 0.010482 -0.007700 -0.007369 0.000000 -0.000541 0.000000
# 2 -0.007700 0.017613 0.003531 0.000000 0.000713 0.000000
# 3 -0.007369 0.003531 0.032867 0.000000 0.003499 0.000000
# 4 0.000000 0.000000 0.000000 0.051909 0.000000 0.005488
# 5 -0.000541 0.000713 0.003499 0.000000 0.029691 0.000000
# 6 0.000000 0.000000 0.000000 0.005488 0.000000 0.028517
#
#
# Mechanical properties :
#
#
# Convention : Reuss Voigt Hill
#
# Bulk Modulus (GPa) = 26.39374 54.58487 40.48930
# Shear Modulus (GPa) = 24.17984 30.21453 27.19719
#
# Velocity S-wave (km/s) = 3.49003 3.90131 3.70139
# Velocity P-wave (km/s) = 5.43470 6.91304 6.21796
#
# Compressibility (1/GPa) = 0.03788778
#
# Stress axis : x y z
#
# Youngs Moduli (GPa) = 95.39813 56.77624 30.42530
#
# Poissons Ratio (x) = 0.43718 0.22420
# Poissons Ratio (y) = 0.73457 -0.10744
# Poissons Ratio (z) = 0.70297 -0.20050
#
# Static dielectric constant tensor:
#      x y z
#    x 1.757790 0.000000 -0.023190 
#    y 0.000000 1.674800 0.000000 
#    z -0.023190 0.000000 1.770830 
# 
# From -- ./inp_files/15346.got.cif
#   From: 2010.05.17/outbox.cif.g08.bks.cpg/sg12_8_cif.got.tgz:15346.got - 2010.06.03 13:09:07.
