data_PCOD9220681
_publ_section_title
;
Structure prediction by ZEFSAII (Michael W. Deem and Ramdas Pophale) SiO2 
 PCOD9220681
Probable space group: C 2/M
;
_chemical_formula_sum "Si O2"
_cell_formula_units_Z 34
_cell_length_a 12.895995
_cell_length_b 14.678988
_cell_length_c 9.448711
_cell_angle_alpha 90.000000
_cell_angle_beta 117.297956
_cell_angle_gamma 90.000000
_cell_volume 1589.447782
_symmetry_space_group_name_H-M "C 2/M"
_symmetry_group_IT_number 12
_symmetry_cell_setting 'monoclinic'
loop_
_space_group_symop_operation_xyz
x,y,z
-x,y,-z
-x,-y,-z
x,-y,z
1/2+x,1/2+y,z
1/2-x,1/2+y,-z
1/2-x,1/2-y,-z
1/2+x,1/2-y,z
loop_
_atom_site_type_symbol
_atom_site_label
_atom_site_fract_x
_atom_site_fract_y
_atom_site_fract_z
Si Si1 0.758320 0.604329 0.469756
Si Si2 0.444981 0.256016 0.621465
Si Si3 0.000000 0.000000 0.000000
Si Si4 0.281713 0.632992 0.874272
Si Si5 0.103445 0.689089 0.967680
O O1 0.761369 0.500000 0.521366
O O2 0.633444 0.652967 0.416906
O O3 0.857727 0.670623 0.590747
O O4 0.773563 0.605992 0.309589
O O5 0.500000 0.250781 0.500000
O O6 0.542594 0.246919 0.802794
O O7 0.899815 0.922208 0.963475
O O8 0.190286 0.620724 0.943640
O O9 0.318165 0.739447 0.895552
O O10 0.000000 0.651787 0.000000
#
# Coordination Sequence:
#
# PCOD9220681 Si02
#       5
#     8   8   2   8   8
#     4  11  23  41  67 100 134 176 227 275 336 411
#     4  11  23  42  68  98 134 177 223 278 343 399
#     4  12  20  40  62 102 126 166 228 278 328 418
#     4  11  22  37  70  96 130 173 225 275 335 399
#     4  11  22  42  66  99 131 181 219 280 334 406
#
# _framework density 21.391078
#
# number of rings (size 3 to 8) (size 9 to 14) (size 15 to 20)
#    0.000    0.941    7.059    0.000    0.000    0.941 
#    2.118    0.588   10.353    0.000    0.000    0.000 
#    0.000    0.000    0.000    0.000    0.000    0.000 
#
# Total GULP energy -94748.859852 kJ/mol
# GULP energy per Si atom -5573.462344 kJ/mol
# Density = 2.134239 g / cm^3
# Si number density = 21.391078 Si / 1000 Ang^3
#
#
#
# Elastic Constant Matrix: (Units=GPa)
#
#
# Indices 1 2 3 4 5 6 
#
# 1 138.3014 16.9751 3.5029 0.0000 -1.9219 0.0000
# 2 16.9751 101.3718 6.2394 0.0000 6.4764 0.0000
# 3 3.5029 6.2394 45.2192 0.0000 -4.0186 0.0000
# 4 0.0000 0.0000 0.0000 57.8371 0.0000 47.4209
# 5 -1.9219 6.4764 -4.0186 0.0000 23.2721 0.0000
# 6 0.0000 0.0000 0.0000 47.4209 0.0000 48.1919
#
#
#
# Elastic Compliance Matrix: (Units=1/GPa)
#
#
# Indices 1 2 3 4 5 6 
#
# 1 0.007408 -0.001279 -0.000316 0.000000 0.000913 0.000000
# 2 -0.001279 0.010388 -0.001626 0.000000 -0.003277 0.000000
# 3 -0.000316 -0.001626 0.022750 0.000000 0.004355 0.000000
# 4 0.000000 0.000000 0.000000 0.089488 0.000000 -0.088056
# 5 0.000913 -0.003277 0.004355 0.000000 0.044709 0.000000
# 6 0.000000 0.000000 0.000000 -0.088056 0.000000 0.107398
#
#
# Mechanical properties :
#
#
# Convention : Reuss Voigt Hill
#
# Bulk Modulus (GPa) = 29.32152 37.59191 33.45672
# Shear Modulus (GPa) = 16.66933 43.07188 29.87061
#
# Velocity S-wave (km/s) = 2.79456 4.49212 3.74090
# Velocity P-wave (km/s) = 4.91425 6.67213 5.85949
#
# Compressibility (1/GPa) = 0.03410464
#
# Stress axis : x y z
#
# Youngs Moduli (GPa) = 134.98333 96.26166 43.95552
#
# Poissons Ratio (x) = 0.12316 0.01390
# Poissons Ratio (y) = 0.17270 0.07145
# Poissons Ratio (z) = 0.04268 0.15648
#
# Static dielectric constant tensor:
#      x y z
#    x 1.796590 0.000000 -0.003630 
#    y 0.000000 1.745510 0.000000 
#    z -0.003630 0.000000 1.781940 
# 
# From -- ./inp_files/129456.got.cif
#   From: 2010.05.17/outbox.cif.g08.bks.cpg/sg12_65_cif.got.tgz:129456.got - 2010.06.03 13:09:07.
