data_PCOD9220033
_publ_section_title
;
Structure prediction by ZEFSAII (Michael W. Deem and Ramdas Pophale) SiO2 
 PCOD9220033
Probable space group: C 2/M
;
_chemical_formula_sum "Si O2"
_cell_formula_units_Z 56
_cell_length_a 14.619267
_cell_length_b 21.078331
_cell_length_c 17.033372
_cell_angle_alpha 90.000000
_cell_angle_beta 32.892083
_cell_angle_gamma 90.000000
_cell_volume 2850.420990
_symmetry_space_group_name_H-M "C 2/M"
_symmetry_group_IT_number 12
_symmetry_cell_setting 'monoclinic'
loop_
_space_group_symop_operation_xyz
x,y,z
-x,y,-z
-x,-y,-z
x,-y,z
1/2+x,1/2+y,z
1/2-x,1/2+y,-z
1/2-x,1/2-y,-z
1/2+x,1/2-y,z
loop_
_atom_site_type_symbol
_atom_site_label
_atom_site_fract_x
_atom_site_fract_y
_atom_site_fract_z
Si Si1 0.678351 0.206158 0.340774
Si Si2 0.282259 0.689297 0.816235
Si Si3 0.359122 0.570352 0.986058
Si Si4 0.419429 0.153561 0.890875
Si Si5 0.602551 0.263410 0.668435
Si Si6 0.354107 0.071051 0.171194
Si Si7 0.739084 0.570453 0.759748
O O1 0.500000 0.231925 0.500000
O O2 0.735471 0.250010 0.227467
O O3 0.810908 0.210056 0.315718
O O4 0.655588 0.133143 0.332636
O O5 0.461849 0.693286 0.729482
O O6 0.267334 0.625391 0.775432
O O7 0.138294 0.688345 0.987128
O O8 0.322621 0.500000 0.979426
O O9 0.249385 0.621776 0.020596
O O10 0.302793 0.570671 0.117539
O O11 0.560000 0.578355 0.844249
O O12 0.502704 0.200723 0.768935
O O13 0.553567 0.099922 0.819211
O O14 0.750000 0.250000 0.500000
O O15 0.285759 0.000000 0.232187
O O16 0.500000 0.066517 0.000000
O O17 0.806646 0.500000 0.691796
#
# Coordination Sequence:
#
# PCOD9220033 Si02
#       7
#     8   8   8   8   8   8   8
#     4  12  24  41  63  86 127 169 203 265 314 365
#     4  11  23  41  62  96 123 162 216 257 313 375
#     4   9  18  35  60  93 127 156 196 257 315 368
#     4  11  21  37  64  96 123 159 216 258 303 375
#     4  12  25  40  60  88 129 169 208 256 318 372
#     4   9  19  37  62  92 128 160 199 261 318 366
#     4   9  20  38  60  89 124 163 203 251 314 376
#
# _framework density 19.64622
#
# number of rings (size 3 to 8) (size 9 to 14) (size 15 to 20)
#    0.000    1.571    2.857    3.429    0.000    3.143 
#    0.000    0.714    0.000    4.714    0.000    0.000 
#    0.000    0.000    0.000    0.000    0.000    0.000 
#
# Total GULP energy -156322.238855 kJ/mol
# GULP energy per Si atom -5582.937102 kJ/mol
# Density = 1.960150 g / cm^3
# Si number density = 19.646220 Si / 1000 Ang^3
#
#
#
# Elastic Constant Matrix: (Units=GPa)
#
#
# Indices 1 2 3 4 5 6 
#
# 1 99.5084 44.4233 11.4673 -0.0027 -6.9901 0.0008
# 2 44.4233 134.1010 40.0225 0.0085 6.2013 -0.0029
# 3 11.4673 40.0225 64.5214 0.0093 10.3829 -0.0015
# 4 -0.0027 0.0085 0.0093 -8.6978 -0.0024 -0.6760
# 5 -6.9901 6.2013 10.3829 -0.0024 22.7008 -0.0011
# 6 0.0008 -0.0029 -0.0015 -0.6760 -0.0011 28.7886
#
#
#
# Elastic Compliance Matrix: (Units=1/GPa)
#
#
# Indices 1 2 3 4 5 6 
#
# 1 0.012332 -0.004199 -0.000413 -0.000010 0.005134 -0.000001
# 2 -0.004199 0.010581 -0.005553 0.000006 -0.001644 0.000001
# 3 -0.000413 -0.005553 0.020286 0.000018 -0.007889 0.000001
# 4 -0.000010 0.000006 0.000018 -0.114762 -0.000025 -0.002695
# 5 0.005134 -0.001644 -0.007889 -0.000025 0.049689 0.000001
# 6 -0.000001 0.000001 0.000001 -0.002695 0.000001 0.034673
#
#
# Mechanical properties :
#
#
# Convention : Reuss Voigt Hill
#
# Bulk Modulus (GPa) = 43.72656 54.43966 49.08311
# Shear Modulus (GPa) = 122.68836 22.03949 72.36393
#
# Velocity S-wave (km/s) = 7.91103 3.35299 6.07565
# Velocity P-wave (km/s) = 10.28354 6.53913 8.61717
#
# Compressibility (1/GPa) = 0.02286939
#
# Stress axis : x y z
#
# Youngs Moduli (GPa) = 81.08753 94.50502 49.29522
#
# Poissons Ratio (x) = 0.39687 0.02036
# Poissons Ratio (y) = 0.34052 0.27372
# Poissons Ratio (z) = 0.03349 0.52476
#
# Static dielectric constant tensor:
#      x y z
#    x 1.698750 0.000000 -0.009400 
#    y 0.000000 1.714360 0.000000 
#    z -0.009400 0.000000 1.658680 
# 
# From -- ./inp_files/272329.got.cif
#   From: 2010.05.17/outbox.cif.g08.bks.cpg/sg12_137_cif.got.tgz:272329.got - 2010.06.03 13:09:07.
