data_PCOD9220056
_publ_section_title
;
Structure prediction by ZEFSAII (Michael W. Deem and Ramdas Pophale) SiO2 
 PCOD9220056
Probable space group: C 2/M
;
_chemical_formula_sum "Si O2"
_cell_formula_units_Z 48
_cell_length_a 13.292778
_cell_length_b 33.324274
_cell_length_c 10.899525
_cell_angle_alpha 90.000000
_cell_angle_beta 33.038840
_cell_angle_gamma 90.000000
_cell_volume 2632.363063
_symmetry_space_group_name_H-M "C 2/M"
_symmetry_group_IT_number 12
_symmetry_cell_setting 'monoclinic'
loop_
_space_group_symop_operation_xyz
x,y,z
-x,y,-z
-x,-y,-z
x,-y,z
1/2+x,1/2+y,z
1/2-x,1/2+y,-z
1/2-x,1/2-y,-z
1/2+x,1/2-y,z
loop_
_atom_site_type_symbol
_atom_site_label
_atom_site_fract_x
_atom_site_fract_y
_atom_site_fract_z
Si Si1 0.487547 0.566955 0.161147
Si Si2 0.303656 0.000000 0.548703
Si Si3 0.297360 0.292337 0.648993
Si Si4 0.351827 0.203114 0.541629
Si Si5 0.309696 0.204741 0.974061
Si Si6 0.720187 0.000000 0.129773
Si Si7 0.053436 0.157104 0.723926
O O1 0.310026 0.539456 0.371484
O O2 0.472904 0.609827 0.239040
O O3 0.500000 0.572167 0.000000
O O4 0.662110 0.539638 0.021362
O O5 0.513630 0.000000 0.291419
O O6 0.296077 0.000000 0.705197
O O7 0.500000 0.286468 0.500000
O O8 0.260632 0.247500 0.636664
O O9 0.335077 0.326086 0.508896
O O10 0.180847 0.301460 0.889431
O O11 0.500000 0.197787 0.500000
O O12 0.489868 0.198480 0.286411
O O13 0.182216 0.172494 0.704213
O O14 0.250000 0.250000 0.000000
O O15 0.148107 0.177508 0.080765
#
# Coordination Sequence:
#
# PCOD9220056 Si02
#       7
#     8   4   8   8   8   4   8
#     4   9  19  31  49  82 110 141 180 216 280 335
#     4   8  15  33  54  75 107 141 178 214 266 345
#     4   9  19  37  53  73 103 145 197 231 271 327
#     4  11  22  37  51  78 107 147 196 228 277 327
#     4  11  21  38  55  74 104 148 195 237 272 324
#     4   8  15  33  56  73 105 148 172 215 274 338
#     4  11  23  35  52  81 115 145 183 240 275 319
#
# _framework density 18.234566000000001
#
# number of rings (size 3 to 8) (size 9 to 14) (size 15 to 20)
#    0.000    2.167    5.000    1.500    2.333    2.000 
#    3.000    0.000    0.000    0.000    0.000   21.000 
#    0.000   17.333    0.000    0.000    0.000    0.000 
#
# Total GULP energy -133781.047221 kJ/mol
# GULP energy per Si atom -5574.210301 kJ/mol
# Density = 1.819306 g / cm^3
# Si number density = 18.234566 Si / 1000 Ang^3
#
#
#
# Elastic Constant Matrix: (Units=GPa)
#
#
# Indices 1 2 3 4 5 6 
#
# 1 61.1489 45.9530 29.4552 0.0000 -22.9761 0.0000
# 2 45.9530 173.6985 51.2240 0.0000 -23.0938 0.0000
# 3 29.4552 51.2240 95.5657 0.0000 -16.6375 0.0000
# 4 0.0000 0.0000 0.0000 10.2147 0.0000 3.7321
# 5 -22.9761 -23.0938 -16.6375 0.0000 33.7511 0.0000
# 6 0.0000 0.0000 0.0000 3.7321 0.0000 11.6459
#
#
#
# Elastic Compliance Matrix: (Units=1/GPa)
#
#
# Indices 1 2 3 4 5 6 
#
# 1 0.026114 -0.004105 -0.003547 0.000000 0.013220 0.000000
# 2 -0.004105 0.007802 -0.002706 0.000000 0.001210 0.000000
# 3 -0.003547 -0.002706 0.013416 0.000000 0.002347 0.000000
# 4 0.000000 0.000000 0.000000 0.110881 0.000000 -0.035533
# 5 0.013220 0.001210 0.002347 0.000000 0.040613 0.000000
# 6 0.000000 0.000000 0.000000 -0.035533 0.000000 0.097254
#
#
# Mechanical properties :
#
#
# Convention : Reuss Voigt Hill
#
# Bulk Modulus (GPa) = 37.57078 64.85306 51.21192
# Shear Modulus (GPa) = 15.35301 24.70774 20.03038
#
# Velocity S-wave (km/s) = 2.90482 3.68502 3.31793
# Velocity P-wave (km/s) = 5.64797 7.33137 6.54403
#
# Compressibility (1/GPa) = 0.02661643
#
# Stress axis : x y z
#
# Youngs Moduli (GPa) = 38.29322 128.17228 74.53562
#
# Poissons Ratio (x) = 0.52615 0.26438
# Poissons Ratio (y) = 0.15719 0.20170
# Poissons Ratio (z) = 0.13583 0.34684
#
# Static dielectric constant tensor:
#      x y z
#    x 1.759470 0.000000 0.067770 
#    y 0.000000 1.586870 0.000000 
#    z 0.067770 0.000000 1.738320 
# 
# From -- ./inp_files/149681.got.cif
#   From: 2010.05.17/outbox.cif.g08.bks.cpg/sg12_75_cif.got.tgz:149681.got - 2010.06.03 13:09:07.
