data_PCOD9220859
_publ_section_title
;
Structure prediction by ZEFSAII (Michael W. Deem and Ramdas Pophale) SiO2 
 PCOD9220859
Probable space group: C 2/M
;
_chemical_formula_sum "Si O2"
_cell_formula_units_Z 56
_cell_length_a 9.631300
_cell_length_b 25.580416
_cell_length_c 18.696833
_cell_angle_alpha 90.000000
_cell_angle_beta 143.460400
_cell_angle_gamma 90.000000
_cell_volume 2742.543430
_symmetry_space_group_name_H-M "C 2/M"
_symmetry_group_IT_number 12
_symmetry_cell_setting 'monoclinic'
loop_
_space_group_symop_operation_xyz
x,y,z
-x,y,-z
-x,-y,-z
x,-y,z
1/2+x,1/2+y,z
1/2-x,1/2+y,-z
1/2-x,1/2-y,-z
1/2+x,1/2-y,z
loop_
_atom_site_type_symbol
_atom_site_label
_atom_site_fract_x
_atom_site_fract_y
_atom_site_fract_z
Si Si1 0.838971 0.598010 0.494156
Si Si2 0.827027 0.110878 0.296170
Si Si3 0.332892 0.000000 0.834176
Si Si4 0.266860 0.711257 0.352474
Si Si5 0.155455 0.442264 0.351102
Si Si6 0.374059 0.813118 0.307177
Si Si7 0.374561 0.500000 0.100928
Si Si8 0.369925 0.403952 0.870798
O O1 0.579131 0.612646 0.364330
O O2 0.818737 0.560743 0.553755
O O3 0.000000 0.574694 0.500000
O O4 0.969528 0.648798 0.578731
O O5 0.702402 0.059100 0.212791
O O6 0.741598 0.169932 0.275286
O O7 0.823920 0.095182 0.378328
O O8 0.147713 0.000000 0.822919
O O9 0.605542 0.000000 0.965813
O O10 0.500000 0.704896 0.500000
O O11 0.286512 0.766767 0.321018
O O12 0.046460 0.705720 0.314654
O O13 0.202671 0.500000 0.345181
O O14 0.891529 0.425576 0.224105
O O15 0.173909 0.850034 0.189965
O O16 0.500701 0.448535 0.121917
O O17 0.500000 0.397004 0.000000
#
# Coordination Sequence:
#
# PCOD9220859 Si02
#       8
#     8   8   4   8   8   8   4   8
#     4  11  25  39  59  95 139 174 221 272 330 397
#     4  12  23  42  67  96 140 179 222 274 336 408
#     4  11  28  42  69 105 138 186 223 283 342 403
#     4  12  23  44  68  97 136 183 218 281 336 420
#     4  11  22  39  63  97 130 177 222 263 336 408
#     4  11  26  42  67 100 130 175 238 272 345 401
#     4  11  25  46  69 100 140 181 232 277 343 398
#     4  11  23  42  73  98 131 175 232 281 331 408
#
# _framework density 20.419003
#
# number of rings (size 3 to 8) (size 9 to 14) (size 15 to 20)
#    0.000    0.714    5.714    2.357    7.000    0.857 
#    0.000    0.714    3.143    0.000    0.000    0.000 
#    0.000    0.000    0.000    0.000    0.000    0.000 
#
# Total GULP energy -156104.643879 kJ/mol
# GULP energy per Si atom -5575.165853 kJ/mol
# Density = 2.037253 g / cm^3
# Si number density = 20.419003 Si / 1000 Ang^3
#
#
#
# Elastic Constant Matrix: (Units=GPa)
#
#
# Indices 1 2 3 4 5 6 
#
# 1 103.8280 20.1089 22.5677 -0.0003 7.3918 -0.0005
# 2 20.1089 137.8114 22.0511 0.0019 -5.9317 0.0011
# 3 22.5677 22.0511 33.2084 0.0246 5.5269 0.0110
# 4 -0.0003 0.0019 0.0246 48.2901 0.0052 -2.4273
# 5 7.3918 -5.9317 5.5269 0.0052 17.9185 0.0016
# 6 -0.0005 0.0011 0.0110 -2.4273 0.0016 41.3690
#
#
#
# Elastic Compliance Matrix: (Units=1/GPa)
#
#
# Indices 1 2 3 4 5 6 
#
# 1 0.011458 -0.000698 -0.006849 0.000004 -0.002845 0.000002
# 2 -0.000698 0.008535 -0.006020 0.000002 0.004971 0.000001
# 3 -0.006849 -0.006020 0.040717 -0.000020 -0.011727 -0.000011
# 4 0.000004 0.000002 -0.000020 0.020769 -0.000001 0.001219
# 5 -0.002845 0.004971 -0.011727 -0.000001 0.062244 0.000001
# 6 0.000002 0.000001 -0.000011 0.001219 0.000001 0.024244
#
#
# Mechanical properties :
#
#
# Convention : Reuss Voigt Hill
#
# Bulk Modulus (GPa) = 29.78486 44.92258 37.35372
# Shear Modulus (GPa) = 24.23705 35.52351 29.88028
#
# Velocity S-wave (km/s) = 3.44900 4.17553 3.82953
# Velocity P-wave (km/s) = 5.52081 6.73015 6.15525
#
# Compressibility (1/GPa) = 0.03357410
#
# Stress axis : x y z
#
# Youngs Moduli (GPa) = 87.27636 117.15814 24.55986
#
# Poissons Ratio (x) = 0.08182 0.16822
# Poissons Ratio (y) = 0.06095 0.14786
# Poissons Ratio (z) = 0.59777 0.70534
#
# Static dielectric constant tensor:
#      x y z
#    x 1.531440 0.000040 -0.189860 
#    y 0.000040 1.754810 0.000030 
#    z -0.189860 0.000030 1.632680 
# 
# From -- ./inp_files/259908.got.cif
#   From: 2010.05.17/outbox.cif.g08.bks.cpg/sg12_130_cif.got.tgz:259908.got - 2010.06.03 13:09:07.
