data_PCOD9220864
_publ_section_title
;
Structure prediction by ZEFSAII (Michael W. Deem and Ramdas Pophale) SiO2 
 PCOD9220864
Probable space group: C 2/M
;
_chemical_formula_sum "Si O2"
_cell_formula_units_Z 56
_cell_length_a 15.418672
_cell_length_b 8.619618
_cell_length_c 24.959296
_cell_angle_alpha 90.000000
_cell_angle_beta 59.180615
_cell_angle_gamma 90.000000
_cell_volume 2848.738492
_symmetry_space_group_name_H-M "C 2/M"
_symmetry_group_IT_number 12
_symmetry_cell_setting 'monoclinic'
loop_
_space_group_symop_operation_xyz
x,y,z
-x,y,-z
-x,-y,-z
x,-y,z
1/2+x,1/2+y,z
1/2-x,1/2+y,-z
1/2-x,1/2-y,-z
1/2+x,1/2-y,z
loop_
_atom_site_type_symbol
_atom_site_label
_atom_site_fract_x
_atom_site_fract_y
_atom_site_fract_z
Si Si1 0.836631 0.684931 0.205932
Si Si2 0.755854 0.684881 0.348830
Si Si3 0.107522 0.811366 0.990613
Si Si4 0.281656 0.185591 0.853242
Si Si5 0.442577 0.314724 0.876455
Si Si6 0.032300 0.685155 0.428459
Si Si7 0.837134 0.184647 0.433352
O O1 0.850051 0.500000 0.197516
O O2 0.807479 0.723944 0.276008
O O3 0.749819 0.739024 0.192693
O O4 0.940448 0.768910 0.157318
O O5 0.761771 0.500000 0.354894
O O6 0.639238 0.735690 0.383804
O O7 0.808560 0.767362 0.382259
O O8 0.198264 0.761111 0.923672
O O9 0.108270 0.000000 0.990557
O O10 0.110625 0.760788 0.051368
O O11 0.000000 0.762519 0.000000
O O12 0.388584 0.236616 0.843141
O O13 0.276691 0.000000 0.850097
O O14 0.433374 0.500000 0.875612
O O15 0.042573 0.500000 0.419817
O O16 0.000000 0.718803 0.500000
O O17 0.943606 0.745630 0.418392
O O18 0.750000 0.250000 0.500000
O O19 0.839404 0.000000 0.437666
#
# Coordination Sequence:
#
# PCOD9220864 Si02
#       7
#     8   8   8   8   8   8   8
#     4  11  25  44  63  89 124 165 213 258 308 370
#     4  11  25  44  66  92 126 165 208 259 308 366
#     4   9  17  34  60  91 122 158 206 258 314 370
#     4  11  22  39  64  91 125 165 207 259 315 371
#     4  11  22  39  64  91 125 165 208 259 313 372
#     4  11  23  40  66  98 128 161 202 250 305 367
#     4  12  24  40  66  97 129 163 202 249 305 366
#
# _framework density 19.657824000000002
#
# number of rings (size 3 to 8) (size 9 to 14) (size 15 to 20)
#    0.000    1.143    2.857    3.857    0.000    4.000 
#    0.000    2.857    0.000    0.000    0.000    0.000 
#    0.000    0.000    0.000    0.000    0.000    0.000 
#
# Total GULP energy -156615.542271 kJ/mol
# GULP energy per Si atom -5593.412224 kJ/mol
# Density = 1.961308 g / cm^3
# Si number density = 19.657824 Si / 1000 Ang^3
#
#
#
# Elastic Constant Matrix: (Units=GPa)
#
#
# Indices 1 2 3 4 5 6 
#
# 1 88.8130 -7.8525 -5.2837 0.0000 23.8745 0.0000
# 2 -7.8525 31.8234 18.9899 0.0000 7.9206 0.0000
# 3 -5.2837 18.9899 59.6367 0.0000 21.7667 0.0000
# 4 0.0000 0.0000 0.0000 25.3850 0.0000 0.4813
# 5 23.8745 7.9206 21.7667 0.0000 30.2203 0.0000
# 6 0.0000 0.0000 0.0000 0.4813 0.0000 34.9846
#
#
#
# Elastic Compliance Matrix: (Units=1/GPa)
#
#
# Indices 1 2 3 4 5 6 
#
# 1 0.017738 0.005043 0.007547 0.000000 -0.020771 0.000000
# 2 0.005043 0.040295 -0.009599 0.000000 -0.007632 0.000000
# 3 0.007547 -0.009599 0.029509 0.000000 -0.024701 0.000000
# 4 0.000000 0.000000 0.000000 0.039404 0.000000 -0.000542
# 5 -0.020771 -0.007632 -0.024701 0.000000 0.069291 0.000000
# 6 0.000000 0.000000 0.000000 -0.000542 0.000000 0.028592
#
#
# Mechanical properties :
#
#
# Convention : Reuss Voigt Hill
#
# Bulk Modulus (GPa) = 10.69235 21.33115 16.01175
# Shear Modulus (GPa) = 19.99838 29.74594 24.87216
#
# Velocity S-wave (km/s) = 3.19301 3.89419 3.56090
# Velocity P-wave (km/s) = 4.36404 5.57623 5.00696
#
# Compressibility (1/GPa) = 0.09352481
#
# Stress axis : x y z
#
# Youngs Moduli (GPa) = 56.37578 24.81689 33.88830
#
# Poissons Ratio (x) = -0.12516 -0.25575
# Poissons Ratio (y) = -0.28432 0.32528
# Poissons Ratio (z) = -0.42546 0.23821
#
# Static dielectric constant tensor:
#      x y z
#    x 1.662890 0.000000 0.006530 
#    y 0.000000 1.654840 0.000000 
#    z 0.006530 0.000000 1.678160 
# 
# From -- ./inp_files/338502.got.cif
#   From: 2010.05.17/outbox.cif.g08.bks.cpg/sg12_170_cif.got.tgz:338502.got - 2010.06.03 13:09:07.
