data_PCOD9220947
_publ_section_title
;
Structure prediction by ZEFSAII (Michael W. Deem and Ramdas Pophale) SiO2 
 PCOD9220947
Probable space group: C 2/M
;
_chemical_formula_sum "Si O2"
_cell_formula_units_Z 50
_cell_length_a 29.128489
_cell_length_b 16.998921
_cell_length_c 15.129712
_cell_angle_alpha 90.000000
_cell_angle_beta 17.912311
_cell_angle_gamma 90.000000
_cell_volume 2304.100123
_symmetry_space_group_name_H-M "C 2/M"
_symmetry_group_IT_number 12
_symmetry_cell_setting 'monoclinic'
loop_
_space_group_symop_operation_xyz
x,y,z
-x,y,-z
-x,-y,-z
x,-y,z
1/2+x,1/2+y,z
1/2-x,1/2+y,-z
1/2-x,1/2-y,-z
1/2+x,1/2-y,z
loop_
_atom_site_type_symbol
_atom_site_label
_atom_site_fract_x
_atom_site_fract_y
_atom_site_fract_z
Si Si1 0.914183 0.682379 0.279576
Si Si2 0.308035 0.591983 0.991285
Si Si3 0.327724 0.122429 0.934635
Si Si4 0.500000 0.000000 0.500000
Si Si5 0.760296 0.654945 0.395288
Si Si6 0.900453 0.698748 0.504818
Si Si7 0.640794 0.615684 0.440758
O O1 0.815452 0.631042 0.392005
O O2 0.850259 0.771121 0.389616
O O3 0.903094 0.660655 0.402235
O O4 0.084917 0.681602 0.935080
O O5 0.245018 0.500000 0.102580
O O6 0.475557 0.588582 0.719259
O O7 0.298778 0.626370 0.908905
O O8 0.212799 0.649270 0.227864
O O9 0.446694 0.067542 0.669183
O O10 0.429985 0.197257 0.769420
O O11 0.256605 0.089310 0.154084
O O12 0.685589 0.598554 0.459703
O O13 0.855269 0.789208 0.577055
#
# Coordination Sequence:
#
# PCOD9220947 Si02
#       7
#     8   8   8   2   8   8   8
#     4   9  18  33  60  87 129 161 207 249 315 368
#     4  12  26  43  61  90 125 168 216 256 312 385
#     4  12  22  42  62  83 119 160 211 251 303 371
#     4  12  24  44  62  84 110 166 222 246 304 394
#     4   9  18  35  55  93 124 165 201 257 306 381
#     4  11  22  40  63  95 123 165 206 261 317 368
#     4  11  25  37  63  95 127 159 205 263 321 357
#
# _framework density 21.700445999999999
#
# number of rings (size 3 to 8) (size 9 to 14) (size 15 to 20)
#    0.000    1.280    4.000    1.440    7.840    4.480 
#    0.000    0.000    0.000    1.920    0.000    3.360 
#    0.000    0.000    0.000    0.000    0.000    0.000 
#
# Total GULP energy -139296.308224 kJ/mol
# GULP energy per Si atom -5571.852329 kJ/mol
# Density = 2.165106 g / cm^3
# Si number density = 21.700446 Si / 1000 Ang^3
#
#
#
# Elastic Constant Matrix: (Units=GPa)
#
#
# Indices 1 2 3 4 5 6 
#
# 1 158.4774 27.1880 27.6959 0.0000 -2.8688 0.0000
# 2 27.1880 62.1489 17.9782 0.0006 3.3539 -0.0002
# 3 27.6959 17.9782 67.6443 0.0009 -5.4343 -0.0003
# 4 0.0000 0.0006 0.0009 63.4869 -0.0003 42.5172
# 5 -2.8688 3.3539 -5.4343 -0.0003 41.0803 0.0001
# 6 0.0000 -0.0002 -0.0003 42.5172 0.0001 11.3604
#
#
#
# Elastic Compliance Matrix: (Units=1/GPa)
#
#
# Indices 1 2 3 4 5 6 
#
# 1 0.007135 -0.002500 -0.002224 0.000000 0.000408 0.000000
# 2 -0.002500 0.018480 -0.004066 0.000000 -0.002221 0.000000
# 3 -0.002224 -0.004066 0.016969 0.000000 0.002421 -0.000001
# 4 0.000000 0.000000 0.000000 -0.010456 0.000000 0.039133
# 5 0.000408 -0.002221 0.002421 0.000000 0.024873 0.000000
# 6 0.000000 0.000000 -0.000001 0.039133 0.000000 -0.058434
#
#
# Mechanical properties :
#
#
# Convention : Reuss Voigt Hill
#
# Bulk Modulus (GPa) = 39.99472 48.22164 44.10818
# Shear Modulus (GPa) = 204.22940 37.54609 120.88775
#
# Velocity S-wave (km/s) = 9.71171 4.16408 7.47184
# Velocity P-wave (km/s) = 12.00945 6.73715 9.73694
#
# Compressibility (1/GPa) = 0.02500330
#
# Stress axis : x y z
#
# Youngs Moduli (GPa) = 140.15387 54.11177 58.93056
#
# Poissons Ratio (x) = 0.13528 0.13107
# Poissons Ratio (y) = 0.35038 0.23964
# Poissons Ratio (z) = 0.31172 0.22004
#
# Static dielectric constant tensor:
#      x y z
#    x 1.856950 0.000000 0.000180 
#    y 0.000000 1.785400 0.000000 
#    z 0.000180 0.000000 1.660040 
# 
# From -- ./inp_files/251708.got.cif
#   From: 2010.05.17/outbox.cif.g08.bks.cpg/sg12_126_cif.got.tgz:251708.got - 2010.06.03 13:09:07.
