data_PCOD9220231
_publ_section_title
;
Structure prediction by ZEFSAII (Michael W. Deem and Ramdas Pophale) SiO2 
 PCOD9220231
Probable space group: C 2/M
;
_chemical_formula_sum "Si O2"
_cell_formula_units_Z 50
_cell_length_a 14.028605
_cell_length_b 20.222312
_cell_length_c 8.390105
_cell_angle_alpha 90.000000
_cell_angle_beta 77.530081
_cell_angle_gamma 90.000000
_cell_volume 2324.045833
_symmetry_space_group_name_H-M "C 2/M"
_symmetry_group_IT_number 12
_symmetry_cell_setting 'monoclinic'
loop_
_space_group_symop_operation_xyz
x,y,z
-x,y,-z
-x,-y,-z
x,-y,z
1/2+x,1/2+y,z
1/2-x,1/2+y,-z
1/2-x,1/2-y,-z
1/2+x,1/2-y,z
loop_
_atom_site_type_symbol
_atom_site_label
_atom_site_fract_x
_atom_site_fract_y
_atom_site_fract_z
Si Si1 0.416326 0.659492 0.339232
Si Si2 0.203168 0.149682 0.295593
Si Si3 0.621380 0.121210 0.581797
Si Si4 0.500000 0.000000 0.500000
Si Si5 0.441663 0.576890 0.863330
Si Si6 0.277954 0.799291 0.734185
Si Si7 0.974587 0.289282 0.824640
O O1 0.372299 0.661862 0.531553
O O2 0.476337 0.592360 0.298123
O O3 0.324429 0.663189 0.249725
O O4 0.488098 0.720804 0.270518
O O5 0.289010 0.104572 0.333857
O O6 0.150893 0.118991 0.161234
O O7 0.248323 0.222030 0.253805
O O8 0.581589 0.058207 0.505090
O O9 0.662207 0.176391 0.443963
O O10 0.535223 0.153450 0.715638
O O11 0.417345 0.500000 0.887184
O O12 0.500000 0.599177 0.000000
O O13 0.359780 0.804275 0.841047
O O14 0.000000 0.285686 0.000000
#
# Coordination Sequence:
#
# PCOD9220231 Si02
#       7
#     8   8   8   2   8   8   8
#     4  11  22  39  63  96 121 161 210 261 310 365
#     4  11  22  39  72  93 122 160 215 265 307 370
#     4  11  23  43  63  96 126 165 213 257 318 362
#     4  12  24  40  74  84 132 168 210 272 294 370
#     4  11  26  44  59  88 135 173 203 252 315 379
#     4  11  21  40  66  94 126 157 208 271 311 364
#     4  12  23  37  62  96 132 161 202 261 322 378
#
# _framework density 21.514203999999999
#
# number of rings (size 3 to 8) (size 9 to 14) (size 15 to 20)
#    0.000    0.800    6.400    1.920    1.120    3.200 
#    4.320    0.400    0.000    0.000    0.000    0.000 
#    0.000    0.000    0.000    0.000    0.000    0.000 
#
# Total GULP energy -139370.026809 kJ/mol
# GULP energy per Si atom -5574.801072 kJ/mol
# Density = 2.146524 g / cm^3
# Si number density = 21.514204 Si / 1000 Ang^3
#
#
#
# Elastic Constant Matrix: (Units=GPa)
#
#
# Indices 1 2 3 4 5 6 
#
# 1 135.6668 29.4747 19.0502 0.0000 43.2965 0.0000
# 2 29.4747 69.6955 13.8988 0.0000 10.5733 0.0000
# 3 19.0502 13.8988 46.6305 0.0000 22.0142 0.0000
# 4 0.0000 0.0000 0.0000 10.8073 0.0000 2.0147
# 5 43.2965 10.5733 22.0142 0.0000 46.1441 0.0000
# 6 0.0000 0.0000 0.0000 2.0147 0.0000 18.4757
#
#
#
# Elastic Compliance Matrix: (Units=1/GPa)
#
#
# Indices 1 2 3 4 5 6 
#
# 1 0.011254 -0.003448 0.001345 0.000000 -0.010411 0.000000
# 2 -0.003448 0.016417 -0.004177 0.000000 0.001466 0.000000
# 3 0.001345 -0.004177 0.028763 0.000000 -0.014027 0.000000
# 4 0.000000 0.000000 0.000000 0.094450 0.000000 -0.010300
# 5 -0.010411 0.001466 -0.014027 0.000000 0.037796 0.000000
# 6 0.000000 0.000000 0.000000 -0.010300 0.000000 0.055248
#
#
# Mechanical properties :
#
#
# Convention : Reuss Voigt Hill
#
# Bulk Modulus (GPa) = 22.79259 41.87114 32.33186
# Shear Modulus (GPa) = 18.44261 27.72337 23.08299
#
# Velocity S-wave (km/s) = 2.93102 3.59361 3.27910
# Velocity P-wave (km/s) = 4.69806 6.05996 5.42194
#
# Compressibility (1/GPa) = 0.04387391
#
# Stress axis : x y z
#
# Youngs Moduli (GPa) = 88.85896 60.91294 34.76720
#
# Poissons Ratio (x) = 0.21004 -0.04677
# Poissons Ratio (y) = 0.30640 0.14522
# Poissons Ratio (z) = -0.11953 0.25442
#
# Static dielectric constant tensor:
#      x y z
#    x 1.841200 0.000000 0.040030 
#    y 0.000000 1.726180 0.000000 
#    z 0.040030 0.000000 1.823140 
# 
# From -- ./inp_files/63481.got.cif
#   From: 2010.05.17/outbox.cif.g08.bks.cpg/sg12_32_cif.got.tgz:63481.got - 2010.06.03 13:09:07.
