data_PCOD9220111
_publ_section_title
;
Structure prediction by ZEFSAII (Michael W. Deem and Ramdas Pophale) SiO2 
 PCOD9220111
Probable space group: C 2/M
;
_chemical_formula_sum "Si O2"
_cell_formula_units_Z 64
_cell_length_a 9.259543
_cell_length_b 18.780663
_cell_length_c 27.364814
_cell_angle_alpha 90.000000
_cell_angle_beta 41.111102
_cell_angle_gamma 90.000000
_cell_volume 3128.979843
_symmetry_space_group_name_H-M "C 2/M"
_symmetry_group_IT_number 12
_symmetry_cell_setting 'monoclinic'
loop_
_space_group_symop_operation_xyz
x,y,z
-x,y,-z
-x,-y,-z
x,-y,z
1/2+x,1/2+y,z
1/2-x,1/2+y,-z
1/2-x,1/2-y,-z
1/2+x,1/2-y,z
loop_
_atom_site_type_symbol
_atom_site_label
_atom_site_fract_x
_atom_site_fract_y
_atom_site_fract_z
Si Si1 0.076916 0.200429 0.700947
Si Si2 0.909470 0.583544 0.763020
Si Si3 0.064267 0.419640 0.041502
Si Si4 0.587679 0.915263 0.355079
Si Si5 0.986861 0.164054 0.912263
Si Si6 0.342378 0.331488 0.661598
Si Si7 0.828622 0.827279 0.499431
Si Si8 0.247790 0.704789 0.872941
O O1 0.202093 0.126251 0.677313
O O2 0.251239 0.264035 0.654532
O O3 0.935599 0.197310 0.688387
O O4 0.924057 0.218838 0.785970
O O5 0.901778 0.500000 0.774414
O O6 0.903051 0.594874 0.705994
O O7 0.699829 0.620012 0.841222
O O8 0.138692 0.616659 0.721915
O O9 0.056366 0.500000 0.062395
O O10 0.884856 0.366086 0.108510
O O11 0.304620 0.384946 0.984377
O O12 0.000000 0.422127 0.000000
O O13 0.374180 0.875247 0.430786
O O14 0.585664 0.000000 0.365370
O O15 0.074478 0.231193 0.920032
O O16 0.869747 0.192868 0.892895
O O17 0.538274 0.363257 0.579233
O O18 0.750000 0.750000 0.500000
O O19 0.000000 0.819449 0.500000
#
# Coordination Sequence:
#
# PCOD9220111 Si02
#       8
#     8   8   8   8   8   8   8   8
#     4  12  23  41  65  94 126 166 207 262 311 370
#     4  11  23  41  64  92 125 164 209 258 314 373
#     4   9  20  38  60  91 126 163 209 252 304 369
#     4  11  25  43  64  93 126 165 211 257 316 377
#     4  11  21  38  64  95 122 166 206 260 305 367
#     4  12  24  40  66  93 125 161 212 256 312 373
#     4  12  24  40  66  93 122 164 207 259 316 370
#     4  11  22  36  65  93 123 161 210 255 310 362
#
# _framework density 20.453949999999999
#
# number of rings (size 3 to 8) (size 9 to 14) (size 15 to 20)
#    0.000    0.875    5.000    3.000    0.000    2.250 
#    0.000    0.625    0.000    0.750    0.000    0.000 
#    0.000    0.000    0.000    0.000    0.000    0.000 
#
# Total GULP energy -179011.946673 kJ/mol
# GULP energy per Si atom -5594.123334 kJ/mol
# Density = 2.040740 g / cm^3
# Si number density = 20.453950 Si / 1000 Ang^3
#
#
#
# Elastic Constant Matrix: (Units=GPa)
#
#
# Indices 1 2 3 4 5 6 
#
# 1 78.0979 26.0179 -3.0974 -0.0002 -18.9689 0.0009
# 2 26.0179 93.1137 2.8239 -0.0045 -16.0801 0.0033
# 3 -3.0974 2.8239 58.7840 0.0009 -18.4919 0.0020
# 4 -0.0002 -0.0045 0.0009 33.9608 -0.0020 -3.2043
# 5 -18.9689 -16.0801 -18.4919 -0.0020 27.6093 -0.0001
# 6 0.0009 0.0033 0.0020 -3.2043 -0.0001 20.6594
#
#
#
# Elastic Compliance Matrix: (Units=1/GPa)
#
#
# Indices 1 2 3 4 5 6 
#
# 1 0.017284 -0.002573 0.005446 0.000000 0.014024 -0.000001
# 2 -0.002573 0.012521 0.001268 0.000002 0.006374 -0.000002
# 3 0.005446 0.001268 0.023624 0.000001 0.020303 -0.000003
# 4 0.000000 0.000002 0.000001 0.029883 0.000004 0.004635
# 5 0.014024 0.006374 0.020303 0.000004 0.063165 -0.000003
# 6 -0.000001 -0.000002 -0.000003 0.004635 -0.000003 0.049123
#
#
# Mechanical properties :
#
#
# Convention : Reuss Voigt Hill
#
# Bulk Modulus (GPa) = 16.20464 31.27604 23.74034
# Shear Modulus (GPa) = 24.05141 30.06265 27.05703
#
# Velocity S-wave (km/s) = 3.43283 3.83792 3.64101
# Velocity P-wave (km/s) = 4.86335 5.91301 5.41368
#
# Compressibility (1/GPa) = 0.06171073
#
# Stress axis : x y z
#
# Youngs Moduli (GPa) = 57.85795 79.86758 42.32944
#
# Poissons Ratio (x) = 0.20548 -0.23052
# Poissons Ratio (y) = 0.14886 -0.05367
# Poissons Ratio (z) = -0.31508 -0.10127
#
# Static dielectric constant tensor:
#      x y z
#    x 1.705890 0.000000 -0.000350 
#    y 0.000000 1.718030 0.000000 
#    z -0.000350 0.000000 1.720430 
# 
# From -- ./inp_files/372885.got.cif
#   From: 2010.05.17/outbox.cif.g08.bks.cpg/sg12_187_cif.got.tgz:372885.got - 2010.06.03 13:09:07.
