data_PCOD9220288
_publ_section_title
;
Structure prediction by ZEFSAII (Michael W. Deem and Ramdas Pophale) SiO2 
 PCOD9220288
Probable space group: C 2/M
;
_chemical_formula_sum "Si O2"
_cell_formula_units_Z 50
_cell_length_a 9.513177
_cell_length_b 16.565550
_cell_length_c 16.989832
_cell_angle_alpha 90.000000
_cell_angle_beta 69.727997
_cell_angle_gamma 90.000000
_cell_volume 2511.599423
_symmetry_space_group_name_H-M "C 2/M"
_symmetry_group_IT_number 12
_symmetry_cell_setting 'monoclinic'
loop_
_space_group_symop_operation_xyz
x,y,z
-x,y,-z
-x,-y,-z
x,-y,z
1/2+x,1/2+y,z
1/2-x,1/2+y,-z
1/2-x,1/2-y,-z
1/2+x,1/2-y,z
loop_
_atom_site_type_symbol
_atom_site_label
_atom_site_fract_x
_atom_site_fract_y
_atom_site_fract_z
Si Si1 0.976535 0.357036 0.885943
Si Si2 0.909443 0.285334 0.443006
Si Si3 0.121474 0.190942 0.296394
Si Si4 0.339972 0.593718 0.071206
Si Si5 0.000000 0.500000 0.000000
Si Si6 0.895189 0.799631 0.197080
Si Si7 0.618481 0.907120 0.697666
O O1 0.798675 0.355645 0.935543
O O2 0.051691 0.269338 0.875579
O O3 0.003789 0.381980 0.789293
O O4 0.040972 0.427797 0.927599
O O5 0.750000 0.250000 0.500000
O O6 0.896059 0.349974 0.375323
O O7 0.000000 0.318991 0.500000
O O8 0.009484 0.213213 0.387791
O O9 0.246986 0.261601 0.264998
O O10 0.219104 0.112361 0.295915
O O11 0.025282 0.188444 0.235531
O O12 0.295682 0.500000 0.069145
O O13 0.360044 0.619579 0.157240
O O14 0.500000 0.605346 0.000000
O O15 0.599895 0.000000 0.681461
#
# Coordination Sequence:
#
# PCOD9220288 Si02
#       7
#     8   8   8   8   2   8   8
#     4  11  23  43  65  95 130 176 222 269 329 404
#     4  12  22  40  69  98 132 174 218 271 333 399
#     4  11  21  41  67  97 125 172 220 264 330 395
#     4  11  24  41  58  89 133 166 213 286 333 375
#     4  12  24  40  70  96 132 178 228 268 342 392
#     4  11  22  41  68  91 126 175 229 266 327 407
#     4  11  23  42  68  98 135 172 217 281 333 394
#
# _framework density 19.907633000000001
#
# number of rings (size 3 to 8) (size 9 to 14) (size 15 to 20)
#    0.000    0.800    8.000    0.000    1.120    4.160 
#    0.000    1.600    0.000    3.840    0.000    0.000 
#    0.000    0.000    0.000    0.000    0.000    0.000 
#
# Total GULP energy -139355.357427 kJ/mol
# GULP energy per Si atom -5574.214297 kJ/mol
# Density = 1.986232 g / cm^3
# Si number density = 19.907633 Si / 1000 Ang^3
#
#
#
# Elastic Constant Matrix: (Units=GPa)
#
#
# Indices 1 2 3 4 5 6 
#
# 1 77.1775 -8.0826 12.2882 0.0000 -12.6054 0.0000
# 2 -8.0826 33.5870 17.4681 0.0000 -8.7673 0.0000
# 3 12.2882 17.4681 77.2630 0.0000 -7.2522 0.0000
# 4 0.0000 0.0000 0.0000 24.6613 0.0000 10.7827
# 5 -12.6054 -8.7673 -7.2522 0.0000 46.6166 0.0000
# 6 0.0000 0.0000 0.0000 10.7827 0.0000 19.1090
#
#
#
# Elastic Compliance Matrix: (Units=1/GPa)
#
#
# Indices 1 2 3 4 5 6 
#
# 1 0.014977 0.006634 -0.003435 0.000000 0.004763 0.000000
# 2 0.006634 0.037987 -0.008935 0.000000 0.007548 0.000000
# 3 -0.003435 -0.008935 0.015490 0.000000 -0.000199 0.000000
# 4 0.000000 0.000000 0.000000 0.053830 0.000000 -0.030375
# 5 0.004763 0.007548 -0.000199 0.000000 0.024128 0.000000
# 6 0.000000 0.000000 0.000000 -0.030375 0.000000 0.069471
#
#
# Mechanical properties :
#
#
# Convention : Reuss Voigt Hill
#
# Bulk Modulus (GPa) = 17.54928 25.70833 21.62881
# Shear Modulus (GPa) = 20.29636 29.16764 24.73200
#
# Velocity S-wave (km/s) = 3.19647 3.83188 3.52850
# Velocity P-wave (km/s) = 4.73895 5.70259 5.24296
#
# Compressibility (1/GPa) = 0.05698240
#
# Stress axis : x y z
#
# Youngs Moduli (GPa) = 66.77044 26.32480 64.55603
#
# Poissons Ratio (x) = -0.17463 0.22173
# Poissons Ratio (y) = -0.44294 0.57680
# Poissons Ratio (z) = 0.22933 0.23521
#
# Static dielectric constant tensor:
#      x y z
#    x 1.729910 0.000000 0.011710 
#    y 0.000000 1.678480 0.000000 
#    z 0.011710 0.000000 1.712330 
# 
# From -- ./inp_files/256500.got.cif
#   From: 2010.05.17/outbox.cif.g08.bks.cpg/sg12_129_cif.got.tgz:256500.got - 2010.06.03 13:09:07.
