data_PCOD9220486
_publ_section_title
;
Structure prediction by ZEFSAII (Michael W. Deem and Ramdas Pophale) SiO2 
 PCOD9220486
Probable space group: C 2/M
;
_chemical_formula_sum "Si O2"
_cell_formula_units_Z 56
_cell_length_a 14.127319
_cell_length_b 28.824889
_cell_length_c 12.834853
_cell_angle_alpha 90.000000
_cell_angle_beta 146.550295
_cell_angle_gamma 90.000000
_cell_volume 2880.920453
_symmetry_space_group_name_H-M "C 2/M"
_symmetry_group_IT_number 12
_symmetry_cell_setting 'monoclinic'
loop_
_space_group_symop_operation_xyz
x,y,z
-x,y,-z
-x,-y,-z
x,-y,z
1/2+x,1/2+y,z
1/2-x,1/2+y,-z
1/2-x,1/2-y,-z
1/2+x,1/2-y,z
loop_
_atom_site_type_symbol
_atom_site_label
_atom_site_fract_x
_atom_site_fract_y
_atom_site_fract_z
Si Si1 0.116418 0.283825 0.327016
Si Si2 0.228657 0.551489 0.314309
Si Si3 0.827577 0.448196 0.985531
Si Si4 0.110718 0.148541 0.497260
Si Si5 0.844655 0.273125 0.937478
Si Si6 0.179671 0.852728 0.924897
Si Si7 0.112724 0.313505 0.704117
O O1 0.250000 0.250000 0.500000
O O2 0.223746 0.318138 0.351350
O O3 0.029796 0.313443 0.337212
O O4 0.959219 0.252973 0.137990
O O5 0.294494 0.500000 0.402406
O O6 0.217221 0.554045 0.178403
O O7 0.337857 0.594867 0.450142
O O8 0.034590 0.556103 0.178974
O O9 0.781322 0.500000 0.980522
O O10 0.737682 0.405558 0.959124
O O11 0.000000 0.158953 0.500000
O O12 0.010547 0.154203 0.296076
O O13 0.781276 0.320388 0.933171
O O14 0.697138 0.237983 0.765298
O O15 0.000000 0.279734 0.000000
O O16 0.232026 0.839940 0.091911
O O17 0.000000 0.327571 0.500000
#
# Coordination Sequence:
#
# PCOD9220486 Si02
#       7
#     8   8   8   8   8   8   8
#     4  11  22  37  55  79 111 147 195 240 285 346
#     4   9  18  32  52  82 122 157 183 220 282 360
#     4   9  18  34  55  82 119 156 190 229 281 347
#     4  12  22  34  55  88 123 156 189 229 291 356
#     4  11  22  36  58  81 111 147 188 240 297 355
#     4  11  22  35  56  85 116 152 198 234 285 353
#     4  11  24  42  58  78 110 153 204 255 292 326
#
# _framework density 19.438233
#
# number of rings (size 3 to 8) (size 9 to 14) (size 15 to 20)
#    0.000    1.429    1.429    7.714    2.000    2.000 
#    0.000    0.000    0.000    0.429    0.000    0.000 
#    0.000    5.143    0.000    0.000    0.000    0.000 
#
# Total GULP energy -156020.160123 kJ/mol
# GULP energy per Si atom -5572.148576 kJ/mol
# Density = 1.939399 g / cm^3
# Si number density = 19.438233 Si / 1000 Ang^3
#
#
#
# Elastic Constant Matrix: (Units=GPa)
#
#
# Indices 1 2 3 4 5 6 
#
# 1 44.1800 17.0517 17.6035 0.0000 -0.5872 0.0000
# 2 17.0517 101.3337 27.1308 0.0000 1.7615 0.0000
# 3 17.6035 27.1308 96.6077 0.0000 -17.9431 0.0000
# 4 0.0000 0.0000 0.0000 37.1474 0.0000 4.4744
# 5 -0.5872 1.7615 -17.9431 0.0000 31.0218 0.0000
# 6 0.0000 0.0000 0.0000 4.4744 0.0000 20.9532
#
#
#
# Elastic Compliance Matrix: (Units=1/GPa)
#
#
# Indices 1 2 3 4 5 6 
#
# 1 0.025453 -0.003166 -0.004062 0.000000 -0.001688 0.000000
# 2 -0.003166 0.011258 -0.003041 0.000000 -0.002458 0.000000
# 3 -0.004062 -0.003041 0.013403 0.000000 0.007848 0.000000
# 4 0.000000 0.000000 0.000000 0.027630 0.000000 -0.005900
# 5 -0.001688 -0.002458 0.007848 0.000000 0.036883 0.000000
# 6 0.000000 0.000000 0.000000 -0.005900 0.000000 0.048985
#
#
# Mechanical properties :
#
#
# Convention : Reuss Voigt Hill
#
# Bulk Modulus (GPa) = 33.81270 40.63259 37.22264
# Shear Modulus (GPa) = 25.77183 29.84683 27.80933
#
# Velocity S-wave (km/s) = 3.64515 3.92276 3.78650
# Velocity P-wave (km/s) = 5.92865 6.43943 6.18931
#
# Compressibility (1/GPa) = 0.02957469
#
# Stress axis : x y z
#
# Youngs Moduli (GPa) = 39.28834 88.82441 74.60931
#
# Poissons Ratio (x) = 0.28122 0.30309
# Poissons Ratio (y) = 0.12439 0.22691
# Poissons Ratio (z) = 0.15960 0.27015
#
# Static dielectric constant tensor:
#      x y z
#    x 1.743050 0.000000 -0.032480 
#    y 0.000000 1.694310 0.000000 
#    z -0.032480 0.000000 1.578380 
# 
# From -- ./inp_files/219138.got.cif
#   From: 2010.05.17/outbox.cif.g08.bks.cpg/sg12_110_cif.got.tgz:219138.got - 2010.06.03 13:09:07.
