data_PCOD9220850
_publ_section_title
;
Structure prediction by ZEFSAII (Michael W. Deem and Ramdas Pophale) SiO2 
 PCOD9220850
Probable space group: C 2/M
;
_chemical_formula_sum "Si O2"
_cell_formula_units_Z 40
_cell_length_a 16.031522
_cell_length_b 16.806592
_cell_length_c 8.373446
_cell_angle_alpha 90.000000
_cell_angle_beta 125.340287
_cell_angle_gamma 90.000000
_cell_volume 1840.372107
_symmetry_space_group_name_H-M "C 2/M"
_symmetry_group_IT_number 12
_symmetry_cell_setting 'monoclinic'
loop_
_space_group_symop_operation_xyz
x,y,z
-x,y,-z
-x,-y,-z
x,-y,z
1/2+x,1/2+y,z
1/2-x,1/2+y,-z
1/2-x,1/2-y,-z
1/2+x,1/2-y,z
loop_
_atom_site_type_symbol
_atom_site_label
_atom_site_fract_x
_atom_site_fract_y
_atom_site_fract_z
Si Si1 0.171654 0.865091 0.111614
Si Si2 0.094739 0.000000 0.535187
Si Si3 0.520596 0.500000 0.842094
Si Si4 0.112103 0.706044 0.190678
Si Si5 0.813863 0.833102 0.244013
Si Si6 0.110739 0.338179 0.554783
O O1 0.139270 0.800147 0.207700
O O2 0.289244 0.887801 0.278835
O O3 0.176972 0.831060 0.936741
O O4 0.081475 0.928125 0.986492
O O5 0.034275 0.000000 0.661169
O O6 0.142372 0.086849 0.627730
O O7 0.098367 0.000000 0.333696
O O8 0.196839 0.669059 0.169492
O O9 0.114591 0.669771 0.368625
O O10 0.000000 0.695707 0.000000
O O11 0.868863 0.752943 0.364543
O O12 0.000000 0.363641 0.500000
#
# Coordination Sequence:
#
# PCOD9220850 Si02
#       6
#     8   4   4   8   8   8
#     4  11  22  41  60  93 123 163 203 254 305 365
#     4  12  24  42  63  94 127 166 197 252 315 364
#     4  12  28  38  65  92 131 162 205 250 307 370
#     4  11  23  39  62  91 122 161 210 253 304 361
#     4  11  22  39  63  90 126 160 206 251 306 368
#     4  11  23  39  63  89 123 163 207 255 304 360
#
# _framework density 21.734735000000001
#
# number of rings (size 3 to 8) (size 9 to 14) (size 15 to 20)
#    0.000    0.800    2.000    8.400    8.400    0.000 
#    0.000    1.000    0.000    0.000    0.000    0.000 
#    0.000    0.000    0.000    0.000    0.000    0.000 
#
# Total GULP energy -111448.766013 kJ/mol
# GULP energy per Si atom -5572.438301 kJ/mol
# Density = 2.168527 g / cm^3
# Si number density = 21.734735 Si / 1000 Ang^3
#
#
#
# Elastic Constant Matrix: (Units=GPa)
#
#
# Indices 1 2 3 4 5 6 
#
# 1 111.0871 11.5455 32.1079 0.0000 9.4496 0.0000
# 2 11.5455 43.6877 3.8270 0.0000 19.7505 0.0000
# 3 32.1079 3.8270 108.2105 0.0000 8.8792 0.0000
# 4 0.0000 0.0000 0.0000 0.2119 0.0000 89.9948
# 5 9.4496 19.7505 8.8792 0.0000 52.2321 0.0000
# 6 0.0000 0.0000 0.0000 89.9948 0.0000 -225.0803
#
#
#
# Elastic Compliance Matrix: (Units=1/GPa)
#
#
# Indices 1 2 3 4 5 6 
#
# 1 0.010105 -0.002187 -0.002879 0.000000 -0.000512 0.000000
# 2 -0.002187 0.028084 0.000502 0.000000 -0.010309 0.000000
# 3 -0.002879 0.000502 0.010193 0.000000 -0.001402 0.000000
# 4 0.000000 0.000000 0.000000 0.027628 0.000000 0.011047
# 5 -0.000512 -0.010309 -0.001402 0.000000 0.023374 0.000000
# 6 0.000000 0.000000 0.000000 0.011047 0.000000 -0.000026
#
#
# Mechanical properties :
#
#
# Convention : Reuss Voigt Hill
#
# Bulk Modulus (GPa) = 25.47550 39.77180 32.62365
# Shear Modulus (GPa) = 41.12805 -20.16028 10.48389
#
# Velocity S-wave (km/s) = 4.35475 -3.04889 2.19864
# Velocity P-wave (km/s) = 6.08536 2.43806 4.63550
#
# Compressibility (1/GPa) = 0.03925340
#
# Stress axis : x y z
#
# Youngs Moduli (GPa) = 98.96209 35.60706 98.10900
#
# Poissons Ratio (x) = 0.07787 0.28245
# Poissons Ratio (y) = 0.21642 -0.04921
# Poissons Ratio (z) = 0.28491 -0.01786
#
# Static dielectric constant tensor:
#      x y z
#    x 1.875340 0.000000 -0.029470 
#    y 0.000000 1.840250 0.000000 
#    z -0.029470 0.000000 1.785490 
# 
# From -- ./inp_files/75554.got.cif
#   From: 2010.05.17/outbox.cif.g08.bks.cpg/sg12_38_cif.got.tgz:75554.got - 2010.06.03 13:09:07.
