data_PCOD9220601
_publ_section_title
;
Structure prediction by ZEFSAII (Michael W. Deem and Ramdas Pophale) SiO2 
 PCOD9220601
Probable space group: C 2/M
;
_chemical_formula_sum "Si O2"
_cell_formula_units_Z 40
_cell_length_a 28.591942
_cell_length_b 8.427847
_cell_length_c 27.057976
_cell_angle_alpha 90.000000
_cell_angle_beta 160.884286
_cell_angle_gamma 90.000000
_cell_volume 2135.189735
_symmetry_space_group_name_H-M "C 2/M"
_symmetry_group_IT_number 12
_symmetry_cell_setting 'monoclinic'
loop_
_space_group_symop_operation_xyz
x,y,z
-x,y,-z
-x,-y,-z
x,-y,z
1/2+x,1/2+y,z
1/2-x,1/2+y,-z
1/2-x,1/2-y,-z
1/2+x,1/2-y,z
loop_
_atom_site_type_symbol
_atom_site_label
_atom_site_fract_x
_atom_site_fract_y
_atom_site_fract_z
Si Si1 0.160838 0.190331 0.457762
Si Si2 0.834178 0.305837 0.726955
Si Si3 0.333689 0.807246 0.942207
Si Si4 0.173795 0.316240 0.173319
Si Si5 0.161797 0.688621 0.864935
O O1 0.250000 0.250000 0.500000
O O2 0.236790 0.245447 0.584300
O O3 0.999203 0.248578 0.293601
O O4 0.162548 0.000000 0.459510
O O5 0.832223 0.500000 0.726896
O O6 0.785351 0.247344 0.732543
O O7 0.000009 0.261169 0.884441
O O8 0.285609 0.748609 0.839629
O O9 0.237970 0.746725 0.891025
O O10 0.329817 0.000000 0.937625
O O11 0.221610 0.500000 0.220971
O O12 0.000000 0.318099 0.000000
O O13 0.160262 0.500000 0.864648
O O14 0.250000 0.750000 0.000000
#
# Coordination Sequence:
#
# PCOD9220601 Si02
#       5
#     8   8   8   8   8
#     4  11  22  37  57  81 110 143 181 223 270 321
#     4   8  15  29  53  83 110 138 175 218 261 312
#     4   9  16  31  57  85 110 137 174 220 267 314
#     4   7  11  23  48  81 110 136 171 214 257 306
#     4  12  25  40  56  76 105 140 181 226 275 328
#
# _framework density 18.733699999999999
#
# number of rings (size 3 to 8) (size 9 to 14) (size 15 to 20)
#    0.000    2.600    0.000    6.000    0.000    1.600 
#    0.000    2.000    0.000   13.800    0.000    0.000 
#    0.000    0.000    0.000    0.000    0.000    0.000 
#
# Total GULP energy -111518.746646 kJ/mol
# GULP energy per Si atom -5575.937332 kJ/mol
# Density = 1.869106 g / cm^3
# Si number density = 18.733700 Si / 1000 Ang^3
#
#
#
# Elastic Constant Matrix: (Units=GPa)
#
#
# Indices 1 2 3 4 5 6 
#
# 1 229.2531 38.8973 112.4013 0.0000 -15.6838 0.0000
# 2 38.8973 43.8826 29.4727 0.0001 -2.8925 0.0000
# 3 112.4013 29.4727 131.9553 0.0004 -15.9589 0.0002
# 4 0.0000 0.0001 0.0004 20.5227 0.0002 3.8843
# 5 -15.6838 -2.8925 -15.9589 0.0002 33.7436 0.0001
# 6 0.0000 0.0000 0.0002 3.8843 0.0001 26.2466
#
#
#
# Elastic Compliance Matrix: (Units=1/GPa)
#
#
# Indices 1 2 3 4 5 6 
#
# 1 0.007798 -0.002894 -0.005927 0.000000 0.000573 0.000000
# 2 -0.002894 0.027894 -0.003859 0.000000 -0.000779 0.000000
# 3 -0.005927 -0.003859 0.013911 0.000000 0.003494 0.000000
# 4 0.000000 0.000000 0.000000 0.050131 0.000000 -0.007419
# 5 0.000573 -0.000779 0.003494 0.000000 0.031487 0.000000
# 6 0.000000 0.000000 0.000000 -0.007419 0.000000 0.039198
#
#
# Mechanical properties :
#
#
# Convention : Reuss Voigt Hill
#
# Bulk Modulus (GPa) = 41.24869 85.18150 63.21509
# Shear Modulus (GPa) = 24.52655 31.05725 27.79190
#
# Velocity S-wave (km/s) = 3.62224 4.07606 3.85583
# Velocity P-wave (km/s) = 6.28971 8.22926 7.32397
#
# Compressibility (1/GPa) = 0.02424319
#
# Stress axis : x y z
#
# Youngs Moduli (GPa) = 128.23652 35.85023 71.88318
#
# Poissons Ratio (x) = 0.10374 0.42604
# Poissons Ratio (y) = 0.37109 0.27743
# Poissons Ratio (z) = 0.76004 0.13836
#
# Static dielectric constant tensor:
#      x y z
#    x 1.673140 0.000000 -0.027700 
#    y 0.000000 1.655270 0.000000 
#    z -0.027700 0.000000 1.620760 
# 
# From -- ./inp_files/100992.got.cif
#   From: 2010.05.17/outbox.cif.g08.bks.cpg/sg12_51_cif.got.tgz:100992.got - 2010.06.03 13:09:07.
