data_PCOD9220978
_publ_section_title
;
Structure prediction by ZEFSAII (Michael W. Deem and Ramdas Pophale) SiO2 
 PCOD9220978
Probable space group: C 2/M
;
_chemical_formula_sum "Si O2"
_cell_formula_units_Z 44
_cell_length_a 16.054552
_cell_length_b 18.053039
_cell_length_c 12.034539
_cell_angle_alpha 90.000000
_cell_angle_beta 42.941141
_cell_angle_gamma 90.000000
_cell_volume 2376.196638
_symmetry_space_group_name_H-M "C 2/M"
_symmetry_group_IT_number 12
_symmetry_cell_setting 'monoclinic'
loop_
_space_group_symop_operation_xyz
x,y,z
-x,y,-z
-x,-y,-z
x,-y,z
1/2+x,1/2+y,z
1/2-x,1/2+y,-z
1/2-x,1/2-y,-z
1/2+x,1/2-y,z
loop_
_atom_site_type_symbol
_atom_site_label
_atom_site_fract_x
_atom_site_fract_y
_atom_site_fract_z
Si Si1 0.360726 0.307051 0.921678
Si Si2 0.000000 0.768534 0.000000
Si Si3 0.791221 0.414682 0.055771
Si Si4 0.060053 0.415431 0.682637
Si Si5 0.204137 0.665220 0.714918
Si Si6 0.559514 0.239115 0.563085
O O1 0.305433 0.385247 0.939124
O O2 0.470548 0.280286 0.736130
O O3 0.250000 0.250000 0.000000
O O4 0.409007 0.307615 0.001163
O O5 0.914181 0.717246 0.159227
O O6 0.772638 0.500000 0.101523
O O7 0.774753 0.366332 0.182601
O O8 0.928119 0.407043 0.872488
O O9 0.066501 0.500000 0.633270
O O10 0.165560 0.400519 0.670447
O O11 0.072875 0.346845 0.585580
O O12 0.314513 0.715539 0.565025
O O13 0.500000 0.241980 0.500000
#
# Coordination Sequence:
#
# PCOD9220978 Si02
#       6
#     8   4   8   8   8   8
#     4  12  21  42  61  95 126 164 216 253 313 374
#     4  12  22  36  70  90 120 164 214 262 298 366
#     4  11  22  40  66  92 124 165 210 263 314 365
#     4  11  23  39  61  94 127 161 210 265 316 366
#     4  12  20  38  63  96 121 159 212 262 313 368
#     4  12  23  37  65  91 123 168 208 256 311 381
#
# _framework density 18.516985999999999
#
# number of rings (size 3 to 8) (size 9 to 14) (size 15 to 20)
#    0.000    0.364    9.091    1.091    0.000    1.818 
#    0.000    3.182    0.000    0.000    0.000    0.000 
#    0.000    0.000    0.000    0.000    0.000    0.000 
#
# Total GULP energy -122831.416070 kJ/mol
# GULP energy per Si atom -5583.246185 kJ/mol
# Density = 1.847484 g / cm^3
# Si number density = 18.516986 Si / 1000 Ang^3
#
#
#
# Elastic Constant Matrix: (Units=GPa)
#
#
# Indices 1 2 3 4 5 6 
#
# 1 111.7936 36.3187 20.3179 0.0000 4.3003 0.0000
# 2 36.3187 109.4178 45.7365 0.0000 -14.2571 0.0000
# 3 20.3179 45.7365 78.6614 0.0000 -21.3269 0.0000
# 4 0.0000 0.0000 0.0000 23.7883 0.0000 0.0142
# 5 4.3003 -14.2571 -21.3269 0.0000 32.6072 0.0000
# 6 0.0000 0.0000 0.0000 0.0142 0.0000 27.1856
#
#
#
# Elastic Compliance Matrix: (Units=1/GPa)
#
#
# Indices 1 2 3 4 5 6 
#
# 1 0.010494 -0.003196 -0.001953 0.000000 -0.004059 0.000000
# 2 -0.003196 0.013066 -0.006209 0.000000 0.002073 0.000000
# 3 -0.001953 -0.006209 0.019645 0.000000 0.010391 0.000000
# 4 0.000000 0.000000 0.000000 0.042037 0.000000 -0.000022
# 5 -0.004059 0.002073 0.010391 0.000000 0.038906 0.000000
# 6 0.000000 0.000000 0.000000 -0.000022 0.000000 0.036784
#
#
# Mechanical properties :
#
#
# Convention : Reuss Voigt Hill
#
# Bulk Modulus (GPa) = 48.80732 56.06878 52.43805
# Shear Modulus (GPa) = 26.24971 29.88288 28.06629
#
# Velocity S-wave (km/s) = 3.76919 4.02158 3.89743
# Velocity P-wave (km/s) = 6.73482 7.20483 6.97378
#
# Compressibility (1/GPa) = 0.02048873
#
# Stress axis : x y z
#
# Youngs Moduli (GPa) = 95.28928 76.53632 50.90413
#
# Poissons Ratio (x) = 0.24460 0.09941
# Poissons Ratio (y) = 0.30454 0.31608
# Poissons Ratio (z) = 0.18608 0.47524
#
# Static dielectric constant tensor:
#      x y z
#    x 1.615770 0.000000 -0.077180 
#    y 0.000000 1.639450 0.000000 
#    z -0.077180 0.000000 1.503670 
# 
# From -- ./inp_files/61630.got.cif
#   From: 2010.05.17/outbox.cif.g08.bks.cpg/sg12_31_cif.got.tgz:61630.got - 2010.06.03 13:09:07.
