data_PCOD9220260
_publ_section_title
;
Structure prediction by ZEFSAII (Michael W. Deem and Ramdas Pophale) SiO2 
 PCOD9220260
Probable space group: C 2/M
;
_chemical_formula_sum "Si O2"
_cell_formula_units_Z 56
_cell_length_a 12.430028
_cell_length_b 27.217604
_cell_length_c 8.940434
_cell_angle_alpha 90.000000
_cell_angle_beta 69.904848
_cell_angle_gamma 90.000000
_cell_volume 2840.555163
_symmetry_space_group_name_H-M "C 2/M"
_symmetry_group_IT_number 12
_symmetry_cell_setting 'monoclinic'
loop_
_space_group_symop_operation_xyz
x,y,z
-x,y,-z
-x,-y,-z
x,-y,z
1/2+x,1/2+y,z
1/2-x,1/2+y,-z
1/2-x,1/2-y,-z
1/2+x,1/2-y,z
loop_
_atom_site_type_symbol
_atom_site_label
_atom_site_fract_x
_atom_site_fract_y
_atom_site_fract_z
Si Si1 0.181684 0.849269 0.736154
Si Si2 0.325956 0.442836 0.695731
Si Si3 0.830938 0.293130 0.907578
Si Si4 0.080494 0.943361 0.688101
Si Si5 0.611600 0.124027 0.879028
Si Si6 0.466493 0.731186 0.350331
Si Si7 0.106955 0.332306 0.561137
O O1 0.254771 0.827173 0.836083
O O2 0.128789 0.903039 0.778164
O O3 0.083514 0.811241 0.729690
O O4 0.276708 0.852763 0.560976
O O5 0.293064 0.500000 0.730413
O O6 0.445846 0.434682 0.723900
O O7 0.358612 0.436764 0.504086
O O8 0.226093 0.407856 0.804086
O O9 0.931946 0.263499 0.773400
O O10 0.750000 0.250000 0.000000
O O11 0.869009 0.328092 0.025545
O O12 0.097489 0.000000 0.725176
O O13 0.579684 0.142222 0.729316
O O14 0.500000 0.097307 0.000000
O O15 0.500000 0.711894 0.500000
O O16 0.374775 0.774219 0.423155
O O17 0.000000 0.338347 0.500000
#
# Coordination Sequence:
#
# PCOD9220260 Si02
#       7
#     8   8   8   8   8   8   8
#     4  12  23  40  68  91 126 172 218 263 325 385
#     4   9  20  40  65  97 127 159 214 274 324 379
#     4  12  28  41  57  94 137 166 209 261 322 386
#     4   9  20  40  69 100 124 157 220 286 320 362
#     4  12  23  40  65  89 130 174 207 256 326 389
#     4  11  24  40  62  91 124 171 221 264 310 385
#     4  11  21  41  61  90 124 167 219 265 306 376
#
# _framework density 19.714455999999998
#
# number of rings (size 3 to 8) (size 9 to 14) (size 15 to 20)
#    0.000    1.143    5.714    2.143    6.000    0.286 
#    0.000    0.714    0.000    5.143    0.000    0.000 
#    0.000    0.000    0.000    0.000    0.000    0.000 
#
# Total GULP energy -156335.447047 kJ/mol
# GULP energy per Si atom -5583.408823 kJ/mol
# Density = 1.966959 g / cm^3
# Si number density = 19.714456 Si / 1000 Ang^3
#
#
#
# Elastic Constant Matrix: (Units=GPa)
#
#
# Indices 1 2 3 4 5 6 
#
# 1 102.9251 86.9266 55.4371 0.0000 -11.2886 0.0000
# 2 86.9266 110.0478 40.2367 0.0000 -2.5829 0.0000
# 3 55.4371 40.2367 90.1670 0.0000 -0.7822 0.0000
# 4 0.0000 0.0000 0.0000 20.1669 0.0000 -2.2304
# 5 -11.2886 -2.5829 -0.7822 0.0000 29.8259 0.0000
# 6 0.0000 0.0000 0.0000 -2.2304 0.0000 42.8332
#
#
#
# Elastic Compliance Matrix: (Units=1/GPa)
#
#
# Indices 1 2 3 4 5 6 
#
# 1 0.041769 -0.027889 -0.013122 0.000000 0.013049 0.000000
# 2 -0.027889 0.029500 0.003914 0.000000 -0.007898 0.000000
# 3 -0.013122 0.003914 0.017375 0.000000 -0.004172 0.000000
# 4 0.000000 0.000000 0.000000 0.049874 0.000000 0.002597
# 5 0.013049 -0.007898 -0.004172 0.000000 0.037673 0.000000
# 6 0.000000 0.000000 0.000000 0.002597 0.000000 0.023482
#
#
# Mechanical properties :
#
#
# Convention : Reuss Voigt Hill
#
# Bulk Modulus (GPa) = 69.20208 74.26006 71.73107
# Shear Modulus (GPa) = 17.94156 26.60117 22.27137
#
# Velocity S-wave (km/s) = 3.02001 3.67730 3.36474
# Velocity P-wave (km/s) = 6.88034 7.46858 7.18048
#
# Compressibility (1/GPa) = 0.01445043
#
# Stress axis : x y z
#
# Youngs Moduli (GPa) = 23.94144 33.89847 57.55268
#
# Poissons Ratio (x) = 0.94539 0.75520
# Poissons Ratio (y) = 0.66770 -0.22527
# Poissons Ratio (z) = 0.31416 -0.13268
#
# Static dielectric constant tensor:
#      x y z
#    x 1.740350 0.000000 0.021560 
#    y 0.000000 1.673980 0.000000 
#    z 0.021560 0.000000 1.782690 
# 
# From -- ./inp_files/53194.got.cif
#   From: 2010.05.17/outbox.cif.g08.bks.cpg/sg12_27_cif.got.tgz:53194.got - 2010.06.03 13:09:07.
