data_PCOD9220310
_publ_section_title
;
Structure prediction by ZEFSAII (Michael W. Deem and Ramdas Pophale) SiO2 
 PCOD9220310
Probable space group: C 2/M
;
_chemical_formula_sum "Si O2"
_cell_formula_units_Z 58
_cell_length_a 24.264649
_cell_length_b 30.378213
_cell_length_c 9.191782
_cell_angle_alpha 90.000000
_cell_angle_beta 27.015882
_cell_angle_gamma 90.000000
_cell_volume 3077.647682
_symmetry_space_group_name_H-M "C 2/M"
_symmetry_group_IT_number 12
_symmetry_cell_setting 'monoclinic'
loop_
_space_group_symop_operation_xyz
x,y,z
-x,y,-z
-x,-y,-z
x,-y,z
1/2+x,1/2+y,z
1/2-x,1/2+y,-z
1/2-x,1/2-y,-z
1/2+x,1/2-y,z
loop_
_atom_site_type_symbol
_atom_site_label
_atom_site_fract_x
_atom_site_fract_y
_atom_site_fract_z
Si Si1 0.193348 0.345550 0.690844
Si Si2 0.299342 0.810060 0.643351
Si Si3 0.609463 0.286113 0.626466
Si Si4 0.500000 0.500000 0.000000
Si Si5 0.342487 0.578137 0.219543
Si Si6 0.595591 0.051187 0.646728
Si Si7 0.535572 0.344967 0.251282
Si Si8 0.463364 0.128834 0.420183
O O1 0.159885 0.333657 0.603353
O O2 0.276735 0.306931 0.557275
O O3 0.276367 0.389413 0.490552
O O4 0.076069 0.352413 0.063274
O O5 0.351926 0.761350 0.522856
O O6 0.351269 0.838728 0.653021
O O7 0.154388 0.813646 0.978625
O O8 0.565098 0.318838 0.603842
O O9 0.500000 0.281965 0.000000
O O10 0.582965 0.539008 0.883815
O O11 0.231084 0.559724 0.385819
O O12 0.424731 0.611087 0.929085
O O13 0.569742 0.081998 0.571159
O O14 0.578589 0.000000 0.653145
O O15 0.500000 0.062825 0.000000
O O16 0.500000 0.355197 0.500000
O O17 0.500000 0.125944 0.500000
#
# Coordination Sequence:
#
# PCOD9220310 Si02
#       8
#     8   8   8   2   8   8   8   8
#     4  11  22  42  67  94 127 174 213 269 322 388
#     4  11  24  42  66  91 129 173 222 271 316 374
#     4  12  23  39  67 100 123 169 231 272 312 380
#     4  12  24  40  68 116 116 160 226 280 300 386
#     4  11  21  42  71  92 132 165 214 264 320 390
#     4  11  21  41  71  97 123 166 209 266 328 385
#     4  11  26  44  64  91 137 180 207 264 337 390
#     4  12  25  41  65  95 131 168 214 265 327 388
#
# _framework density 18.845562999999999
#
# number of rings (size 3 to 8) (size 9 to 14) (size 15 to 20)
#    0.000    0.690    7.586    2.483    3.862    1.379 
#    0.000    0.345    3.034    0.000    0.000    0.000 
#    0.000    0.000    0.000    0.000    0.000    0.000 
#
# Total GULP energy -161873.619838 kJ/mol
# GULP energy per Si atom -5581.848960 kJ/mol
# Density = 1.880267 g / cm^3
# Si number density = 18.845563 Si / 1000 Ang^3
#
#
#
# Elastic Constant Matrix: (Units=GPa)
#
#
# Indices 1 2 3 4 5 6 
#
# 1 130.3304 40.4537 9.8567 -0.0001 -17.2387 0.0002
# 2 40.4537 100.6315 -2.2835 0.0000 -18.7359 0.0000
# 3 9.8567 -2.2835 38.5410 -0.0006 -11.4162 -0.0001
# 4 -0.0001 0.0000 -0.0006 17.4792 0.0001 -16.7539
# 5 -17.2387 -18.7359 -11.4162 0.0001 16.5796 0.0001
# 6 0.0002 0.0000 -0.0001 -16.7539 0.0001 17.9283
#
#
#
# Elastic Compliance Matrix: (Units=1/GPa)
#
#
# Indices 1 2 3 4 5 6 
#
# 1 0.009370 -0.002602 -0.000673 -0.000001 0.006339 -0.000001
# 2 -0.002602 0.014622 0.007066 0.000001 0.018684 0.000001
# 3 -0.000673 0.007066 0.036047 0.000010 0.032107 0.000010
# 4 -0.000001 0.000001 0.000010 0.548610 0.000003 0.512673
# 5 0.006339 0.018684 0.032107 0.000003 0.110128 0.000003
# 6 -0.000001 0.000001 0.000010 0.512673 0.000003 0.534868
#
#
# Mechanical properties :
#
#
# Convention : Reuss Voigt Hill
#
# Bulk Modulus (GPa) = 14.78790 40.61741 27.70265
# Shear Modulus (GPa) = 3.94134 25.16248 14.55191
#
# Velocity S-wave (km/s) = 1.44773 3.65799 2.78180
# Velocity P-wave (km/s) = 3.26473 6.28019 5.00496
#
# Compressibility (1/GPa) = 0.06762287
#
# Stress axis : x y z
#
# Youngs Moduli (GPa) = 106.72742 68.38928 27.74118
#
# Poissons Ratio (x) = 0.17793 0.01866
# Poissons Ratio (y) = 0.27767 -0.19602
# Poissons Ratio (z) = 0.07180 -0.48325
#
# Static dielectric constant tensor:
#      x y z
#    x 1.639430 0.000000 -0.006530 
#    y 0.000000 1.642280 0.000000 
#    z -0.006530 0.000000 1.658340 
# 
# From -- ./inp_files/54225.got.cif
#   From: 2010.05.17/outbox.cif.g08.bks.cpg/sg12_28_cif.got.tgz:54225.got - 2010.06.03 13:09:07.
