data_PCOD9220814
_publ_section_title
;
Structure prediction by ZEFSAII (Michael W. Deem and Ramdas Pophale) SiO2 
 PCOD9220814
Probable space group: C 2/M
;
_chemical_formula_sum "Si O2"
_cell_formula_units_Z 48
_cell_length_a 8.538144
_cell_length_b 18.447823
_cell_length_c 15.119281
_cell_angle_alpha 90.000000
_cell_angle_beta 96.397448
_cell_angle_gamma 90.000000
_cell_volume 2366.611001
_symmetry_space_group_name_H-M "C 2/M"
_symmetry_group_IT_number 12
_symmetry_cell_setting 'monoclinic'
loop_
_space_group_symop_operation_xyz
x,y,z
-x,y,-z
-x,-y,-z
x,-y,z
1/2+x,1/2+y,z
1/2-x,1/2+y,-z
1/2-x,1/2-y,-z
1/2+x,1/2-y,z
loop_
_atom_site_type_symbol
_atom_site_label
_atom_site_fract_x
_atom_site_fract_y
_atom_site_fract_z
Si Si1 0.448663 0.305874 0.251076
Si Si2 0.907989 0.581839 0.402370
Si Si3 0.859147 0.810792 0.556997
Si Si4 0.395833 0.914981 0.916558
Si Si5 0.039878 0.912929 0.899075
Si Si6 0.576622 0.159381 0.252727
O O1 0.550482 0.291475 0.346543
O O2 0.522280 0.366376 0.189064
O O3 0.474740 0.227152 0.210387
O O4 0.266007 0.323259 0.265458
O O5 0.881264 0.500000 0.367504
O O6 0.750515 0.623803 0.418889
O O7 0.000000 0.577482 0.500000
O O8 0.009991 0.628951 0.340241
O O9 0.750000 0.750000 0.500000
O O10 0.000000 0.831184 0.500000
O O11 0.220089 0.886827 0.908354
O O12 0.454099 0.902272 0.822057
O O13 0.381111 0.000000 0.933351
O O14 0.500000 0.881726 0.000000
O O15 0.022069 0.000000 0.881226
O O16 0.000000 0.901321 0.000000
#
# Coordination Sequence:
#
# PCOD9220814 Si02
#       6
#     8   8   8   8   8   8
#     4  11  23  38  62  90 120 161 207 252 309 371
#     4  11  24  41  62  88 118 155 199 248 304 365
#     4  12  24  41  64  90 123 163 205 253 307 367
#     4   9  19  36  58  82 112 155 199 242 300 365
#     4   9  20  39  61  87 121 159 201 253 311 369
#     4  11  22  39  59  87 122 156 199 253 305 359
#
# _framework density 20.282164999999999
#
# number of rings (size 3 to 8) (size 9 to 14) (size 15 to 20)
#    0.000    1.500    0.000    6.000    0.000    5.000 
#    0.000    5.000    0.000    0.000    0.000    0.000 
#    0.000    0.000    0.000    0.000    0.000    0.000 
#
# Total GULP energy -133633.380776 kJ/mol
# GULP energy per Si atom -5568.057532 kJ/mol
# Density = 2.023600 g / cm^3
# Si number density = 20.282165 Si / 1000 Ang^3
#
#
#
# Elastic Constant Matrix: (Units=GPa)
#
#
# Indices 1 2 3 4 5 6 
#
# 1 82.5482 38.0538 34.0814 0.0000 -15.6785 0.0000
# 2 38.0538 73.5900 22.3149 0.0000 -12.2409 0.0000
# 3 34.0814 22.3149 114.4690 0.0000 -14.2166 0.0000
# 4 0.0000 0.0000 0.0000 1.4481 0.0000 -11.0887
# 5 -15.6785 -12.2409 -14.2166 0.0000 39.3178 0.0000
# 6 0.0000 0.0000 0.0000 -11.0887 0.0000 22.3968
#
#
#
# Elastic Compliance Matrix: (Units=1/GPa)
#
#
# Indices 1 2 3 4 5 6 
#
# 1 0.017624 -0.007519 -0.003350 0.000000 0.003475 0.000000
# 2 -0.007519 0.018167 -0.001018 0.000000 0.002289 0.000000
# 3 -0.003350 -0.001018 0.010184 0.000000 0.002030 0.000000
# 4 0.000000 0.000000 0.000000 -0.247404 0.000000 -0.122490
# 5 0.003475 0.002289 0.002030 0.000000 0.028266 0.000000
# 6 0.000000 0.000000 0.000000 -0.122490 0.000000 -0.015996
#
#
# Mechanical properties :
#
#
# Convention : Reuss Voigt Hill
#
# Bulk Modulus (GPa) = 45.04649 51.05637 48.05143
# Shear Modulus (GPa) = -31.64865 24.37633 -3.63616
#
# Velocity S-wave (km/s) = -3.95450 3.47055 -1.34040
# Velocity P-wave (km/s) = 1.18633 6.42552 4.62032
#
# Compressibility (1/GPa) = 0.02219929
#
# Stress axis : x y z
#
# Youngs Moduli (GPa) = 56.74222 55.04574 98.19436
#
# Poissons Ratio (x) = 0.41391 0.32892
# Poissons Ratio (y) = 0.42667 0.10000
# Poissons Ratio (z) = 0.19007 0.05606
#
# Static dielectric constant tensor:
#      x y z
#    x 1.751270 0.000000 0.051790 
#    y 0.000000 1.775580 0.000000 
#    z 0.051790 0.000000 1.852950 
# 
# From -- ./inp_files/195932.got.cif
#   From: 2010.05.17/outbox.cif.g08.bks.cpg/sg12_98_cif.got.tgz:195932.got - 2010.06.03 13:09:07.
