data_PCOD9220491
_publ_section_title
;
Structure prediction by ZEFSAII (Michael W. Deem and Ramdas Pophale) SiO2 
 PCOD9220491
Probable space group: C 2/M
;
_chemical_formula_sum "Si O2"
_cell_formula_units_Z 44
_cell_length_a 9.547894
_cell_length_b 22.448227
_cell_length_c 9.058429
_cell_angle_alpha 90.000000
_cell_angle_beta 105.445195
_cell_angle_gamma 90.000000
_cell_volume 1871.406037
_symmetry_space_group_name_H-M "C 2/M"
_symmetry_group_IT_number 12
_symmetry_cell_setting 'monoclinic'
loop_
_space_group_symop_operation_xyz
x,y,z
-x,y,-z
-x,-y,-z
x,-y,z
1/2+x,1/2+y,z
1/2-x,1/2+y,-z
1/2-x,1/2-y,-z
1/2+x,1/2-y,z
loop_
_atom_site_type_symbol
_atom_site_label
_atom_site_fract_x
_atom_site_fract_y
_atom_site_fract_z
Si Si1 0.981329 0.500000 0.316512
Si Si2 0.571411 0.500000 0.363239
Si Si3 0.255730 0.000000 0.837169
Si Si4 0.475056 0.181420 0.241671
Si Si5 0.491851 0.690471 0.832737
Si Si6 0.800022 0.633117 0.906027
Si Si7 0.732005 0.896973 0.699289
O O1 0.879174 0.443368 0.253669
O O2 0.000000 0.500000 0.500000
O O3 0.136859 0.500000 0.277850
O O4 0.500000 0.500000 0.500000
O O5 0.422174 0.500000 0.223255
O O6 0.675334 0.442557 0.374602
O O7 0.297975 0.937891 0.924898
O O8 0.514145 0.250639 0.267919
O O9 0.617481 0.147975 0.223283
O O10 0.386256 0.155546 0.355418
O O11 0.370449 0.166978 0.067291
O O12 0.638155 0.655794 0.840626
O O13 0.363681 0.642616 0.799005
O O14 0.500000 0.715696 0.000000
#
# Coordination Sequence:
#
# PCOD9220491 Si02
#       7
#     4   4   4   8   8   8   8
#     4  11  25  46  68  87 117 161 223 288 338 383
#     4  11  25  46  68  90 118 159 218 291 347 378
#     4  12  22  39  62  91 124 166 214 279 327 373
#     4  11  22  38  60  94 137 181 211 243 303 391
#     4  12  21  38  63  96 142 178 212 250 302 387
#     4  11  22  35  57  94 137 180 209 249 309 385
#     4  11  23  41  68  98 122 168 222 260 324 393
#
# _framework density 23.511733
#
# number of rings (size 3 to 8) (size 9 to 14) (size 15 to 20)
#    0.000    0.727    7.273    2.727    0.000    2.909 
#    0.000    3.182    0.000    3.273    0.000    0.000 
#    0.000    0.000    0.000    0.000    0.000    0.000 
#
# Total GULP energy -122509.968148 kJ/mol
# GULP energy per Si atom -5568.634916 kJ/mol
# Density = 2.345822 g / cm^3
# Si number density = 23.511733 Si / 1000 Ang^3
#
#
#
# Elastic Constant Matrix: (Units=GPa)
#
#
# Indices 1 2 3 4 5 6 
#
# 1 202.3950 36.7314 28.3368 0.0000 -11.4927 0.0000
# 2 36.7314 157.4147 16.4661 0.0000 0.1463 0.0000
# 3 28.3368 16.4661 46.3178 0.0000 0.6836 0.0000
# 4 0.0000 0.0000 0.0000 -174.7256 0.0000 29.2915
# 5 -11.4927 0.1463 0.6836 0.0000 30.1361 0.0000
# 6 0.0000 0.0000 0.0000 29.2915 0.0000 -21.4913
#
#
#
# Elastic Compliance Matrix: (Units=1/GPa)
#
#
# Indices 1 2 3 4 5 6 
#
# 1 0.005692 -0.001000 -0.003160 0.000000 0.002247 0.000000
# 2 -0.001000 0.006774 -0.001791 0.000000 -0.000374 0.000000
# 3 -0.003160 -0.001791 0.024186 0.000000 -0.001745 0.000000
# 4 0.000000 0.000000 0.000000 -0.007418 0.000000 -0.010111
# 5 0.002247 -0.000374 -0.001745 0.000000 0.034081 0.000000
# 6 0.000000 0.000000 0.000000 -0.010111 0.000000 -0.060311
#
#
# Mechanical properties :
#
#
# Convention : Reuss Voigt Hill
#
# Bulk Modulus (GPa) = 40.40413 63.24402 51.82408
# Shear Modulus (GPa) = 215.92692 -11.57661 102.17515
#
# Velocity S-wave (km/s) = 9.59361 -2.22136 6.59935
# Velocity P-wave (km/s) = 11.82956 4.51421 8.95311
#
# Compressibility (1/GPa) = 0.02474994
#
# Stress axis : x y z
#
# Youngs Moduli (GPa) = 175.67426 147.63174 41.34654
#
# Poissons Ratio (x) = 0.14760 0.13067
# Poissons Ratio (y) = 0.17563 0.07405
# Poissons Ratio (z) = 0.55518 0.26439
#
# Static dielectric constant tensor:
#      x y z
#    x 1.931420 0.000000 0.027490 
#    y 0.000000 2.012500 0.000000 
#    z 0.027490 0.000000 2.126780 
# 
# From -- ./inp_files/120863.got.cif
#   From: 2010.05.17/outbox.cif.g08.bks.cpg/sg12_61_cif.got.tgz:120863.got - 2010.06.03 13:09:07.
