data_PCOD9220860
_publ_section_title
;
Structure prediction by ZEFSAII (Michael W. Deem and Ramdas Pophale) SiO2 
 PCOD9220860
Probable space group: C 2/M
;
_chemical_formula_sum "Si O2"
_cell_formula_units_Z 40
_cell_length_a 17.838182
_cell_length_b 14.620849
_cell_length_c 14.734682
_cell_angle_alpha 90.000000
_cell_angle_beta 23.785435
_cell_angle_gamma 90.000000
_cell_volume 1549.907719
_symmetry_space_group_name_H-M "C 2/M"
_symmetry_group_IT_number 12
_symmetry_cell_setting 'monoclinic'
loop_
_space_group_symop_operation_xyz
x,y,z
-x,y,-z
-x,-y,-z
x,-y,z
1/2+x,1/2+y,z
1/2-x,1/2+y,-z
1/2-x,1/2-y,-z
1/2+x,1/2-y,z
loop_
_atom_site_type_symbol
_atom_site_label
_atom_site_fract_x
_atom_site_fract_y
_atom_site_fract_z
Si Si1 0.694682 0.095058 0.731294
Si Si2 0.157315 0.345611 0.572515
Si Si3 0.750266 0.891679 0.961329
Si Si4 0.805446 0.752328 0.732257
Si Si5 0.530417 0.398259 0.097862
O O1 0.654720 0.099871 0.670055
O O2 0.792128 0.184909 0.658034
O O3 0.797187 0.000000 0.638593
O O4 0.500000 0.094525 0.000000
O O5 0.250000 0.250000 0.500000
O O6 0.309015 0.388319 0.338033
O O7 0.942341 0.351739 0.782202
O O8 0.793148 0.826120 0.828565
O O9 0.907481 0.887643 0.864863
O O10 0.728768 0.000000 0.961648
O O11 0.000000 0.702542 0.500000
O O12 0.638240 0.682521 0.929260
O O13 0.587697 0.500000 0.006096
#
# Coordination Sequence:
#
# PCOD9220860 Si02
#       5
#     8   8   8   8   8
#     4  11  22  39  63  97 135 165 206 270 335 391
#     4  12  23  41  73  97 133 175 216 268 332 395
#     4  11  23  42  69 100 131 169 219 274 329 394
#     4  12  25  40  65  93 134 171 216 270 331 387
#     4  11  25  45  67  94 132 177 226 271 319 390
#
# _framework density 25.807988999999999
#
# number of rings (size 3 to 8) (size 9 to 14) (size 15 to 20)
#    0.000    0.600    4.000    4.200    2.800    3.600 
#    0.000    0.000    0.000    1.800    0.000    0.000 
#    0.000    0.000    0.000    0.000    0.000    0.000 
#
# Total GULP energy -112084.982213 kJ/mol
# GULP energy per Si atom -5604.249111 kJ/mol
# Density = 2.574925 g / cm^3
# Si number density = 25.807989 Si / 1000 Ang^3
#
#
#
# Elastic Constant Matrix: (Units=GPa)
#
#
# Indices 1 2 3 4 5 6 
#
# 1 76.5307 4.1458 8.7092 0.0026 10.1632 0.0047
# 2 4.1458 141.1484 17.6144 0.0037 11.9087 0.0071
# 3 8.7092 17.6144 156.7703 0.0012 -4.5528 0.0078
# 4 0.0026 0.0037 0.0012 80.2438 -0.0035 44.3487
# 5 10.1632 11.9087 -4.5528 -0.0035 31.8036 -0.0060
# 6 0.0047 0.0071 0.0078 44.3487 -0.0060 67.9272
#
#
#
# Elastic Compliance Matrix: (Units=1/GPa)
#
#
# Indices 1 2 3 4 5 6 
#
# 1 0.013771 0.000094 -0.000908 0.000000 -0.004566 -0.000001
# 2 0.000094 0.007447 -0.000928 0.000000 -0.002951 -0.000001
# 3 -0.000908 -0.000928 0.006579 0.000000 0.001579 -0.000001
# 4 0.000000 0.000000 0.000000 0.019497 0.000000 -0.012729
# 5 -0.004566 -0.002951 0.001579 0.000000 0.034233 0.000004
# 6 -0.000001 -0.000001 -0.000001 -0.012729 0.000004 0.023033
#
#
# Mechanical properties :
#
#
# Convention : Reuss Voigt Hill
#
# Bulk Modulus (GPa) = 41.12895 48.37648 44.75272
# Shear Modulus (GPa) = 43.04830 58.92693 50.98762
#
# Velocity S-wave (km/s) = 4.08857 4.78355 4.44965
# Velocity P-wave (km/s) = 6.18544 7.02106 6.61646
#
# Compressibility (1/GPa) = 0.02431377
#
# Stress axis : x y z
#
# Youngs Moduli (GPa) = 72.61495 134.28697 151.99156
#
# Poissons Ratio (x) = -0.01263 0.13804
# Poissons Ratio (y) = -0.00683 0.14099
# Poissons Ratio (z) = 0.06595 0.12457
#
# Static dielectric constant tensor:
#      x y z
#    x 2.065440 0.000000 -0.032720 
#    y 0.000000 2.040570 0.000000 
#    z -0.032720 0.000000 2.020710 
# 
# From -- ./inp_files/59079.got.cif
#   From: 2010.05.17/outbox.cif.g08.bks.cpg/sg12_30_cif.got.tgz:59079.got - 2010.06.03 13:09:07.
