data_PCOD9220506
_publ_section_title
;
Structure prediction by ZEFSAII (Michael W. Deem and Ramdas Pophale) SiO2 
 PCOD9220506
Probable space group: C 2/M
;
_chemical_formula_sum "Si O2"
_cell_formula_units_Z 56
_cell_length_a 31.584388
_cell_length_b 12.931883
_cell_length_c 14.649499
_cell_angle_alpha 90.000000
_cell_angle_beta 33.578527
_cell_angle_gamma 90.000000
_cell_volume 3309.363337
_symmetry_space_group_name_H-M "C 2/M"
_symmetry_group_IT_number 12
_symmetry_cell_setting 'monoclinic'
loop_
_space_group_symop_operation_xyz
x,y,z
-x,y,-z
-x,-y,-z
x,-y,z
1/2+x,1/2+y,z
1/2-x,1/2+y,-z
1/2-x,1/2-y,-z
1/2+x,1/2-y,z
loop_
_atom_site_type_symbol
_atom_site_label
_atom_site_fract_x
_atom_site_fract_y
_atom_site_fract_z
Si Si1 0.587186 0.113505 0.375633
Si Si2 0.901617 0.769916 0.482139
Si Si3 0.260567 0.875161 0.230250
Si Si4 0.554626 0.125146 0.764270
Si Si5 0.822048 0.282491 0.931596
Si Si6 0.961061 0.120784 0.670650
Si Si7 0.111726 0.375641 0.858214
O O1 0.500000 0.127603 0.500000
O O2 0.609904 0.200156 0.406809
O O3 0.637659 0.124521 0.194993
O O4 0.594652 0.000000 0.403838
O O5 0.826283 0.837680 0.601784
O O6 0.918566 0.691160 0.369649
O O7 0.975208 0.840312 0.372408
O O8 0.313498 0.843158 0.220932
O O9 0.263551 0.000000 0.214554
O O10 0.295423 0.819995 0.078221
O O11 0.601495 0.155940 0.771438
O O12 0.560574 0.000000 0.739851
O O13 0.465936 0.149882 0.947244
O O14 0.885834 0.191640 0.816155
O O15 0.750000 0.250000 0.000000
O O16 0.000000 0.131880 0.500000
O O17 0.942809 0.000000 0.715358
O O18 0.112904 0.500000 0.852983
#
# Coordination Sequence:
#
# PCOD9220506 Si02
#       7
#     8   8   8   8   8   8   8
#     4  11  22  36  53  77 109 140 180 226 266 313
#     4  12  20  36  54  80 110 145 185 212 270 327
#     4  11  23  36  55  80 111 144 181 227 267 316
#     4   9  18  34  59  83 109 140 176 227 273 319
#     4  12  21  38  54  78 107 143 184 222 266 318
#     4  11  22  38  56  75 108 147 183 222 262 319
#     4   8  17  35  56  83 108 135 178 224 275 320
#
# _framework density 16.921683999999999
#
# number of rings (size 3 to 8) (size 9 to 14) (size 15 to 20)
#    0.000    1.429    4.286    3.000    0.000    2.857 
#    0.000    0.000    0.000    0.000    0.000   19.000 
#    0.000    0.000    0.000    0.000    0.000    0.000 
#
# Total GULP energy -156206.701612 kJ/mol
# GULP energy per Si atom -5578.810772 kJ/mol
# Density = 1.688317 g / cm^3
# Si number density = 16.921684 Si / 1000 Ang^3
#
#
#
# Elastic Constant Matrix: (Units=GPa)
#
#
# Indices 1 2 3 4 5 6 
#
# 1 132.6788 44.6296 54.8072 0.0000 -19.9925 0.0000
# 2 44.6296 94.0506 33.1056 0.0000 -6.6453 0.0000
# 3 54.8072 33.1056 83.9249 0.0000 -5.6983 0.0000
# 4 0.0000 0.0000 0.0000 25.9973 0.0000 3.2286
# 5 -19.9925 -6.6453 -5.6983 0.0000 33.2115 0.0000
# 6 0.0000 0.0000 0.0000 3.2286 0.0000 22.1957
#
#
#
# Elastic Compliance Matrix: (Units=1/GPa)
#
#
# Indices 1 2 3 4 5 6 
#
# 1 0.011987 -0.003105 -0.006228 0.000000 0.005526 0.000000
# 2 -0.003105 0.013242 -0.003180 0.000000 0.000235 0.000000
# 3 -0.006228 -0.003180 0.017139 0.000000 -0.001445 0.000000
# 4 0.000000 0.000000 0.000000 0.039173 0.000000 -0.005698
# 5 0.005526 0.000235 -0.001445 0.000000 0.033236 0.000000
# 6 0.000000 0.000000 0.000000 -0.005698 0.000000 0.045883
#
#
# Mechanical properties :
#
#
# Convention : Reuss Voigt Hill
#
# Bulk Modulus (GPa) = 57.66429 63.97101 60.81765
# Shear Modulus (GPa) = 26.11443 28.15504 27.13473
#
# Velocity S-wave (km/s) = 3.93269 4.08345 4.00878
# Velocity P-wave (km/s) = 7.40084 7.75364 7.57930
#
# Compressibility (1/GPa) = 0.01734176
#
# Stress axis : x y z
#
# Youngs Moduli (GPa) = 83.42468 75.51739 58.34772
#
# Poissons Ratio (x) = 0.23452 0.36338
# Poissons Ratio (y) = 0.25907 0.18552
# Poissons Ratio (z) = 0.51955 0.24011
#
# Static dielectric constant tensor:
#      x y z
#    x 1.594640 0.000000 -0.040490 
#    y 0.000000 1.563690 0.000000 
#    z -0.040490 0.000000 1.638770 
# 
# From -- ./inp_files/183473.got.cif
#   From: 2010.05.17/outbox.cif.g08.bks.cpg/sg12_92_cif.got.tgz:183473.got - 2010.06.03 13:09:07.
