data_PCOD9220190
_publ_section_title
;
Structure prediction by ZEFSAII (Michael W. Deem and Ramdas Pophale) SiO2 
 PCOD9220190
Probable space group: C 2/M
;
_chemical_formula_sum "Si O2"
_cell_formula_units_Z 58
_cell_length_a 18.153844
_cell_length_b 30.654279
_cell_length_c 11.799167
_cell_angle_alpha 90.000000
_cell_angle_beta 151.542260
_cell_angle_gamma 90.000000
_cell_volume 3128.840824
_symmetry_space_group_name_H-M "C 2/M"
_symmetry_group_IT_number 12
_symmetry_cell_setting 'monoclinic'
loop_
_space_group_symop_operation_xyz
x,y,z
-x,y,-z
-x,-y,-z
x,-y,z
1/2+x,1/2+y,z
1/2-x,1/2+y,-z
1/2-x,1/2-y,-z
1/2+x,1/2-y,z
loop_
_atom_site_type_symbol
_atom_site_label
_atom_site_fract_x
_atom_site_fract_y
_atom_site_fract_z
Si Si1 0.160013 0.550281 0.146287
Si Si2 0.188251 0.688150 0.108708
Si Si3 0.903154 0.421878 0.199571
Si Si4 0.339695 0.351174 0.100586
Si Si5 0.880035 0.654666 0.573515
Si Si6 0.500000 0.000000 0.500000
Si Si7 0.804972 0.130927 0.461072
Si Si8 0.319039 0.215511 0.285668
O O1 0.212504 0.500000 0.219650
O O2 0.274169 0.583871 0.362747
O O3 0.127270 0.564481 0.972563
O O4 0.000000 0.553307 0.000000
O O5 0.309286 0.664158 0.188112
O O6 0.206037 0.664875 0.252636
O O7 0.232748 0.738513 0.174823
O O8 0.020428 0.678548 0.829518
O O9 0.037918 0.385377 0.380405
O O10 0.949114 0.461923 0.339148
O O11 0.751311 0.396531 0.037412
O O12 0.517082 0.356251 0.309292
O O13 0.257976 0.314341 0.914445
O O14 0.758671 0.635165 0.498174
O O15 0.810668 0.688720 0.391090
O O16 0.500000 0.222242 0.500000
#
# Coordination Sequence:
#
# PCOD9220190 Si02
#       8
#     8   8   8   8   8   2   8   8
#     4  11  21  39  68  98 121 161 213 261 318 387
#     4  11  23  39  67  93 123 171 217 262 309 372
#     4  11  21  41  65  95 121 167 214 256 316 379
#     4  11  24  41  65  92 128 173 209 259 322 375
#     4  11  24  43  66  90 130 173 211 262 320 373
#     4  12  24  40  70 100 124 160 216 270 302 388
#     4  12  23  43  64  93 135 160 206 272 322 369
#     4  12  23  41  64  91 127 173 224 256 306 385
#
# _framework density 18.537216000000001
#
# number of rings (size 3 to 8) (size 9 to 14) (size 15 to 20)
#    0.000    0.690    7.586    2.897    1.931    1.103 
#    3.724    0.690    0.000    0.828    0.000    0.000 
#    0.000    0.000    0.000    0.000    0.000    0.000 
#
# Total GULP energy -161863.622353 kJ/mol
# GULP energy per Si atom -5581.504219 kJ/mol
# Density = 1.849502 g / cm^3
# Si number density = 18.537216 Si / 1000 Ang^3
#
#
#
# Elastic Constant Matrix: (Units=GPa)
#
#
# Indices 1 2 3 4 5 6 
#
# 1 46.3072 14.9916 9.7405 0.0000 -2.5332 0.0000
# 2 14.9916 143.0477 23.4507 0.0000 -11.0158 0.0000
# 3 9.7405 23.4507 28.4686 0.0000 2.9153 0.0000
# 4 0.0000 0.0000 0.0000 1.5514 0.0000 -23.1386
# 5 -2.5332 -11.0158 2.9153 0.0000 21.7996 0.0000
# 6 0.0000 0.0000 0.0000 -23.1386 0.0000 50.8573
#
#
#
# Elastic Compliance Matrix: (Units=1/GPa)
#
#
# Indices 1 2 3 4 5 6 
#
# 1 0.023698 -0.000979 -0.007638 0.000000 0.003281 0.000000
# 2 -0.000979 0.008709 -0.007379 0.000000 0.005274 0.000000
# 3 -0.007638 -0.007379 0.044906 0.000000 -0.010622 0.000000
# 4 0.000000 0.000000 0.000000 -0.111409 0.000000 -0.050688
# 5 0.003281 0.005274 -0.010622 0.000000 0.050339 0.000000
# 6 0.000000 0.000000 0.000000 -0.050688 0.000000 -0.003399
#
#
# Mechanical properties :
#
#
# Convention : Reuss Voigt Hill
#
# Bulk Modulus (GPa) = 22.06472 34.90988 28.48730
# Shear Modulus (GPa) = 83.41173 26.15104 54.78138
#
# Velocity S-wave (km/s) = 6.71525 3.76005 5.44208
# Velocity P-wave (km/s) = 8.48851 6.14197 7.40873
#
# Compressibility (1/GPa) = 0.04532123
#
# Stress axis : x y z
#
# Youngs Moduli (GPa) = 42.19793 114.82211 22.26871
#
# Poissons Ratio (x) = 0.11239 0.17009
# Poissons Ratio (y) = 0.04130 0.16433
# Poissons Ratio (z) = 0.32230 0.84730
#
# Static dielectric constant tensor:
#      x y z
#    x 1.655750 0.000000 -0.007090 
#    y 0.000000 1.624060 0.000000 
#    z -0.007090 0.000000 1.623980 
# 
# From -- ./inp_files/161120.got.cif
#   From: 2010.05.17/outbox.cif.g08.bks.cpg/sg12_81_cif.got.tgz:161120.got - 2010.06.03 13:09:07.
