data_PCOD9220182
_publ_section_title
;
Structure prediction by ZEFSAII (Michael W. Deem and Ramdas Pophale) SiO2 
 PCOD9220182
Probable space group: C 2/M
;
_chemical_formula_sum "Si O2"
_cell_formula_units_Z 32
_cell_length_a 7.120106
_cell_length_b 22.673530
_cell_length_c 9.504337
_cell_angle_alpha 90.000000
_cell_angle_beta 54.943733
_cell_angle_gamma 90.000000
_cell_volume 1256.009711
_symmetry_space_group_name_H-M "C 2/M"
_symmetry_group_IT_number 12
_symmetry_cell_setting 'monoclinic'
loop_
_space_group_symop_operation_xyz
x,y,z
-x,y,-z
-x,-y,-z
x,-y,z
1/2+x,1/2+y,z
1/2-x,1/2+y,-z
1/2-x,1/2-y,-z
1/2+x,1/2-y,z
loop_
_atom_site_type_symbol
_atom_site_label
_atom_site_fract_x
_atom_site_fract_y
_atom_site_fract_z
Si Si1 0.726372 0.751379 0.367173
Si Si2 0.260434 0.880695 0.334366
Si Si3 0.779028 0.379597 0.754845
Si Si4 0.179145 0.934072 0.085957
O O1 0.438774 0.749244 0.414469
O O2 0.781748 0.815057 0.277879
O O3 0.795912 0.687802 0.276605
O O4 0.449558 0.891838 0.372522
O O5 0.000000 0.885430 0.500000
O O6 0.593987 0.424897 0.774694
O O7 0.209411 0.421977 0.812211
O O8 0.743092 0.386808 0.939204
O O9 0.225537 0.000000 0.015684
#
# Coordination Sequence:
#
# PCOD9220182 Si02
#       4
#     8   8   8   8
#     4  11  21  39  67 104 140 174 213 284 358 420
#     4  11  25  42  71 106 138 179 227 287 356 414
#     4  11  23  44  70  98 138 186 224 283 351 411
#     4  11  27  48  68  96 139 191 241 284 336 409
#
# _framework density 25.477509999999999
#
# number of rings (size 3 to 8) (size 9 to 14) (size 15 to 20)
#    0.000    1.000    2.500    5.250    0.000    4.500 
#    4.500    1.250    0.000    0.000    0.000    0.000 
#    0.000    0.000    0.000    0.000    0.000    0.000 
#
# Total GULP energy -89392.713070 kJ/mol
# GULP energy per Si atom -5587.044567 kJ/mol
# Density = 2.541952 g / cm^3
# Si number density = 25.477510 Si / 1000 Ang^3
#
#
#
# Elastic Constant Matrix: (Units=GPa)
#
#
# Indices 1 2 3 4 5 6 
#
# 1 204.8746 36.1959 34.0068 0.0000 6.3450 0.0000
# 2 36.1959 129.0466 63.0231 0.0000 15.3327 0.0000
# 3 34.0068 63.0231 73.1303 0.0000 14.5129 0.0000
# 4 0.0000 0.0000 0.0000 26.9970 0.0000 -3.2175
# 5 6.3450 15.3327 14.5129 0.0000 50.6710 0.0000
# 6 0.0000 0.0000 0.0000 -3.2175 0.0000 34.8514
#
#
#
# Elastic Compliance Matrix: (Units=1/GPa)
#
#
# Indices 1 2 3 4 5 6 
#
# 1 0.005307 -0.000492 -0.002059 0.000000 0.000074 0.000000
# 2 -0.000492 0.013456 -0.011209 0.000000 -0.000800 0.000000
# 3 -0.002059 -0.011209 0.024987 0.000000 -0.003507 0.000000
# 4 0.000000 0.000000 0.000000 0.037453 0.000000 0.003458
# 5 0.000074 -0.000800 -0.003507 0.000000 0.020972 0.000000
# 6 0.000000 0.000000 0.000000 0.003458 0.000000 0.029012
#
#
# Mechanical properties :
#
#
# Convention : Reuss Voigt Hill
#
# Bulk Modulus (GPa) = 61.60802 74.83368 68.22085
# Shear Modulus (GPa) = 30.46558 40.75892 35.61225
#
# Velocity S-wave (km/s) = 3.46176 4.00409 3.74276
# Velocity P-wave (km/s) = 6.34131 7.12834 6.74631
#
# Compressibility (1/GPa) = 0.01623165
#
# Stress axis : x y z
#
# Youngs Moduli (GPa) = 188.41653 74.31391 40.02002
#
# Poissons Ratio (x) = 0.03657 0.08239
# Poissons Ratio (y) = 0.09271 0.44859
# Poissons Ratio (z) = 0.38789 0.83299
#
# Static dielectric constant tensor:
#      x y z
#    x 2.626810 0.000000 -0.091450 
#    y 0.000000 1.827720 0.000000 
#    z -0.091450 0.000000 2.063310 
# 
# From -- ./inp_files/115181.got.cif
#   From: 2010.05.17/outbox.cif.g08.bks.cpg/sg12_58_cif.got.tgz:115181.got - 2010.06.03 13:09:07.
