data_PCOD9220392
_publ_section_title
;
Structure prediction by ZEFSAII (Michael W. Deem and Ramdas Pophale) SiO2 
 PCOD9220392
Probable space group: C 2/M
;
_chemical_formula_sum "Si O2"
_cell_formula_units_Z 48
_cell_length_a 14.280072
_cell_length_b 22.031810
_cell_length_c 8.138918
_cell_angle_alpha 90.000000
_cell_angle_beta 113.176764
_cell_angle_gamma 90.000000
_cell_volume 2353.976687
_symmetry_space_group_name_H-M "C 2/M"
_symmetry_group_IT_number 12
_symmetry_cell_setting 'monoclinic'
loop_
_space_group_symop_operation_xyz
x,y,z
-x,y,-z
-x,-y,-z
x,-y,z
1/2+x,1/2+y,z
1/2-x,1/2+y,-z
1/2-x,1/2-y,-z
1/2+x,1/2-y,z
loop_
_atom_site_type_symbol
_atom_site_label
_atom_site_fract_x
_atom_site_fract_y
_atom_site_fract_z
Si Si1 0.276720 0.686725 0.433300
Si Si2 0.330926 0.320574 0.909450
Si Si3 0.092432 0.069309 0.818385
Si Si4 0.882200 0.737606 0.257575
Si Si5 0.431924 0.782358 0.803485
Si Si6 0.361021 0.568186 0.537613
O O1 0.250000 0.750000 0.500000
O O2 0.368764 0.708793 0.381500
O O3 0.170826 0.678808 0.263801
O O4 0.296421 0.625947 0.546265
O O5 0.210356 0.310842 0.786969
O O6 0.400357 0.288504 0.815540
O O7 0.365394 0.383708 0.016562
O O8 0.355366 0.272448 0.071083
O O9 0.135923 0.074368 0.660693
O O10 0.971862 0.075380 0.696623
O O11 0.110677 0.000000 0.886395
O O12 0.996057 0.713317 0.306432
O O13 0.500000 0.804051 0.000000
O O14 0.325475 0.500000 0.550068
#
# Coordination Sequence:
#
# PCOD9220392 Si02
#       6
#     8   8   8   8   8   8
#     4  11  22  32  54  84 100 137 186 220 264 319
#     4   9  16  31  52  71 101 144 171 204 265 316
#     4   9  17  30  52  76 104 147 180 210 264 322
#     4   9  18  33  49  74 107 136 164 223 271 303
#     4   9  20  32  50  77 107 140 167 214 275 311
#     4   9  19  33  49  73 110 144 175 221 271 314
#
# _framework density 20.391026
#
# number of rings (size 3 to 8) (size 9 to 14) (size 15 to 20)
#    0.000    2.667    1.667    2.000    4.667    0.667 
#    0.000    0.000    0.000   11.000    0.000    1.167 
#    0.000    0.000    0.000    0.000    0.000    0.000 
#
# Total GULP energy -133627.376794 kJ/mol
# GULP energy per Si atom -5567.807366 kJ/mol
# Density = 2.034462 g / cm^3
# Si number density = 20.391026 Si / 1000 Ang^3
#
#
#
# Elastic Constant Matrix: (Units=GPa)
#
#
# Indices 1 2 3 4 5 6 
#
# 1 83.6692 31.3732 11.4029 0.0000 -2.6251 0.0000
# 2 31.3732 142.1194 34.2629 0.0000 13.0107 0.0000
# 3 11.4029 34.2629 38.1184 0.0000 5.6186 0.0000
# 4 0.0000 0.0000 0.0000 41.5094 0.0000 5.9712
# 5 -2.6251 13.0107 5.6186 0.0000 33.2969 0.0000
# 6 0.0000 0.0000 0.0000 5.9712 0.0000 20.1140
#
#
#
# Elastic Compliance Matrix: (Units=1/GPa)
#
#
# Indices 1 2 3 4 5 6 
#
# 1 0.013300 -0.002697 -0.001912 0.000000 0.002425 0.000000
# 2 -0.002697 0.009690 -0.007500 0.000000 -0.002733 0.000000
# 3 -0.001912 -0.007500 0.033983 0.000000 -0.002954 0.000000
# 4 0.000000 0.000000 0.000000 0.025166 0.000000 -0.007471
# 5 0.002425 -0.002733 -0.002954 0.000000 0.031791 0.000000
# 6 0.000000 0.000000 0.000000 -0.007471 0.000000 0.051935
#
#
# Mechanical properties :
#
#
# Convention : Reuss Voigt Hill
#
# Bulk Modulus (GPa) = 30.52990 46.44281 38.48636
# Shear Modulus (GPa) = 24.87558 31.44192 28.15875
#
# Velocity S-wave (km/s) = 3.49654 3.93103 3.72013
# Velocity P-wave (km/s) = 5.59515 6.59011 6.11291
#
# Compressibility (1/GPa) = 0.03275477
#
# Stress axis : x y z
#
# Youngs Moduli (GPa) = 75.18926 103.19718 29.42639
#
# Poissons Ratio (x) = 0.27833 0.05626
# Poissons Ratio (y) = 0.20279 0.22071
# Poissons Ratio (z) = 0.14374 0.77401
#
# Static dielectric constant tensor:
#      x y z
#    x 1.980510 0.000000 -0.020270 
#    y 0.000000 1.731350 0.000000 
#    z -0.020270 0.000000 1.937120 
# 
# From -- ./inp_files/63594.got.cif
#   From: 2010.05.17/outbox.cif.g08.bks.cpg/sg12_32_cif.got.tgz:63594.got - 2010.06.03 13:09:07.
