data_PCOD9220277
_publ_section_title
;
Structure prediction by ZEFSAII (Michael W. Deem and Ramdas Pophale) SiO2 
 PCOD9220277
Probable space group: C 2/M
;
_chemical_formula_sum "Si O2"
_cell_formula_units_Z 56
_cell_length_a 11.710197
_cell_length_b 31.000144
_cell_length_c 16.196700
_cell_angle_alpha 90.000000
_cell_angle_beta 27.604943
_cell_angle_gamma 90.000000
_cell_volume 2724.486717
_symmetry_space_group_name_H-M "C 2/M"
_symmetry_group_IT_number 12
_symmetry_cell_setting 'monoclinic'
loop_
_space_group_symop_operation_xyz
x,y,z
-x,y,-z
-x,-y,-z
x,-y,z
1/2+x,1/2+y,z
1/2-x,1/2+y,-z
1/2-x,1/2-y,-z
1/2+x,1/2-y,z
loop_
_atom_site_type_symbol
_atom_site_label
_atom_site_fract_x
_atom_site_fract_y
_atom_site_fract_z
Si Si1 0.908190 0.451221 0.719745
Si Si2 0.464728 0.426991 0.900299
Si Si3 0.249842 0.787153 0.619747
Si Si4 0.308777 0.809566 0.391072
Si Si5 0.881274 0.096560 0.493355
Si Si6 0.209365 0.951894 0.168711
Si Si7 0.620698 0.673847 0.012749
O O1 0.985824 0.500000 0.652710
O O2 0.750853 0.433702 0.742500
O O3 0.137793 0.424433 0.608220
O O4 0.707443 0.449679 0.921580
O O5 0.379275 0.445710 0.868096
O O6 0.407424 0.376274 0.944787
O O7 0.500000 0.804569 0.500000
O O8 0.248645 0.804692 0.527156
O O9 0.268203 0.735459 0.600200
O O10 0.021859 0.799961 0.824412
O O11 0.183171 0.854176 0.446621
O O12 0.595738 0.814470 0.183767
O O13 0.000000 0.076236 0.500000
O O14 0.090077 0.087854 0.292844
O O15 0.125434 0.000000 0.250468
O O16 0.500000 0.950623 0.000000
O O17 0.500000 0.680400 0.000000
#
# Coordination Sequence:
#
# PCOD9220277 Si02
#       7
#     8   8   8   8   8   8   8
#     4  11  22  38  65  97 128 176 222 274 341 401
#     4  11  21  41  65  97 135 173 220 287 336 409
#     4  11  24  41  69  98 134 179 224 288 351 419
#     4  11  24  45  65  99 135 175 232 288 347 419
#     4  12  25  44  67  92 135 178 228 287 347 421
#     4  11  25  43  65  96 134 181 232 286 347 414
#     4  12  21  41  70 100 135 179 228 279 359 415
#
# _framework density 20.55433
#
# number of rings (size 3 to 8) (size 9 to 14) (size 15 to 20)
#    0.000    0.714    4.286    4.714    0.000    2.857 
#    0.000    1.429    0.000    0.000    0.000    0.000 
#    0.000    0.000    0.000    0.000    0.000    0.000 
#
# Total GULP energy -156326.613787 kJ/mol
# GULP energy per Si atom -5583.093350 kJ/mol
# Density = 2.050755 g / cm^3
# Si number density = 20.554330 Si / 1000 Ang^3
#
#
#
# Elastic Constant Matrix: (Units=GPa)
#
#
# Indices 1 2 3 4 5 6 
#
# 1 132.1573 35.5997 43.2342 0.0000 -17.6701 0.0001
# 2 35.5997 66.4481 28.9728 0.0000 -7.0331 0.0000
# 3 43.2342 28.9728 111.6568 0.0000 -3.3916 0.0001
# 4 0.0000 0.0000 0.0000 27.2940 0.0000 -9.0991
# 5 -17.6701 -7.0331 -3.3916 0.0000 32.9696 -0.0001
# 6 0.0001 0.0000 0.0001 -9.0991 -0.0001 31.8773
#
#
#
# Elastic Compliance Matrix: (Units=1/GPa)
#
#
# Indices 1 2 3 4 5 6 
#
# 1 0.010059 -0.003712 -0.002801 0.000000 0.004311 0.000000
# 2 -0.003712 0.018677 -0.003359 0.000000 0.001649 0.000000
# 3 -0.002801 -0.003359 0.010879 0.000000 -0.001099 0.000000
# 4 0.000000 0.000000 0.000000 0.040491 0.000000 0.011558
# 5 0.004311 0.001649 -0.001099 0.000000 0.032881 0.000000
# 6 0.000000 0.000000 0.000000 0.011558 0.000000 0.034669
#
#
# Mechanical properties :
#
#
# Convention : Reuss Voigt Hill
#
# Bulk Modulus (GPa) = 50.32257 58.43061 54.37659
# Shear Modulus (GPa) = 28.73174 31.92523 30.32849
#
# Velocity S-wave (km/s) = 3.74283 3.94536 3.84543
# Velocity P-wave (km/s) = 6.57375 7.01738 6.79918
#
# Compressibility (1/GPa) = 0.01987180
#
# Stress axis : x y z
#
# Youngs Moduli (GPa) = 99.41010 53.54161 91.92192
#
# Poissons Ratio (x) = 0.19873 0.25747
# Poissons Ratio (y) = 0.36898 0.30877
# Poissons Ratio (z) = 0.27844 0.17985
#
# Static dielectric constant tensor:
#      x y z
#    x 1.789240 0.000000 0.008560 
#    y 0.000000 1.747830 0.000000 
#    z 0.008560 0.000000 1.736660 
# 
# From -- ./inp_files/210017.got.cif
#   From: 2010.05.17/outbox.cif.g08.bks.cpg/sg12_106_cif.got.tgz:210017.got - 2010.06.03 13:09:07.
