data_PCOD9220147
_publ_section_title
;
Structure prediction by ZEFSAII (Michael W. Deem and Ramdas Pophale) SiO2 
 PCOD9220147
Probable space group: C 2/M
;
_chemical_formula_sum "Si O2"
_cell_formula_units_Z 64
_cell_length_a 20.888546
_cell_length_b 30.566657
_cell_length_c 7.344885
_cell_angle_alpha 90.000000
_cell_angle_beta 145.200078
_cell_angle_gamma 90.000000
_cell_volume 2676.446098
_symmetry_space_group_name_H-M "C 2/M"
_symmetry_group_IT_number 12
_symmetry_cell_setting 'monoclinic'
loop_
_space_group_symop_operation_xyz
x,y,z
-x,y,-z
-x,-y,-z
x,-y,z
1/2+x,1/2+y,z
1/2-x,1/2+y,-z
1/2-x,1/2-y,-z
1/2+x,1/2-y,z
loop_
_atom_site_type_symbol
_atom_site_label
_atom_site_fract_x
_atom_site_fract_y
_atom_site_fract_z
Si Si1 0.261096 0.574315 0.676948
Si Si2 0.731500 0.667668 0.204440
Si Si3 0.154641 0.607629 0.110470
Si Si4 0.965414 0.550691 0.703013
Si Si5 0.512361 0.817332 0.306866
Si Si6 0.372833 0.638309 0.414782
Si Si7 0.004751 0.047784 0.230898
Si Si8 0.471444 0.718763 0.217214
O O1 0.276611 0.626193 0.685125
O O2 0.213474 0.567559 0.363819
O O3 0.163631 0.566404 0.595088
O O4 0.375190 0.551039 0.988698
O O5 0.858497 0.673892 0.441422
O O6 0.658748 0.651826 0.862307
O O7 0.659611 0.707400 0.113346
O O8 0.253669 0.629870 0.230557
O O9 0.076499 0.649147 0.991909
O O10 0.052113 0.579102 0.791739
O O11 0.970189 0.500000 0.670885
O O12 0.000000 0.556667 0.000000
O O13 0.500000 0.820934 0.500000
O O14 0.491770 0.767545 0.197564
O O15 0.435435 0.591800 0.564815
O O16 0.450503 0.678353 0.669935
O O17 0.051300 0.000000 0.392121
O O18 0.000000 0.049924 0.000000
O O19 0.500000 0.721853 0.500000
#
# Coordination Sequence:
#
# PCOD9220147 Si02
#       8
#     8   8   8   8   8   8   8   8
#     4  11  21  39  62  88 123 159 199 250 305 362
#     4  11  22  39  65  86 124 160 197 252 307 355
#     4  11  22  36  62  89 123 157 202 252 303 360
#     4   9  19  35  57  85 114 153 200 243 290 355
#     4  11  22  38  63  92 121 159 209 250 302 364
#     4  11  22  40  62  91 120 155 204 254 302 356
#     4  11  23  40  65  93 121 162 207 249 303 366
#     4   9  22  37  62  90 118 159 209 250 298 365
#
# _framework density 23.912306999999998
#
# number of rings (size 3 to 8) (size 9 to 14) (size 15 to 20)
#    0.000    1.500    5.000    0.375    1.750    2.500 
#    0.000    2.500    5.500    1.125    0.000    0.000 
#    0.000    0.000    0.000    0.000    0.000    0.000 
#
# Total GULP energy -178531.568555 kJ/mol
# GULP energy per Si atom -5579.111517 kJ/mol
# Density = 2.385788 g / cm^3
# Si number density = 23.912307 Si / 1000 Ang^3
#
#
#
# Elastic Constant Matrix: (Units=GPa)
#
#
# Indices 1 2 3 4 5 6 
#
# 1 45.3500 7.3514 33.3251 0.0000 8.9824 0.0000
# 2 7.3514 176.0598 49.3909 0.0000 22.5274 0.0000
# 3 33.3251 49.3909 83.3983 0.0000 37.2164 0.0000
# 4 0.0000 0.0000 0.0000 22.9299 0.0000 1.8970
# 5 8.9824 22.5274 37.2164 0.0000 35.1800 0.0000
# 6 0.0000 0.0000 0.0000 1.8970 0.0000 14.8130
#
#
#
# Elastic Compliance Matrix: (Units=1/GPa)
#
#
# Indices 1 2 3 4 5 6 
#
# 1 0.034308 0.002858 -0.020223 0.000000 0.010804 0.000000
# 2 0.002858 0.007050 -0.005640 0.000000 0.000722 0.000000
# 3 -0.020223 -0.005640 0.036929 0.000000 -0.030292 0.000000
# 4 0.000000 0.000000 0.000000 0.044078 0.000000 -0.005645
# 5 0.010804 0.000722 -0.030292 0.000000 0.057250 0.000000
# 6 0.000000 0.000000 0.000000 -0.005645 0.000000 0.068231
#
#
# Mechanical properties :
#
#
# Convention : Reuss Voigt Hill
#
# Bulk Modulus (GPa) = 30.97958 53.88257 42.43108
# Shear Modulus (GPa) = 16.41408 28.90063 22.65736
#
# Velocity S-wave (km/s) = 2.62282 3.48028 3.08152
# Velocity P-wave (km/s) = 4.70700 6.22351 5.51761
#
# Compressibility (1/GPa) = 0.03227932
#
# Stress axis : x y z
#
# Youngs Moduli (GPa) = 29.14740 141.83767 27.07867
#
# Poissons Ratio (x) = -0.40543 0.54762
# Poissons Ratio (y) = -0.08332 0.15271
# Poissons Ratio (z) = 0.58945 0.79991
#
# Static dielectric constant tensor:
#      x y z
#    x 2.003200 0.000000 -0.137710 
#    y 0.000000 1.913700 0.000000 
#    z -0.137710 0.000000 2.206920 
# 
# From -- ./inp_files/100248.got.cif
#   From: 2010.05.17/outbox.cif.g08.bks.cpg/sg12_51_cif.got.tgz:100248.got - 2010.06.03 13:09:07.
