data_PCOD9220853
_publ_section_title
;
Structure prediction by ZEFSAII (Michael W. Deem and Ramdas Pophale) SiO2 
 PCOD9220853
Probable space group: C 2/M
;
_chemical_formula_sum "Si O2"
_cell_formula_units_Z 32
_cell_length_a 16.259536
_cell_length_b 12.992464
_cell_length_c 12.726778
_cell_angle_alpha 90.000000
_cell_angle_beta 38.484007
_cell_angle_gamma 90.000000
_cell_volume 1673.074429
_symmetry_space_group_name_H-M "C 2/M"
_symmetry_group_IT_number 12
_symmetry_cell_setting 'monoclinic'
loop_
_space_group_symop_operation_xyz
x,y,z
-x,y,-z
-x,-y,-z
x,-y,z
1/2+x,1/2+y,z
1/2-x,1/2+y,-z
1/2-x,1/2-y,-z
1/2+x,1/2-y,z
loop_
_atom_site_type_symbol
_atom_site_label
_atom_site_fract_x
_atom_site_fract_y
_atom_site_fract_z
Si Si1 0.860246 0.500000 0.698214
Si Si2 0.351818 0.223382 0.807141
Si Si3 0.108849 0.000000 0.798056
Si Si4 0.341632 0.607852 0.652296
Si Si5 0.871008 0.825560 0.397791
O O1 0.851205 0.604034 0.775888
O O2 0.747112 0.500000 0.722305
O O3 0.000000 0.500000 0.500000
O O4 0.305744 0.291023 0.752585
O O5 0.496520 0.263903 0.699321
O O6 0.250000 0.250000 0.000000
O O7 0.099550 0.901081 0.729525
O O8 0.000000 0.000000 0.000000
O O9 0.500000 0.604243 0.500000
O O10 0.288557 0.500000 0.750687
O O11 0.319024 0.613371 0.551679
O O12 0.750000 0.750000 0.500000
#
# Coordination Sequence:
#
# PCOD9220853 Si02
#       5
#     4   8   4   8   8
#     4  12  24  44  63  93 133 171 206 260 332 391
#     4  11  24  39  65  93 126 163 209 264 319 380
#     4  12  24  40  66  97 127 165 219 274 311 371
#     4   9  18  36  61  85 114 159 210 244 294 378
#     4  11  22  39  63  93 123 166 212 256 317 380
#
# _framework density 19.126463999999999
#
# number of rings (size 3 to 8) (size 9 to 14) (size 15 to 20)
#    0.000    1.250    1.250    6.750    3.500    0.000 
#    0.000    0.000    0.000    1.500    0.000    0.000 
#    0.000    0.000    0.000    0.000    0.000    0.000 
#
# Total GULP energy -89224.218177 kJ/mol
# GULP energy per Si atom -5576.513636 kJ/mol
# Density = 1.908293 g / cm^3
# Si number density = 19.126464 Si / 1000 Ang^3
#
#
#
# Elastic Constant Matrix: (Units=GPa)
#
#
# Indices 1 2 3 4 5 6 
#
# 1 113.0639 61.4645 38.0605 0.0000 9.9563 0.0000
# 2 61.4645 205.1003 74.2342 0.0000 26.0690 0.0000
# 3 38.0605 74.2342 120.2179 0.0000 26.0032 0.0000
# 4 0.0000 0.0000 0.0000 31.7034 0.0000 13.8757
# 5 9.9563 26.0690 26.0032 0.0000 30.8873 0.0000
# 6 0.0000 0.0000 0.0000 13.8757 0.0000 15.9908
#
#
#
# Elastic Compliance Matrix: (Units=1/GPa)
#
#
# Indices 1 2 3 4 5 6 
#
# 1 0.010876 -0.002611 -0.001894 0.000000 0.000293 0.000000
# 2 -0.002611 0.007066 -0.002970 0.000000 -0.002622 0.000000
# 3 -0.001894 -0.002970 0.012321 0.000000 -0.007256 0.000000
# 4 0.000000 0.000000 0.000000 0.050857 0.000000 -0.044130
# 5 0.000293 -0.002622 -0.007256 0.000000 0.040603 0.000000
# 6 0.000000 0.000000 0.000000 -0.044130 0.000000 0.100829
#
#
# Mechanical properties :
#
#
# Convention : Reuss Voigt Hill
#
# Bulk Modulus (GPa) = 65.30131 87.32228 76.31179
# Shear Modulus (GPa) = 20.60957 33.35783 26.98370
#
# Velocity S-wave (km/s) = 3.28615 4.18073 3.76014
# Velocity P-wave (km/s) = 6.97240 8.31018 7.67051
#
# Compressibility (1/GPa) = 0.01531363
#
# Stress axis : x y z
#
# Youngs Moduli (GPa) = 91.94738 141.51908 81.16142
#
# Poissons Ratio (x) = 0.36948 0.15375
# Poissons Ratio (y) = 0.24006 0.24101
# Poissons Ratio (z) = 0.17418 0.42025
#
# Static dielectric constant tensor:
#      x y z
#    x 1.710830 0.000000 0.041140 
#    y 0.000000 1.578710 0.000000 
#    z 0.041140 0.000000 1.658410 
# 
# From -- ./inp_files/140005.got.cif
#   From: 2010.05.17/outbox.cif.g08.bks.cpg/sg12_71_cif.got.tgz:140005.got - 2010.06.03 13:09:07.
