data_PCOD9220279
_publ_section_title
;
Structure prediction by ZEFSAII (Michael W. Deem and Ramdas Pophale) SiO2 
 PCOD9220279
Probable space group: C 2/M
;
_chemical_formula_sum "Si O2"
_cell_formula_units_Z 64
_cell_length_a 12.346982
_cell_length_b 17.915561
_cell_length_c 14.773112
_cell_angle_alpha 90.000000
_cell_angle_beta 86.534215
_cell_angle_gamma 90.000000
_cell_volume 3261.881644
_symmetry_space_group_name_H-M "C 2/M"
_symmetry_group_IT_number 12
_symmetry_cell_setting 'monoclinic'
loop_
_space_group_symop_operation_xyz
x,y,z
-x,y,-z
-x,-y,-z
x,-y,z
1/2+x,1/2+y,z
1/2-x,1/2+y,-z
1/2-x,1/2-y,-z
1/2+x,1/2-y,z
loop_
_atom_site_type_symbol
_atom_site_label
_atom_site_fract_x
_atom_site_fract_y
_atom_site_fract_z
Si Si1 0.871266 0.413258 0.015209
Si Si2 0.395925 0.658739 0.678465
Si Si3 0.202431 0.834220 0.510177
Si Si4 0.287056 0.137889 0.829324
Si Si5 0.903891 0.418687 0.433731
Si Si6 0.707829 0.194555 0.825353
Si Si7 0.998179 0.684886 0.722006
Si Si8 0.384526 0.413307 0.310388
O O1 0.867226 0.500000 0.043167
O O2 0.811555 0.360689 0.090394
O O3 0.811970 0.402373 0.922098
O O4 0.000000 0.393172 0.000000
O O5 0.371084 0.648846 0.573680
O O6 0.287279 0.659031 0.745053
O O7 0.443702 0.741774 0.684774
O O8 0.487953 0.603024 0.710273
O O9 0.250000 0.750000 0.500000
O O10 0.302278 0.889746 0.493988
O O11 0.148406 0.855331 0.607989
O O12 0.258451 0.225182 0.847981
O O13 0.400165 0.136910 0.768290
O O14 0.191430 0.104359 0.772050
O O15 0.882943 0.500000 0.394056
O O16 0.938365 0.360565 0.356618
O O17 0.000000 0.423253 0.500000
O O18 0.588453 0.207687 0.790103
O O19 0.368801 0.500000 0.337678
#
# Coordination Sequence:
#
# PCOD9220279 Si02
#       8
#     8   8   8   8   8   8   8   8
#     4  11  24  42  68 102 133 166 211 271 338 389
#     4  11  24  42  65  93 129 174 221 263 320 382
#     4  12  23  41  65  92 129 174 223 274 312 382
#     4  11  23  44  70  96 132 171 217 270 326 391
#     4  11  23  37  56  90 129 166 211 265 327 380
#     4  11  22  44  69  97 128 168 220 270 317 393
#     4  11  21  41  66  93 126 165 219 269 320 378
#     4  12  26  43  64  95 135 177 220 264 327 395
#
# _framework density 19.620577000000001
#
# number of rings (size 3 to 8) (size 9 to 14) (size 15 to 20)
#    0.000    0.750    3.750    5.250    0.000    4.500 
#    0.000    0.625    0.000    1.500    0.000    0.000 
#    0.000    0.000    0.000    0.000    0.000    0.000 
#
# Total GULP energy -178844.386066 kJ/mol
# GULP energy per Si atom -5588.887065 kJ/mol
# Density = 1.957592 g / cm^3
# Si number density = 19.620577 Si / 1000 Ang^3
#
#
#
# Elastic Constant Matrix: (Units=GPa)
#
#
# Indices 1 2 3 4 5 6 
#
# 1 108.5034 10.7383 27.1468 0.0000 13.5511 0.0000
# 2 10.7383 59.9113 15.9313 0.0000 -7.4003 0.0000
# 3 27.1468 15.9313 71.0328 0.0000 8.9699 0.0000
# 4 0.0000 0.0000 0.0000 17.5526 0.0000 -1.8719
# 5 13.5511 -7.4003 8.9699 0.0000 30.4288 0.0000
# 6 0.0000 0.0000 0.0000 -1.8719 0.0000 24.5897
#
#
#
# Elastic Compliance Matrix: (Units=1/GPa)
#
#
# Indices 1 2 3 4 5 6 
#
# 1 0.010700 -0.001586 -0.003202 0.000000 -0.004207 0.000000
# 2 -0.001586 0.018992 -0.004493 0.000000 0.006650 0.000000
# 3 -0.003202 -0.004493 0.016896 0.000000 -0.004647 0.000000
# 4 0.000000 0.000000 0.000000 0.057438 0.000000 0.004372
# 5 -0.004207 0.006650 -0.004647 0.000000 0.037724 0.000000
# 6 0.000000 0.000000 0.000000 0.004372 0.000000 0.041000
#
#
# Mechanical properties :
#
#
# Convention : Reuss Voigt Hill
#
# Bulk Modulus (GPa) = 35.68184 38.56447 37.12316
# Shear Modulus (GPa) = 23.73550 26.88961 25.31256
#
# Velocity S-wave (km/s) = 3.48188 3.70602 3.59570
# Velocity P-wave (km/s) = 5.86431 6.16527 6.01667
#
# Compressibility (1/GPa) = 0.02802546
#
# Stress axis : x y z
#
# Youngs Moduli (GPa) = 93.45939 52.65445 59.18411
#
# Poissons Ratio (x) = 0.08350 0.18952
# Poissons Ratio (y) = 0.14822 0.26592
# Poissons Ratio (z) = 0.29928 0.23658
#
# Static dielectric constant tensor:
#      x y z
#    x 1.686980 0.000000 0.001460 
#    y 0.000000 1.697220 0.000000 
#    z 0.001460 0.000000 1.684550 
# 
# From -- ./inp_files/206714.got.cif
#   From: 2010.05.17/outbox.cif.g08.bks.cpg/sg12_104_cif.got.tgz:206714.got - 2010.06.03 13:09:07.
