data_PCOD9220834
_publ_section_title
;
Structure prediction by ZEFSAII (Michael W. Deem and Ramdas Pophale) SiO2 
 PCOD9220834
Probable space group: C 2/M
;
_chemical_formula_sum "Si O2"
_cell_formula_units_Z 50
_cell_length_a 14.430588
_cell_length_b 7.556315
_cell_length_c 28.877042
_cell_angle_alpha 90.000000
_cell_angle_beta 134.773068
_cell_angle_gamma 90.000000
_cell_volume 2235.347816
_symmetry_space_group_name_H-M "C 2/M"
_symmetry_group_IT_number 12
_symmetry_cell_setting 'monoclinic'
loop_
_space_group_symop_operation_xyz
x,y,z
-x,y,-z
-x,-y,-z
x,-y,z
1/2+x,1/2+y,z
1/2-x,1/2+y,-z
1/2-x,1/2-y,-z
1/2+x,1/2-y,z
loop_
_atom_site_type_symbol
_atom_site_label
_atom_site_fract_x
_atom_site_fract_y
_atom_site_fract_z
Si Si1 0.112222 0.287396 0.188326
Si Si2 0.038712 0.795488 0.443821
Si Si3 0.310577 0.788058 0.071793
Si Si4 0.253178 0.216914 0.671254
Si Si5 0.709219 0.785230 0.416238
Si Si6 0.500000 0.500000 0.000000
Si Si7 0.866411 0.301140 0.903817
O O1 0.107464 0.500000 0.192165
O O2 0.179301 0.217522 0.258232
O O3 0.187007 0.256381 0.166148
O O4 0.961612 0.233420 0.128547
O O5 0.145002 0.723606 0.517557
O O6 0.111010 0.786053 0.419910
O O7 0.895438 0.718958 0.386949
O O8 0.019023 0.000000 0.450293
O O9 0.233794 0.709046 0.088784
O O10 0.296887 0.000000 0.073849
O O11 0.250000 0.750000 0.000000
O O12 0.322638 0.263605 0.647479
O O13 0.250214 0.000000 0.672472
O O14 0.708351 0.000000 0.419649
O O15 0.473208 0.655345 0.952454
O O16 0.921715 0.500000 0.920875
#
# Coordination Sequence:
#
# PCOD9220834 Si02
#       7
#     8   8   8   8   8   2   8
#     4   9  21  38  59  83 117 155 194 241 295 363
#     4   9  17  30  52  80 112 148 192 238 287 337
#     4  11  22  39  61  89 115 150 196 244 304 361
#     4   9  17  33  55  79 109 153 196 233 282 346
#     4   9  17  30  52  81 111 147 192 240 282 338
#     4  12  22  40  68  90 116 154 196 240 306 358
#     4  11  23  41  63  91 122 155 195 247 303 363
#
# _framework density 22.367884
#
# number of rings (size 3 to 8) (size 9 to 14) (size 15 to 20)
#    0.000    2.240    0.800    2.160    0.000    4.480 
#    1.440    0.800    3.520    3.840    0.000    0.000 
#    0.000    0.000    0.000    0.000    0.000    0.000 
#
# Total GULP energy -139328.386033 kJ/mol
# GULP energy per Si atom -5573.135441 kJ/mol
# Density = 2.231697 g / cm^3
# Si number density = 22.367884 Si / 1000 Ang^3
#
#
#
# Elastic Constant Matrix: (Units=GPa)
#
#
# Indices 1 2 3 4 5 6 
#
# 1 97.1827 3.5705 75.9355 0.0000 -26.7688 0.0000
# 2 3.5705 91.9896 13.6277 0.0000 -6.8029 0.0000
# 3 75.9355 13.6277 155.5534 0.0000 -50.1068 0.0000
# 4 0.0000 0.0000 0.0000 -19.3463 0.0000 27.1775
# 5 -26.7688 -6.8029 -50.1068 0.0000 36.5190 0.0000
# 6 0.0000 0.0000 0.0000 27.1775 0.0000 -13.7932
#
#
#
# Elastic Compliance Matrix: (Units=1/GPa)
#
#
# Indices 1 2 3 4 5 6 
#
# 1 0.016743 0.000621 -0.007593 0.000000 0.001970 0.000000
# 2 0.000621 0.011072 -0.000828 0.000000 0.001381 0.000000
# 3 -0.007593 -0.000828 0.014991 0.000000 0.014849 0.000000
# 4 0.000000 0.000000 0.000000 0.029237 0.000000 0.057608
# 5 0.001970 0.001381 0.014849 0.000000 0.049458 0.000000
# 6 0.000000 0.000000 0.000000 0.057608 0.000000 0.041008
#
#
# Mechanical properties :
#
#
# Convention : Reuss Voigt Hill
#
# Bulk Modulus (GPa) = 36.75863 58.99924 47.87893
# Shear Modulus (GPa) = 26.71276 17.44870 22.08073
#
# Velocity S-wave (km/s) = 3.45954 2.79602 3.14532
# Velocity P-wave (km/s) = 5.69449 6.07105 5.88578
#
# Compressibility (1/GPa) = 0.02720450
#
# Stress axis : x y z
#
# Youngs Moduli (GPa) = 59.72791 90.32188 66.70760
#
# Poissons Ratio (x) = -0.05606 0.50650
# Poissons Ratio (y) = -0.03707 0.05523
# Poissons Ratio (z) = 0.45351 0.07478
#
# Static dielectric constant tensor:
#      x y z
#    x 1.884090 0.000000 0.015450 
#    y 0.000000 1.850120 0.000000 
#    z 0.015450 0.000000 1.835290 
# 
# From -- ./inp_files/308502.got.cif
#   From: 2010.05.17/outbox.cif.g08.bks.cpg/sg12_155_cif.got.tgz:308502.got - 2010.06.03 13:09:07.
