data_PCOD9220613
_publ_section_title
;
Structure prediction by ZEFSAII (Michael W. Deem and Ramdas Pophale) SiO2 
 PCOD9220613
Probable space group: C 2/M
;
_chemical_formula_sum "Si O2"
_cell_formula_units_Z 48
_cell_length_a 14.908104
_cell_length_b 7.916330
_cell_length_c 27.357524
_cell_angle_alpha 90.000000
_cell_angle_beta 137.114082
_cell_angle_gamma 90.000000
_cell_volume 2197.238822
_symmetry_space_group_name_H-M "C 2/M"
_symmetry_group_IT_number 12
_symmetry_cell_setting 'monoclinic'
loop_
_space_group_symop_operation_xyz
x,y,z
-x,y,-z
-x,-y,-z
x,-y,z
1/2+x,1/2+y,z
1/2-x,1/2+y,-z
1/2-x,1/2-y,-z
1/2+x,1/2-y,z
loop_
_atom_site_type_symbol
_atom_site_label
_atom_site_fract_x
_atom_site_fract_y
_atom_site_fract_z
Si Si1 0.937956 0.195957 0.527087
Si Si2 0.193790 0.805354 0.379819
Si Si3 0.440100 0.193483 0.325176
Si Si4 0.676978 0.292792 0.264176
Si Si5 0.609518 0.297393 0.005522
Si Si6 0.099825 0.204215 0.889215
O O1 0.782288 0.212311 0.455148
O O2 0.000000 0.249102 0.500000
O O3 0.995484 0.298576 0.595000
O O4 0.970466 0.000000 0.549090
O O5 0.212956 0.735013 0.333091
O O6 0.040201 0.793239 0.331209
O O7 0.235206 0.000000 0.397643
O O8 0.291774 0.258703 0.272724
O O9 0.436105 0.000000 0.306746
O O10 0.678717 0.500000 0.266079
O O11 0.531537 0.238638 0.190843
O O12 0.594868 0.500000 0.998032
O O13 0.592936 0.235040 0.942957
O O14 0.500000 0.232723 0.000000
O O15 0.761597 0.258829 0.078798
O O16 0.098988 0.000000 0.889594
#
# Coordination Sequence:
#
# PCOD9220613 Si02
#       6
#     8   8   8   8   8   8
#     4  11  22  37  58  82 107 139 184 232 277 322
#     4  11  22  38  57  79 107 142 185 229 278 327
#     4  11  22  38  58  81 108 143 184 225 278 330
#     4   9  20  37  56  77 108 147 180 218 271 329
#     4   9  18  33  55  83 112 142 176 219 267 314
#     4   9  18  35  56  79 109 144 182 218 261 319
#
# _framework density 21.845600000000001
#
# number of rings (size 3 to 8) (size 9 to 14) (size 15 to 20)
#    0.000    2.000    1.667    2.000    0.000    2.333 
#    0.000    5.000    0.000    0.000    0.000    0.000 
#    0.000    0.000    0.000    0.000    0.000    0.000 
#
# Total GULP energy -134065.507365 kJ/mol
# GULP energy per Si atom -5586.062807 kJ/mol
# Density = 2.179588 g / cm^3
# Si number density = 21.845600 Si / 1000 Ang^3
#
#
#
# Elastic Constant Matrix: (Units=GPa)
#
#
# Indices 1 2 3 4 5 6 
#
# 1 108.9945 1.7755 18.1751 0.0000 33.4229 0.0000
# 2 1.7755 31.0592 -7.1477 0.0000 -1.1961 0.0000
# 3 18.1751 -7.1477 82.7121 0.0000 30.2878 0.0000
# 4 0.0000 0.0000 0.0000 17.2697 0.0000 6.5732
# 5 33.4229 -1.1961 30.2878 0.0000 28.9919 0.0000
# 6 0.0000 0.0000 0.0000 6.5732 0.0000 18.8382
#
#
#
# Elastic Compliance Matrix: (Units=1/GPa)
#
#
# Indices 1 2 3 4 5 6 
#
# 1 0.015402 -0.000620 0.004977 0.000000 -0.022982 0.000000
# 2 -0.000620 0.032997 0.003608 0.000000 -0.001693 0.000000
# 3 0.004977 0.003608 0.021629 0.000000 -0.028185 0.000000
# 4 0.000000 0.000000 0.000000 0.066773 0.000000 -0.023299
# 5 -0.022982 -0.001693 -0.028185 0.000000 0.090362 0.000000
# 6 0.000000 0.000000 0.000000 -0.023299 0.000000 0.061213
#
#
# Mechanical properties :
#
#
# Convention : Reuss Voigt Hill
#
# Bulk Modulus (GPa) = 11.63350 27.59685 19.61518
# Shear Modulus (GPa) = 16.60582 27.01748 21.81165
#
# Velocity S-wave (km/s) = 2.76006 3.52056 3.16325
# Velocity P-wave (km/s) = 3.93626 5.40239 4.72652
#
# Compressibility (1/GPa) = 0.08595863
#
# Stress axis : x y z
#
# Youngs Moduli (GPa) = 64.92599 30.30575 46.23384
#
# Poissons Ratio (x) = 0.01879 -0.23013
# Poissons Ratio (y) = 0.04025 -0.16680
# Poissons Ratio (z) = -0.32317 -0.10933
#
# Static dielectric constant tensor:
#      x y z
#    x 1.828350 0.000000 0.026530 
#    y 0.000000 1.776360 0.000000 
#    z 0.026530 0.000000 1.791700 
# 
# From -- ./inp_files/308577.got.cif
#   From: 2010.05.17/outbox.cif.g08.bks.cpg/sg12_155_cif.got.tgz:308577.got - 2010.06.03 13:09:07.
