data_PCOD9220995
_publ_section_title
;
Structure prediction by ZEFSAII (Michael W. Deem and Ramdas Pophale) SiO2 
 PCOD9220995
Probable space group: C 2/M
;
_chemical_formula_sum "Si O2"
_cell_formula_units_Z 40
_cell_length_a 15.253113
_cell_length_b 14.706211
_cell_length_c 26.658547
_cell_angle_alpha 90.000000
_cell_angle_beta 20.790728
_cell_angle_gamma 90.000000
_cell_volume 2122.608421
_symmetry_space_group_name_H-M "C 2/M"
_symmetry_group_IT_number 12
_symmetry_cell_setting 'monoclinic'
loop_
_space_group_symop_operation_xyz
x,y,z
-x,y,-z
-x,-y,-z
x,-y,z
1/2+x,1/2+y,z
1/2-x,1/2+y,-z
1/2-x,1/2-y,-z
1/2+x,1/2-y,z
loop_
_atom_site_type_symbol
_atom_site_label
_atom_site_fract_x
_atom_site_fract_y
_atom_site_fract_z
Si Si1 0.024401 0.729585 0.657903
Si Si2 0.915316 0.897410 0.101894
Si Si3 0.128203 0.653580 0.077736
Si Si4 0.706270 0.892947 0.653081
Si Si5 0.172147 0.603634 0.860105
O O1 0.250000 0.750000 0.500000
O O2 0.122141 0.668812 0.651710
O O3 0.791596 0.668501 0.764457
O O4 0.894975 0.824928 0.740645
O O5 0.820159 0.000000 0.147294
O O6 0.000000 0.867048 0.000000
O O7 0.150015 0.898104 0.012810
O O8 0.912362 0.651818 0.234320
O O9 0.003699 0.614888 0.094325
O O10 0.250000 0.750000 0.000000
O O11 0.000000 0.892175 0.500000
O O12 0.630117 0.000000 0.690076
O O13 0.263575 0.500000 0.812740
O O14 0.000000 0.620959 0.000000
#
# Coordination Sequence:
#
# PCOD9220995 Si02
#       5
#     8   8   8   8   8
#     4  12  24  40  62  93 130 168 208 265 325 386
#     4  11  22  40  67  97 127 161 212 274 329 385
#     4  12  22  39  67  97 131 167 211 266 326 387
#     4  11  24  42  67  98 131 167 216 273 329 387
#     4  11  24  43  64  90 127 171 217 262 318 391
#
# _framework density 18.844738
#
# number of rings (size 3 to 8) (size 9 to 14) (size 15 to 20)
#    0.000    0.600    4.000    5.400    0.000    3.200 
#    0.000    0.000    0.000    0.600    0.000    0.000 
#    0.000    0.000    0.000    0.000    0.000    0.000 
#
# Total GULP energy -111687.156819 kJ/mol
# GULP energy per Si atom -5584.357841 kJ/mol
# Density = 1.880185 g / cm^3
# Si number density = 18.844738 Si / 1000 Ang^3
#
#
#
# Elastic Constant Matrix: (Units=GPa)
#
#
# Indices 1 2 3 4 5 6 
#
# 1 122.1172 31.0596 48.6615 -0.0200 12.4199 -0.0094
# 2 31.0596 150.9250 83.6914 -0.0057 17.1386 0.0075
# 3 48.6615 83.6914 138.1518 -0.0896 13.6098 -0.0193
# 4 -0.0200 -0.0057 -0.0896 28.0912 -0.0176 0.1733
# 5 12.4199 17.1386 13.6098 -0.0176 34.1768 -0.0111
# 6 -0.0094 0.0075 -0.0193 0.1733 -0.0111 7.8242
#
#
#
# Elastic Compliance Matrix: (Units=1/GPa)
#
#
# Indices 1 2 3 4 5 6 
#
# 1 0.009690 0.000048 -0.003219 -0.000005 -0.002263 0.000001
# 2 0.000048 0.010223 -0.005936 -0.000018 -0.002780 -0.000028
# 3 -0.003219 -0.005936 0.012032 0.000034 -0.000645 0.000030
# 4 -0.000005 -0.000018 0.000034 0.035603 0.000015 -0.000788
# 5 -0.002263 -0.002780 -0.000645 0.000015 0.031733 0.000043
# 6 0.000001 -0.000028 0.000030 -0.000788 0.000043 0.127826
#
#
# Mechanical properties :
#
#
# Convention : Reuss Voigt Hill
#
# Bulk Modulus (GPa) = 72.83206 82.00212 77.41709
# Shear Modulus (GPa) = 20.00809 30.53722 25.27266
#
# Velocity S-wave (km/s) = 3.26196 4.02987 3.66607
# Velocity P-wave (km/s) = 7.27458 8.07850 7.68706
#
# Compressibility (1/GPa) = 0.01373022
#
# Stress axis : x y z
#
# Youngs Moduli (GPa) = 103.20355 97.81393 83.11153
#
# Poissons Ratio (x) = -0.00470 0.26755
# Poissons Ratio (y) = -0.00496 0.49338
# Poissons Ratio (z) = 0.33222 0.58066
#
# Static dielectric constant tensor:
#      x y z
#    x 1.668690 0.000000 -0.024240 
#    y 0.000000 1.661830 0.000000 
#    z -0.024240 0.000000 1.641380 
# 
# From -- ./inp_files/142524.got.cif
#   From: 2010.05.17/outbox.cif.g08.bks.cpg/sg12_72_cif.got.tgz:142524.got - 2010.06.03 13:09:07.
