data_PCOD9220445
_publ_section_title
;
Structure prediction by ZEFSAII (Michael W. Deem and Ramdas Pophale) SiO2 
 PCOD9220445
Probable space group: C 2/M
;
_chemical_formula_sum "Si O2"
_cell_formula_units_Z 64
_cell_length_a 14.547583
_cell_length_b 28.211423
_cell_length_c 9.374232
_cell_angle_alpha 90.000000
_cell_angle_beta 108.274968
_cell_angle_gamma 90.000000
_cell_volume 3653.214057
_symmetry_space_group_name_H-M "C 2/M"
_symmetry_group_IT_number 12
_symmetry_cell_setting 'monoclinic'
loop_
_space_group_symop_operation_xyz
x,y,z
-x,y,-z
-x,-y,-z
x,-y,z
1/2+x,1/2+y,z
1/2-x,1/2+y,-z
1/2-x,1/2-y,-z
1/2+x,1/2-y,z
loop_
_atom_site_type_symbol
_atom_site_label
_atom_site_fract_x
_atom_site_fract_y
_atom_site_fract_z
Si Si1 0.611364 0.196593 0.522705
Si Si2 0.897992 0.196551 0.029529
Si Si3 0.900019 0.195621 0.375748
Si Si4 0.799250 0.350471 0.690287
Si Si5 0.892025 0.445639 0.627341
Si Si6 0.890586 0.305484 0.995558
Si Si7 0.787425 0.352049 0.186845
Si Si8 0.116850 0.446442 0.721647
O O1 0.500000 0.181787 0.500000
O O2 0.621236 0.250721 0.579266
O O3 0.635676 0.186428 0.370305
O O4 0.691172 0.164704 0.642221
O O5 0.907869 0.194824 0.206633
O O6 0.865711 0.250143 0.974360
O O7 0.815156 0.162749 0.926542
O O8 0.000000 0.188058 0.000000
O O9 0.812662 0.162238 0.382527
O O10 0.000000 0.181847 0.500000
O O11 0.829995 0.403546 0.664848
O O12 0.824105 0.337821 0.864541
O O13 0.868900 0.500000 0.659810
O O14 0.882280 0.443905 0.450617
O O15 0.005903 0.436919 0.713565
O O16 0.870315 0.322714 0.144078
O O17 0.000000 0.311485 0.000000
O O18 0.811806 0.407003 0.185164
O O19 0.141468 0.500000 0.775203
#
# Coordination Sequence:
#
# PCOD9220445 Si02
#       8
#     8   8   8   8   8   8   8   8
#     4  11  22  34  55  87 117 150 190 229 272 336
#     4  11  25  40  56  79 113 156 194 236 287 326
#     4  11  25  40  55  81 114 150 198 242 276 326
#     4  12  22  36  57  85 115 154 192 228 280 337
#     4   9  18  34  56  85 117 146 183 229 279 334
#     4  11  22  35  56  81 119 152 183 228 284 343
#     4  12  20  37  58  80 117 152 190 229 278 341
#     4   9  18  33  57  86 114 146 186 230 275 333
#
# _framework density 17.518820000000002
#
# number of rings (size 3 to 8) (size 9 to 14) (size 15 to 20)
#    0.000    1.250    3.750    4.500    7.000    0.000 
#    0.000    0.625    0.000    3.000    0.000    0.000 
#    0.000    0.000    0.000    0.000    0.000    0.000 
#
# Total GULP energy -178660.823820 kJ/mol
# GULP energy per Si atom -5583.150744 kJ/mol
# Density = 1.747895 g / cm^3
# Si number density = 17.518820 Si / 1000 Ang^3
#
#
#
# Elastic Constant Matrix: (Units=GPa)
#
#
# Indices 1 2 3 4 5 6 
#
# 1 87.6132 64.5473 18.4033 0.0000 5.9714 0.0000
# 2 64.5473 130.6578 28.5205 0.0000 19.6153 0.0000
# 3 18.4033 28.5205 41.6183 0.0000 7.8830 0.0000
# 4 0.0000 0.0000 0.0000 2.7053 0.0000 4.6187
# 5 5.9714 19.6153 7.8830 0.0000 29.2087 0.0000
# 6 0.0000 0.0000 0.0000 4.6187 0.0000 28.0551
#
#
#
# Elastic Compliance Matrix: (Units=1/GPa)
#
#
# Indices 1 2 3 4 5 6 
#
# 1 0.018338 -0.008948 -0.002535 0.000000 0.002944 0.000000
# 2 -0.008948 0.013998 -0.004428 0.000000 -0.006376 0.000000
# 3 -0.002535 -0.004428 0.029005 0.000000 -0.004336 0.000000
# 4 0.000000 0.000000 0.000000 0.514145 0.000000 -0.084643
# 5 0.002944 -0.006376 -0.004336 0.000000 0.039087 0.000000
# 6 0.000000 0.000000 0.000000 -0.084643 0.000000 0.049579
#
#
# Mechanical properties :
#
#
# Convention : Reuss Voigt Hill
#
# Bulk Modulus (GPa) = 33.87673 53.64795 43.76234
# Shear Modulus (GPa) = 7.08405 21.88836 14.48620
#
# Velocity S-wave (km/s) = 2.01307 3.53855 2.87870
# Velocity P-wave (km/s) = 4.97821 6.88365 6.00696
#
# Compressibility (1/GPa) = 0.02951879
#
# Stress axis : x y z
#
# Youngs Moduli (GPa) = 54.53239 71.43978 34.47736
#
# Poissons Ratio (x) = 0.63924 0.08739
# Poissons Ratio (y) = 0.48795 0.15267
# Poissons Ratio (z) = 0.13822 0.31635
#
# Static dielectric constant tensor:
#      x y z
#    x 1.595390 0.000000 0.002980 
#    y 0.000000 1.586870 0.000000 
#    z 0.002980 0.000000 1.596630 
# 
# From -- ./inp_files/67007.got.cif
#   From: 2010.05.17/outbox.cif.g08.bks.cpg/sg12_34_cif.got.tgz:67007.got - 2010.06.03 13:09:07.
