data_PCOD9220208
_publ_section_title
;
Structure prediction by ZEFSAII (Michael W. Deem and Ramdas Pophale) SiO2 
 PCOD9220208
Probable space group: C 2/M
;
_chemical_formula_sum "Si O2"
_cell_formula_units_Z 64
_cell_length_a 14.122600
_cell_length_b 15.585903
_cell_length_c 18.413079
_cell_angle_alpha 90.000000
_cell_angle_beta 50.336260
_cell_angle_gamma 90.000000
_cell_volume 3119.988618
_symmetry_space_group_name_H-M "C 2/M"
_symmetry_group_IT_number 12
_symmetry_cell_setting 'monoclinic'
loop_
_space_group_symop_operation_xyz
x,y,z
-x,y,-z
-x,-y,-z
x,-y,z
1/2+x,1/2+y,z
1/2-x,1/2+y,-z
1/2-x,1/2-y,-z
1/2+x,1/2-y,z
loop_
_atom_site_type_symbol
_atom_site_label
_atom_site_fract_x
_atom_site_fract_y
_atom_site_fract_z
Si Si1 0.017336 0.591658 0.765344
Si Si2 0.012106 0.781485 0.412143
Si Si3 0.892757 0.800398 0.108811
Si Si4 0.053159 0.597294 0.575066
Si Si5 0.672504 0.238693 0.111349
Si Si6 0.500453 0.402040 0.814066
Si Si7 0.224925 0.686496 0.713629
Si Si8 0.310371 0.669721 0.391348
O O1 0.961653 0.500000 0.810898
O O2 0.034402 0.598935 0.670685
O O3 0.155308 0.600786 0.727342
O O4 0.934697 0.668146 0.835541
O O5 0.138963 0.820400 0.322083
O O6 0.000000 0.814951 0.500000
O O7 0.028730 0.678132 0.409350
O O8 0.898886 0.800649 0.414220
O O9 0.767463 0.800244 0.123850
O O10 0.860022 0.731322 0.185500
O O11 0.942111 0.879046 0.134363
O O12 0.000000 0.777663 0.000000
O O13 0.022960 0.500000 0.566859
O O14 0.190575 0.622371 0.481626
O O15 0.602842 0.330309 0.154780
O O16 0.750000 0.250000 0.000000
O O17 0.456314 0.500000 0.834716
O O18 0.608974 0.388825 0.701969
O O19 0.225926 0.748246 0.641316
#
# Coordination Sequence:
#
# PCOD9220208 Si02
#       8
#     8   8   8   8   8   8   8   8
#     4  11  23  42  67  96 128 176 225 275 336 398
#     4  12  22  36  65  92 124 181 224 264 331 400
#     4  11  22  41  69  97 129 171 221 274 343 407
#     4  11  22  38  60  94 134 167 217 278 327 393
#     4  12  23  46  71  96 139 178 216 280 350 411
#     4  11  24  43  70 102 137 178 231 285 342 408
#     4  11  21  40  63  90 126 172 220 276 325 402
#     4  11  21  42  63  88 137 181 220 267 343 396
#
# _framework density 20.512895
#
# number of rings (size 3 to 8) (size 9 to 14) (size 15 to 20)
#    0.000    0.750    6.250    3.000    0.000    1.500 
#    0.000    5.000    0.000    4.875    0.000    0.000 
#    0.000    0.000    0.000    0.000    0.000    0.000 
#
# Total GULP energy -178523.670001 kJ/mol
# GULP energy per Si atom -5578.864688 kJ/mol
# Density = 2.046621 g / cm^3
# Si number density = 20.512895 Si / 1000 Ang^3
#
#
#
# Elastic Constant Matrix: (Units=GPa)
#
#
# Indices 1 2 3 4 5 6 
#
# 1 105.4194 15.6612 19.7221 0.0000 -3.7951 0.0000
# 2 15.6612 100.6904 31.4473 0.0000 -7.7973 0.0000
# 3 19.7221 31.4473 124.2029 0.0000 -2.1819 0.0000
# 4 0.0000 0.0000 0.0000 8.2333 0.0000 4.1545
# 5 -3.7951 -7.7973 -2.1819 0.0000 36.0729 0.0000
# 6 0.0000 0.0000 0.0000 4.1545 0.0000 -2.4023
#
#
#
# Elastic Compliance Matrix: (Units=1/GPa)
#
#
# Indices 1 2 3 4 5 6 
#
# 1 0.009914 -0.001083 -0.001287 0.000000 0.000731 0.000000
# 2 -0.001083 0.011075 -0.002595 0.000000 0.002123 0.000000
# 3 -0.001287 -0.002595 0.008910 0.000000 -0.000157 0.000000
# 4 0.000000 0.000000 0.000000 0.064859 0.000000 0.112167
# 5 0.000731 0.002123 -0.000157 0.000000 0.028248 0.000000
# 6 0.000000 0.000000 0.000000 0.112167 0.000000 -0.222290
#
#
# Mechanical properties :
#
#
# Convention : Reuss Voigt Hill
#
# Bulk Modulus (GPa) = 50.07966 51.55267 50.81616
# Shear Modulus (GPa) = -60.46062 25.94626 -17.25718
#
# Velocity S-wave (km/s) = -5.43493 3.56037 -2.90364
# Velocity P-wave (km/s) = 3.86236 6.48753 3.68580
#
# Compressibility (1/GPa) = 0.01996819
#
# Stress axis : x y z
#
# Youngs Moduli (GPa) = 100.86767 90.29577 112.23451
#
# Poissons Ratio (x) = 0.09783 0.14445
# Poissons Ratio (y) = 0.10928 0.29122
# Poissons Ratio (z) = 0.12982 0.23429
#
# Static dielectric constant tensor:
#      x y z
#    x 1.812640 0.000000 0.001340 
#    y 0.000000 1.742010 0.000000 
#    z 0.001340 0.000000 1.741420 
# 
# From -- ./inp_files/270656.got.cif
#   From: 2010.05.17/outbox.cif.g08.bks.cpg/sg12_136_cif.got.tgz:270656.got - 2010.06.03 13:09:07.
