data_PCOD9220367
_publ_section_title
;
Structure prediction by ZEFSAII (Michael W. Deem and Ramdas Pophale) SiO2 
 PCOD9220367
Probable space group: C 2/M
;
_chemical_formula_sum "Si O2"
_cell_formula_units_Z 56
_cell_length_a 9.128854
_cell_length_b 23.419465
_cell_length_c 16.853009
_cell_angle_alpha 90.000000
_cell_angle_beta 42.848849
_cell_angle_gamma 90.000000
_cell_volume 2450.316254
_symmetry_space_group_name_H-M "C 2/M"
_symmetry_group_IT_number 12
_symmetry_cell_setting 'monoclinic'
loop_
_space_group_symop_operation_xyz
x,y,z
-x,y,-z
-x,-y,-z
x,-y,z
1/2+x,1/2+y,z
1/2-x,1/2+y,-z
1/2-x,1/2-y,-z
1/2+x,1/2-y,z
loop_
_atom_site_type_symbol
_atom_site_label
_atom_site_fract_x
_atom_site_fract_y
_atom_site_fract_z
Si Si1 0.840899 0.500000 0.421192
Si Si2 0.402806 0.302898 0.452726
Si Si3 0.873321 0.000000 0.670769
Si Si4 0.908623 0.820982 0.179521
Si Si5 0.255871 0.709861 0.821754
Si Si6 0.467987 0.121708 0.353518
Si Si7 0.388415 0.561183 0.958998
Si Si8 0.578795 0.896461 0.817627
O O1 0.631544 0.500000 0.561138
O O2 0.731652 0.500000 0.376536
O O3 0.987559 0.555747 0.367624
O O4 0.500000 0.297809 0.500000
O O5 0.250000 0.250000 0.500000
O O6 0.591699 0.299799 0.315212
O O7 0.250616 0.357964 0.517333
O O8 0.776649 0.058668 0.745275
O O9 0.861338 0.770768 0.135252
O O10 0.667784 0.839712 0.301618
O O11 0.075271 0.793564 0.174439
O O12 0.014782 0.881091 0.114757
O O13 0.098425 0.656369 0.870641
O O14 0.443676 0.124424 0.266234
O O15 0.425595 0.500000 0.902393
O O16 0.500000 0.557700 0.000000
O O17 0.136439 0.569854 0.074730
#
# Coordination Sequence:
#
# PCOD9220367 Si02
#       8
#     4   8   4   8   8   8   8   8
#     4   9  20  32  62  99 136 177 229 275 333 415
#     4  12  23  39  66  99 134 180 228 270 339 421
#     4   9  18  36  63 101 135 181 228 277 340 413
#     4  12  27  46  68 104 141 187 235 293 348 415
#     4  12  26  45  69 103 144 184 230 286 357 413
#     4  11  22  39  67 101 140 179 230 284 340 413
#     4  11  25  46  78 106 133 185 243 290 353 418
#     4  11  21  43  70 101 138 182 229 294 344 414
#
# _framework density 22.854194
#
# number of rings (size 3 to 8) (size 9 to 14) (size 15 to 20)
#    0.000    0.857    5.000    2.571    3.000    1.143 
#    1.286    0.714    0.000    1.714    0.000    0.000 
#    0.000    0.000    0.000    0.000    0.000    0.000 
#
# Total GULP energy -156518.809723 kJ/mol
# GULP energy per Si atom -5589.957490 kJ/mol
# Density = 2.280218 g / cm^3
# Si number density = 22.854194 Si / 1000 Ang^3
#
#
#
# Elastic Constant Matrix: (Units=GPa)
#
#
# Indices 1 2 3 4 5 6 
#
# 1 81.7367 50.4716 19.5864 -0.0001 -21.8587 0.0000
# 2 50.4716 165.3163 25.1451 0.0001 -10.9873 0.0000
# 3 19.5864 25.1451 66.8228 -0.0010 -6.3377 0.0003
# 4 -0.0001 0.0001 -0.0010 -227.8637 0.0003 64.0838
# 5 -21.8587 -10.9873 -6.3377 0.0003 19.0506 -0.0001
# 6 0.0000 0.0000 0.0003 64.0838 -0.0001 8.8767
#
#
#
# Elastic Compliance Matrix: (Units=1/GPa)
#
#
# Indices 1 2 3 4 5 6 
#
# 1 0.021368 -0.004753 -0.002488 0.000000 0.020948 0.000000
# 2 -0.004753 0.007643 -0.001634 0.000000 -0.001589 0.000000
# 3 -0.002488 -0.001634 0.016468 0.000000 0.001682 0.000000
# 4 0.000000 0.000000 0.000000 -0.001448 0.000000 0.010455
# 5 0.020948 -0.001589 0.001682 0.000000 0.076171 0.000000
# 6 0.000000 0.000000 0.000000 0.010455 0.000000 0.037175
#
#
# Mechanical properties :
#
#
# Convention : Reuss Voigt Hill
#
# Bulk Modulus (GPa) = 36.06146 56.03134 46.04640
# Shear Modulus (GPa) = 27.11946 -25.40910 0.85518
#
# Velocity S-wave (km/s) = 3.44849 -3.33797 0.61238
# Velocity P-wave (km/s) = 5.62754 3.11673 4.54881
#
# Compressibility (1/GPa) = 0.02773044
#
# Stress axis : x y z
#
# Youngs Moduli (GPa) = 46.79976 130.83929 60.72246
#
# Poissons Ratio (x) = 0.62187 0.15106
# Poissons Ratio (y) = 0.22244 0.09920
# Poissons Ratio (z) = 0.11643 0.21374
#
# Static dielectric constant tensor:
#      x y z
#    x 1.823110 0.000000 0.009220 
#    y 0.000000 1.896510 0.000000 
#    z 0.009220 0.000000 1.898150 
# 
# From -- ./inp_files/259830.got.cif
#   From: 2010.05.17/outbox.cif.g08.bks.cpg/sg12_130_cif.got.tgz:259830.got - 2010.06.03 13:09:07.
