data_PCOD9220649
_publ_section_title
;
Structure prediction by ZEFSAII (Michael W. Deem and Ramdas Pophale) SiO2 
 PCOD9220649
Probable space group: C 2/M
;
_chemical_formula_sum "Si O2"
_cell_formula_units_Z 56
_cell_length_a 22.822309
_cell_length_b 8.874307
_cell_length_c 15.091293
_cell_angle_alpha 90.000000
_cell_angle_beta 114.054521
_cell_angle_gamma 90.000000
_cell_volume 2791.042256
_symmetry_space_group_name_H-M "C 2/M"
_symmetry_group_IT_number 12
_symmetry_cell_setting 'monoclinic'
loop_
_space_group_symop_operation_xyz
x,y,z
-x,y,-z
-x,-y,-z
x,-y,z
1/2+x,1/2+y,z
1/2-x,1/2+y,-z
1/2-x,1/2-y,-z
1/2+x,1/2-y,z
loop_
_atom_site_type_symbol
_atom_site_label
_atom_site_fract_x
_atom_site_fract_y
_atom_site_fract_z
Si Si1 0.741172 0.179430 0.091219
Si Si2 0.684576 0.178894 0.706373
Si Si3 0.575702 0.675072 0.532807
Si Si4 0.008391 0.820162 0.150061
Si Si5 0.584809 0.823353 0.348394
Si Si6 0.394445 0.319503 0.952006
Si Si7 0.271082 0.821173 0.606507
O O1 0.795185 0.243015 0.190174
O O2 0.672033 0.232256 0.085725
O O3 0.744366 0.000000 0.089256
O O4 0.750000 0.250000 0.000000
O O5 0.615399 0.229418 0.628127
O O6 0.733783 0.238597 0.661748
O O7 0.689018 0.000000 0.716810
O O8 0.500000 0.688426 0.500000
O O9 0.594330 0.500000 0.552451
O O10 0.590013 0.733968 0.443207
O O11 0.028153 0.735811 0.251106
O O12 0.062205 0.788808 0.107874
O O13 0.008944 0.000000 0.165931
O O14 0.940084 0.781290 0.063969
O O15 0.652378 0.802408 0.339431
O O16 0.577389 0.000000 0.363382
O O17 0.382351 0.500000 0.946631
O O18 0.250000 0.750000 0.500000
O O19 0.256959 0.000000 0.598761
#
# Coordination Sequence:
#
# PCOD9220649 Si02
#       7
#     8   8   8   8   8   8   8
#     4  12  26  44  66  92 123 164 212 262 314 372
#     4  12  25  43  67  95 127 165 206 259 317 373
#     4  11  25  44  65  88 119 162 208 254 307 371
#     4   9  19  36  62  91 124 164 201 247 308 371
#     4  11  23  37  58  91 126 162 205 252 306 367
#     4   9  19  39  63  91 124 160 205 254 309 369
#     4  11  22  37  61  94 129 166 206 255 311 369
#
# _framework density 20.064188999999999
#
# number of rings (size 3 to 8) (size 9 to 14) (size 15 to 20)
#    0.000    1.286    1.429    5.571    0.000    7.429 
#    0.000    2.857    0.000    0.000    0.000    0.000 
#    0.000    0.000    0.000    0.000    0.000    0.000 
#
# Total GULP energy -156653.516138 kJ/mol
# GULP energy per Si atom -5594.768434 kJ/mol
# Density = 2.001852 g / cm^3
# Si number density = 20.064189 Si / 1000 Ang^3
#
#
#
# Elastic Constant Matrix: (Units=GPa)
#
#
# Indices 1 2 3 4 5 6 
#
# 1 39.1745 27.3542 11.0715 0.0000 8.0698 0.0000
# 2 27.3542 116.6173 52.2284 0.0000 7.4055 0.0000
# 3 11.0715 52.2284 132.8082 0.0000 6.4057 0.0000
# 4 0.0000 0.0000 0.0000 33.5436 0.0000 3.4443
# 5 8.0698 7.4055 6.4057 0.0000 24.0808 0.0000
# 6 0.0000 0.0000 0.0000 3.4443 0.0000 32.5181
#
#
#
# Elastic Compliance Matrix: (Units=1/GPa)
#
#
# Indices 1 2 3 4 5 6 
#
# 1 0.032234 -0.007273 0.000594 0.000000 -0.008724 0.000000
# 2 -0.007273 0.012159 -0.004166 0.000000 -0.000194 0.000000
# 3 0.000594 -0.004166 0.009184 0.000000 -0.001361 0.000000
# 4 0.000000 0.000000 0.000000 0.030140 0.000000 -0.003192
# 5 -0.008724 -0.000194 -0.001361 0.000000 0.044872 0.000000
# 6 0.000000 0.000000 0.000000 -0.003192 0.000000 0.031090
#
#
# Mechanical properties :
#
#
# Convention : Reuss Voigt Hill
#
# Bulk Modulus (GPa) = 31.36063 52.21204 41.78633
# Shear Modulus (GPa) = 26.04178 31.22491 28.63334
#
# Velocity S-wave (km/s) = 3.60658 3.94921 3.78178
# Velocity P-wave (km/s) = 5.74520 6.84646 6.31986
#
# Compressibility (1/GPa) = 0.03188712
#
# Stress axis : x y z
#
# Youngs Moduli (GPa) = 31.02268 82.24251 108.88321
#
# Poissons Ratio (x) = 0.59815 -0.06465
# Poissons Ratio (y) = 0.22563 0.45362
# Poissons Ratio (z) = -0.01842 0.34263
#
# Static dielectric constant tensor:
#      x y z
#    x 1.713340 0.000000 0.009160 
#    y 0.000000 1.668850 0.000000 
#    z 0.009160 0.000000 1.693450 
# 
# From -- ./inp_files/239044.got.cif
#   From: 2010.05.17/outbox.cif.g08.bks.cpg/sg12_120_cif.got.tgz:239044.got - 2010.06.03 13:09:07.
