data_PCOD9220478
_publ_section_title
;
Structure prediction by ZEFSAII (Michael W. Deem and Ramdas Pophale) SiO2 
 PCOD9220478
Probable space group: C 2/M
;
_chemical_formula_sum "Si O2"
_cell_formula_units_Z 48
_cell_length_a 30.786834
_cell_length_b 8.223678
_cell_length_c 20.085959
_cell_angle_alpha 90.000000
_cell_angle_beta 148.974985
_cell_angle_gamma 90.000000
_cell_volume 2621.068939
_symmetry_space_group_name_H-M "C 2/M"
_symmetry_group_IT_number 12
_symmetry_cell_setting 'monoclinic'
loop_
_space_group_symop_operation_xyz
x,y,z
-x,y,-z
-x,-y,-z
x,-y,z
1/2+x,1/2+y,z
1/2-x,1/2+y,-z
1/2-x,1/2-y,-z
1/2+x,1/2-y,z
loop_
_atom_site_type_symbol
_atom_site_label
_atom_site_fract_x
_atom_site_fract_y
_atom_site_fract_z
Si Si1 0.257544 0.195915 0.085678
Si Si2 0.220233 0.808320 0.389476
Si Si3 0.221918 0.301827 0.674055
Si Si4 0.403626 0.801158 0.377455
Si Si5 0.870021 0.803698 0.969274
Si Si6 0.466715 0.807010 0.884498
O O1 0.342457 0.249737 0.236205
O O2 0.177869 0.248156 0.026325
O O3 0.258385 0.000000 0.088358
O O4 0.250000 0.250000 0.000000
O O5 0.250000 0.750000 0.500000
O O6 0.270504 0.740312 0.391218
O O7 0.122146 0.770725 0.249815
O O8 0.232545 0.000000 0.404213
O O9 0.219855 0.500000 0.670496
O O10 0.143211 0.249955 0.615951
O O11 0.306517 0.257398 0.825794
O O12 0.500000 0.745677 0.500000
O O13 0.404505 0.000000 0.378037
O O14 0.876556 0.000000 0.978127
O O15 0.960923 0.731287 0.073956
O O16 0.454560 0.000000 0.873186
O O17 0.500000 0.746214 0.000000
#
# Coordination Sequence:
#
# PCOD9220478 Si02
#       6
#     8   8   8   8   8   8
#     4   9  18  32  52  78 108 138 171 215 266 317
#     4  11  22  37  55  76 110 147 179 218 268 321
#     4   8  15  29  51  74  98 136 179 214 254 311
#     4   8  14  28  51  76  99 129 174 217 249 298
#     4   9  17  33  55  77 102 141 185 216 258 321
#     4  11  22  35  55  83 108 132 178 232 273 322
#
# _framework density 18.313141000000002
#
# number of rings (size 3 to 8) (size 9 to 14) (size 15 to 20)
#    0.000    2.667    1.667    3.000    0.000    1.333 
#    3.000    0.000    0.000    0.500    0.000    0.000 
#    0.000    0.000    0.000    0.000    0.000    0.000 
#
# Total GULP energy -133810.798540 kJ/mol
# GULP energy per Si atom -5575.449939 kJ/mol
# Density = 1.827146 g / cm^3
# Si number density = 18.313141 Si / 1000 Ang^3
#
#
#
# Elastic Constant Matrix: (Units=GPa)
#
#
# Indices 1 2 3 4 5 6 
#
# 1 175.6779 8.8641 90.7532 0.0000 -13.0357 0.0000
# 2 8.8641 7.1818 3.9381 0.0000 -7.1945 0.0000
# 3 90.7532 3.9381 104.1911 0.0000 -3.8527 0.0000
# 4 0.0000 0.0000 0.0000 11.0065 0.0000 -9.1649
# 5 -13.0357 -7.1945 -3.8527 0.0000 32.9076 0.0000
# 6 0.0000 0.0000 0.0000 -9.1649 0.0000 20.2736
#
#
#
# Elastic Compliance Matrix: (Units=1/GPa)
#
#
# Indices 1 2 3 4 5 6 
#
# 1 0.010901 -0.006623 -0.009178 0.000000 0.001796 0.000000
# 2 -0.006623 0.185298 0.000167 0.000000 0.037907 0.000000
# 3 -0.009178 0.000167 0.017529 0.000000 -0.001547 0.000000
# 4 0.000000 0.000000 0.000000 0.145700 0.000000 0.065865
# 5 0.001796 0.037907 -0.001547 0.000000 0.039206 0.000000
# 6 0.000000 0.000000 0.000000 0.065865 0.000000 0.079100
#
#
# Mechanical properties :
#
#
# Convention : Reuss Voigt Hill
#
# Bulk Modulus (GPa) = 5.48070 54.90686 30.19378
# Shear Modulus (GPa) = 8.77466 25.07055 16.92261
#
# Velocity S-wave (km/s) = 2.19131 3.70400 3.04315
# Velocity P-wave (km/s) = 3.06623 6.95271 5.37317
#
# Compressibility (1/GPa) = 0.18245852
#
# Stress axis : x y z
#
# Youngs Moduli (GPa) = 91.73354 5.39672 57.04858
#
# Poissons Ratio (x) = 0.03574 0.52362
# Poissons Ratio (y) = 0.60753 -0.00950
# Poissons Ratio (z) = 0.84197 -0.00090
#
# Static dielectric constant tensor:
#      x y z
#    x 1.688420 0.000000 -0.010200 
#    y 0.000000 1.643240 0.000000 
#    z -0.010200 0.000000 1.603160 
# 
# From -- ./inp_files/274075.got.cif
#   From: 2010.05.17/outbox.cif.g08.bks.cpg/sg12_138_cif.got.tgz:274075.got - 2010.06.03 13:09:07.
