data_PCOD9220957
_publ_section_title
;
Structure prediction by ZEFSAII (Michael W. Deem and Ramdas Pophale) SiO2 
 PCOD9220957
Probable space group: C 2/M
;
_chemical_formula_sum "Si O2"
_cell_formula_units_Z 42
_cell_length_a 8.567532
_cell_length_b 20.101232
_cell_length_c 12.303592
_cell_angle_alpha 90.000000
_cell_angle_beta 100.619135
_cell_angle_gamma 90.000000
_cell_volume 2082.610806
_symmetry_space_group_name_H-M "C 2/M"
_symmetry_group_IT_number 12
_symmetry_cell_setting 'monoclinic'
loop_
_space_group_symop_operation_xyz
x,y,z
-x,y,-z
-x,-y,-z
x,-y,z
1/2+x,1/2+y,z
1/2-x,1/2+y,-z
1/2-x,1/2-y,-z
1/2+x,1/2-y,z
loop_
_atom_site_type_symbol
_atom_site_label
_atom_site_fract_x
_atom_site_fract_y
_atom_site_fract_z
Si Si1 0.455428 0.225682 0.809697
Si Si2 0.393700 0.575640 0.713734
Si Si3 0.147480 0.847195 0.869922
Si Si4 0.624994 0.296227 0.423137
Si Si5 0.816346 0.606735 0.106916
Si Si6 0.000000 0.500000 0.000000
O O1 0.294833 0.192548 0.834376
O O2 0.510331 0.293079 0.875974
O O3 0.439261 0.250526 0.683856
O O4 0.596851 0.173693 0.844468
O O5 0.397330 0.500000 0.672273
O O6 0.567826 0.600670 0.776277
O O7 0.328518 0.633240 0.625268
O O8 0.286358 0.578316 0.808084
O O9 0.208058 0.881318 0.986829
O O10 0.500000 0.313153 0.500000
O O11 0.750000 0.250000 0.500000
O O12 0.951240 0.557337 0.082574
#
# Coordination Sequence:
#
# PCOD9220957 Si02
#       6
#     8   8   8   8   8   2
#     4  11  22  40  64  93 123 165 219 265 312 374
#     4  11  25  41  65  94 130 167 212 260 315 385
#     4  11  23  38  62  97 130 169 206 254 309 379
#     4  11  23  44  67  90 119 162 217 278 329 363
#     4  12  23  41  62  94 135 172 207 248 312 386
#     4  12  24  40  62  92 136 182 200 240 316 392
#
# _framework density 20.166993999999999
#
# number of rings (size 3 to 8) (size 9 to 14) (size 15 to 20)
#    0.000    0.762    2.857    6.857    1.333    4.190 
#    0.000    0.000    2.095    1.714    0.000    0.000 
#    0.000    0.000    0.000    0.000    0.000    0.000 
#
# Total GULP energy -117082.894531 kJ/mol
# GULP energy per Si atom -5575.375930 kJ/mol
# Density = 2.012109 g / cm^3
# Si number density = 20.166994 Si / 1000 Ang^3
#
#
#
# Elastic Constant Matrix: (Units=GPa)
#
#
# Indices 1 2 3 4 5 6 
#
# 1 51.4134 3.8433 4.8533 0.0000 -13.4842 0.0000
# 2 3.8433 144.9223 41.1845 0.0000 11.3329 0.0000
# 3 4.8533 41.1845 101.7455 0.0000 -1.6379 0.0000
# 4 0.0000 0.0000 0.0000 11.0893 0.0000 -23.2569
# 5 -13.4842 11.3329 -1.6379 0.0000 40.8160 0.0000
# 6 0.0000 0.0000 0.0000 -23.2569 0.0000 -3.9157
#
#
#
# Elastic Compliance Matrix: (Units=1/GPa)
#
#
# Indices 1 2 3 4 5 6 
#
# 1 0.021503 -0.001004 -0.000501 0.000000 0.007363 0.000000
# 2 -0.001004 0.008065 -0.003260 0.000000 -0.002702 0.000000
# 3 -0.000501 -0.003260 0.011191 0.000000 0.001189 0.000000
# 4 0.000000 0.000000 0.000000 0.006701 0.000000 -0.039803
# 5 0.007363 -0.002702 0.001189 0.000000 0.027730 0.000000
# 6 0.000000 0.000000 0.000000 -0.039803 0.000000 -0.018979
#
#
# Mechanical properties :
#
#
# Convention : Reuss Voigt Hill
#
# Bulk Modulus (GPa) = 32.02059 44.20482 38.11271
# Shear Modulus (GPa) = 65.65869 26.14460 45.90165
#
# Velocity S-wave (km/s) = 5.71211 3.60447 4.77600
# Velocity P-wave (km/s) = 7.70821 6.26817 7.02518
#
# Compressibility (1/GPa) = 0.03122990
#
# Stress axis : x y z
#
# Youngs Moduli (GPa) = 46.50414 123.99921 89.35711
#
# Poissons Ratio (x) = 0.12445 0.04476
# Poissons Ratio (y) = 0.04667 0.29130
# Poissons Ratio (z) = 0.02330 0.40424
#
# Static dielectric constant tensor:
#      x y z
#    x 1.762360 0.000000 0.026050 
#    y 0.000000 1.730490 0.000000 
#    z 0.026050 0.000000 1.701380 
# 
# From -- ./inp_files/120905.got.cif
#   From: 2010.05.17/outbox.cif.g08.bks.cpg/sg12_61_cif.got.tgz:120905.got - 2010.06.03 13:09:07.
