data_PCOD9220569
_publ_section_title
;
Structure prediction by ZEFSAII (Michael W. Deem and Ramdas Pophale) SiO2 
 PCOD9220569
Probable space group: C 2/M
;
_chemical_formula_sum "Si O2"
_cell_formula_units_Z 64
_cell_length_a 19.212812
_cell_length_b 20.764512
_cell_length_c 12.727407
_cell_angle_alpha 90.000000
_cell_angle_beta 140.108719
_cell_angle_gamma 90.000000
_cell_volume 3256.387663
_symmetry_space_group_name_H-M "C 2/M"
_symmetry_group_IT_number 12
_symmetry_cell_setting 'monoclinic'
loop_
_space_group_symop_operation_xyz
x,y,z
-x,y,-z
-x,-y,-z
x,-y,z
1/2+x,1/2+y,z
1/2-x,1/2+y,-z
1/2-x,1/2-y,-z
1/2+x,1/2-y,z
loop_
_atom_site_type_symbol
_atom_site_label
_atom_site_fract_x
_atom_site_fract_y
_atom_site_fract_z
Si Si1 0.750025 0.222962 0.177211
Si Si2 0.905622 0.745279 0.825212
Si Si3 0.980565 0.687301 0.694932
Si Si4 0.754143 0.138391 0.627623
Si Si5 0.860192 0.074918 0.953445
Si Si6 0.555361 0.315812 0.460656
Si Si7 0.277010 0.152405 0.060360
Si Si8 0.414063 0.574579 0.673523
O O1 0.651674 0.209632 0.143260
O O2 0.847126 0.222939 0.371635
O O3 0.744764 0.288898 0.103277
O O4 0.762747 0.170000 0.102141
O O5 0.950502 0.702479 0.781797
O O6 0.818739 0.795247 0.678009
O O7 0.000000 0.781049 0.000000
O O8 0.873872 0.652031 0.525088
O O9 0.002182 0.758478 0.670308
O O10 0.092371 0.650307 0.799783
O O11 0.803362 0.114336 0.794492
O O12 0.799565 0.086928 0.597648
O O13 0.785103 0.091127 0.966786
O O14 0.858032 0.000000 0.922300
O O15 0.984589 0.089938 0.130392
O O16 0.500000 0.343353 0.500000
O O17 0.581080 0.373819 0.413695
O O18 0.426217 0.500000 0.656773
#
# Coordination Sequence:
#
# PCOD9220569 Si02
#       8
#     8   8   8   8   8   8   8   8
#     4  11  22  36  61  91 126 160 207 250 317 365
#     4  12  21  35  57  92 125 162 199 247 315 376
#     4  12  24  38  60  96 132 159 199 257 320 376
#     4  12  23  38  63  91 128 163 205 256 312 370
#     4  11  24  43  65  90 123 166 211 256 306 369
#     4  12  22  37  60  91 126 160 200 257 316 369
#     4  11  23  40  61  93 127 166 202 256 310 380
#     4  11  25  43  63  89 123 166 215 259 305 366
#
# _framework density 19.653680000000001
#
# number of rings (size 3 to 8) (size 9 to 14) (size 15 to 20)
#    0.000    0.500    6.250    3.375    1.750    1.250 
#    0.000    2.500    0.000    0.000    0.000    1.750 
#    0.000    0.000    0.000    0.000    0.000    0.000 
#
# Total GULP energy -178457.043256 kJ/mol
# GULP energy per Si atom -5576.782602 kJ/mol
# Density = 1.960895 g / cm^3
# Si number density = 19.653680 Si / 1000 Ang^3
#
#
#
# Elastic Constant Matrix: (Units=GPa)
#
#
# Indices 1 2 3 4 5 6 
#
# 1 92.4574 18.1362 19.1070 0.0000 -14.6585 0.0000
# 2 18.1362 35.7218 11.6533 0.0000 -11.9710 0.0000
# 3 19.1070 11.6533 68.0247 0.0000 -2.7090 0.0000
# 4 0.0000 0.0000 0.0000 18.1576 0.0000 1.7368
# 5 -14.6585 -11.9710 -2.7090 0.0000 33.0777 0.0000
# 6 0.0000 0.0000 0.0000 1.7368 0.0000 18.3507
#
#
#
# Elastic Compliance Matrix: (Units=1/GPa)
#
#
# Indices 1 2 3 4 5 6 
#
# 1 0.012844 -0.004329 -0.002711 0.000000 0.003903 0.000000
# 2 -0.004329 0.035118 -0.004385 0.000000 0.010432 0.000000
# 3 -0.002711 -0.004385 0.016155 0.000000 -0.001465 0.000000
# 4 0.000000 0.000000 0.000000 0.055576 0.000000 -0.005260
# 5 0.003903 0.010432 -0.001465 0.000000 0.035617 0.000000
# 6 0.000000 0.000000 0.000000 -0.005260 0.000000 0.054992
#
#
# Mechanical properties :
#
#
# Convention : Reuss Voigt Hill
#
# Bulk Modulus (GPa) = 24.23142 32.66631 28.44887
# Shear Modulus (GPa) = 20.25057 23.73769 21.99413
#
# Velocity S-wave (km/s) = 3.21342 3.47911 3.34890
# Velocity P-wave (km/s) = 5.11117 5.72678 5.42771
#
# Compressibility (1/GPa) = 0.04126873
#
# Stress axis : x y z
#
# Youngs Moduli (GPa) = 77.85804 28.47520 61.90133
#
# Poissons Ratio (x) = 0.12326 0.16779
# Poissons Ratio (y) = 0.33702 0.27143
# Poissons Ratio (z) = 0.21105 0.12486
#
# Static dielectric constant tensor:
#      x y z
#    x 1.799520 0.000000 0.060610 
#    y 0.000000 1.666420 0.000000 
#    z 0.060610 0.000000 1.754820 
# 
# From -- ./inp_files/169690.got.cif
#   From: 2010.05.17/outbox.cif.g08.bks.cpg/sg12_85_cif.got.tgz:169690.got - 2010.06.03 13:09:07.
