data_PCOD9220863
_publ_section_title
;
Structure prediction by ZEFSAII (Michael W. Deem and Ramdas Pophale) SiO2 
 PCOD9220863
Probable space group: C 2/M
;
_chemical_formula_sum "Si O2"
_cell_formula_units_Z 64
_cell_length_a 22.482405
_cell_length_b 17.638756
_cell_length_c 20.558698
_cell_angle_alpha 90.000000
_cell_angle_beta 158.054490
_cell_angle_gamma 90.000000
_cell_volume 3046.899040
_symmetry_space_group_name_H-M "C 2/M"
_symmetry_group_IT_number 12
_symmetry_cell_setting 'monoclinic'
loop_
_space_group_symop_operation_xyz
x,y,z
-x,y,-z
-x,-y,-z
x,-y,z
1/2+x,1/2+y,z
1/2-x,1/2+y,-z
1/2-x,1/2-y,-z
1/2+x,1/2-y,z
loop_
_atom_site_type_symbol
_atom_site_label
_atom_site_fract_x
_atom_site_fract_y
_atom_site_fract_z
Si Si1 0.807983 0.639026 0.936535
Si Si2 0.692888 0.914274 0.703147
Si Si3 0.175231 0.326638 0.306979
Si Si4 0.675137 0.586796 0.423430
Si Si5 0.184586 0.088161 0.674233
Si Si6 0.661705 0.193119 0.789759
Si Si7 0.210699 0.662301 0.587568
Si Si8 0.700372 0.415285 0.964449
O O1 0.772387 0.600481 0.831535
O O2 0.729349 0.722494 0.856489
O O3 0.735887 0.594330 0.924258
O O4 0.996207 0.646189 0.136093
O O5 0.500000 0.916539 0.500000
O O6 0.728303 0.856704 0.797323
O O7 0.754389 0.882975 0.696962
O O8 0.747085 0.000000 0.771448
O O9 0.281346 0.358104 0.473494
O O10 0.242857 0.359666 0.308187
O O11 0.181302 0.236058 0.311680
O O12 0.709126 0.500000 0.476967
O O13 0.772766 0.609981 0.458700
O O14 0.488594 0.592651 0.217903
O O15 0.000000 0.107281 0.500000
O O16 0.194078 0.000000 0.663841
O O17 0.470563 0.191950 0.590307
O O18 0.711037 0.149308 0.905193
O O19 0.749646 0.500000 0.035827
#
# Coordination Sequence:
#
# PCOD9220863 Si02
#       8
#     8   8   8   8   8   8   8   8
#     4  12  25  41  63  91 124 161 205 254 304 364
#     4   9  19  36  60  90 120 153 196 245 296 352
#     4  12  25  41  63  91 124 161 205 254 304 364
#     4  11  24  42  63  89 123 161 203 254 311 368
#     4  11  24  43  66  92 124 161 202 251 308 367
#     4  11  22  39  64  91 123 162 205 253 305 364
#     4  11  22  39  64  91 123 162 205 253 305 364
#     4  11  24  42  63  89 123 161 203 254 311 368
#
# _framework density 21.004961999999999
#
# number of rings (size 3 to 8) (size 9 to 14) (size 15 to 20)
#    0.000    1.000    0.000    7.125    0.000    8.000 
#    0.000    1.875    0.000    4.500    0.000    0.000 
#    0.000    0.000    0.000    0.000    0.000    0.000 
#
# Total GULP energy -179158.528369 kJ/mol
# GULP energy per Si atom -5598.704012 kJ/mol
# Density = 2.095715 g / cm^3
# Si number density = 21.004962 Si / 1000 Ang^3
#
#
#
# Elastic Constant Matrix: (Units=GPa)
#
#
# Indices 1 2 3 4 5 6 
#
# 1 76.5350 3.4134 -14.0346 -0.0023 -16.1081 -0.0003
# 2 3.4134 62.9093 -8.0177 -0.0102 9.2760 -0.0074
# 3 -14.0346 -8.0177 22.9387 -0.0046 4.6846 -0.0067
# 4 -0.0023 -0.0102 -0.0046 23.8018 0.0018 -6.3417
# 5 -16.1081 9.2760 4.6846 0.0018 31.3407 0.0026
# 6 -0.0003 -0.0074 -0.0067 -6.3417 0.0026 36.4911
#
#
#
# Elastic Compliance Matrix: (Units=1/GPa)
#
#
# Indices 1 2 3 4 5 6 
#
# 1 0.016132 -0.000937 0.008038 0.000003 0.007367 0.000001
# 2 -0.000937 0.017852 0.007059 0.000011 -0.006821 0.000007
# 3 0.008038 0.007059 0.052155 0.000018 -0.005754 0.000015
# 4 0.000003 0.000011 0.000018 0.044054 -0.000008 0.007656
# 5 0.007367 -0.006821 -0.005754 -0.000008 0.038573 -0.000007
# 6 0.000001 0.000007 0.000015 0.007656 -0.000007 0.028735
#
#
# Mechanical properties :
#
#
# Convention : Reuss Voigt Hill
#
# Bulk Modulus (GPa) = 8.73667 13.90057 11.31862
# Shear Modulus (GPa) = 24.11578 30.39483 27.25530
#
# Velocity S-wave (km/s) = 3.39204 3.80811 3.60608
# Velocity P-wave (km/s) = 4.41697 5.09586 4.76851
#
# Compressibility (1/GPa) = 0.11446003
#
# Stress axis : x y z
#
# Youngs Moduli (GPa) = 61.98741 56.01562 19.17361
#
# Poissons Ratio (x) = 0.05250 -0.15412
# Poissons Ratio (y) = 0.05809 -0.13535
# Poissons Ratio (z) = -0.49826 -0.39543
#
# Static dielectric constant tensor:
#      x y z
#    x 1.715860 0.000000 -0.000580 
#    y 0.000000 1.713750 0.000000 
#    z -0.000580 0.000000 1.730050 
# 
# From -- ./inp_files/326122.got.cif
#   From: 2010.05.17/outbox.cif.g08.bks.cpg/sg12_164_cif.got.tgz:326122.got - 2010.06.03 13:09:07.
