data_PCOD9220444
_publ_section_title
;
Structure prediction by ZEFSAII (Michael W. Deem and Ramdas Pophale) SiO2 
 PCOD9220444
Probable space group: C 2/M
;
_chemical_formula_sum "Si O2"
_cell_formula_units_Z 32
_cell_length_a 13.712968
_cell_length_b 13.935525
_cell_length_c 7.020958
_cell_angle_alpha 90.000000
_cell_angle_beta 58.325201
_cell_angle_gamma 90.000000
_cell_volume 1141.832087
_symmetry_space_group_name_H-M "C 2/M"
_symmetry_group_IT_number 12
_symmetry_cell_setting 'monoclinic'
loop_
_space_group_symop_operation_xyz
x,y,z
-x,y,-z
-x,-y,-z
x,-y,z
1/2+x,1/2+y,z
1/2-x,1/2+y,-z
1/2-x,1/2-y,-z
1/2+x,1/2-y,z
loop_
_atom_site_type_symbol
_atom_site_label
_atom_site_fract_x
_atom_site_fract_y
_atom_site_fract_z
Si Si1 0.125261 0.811578 0.856922
Si Si2 0.354571 0.894884 0.114275
Si Si3 0.617924 0.605637 0.483842
Si Si4 0.623812 0.111270 0.445821
O O1 0.105947 0.710748 0.984829
O O2 0.132466 0.810256 0.618608
O O3 0.255261 0.847874 0.761553
O O4 0.000000 0.864465 0.000000
O O5 0.218592 0.892275 0.228738
O O6 0.371742 0.891988 0.327168
O O7 0.395666 0.000000 0.006116
O O8 0.500000 0.610299 0.500000
O O9 0.629375 0.500000 0.569029
O O10 0.500000 0.149888 0.500000
O O11 0.625994 0.000000 0.385083
#
# Coordination Sequence:
#
# PCOD9220444 Si02
#       4
#     8   8   8   8
#     4  11  22  34  55  87 117 143 179 237 290 322
#     4   9  19  35  53  75 108 153 197 228 266 331
#     4   9  18  35  59  82 107 145 188 227 273 337
#     4   9  18  35  59  82 107 145 188 227 273 337
#
# _framework density 28.025137000000001
#
# number of rings (size 3 to 8) (size 9 to 14) (size 15 to 20)
#    0.000    2.500    0.000    5.250    0.000    6.500 
#    0.000    5.000    0.000    9.000    0.000    0.000 
#    0.000    0.000    0.000    0.000    0.000    0.000 
#
# Total GULP energy -89265.209736 kJ/mol
# GULP energy per Si atom -5579.075608 kJ/mol
# Density = 2.796135 g / cm^3
# Si number density = 28.025137 Si / 1000 Ang^3
#
#
#
# Elastic Constant Matrix: (Units=GPa)
#
#
# Indices 1 2 3 4 5 6 
#
# 1 138.6481 2.7316 63.1288 0.0000 -45.1829 0.0000
# 2 2.7316 159.8083 24.7932 0.0000 -11.5540 0.0000
# 3 63.1288 24.7932 131.1469 0.0000 -55.8831 0.0000
# 4 0.0000 0.0000 0.0000 11.4841 0.0000 -17.4578
# 5 -45.1829 -11.5540 -55.8831 0.0000 96.8844 0.0000
# 6 0.0000 0.0000 0.0000 -17.4578 0.0000 18.7083
#
#
#
# Elastic Compliance Matrix: (Units=1/GPa)
#
#
# Indices 1 2 3 4 5 6 
#
# 1 0.009698 0.000591 -0.003743 0.000000 0.002435 0.000000
# 2 0.000591 0.006483 -0.001410 0.000000 0.000236 0.000000
# 3 -0.003743 -0.001410 0.011771 0.000000 0.004876 0.000000
# 4 0.000000 0.000000 0.000000 -0.208038 0.000000 -0.194133
# 5 0.002435 0.000236 0.004876 0.000000 0.014297 0.000000
# 6 0.000000 0.000000 0.000000 -0.194133 0.000000 -0.127704
#
#
# Mechanical properties :
#
#
# Convention : Reuss Voigt Hill
#
# Bulk Modulus (GPa) = 53.10863 67.87895 60.49379
# Shear Modulus (GPa) = -17.97958 48.01200 15.01621
#
# Velocity S-wave (km/s) = -2.53564 4.14354 2.31727
# Velocity P-wave (km/s) = 3.22783 6.86770 5.36583
#
# Compressibility (1/GPa) = 0.01882933
#
# Stress axis : x y z
#
# Youngs Moduli (GPa) = 103.11014 154.24639 84.95625
#
# Poissons Ratio (x) = -0.09114 0.31797
# Poissons Ratio (y) = -0.06093 0.11976
# Poissons Ratio (z) = 0.38591 0.21744
#
# Static dielectric constant tensor:
#      x y z
#    x 2.169470 0.000000 -0.006960 
#    y 0.000000 2.295380 0.000000 
#    z -0.006960 0.000000 2.251920 
# 
# From -- ./inp_files/60015.got.cif
#   From: 2010.05.17/outbox.cif.g08.bks.cpg/sg12_31_cif.got.tgz:60015.got - 2010.06.03 13:09:07.
