data_PCOD9220502
_publ_section_title
;
Structure prediction by ZEFSAII (Michael W. Deem and Ramdas Pophale) SiO2 
 PCOD9220502
Probable space group: C 2/M
;
_chemical_formula_sum "Si O2"
_cell_formula_units_Z 32
_cell_length_a 16.978990
_cell_length_b 14.640543
_cell_length_c 6.879659
_cell_angle_alpha 90.000000
_cell_angle_beta 106.301790
_cell_angle_gamma 90.000000
_cell_volume 1641.402618
_symmetry_space_group_name_H-M "C 2/M"
_symmetry_group_IT_number 12
_symmetry_cell_setting 'monoclinic'
loop_
_space_group_symop_operation_xyz
x,y,z
-x,y,-z
-x,-y,-z
x,-y,z
1/2+x,1/2+y,z
1/2-x,1/2+y,-z
1/2-x,1/2-y,-z
1/2+x,1/2-y,z
loop_
_atom_site_type_symbol
_atom_site_label
_atom_site_fract_x
_atom_site_fract_y
_atom_site_fract_z
Si Si1 0.588383 0.000000 0.656670
Si Si2 0.846991 0.355319 0.007308
Si Si3 0.313987 0.000000 0.665994
Si Si4 0.154564 0.854765 0.981972
Si Si5 0.378362 0.500000 0.360252
Si Si6 0.919348 0.000000 0.810473
O O1 0.500000 0.000000 0.500000
O O2 0.601171 0.912546 0.802588
O O3 0.655793 0.000000 0.532583
O O4 0.871740 0.249858 0.016672
O O5 0.847488 0.411110 0.805562
O O6 0.752222 0.358291 0.013920
O O7 0.215824 0.000000 0.624284
O O8 0.115662 0.911223 0.774707
O O9 0.131228 0.911378 0.156795
O O10 0.432544 0.500000 0.590764
O O11 0.000000 0.000000 0.000000
#
# Coordination Sequence:
#
# PCOD9220502 Si02
#       6
#     4   8   4   8   4   4
#     4  11  22  36  51  83 115 149 177 225 288 338
#     4   9  19  37  58  81 108 143 191 235 266 318
#     4   9  18  35  60  81 106 145 186 228 268 321
#     4   9  19  37  58  81 108 143 191 235 266 318
#     4   9  18  35  60  81 106 145 186 228 268 321
#     4  11  22  36  51  83 115 149 177 225 288 338
#
# _framework density 19.495519999999999
#
# number of rings (size 3 to 8) (size 9 to 14) (size 15 to 20)
#    0.000    2.500    0.000    3.750    0.000    6.000 
#    9.000    7.500    0.000    0.000    0.000    0.000 
#    0.000    0.000    0.000    0.000    0.000    0.000 
#
# Total GULP energy -89334.430824 kJ/mol
# GULP energy per Si atom -5583.401927 kJ/mol
# Density = 1.945115 g / cm^3
# Si number density = 19.495520 Si / 1000 Ang^3
#
#
#
# Elastic Constant Matrix: (Units=GPa)
#
#
# Indices 1 2 3 4 5 6 
#
# 1 18.1810 15.5057 9.3212 0.0000 -3.4362 0.0000
# 2 15.5057 184.6095 50.0748 0.0000 4.9178 0.0000
# 3 9.3212 50.0748 106.7348 0.0000 6.7591 0.0000
# 4 0.0000 0.0000 0.0000 4.0944 0.0000 0.2694
# 5 -3.4362 4.9178 6.7591 0.0000 35.1680 0.0000
# 6 0.0000 0.0000 0.0000 0.2694 0.0000 10.5870
#
#
#
# Elastic Compliance Matrix: (Units=1/GPa)
#
#
# Indices 1 2 3 4 5 6 
#
# 1 0.062102 -0.004371 -0.003842 0.000000 0.007418 0.000000
# 2 -0.004371 0.006518 -0.002623 0.000000 -0.000834 0.000000
# 3 -0.003842 -0.002623 0.011071 0.000000 -0.002136 0.000000
# 4 0.000000 0.000000 0.000000 0.244643 0.000000 -0.006224
# 5 0.007418 -0.000834 -0.002136 0.000000 0.029687 0.000000
# 6 0.000000 0.000000 0.000000 -0.006224 0.000000 0.094614
#
#
# Mechanical properties :
#
#
# Convention : Reuss Voigt Hill
#
# Bulk Modulus (GPa) = 17.23641 51.03651 34.13646
# Shear Modulus (GPa) = 10.21143 25.61147 17.91145
#
# Velocity S-wave (km/s) = 2.29111 3.62845 3.03437
# Velocity P-wave (km/s) = 3.98238 6.61737 5.46118
#
# Compressibility (1/GPa) = 0.05801672
#
# Stress axis : x y z
#
# Youngs Moduli (GPa) = 16.10245 153.42658 90.32990
#
# Poissons Ratio (x) = 0.67070 0.34707
# Poissons Ratio (y) = 0.07039 0.23696
# Poissons Ratio (z) = 0.06187 0.40247
#
# Static dielectric constant tensor:
#      x y z
#    x 1.717510 0.000000 0.014500 
#    y 0.000000 1.662880 0.000000 
#    z 0.014500 0.000000 1.660240 
# 
# From -- ./inp_files/14580.got.cif
#   From: 2010.05.17/outbox.cif.g08.bks.cpg/sg12_8_cif.got.tgz:14580.got - 2010.06.03 13:09:07.
