data_PCOD9220604
_publ_section_title
;
Structure prediction by ZEFSAII (Michael W. Deem and Ramdas Pophale) SiO2 
 PCOD9220604
Probable space group: C 2/M
;
_chemical_formula_sum "Si O2"
_cell_formula_units_Z 56
_cell_length_a 31.929036
_cell_length_b 8.362120
_cell_length_c 21.320845
_cell_angle_alpha 90.000000
_cell_angle_beta 28.992988
_cell_angle_gamma 90.000000
_cell_volume 2759.192145
_symmetry_space_group_name_H-M "C 2/M"
_symmetry_group_IT_number 12
_symmetry_cell_setting 'monoclinic'
loop_
_space_group_symop_operation_xyz
x,y,z
-x,y,-z
-x,-y,-z
x,-y,z
1/2+x,1/2+y,z
1/2-x,1/2+y,-z
1/2-x,1/2-y,-z
1/2+x,1/2-y,z
loop_
_atom_site_type_symbol
_atom_site_label
_atom_site_fract_x
_atom_site_fract_y
_atom_site_fract_z
Si Si1 0.312286 0.309881 0.180511
Si Si2 0.959204 0.805765 0.648988
Si Si3 0.078511 0.690346 0.071544
Si Si4 0.614692 0.193005 0.657170
Si Si5 0.774583 0.806211 0.369869
Si Si6 0.634249 0.306341 0.356922
Si Si7 0.662147 0.308808 0.083501
O O1 0.321598 0.500000 0.170460
O O2 0.301947 0.249400 0.265262
O O3 0.224215 0.266077 0.259792
O O4 0.391056 0.241419 0.037103
O O5 0.897873 0.760669 0.670678
O O6 0.916889 0.750169 0.768849
O O7 0.056358 0.755053 0.505357
O O8 0.960731 0.000000 0.647482
O O9 0.076803 0.500000 0.076292
O O10 0.146745 0.749740 0.033612
O O11 0.983394 0.753346 0.214389
O O12 0.678118 0.245529 0.517692
O O13 0.661314 0.246059 0.660142
O O14 0.612246 0.000000 0.658999
O O15 0.775828 0.000000 0.368249
O O16 0.640851 0.500000 0.349642
O O17 0.662369 0.500000 0.083398
O O18 0.750000 0.250000 0.000000
#
# Coordination Sequence:
#
# PCOD9220604 Si02
#       7
#     8   8   8   8   8   8   8
#     4  11  23  37  56  85 119 152 188 239 296 350
#     4   8  17  33  54  79 108 146 190 238 285 336
#     4  11  24  40  59  84 118 158 199 244 290 344
#     4   9  20  40  63  87 114 149 195 240 287 349
#     4   9  20  39  62  87 117 150 186 238 299 351
#     4   9  17  34  57  80 110 147 190 235 285 343
#     4  11  22  37  57  84 118 158 201 241 290 344
#
# _framework density 20.295795999999999
#
# number of rings (size 3 to 8) (size 9 to 14) (size 15 to 20)
#    0.000    2.286    0.000    3.000    2.000    4.000 
#    0.000    5.714    0.000    0.000    0.000    0.000 
#    0.000    0.000    0.000    0.000    0.000    0.000 
#
# Total GULP energy -156365.214819 kJ/mol
# GULP energy per Si atom -5584.471958 kJ/mol
# Density = 2.024960 g / cm^3
# Si number density = 20.295796 Si / 1000 Ang^3
#
#
#
# Elastic Constant Matrix: (Units=GPa)
#
#
# Indices 1 2 3 4 5 6 
#
# 1 69.2808 8.5155 54.1761 0.0022 16.3074 -0.0006
# 2 8.5155 23.9335 18.2710 -0.0055 5.2735 0.0041
# 3 54.1761 18.2710 109.1174 -0.0052 16.6860 -0.0001
# 4 0.0022 -0.0055 -0.0052 23.6960 0.0012 -2.1391
# 5 16.3074 5.2735 16.6860 0.0012 37.7562 0.0006
# 6 -0.0006 0.0041 -0.0001 -2.1391 0.0006 25.9151
#
#
#
# Elastic Compliance Matrix: (Units=1/GPa)
#
#
# Indices 1 2 3 4 5 6 
#
# 1 0.024695 0.001337 -0.011610 -0.000004 -0.005722 0.000000
# 2 0.001337 0.048383 -0.008198 0.000009 -0.003712 -0.000007
# 3 -0.011610 -0.008198 0.016473 0.000003 -0.001120 0.000001
# 4 -0.000004 0.000009 0.000003 0.042518 -0.000002 0.003510
# 5 -0.005722 -0.003712 -0.001120 -0.000002 0.029971 0.000000
# 6 0.000000 -0.000007 0.000001 0.003510 0.000000 0.038877
#
#
# Mechanical properties :
#
#
# Convention : Reuss Voigt Hill
#
# Bulk Modulus (GPa) = 19.00767 40.47299 29.74033
# Shear Modulus (GPa) = 19.57758 25.56474 22.57116
#
# Velocity S-wave (km/s) = 3.10919 3.55295 3.33845
# Velocity P-wave (km/s) = 4.71965 6.06763 5.43558
#
# Compressibility (1/GPa) = 0.05261033
#
# Stress axis : x y z
#
# Youngs Moduli (GPa) = 40.49366 20.66845 60.70639
#
# Poissons Ratio (x) = -0.02764 0.70480
# Poissons Ratio (y) = -0.05416 0.49766
# Poissons Ratio (z) = 0.47013 0.16944
#
# Static dielectric constant tensor:
#      x y z
#    x 1.725530 0.000000 -0.005150 
#    y 0.000000 1.691460 0.000000 
#    z -0.005150 0.000000 1.772100 
# 
# From -- ./inp_files/329455.got.cif
#   From: 2010.05.17/outbox.cif.g08.bks.cpg/sg12_165_cif.got.tgz:329455.got - 2010.06.03 13:09:07.
