data_PCOD9220994
_publ_section_title
;
Structure prediction by ZEFSAII (Michael W. Deem and Ramdas Pophale) SiO2 
 PCOD9220994
Probable space group: C 2/M
;
_chemical_formula_sum "Si O2"
_cell_formula_units_Z 40
_cell_length_a 14.827628
_cell_length_b 10.728322
_cell_length_c 23.698552
_cell_angle_alpha 90.000000
_cell_angle_beta 29.863420
_cell_angle_gamma 90.000000
_cell_volume 1877.142435
_symmetry_space_group_name_H-M "C 2/M"
_symmetry_group_IT_number 12
_symmetry_cell_setting 'monoclinic'
loop_
_space_group_symop_operation_xyz
x,y,z
-x,y,-z
-x,-y,-z
x,-y,z
1/2+x,1/2+y,z
1/2-x,1/2+y,-z
1/2-x,1/2-y,-z
1/2+x,1/2-y,z
loop_
_atom_site_type_symbol
_atom_site_label
_atom_site_fract_x
_atom_site_fract_y
_atom_site_fract_z
Si Si1 0.272347 0.500000 0.384790
Si Si2 0.788328 0.644236 0.118694
Si Si3 0.185740 0.857055 0.490913
Si Si4 0.702723 0.269005 0.287603
Si Si5 0.603016 0.000000 0.351845
Si Si6 0.552029 0.243005 0.737929
O O1 0.191901 0.500000 0.365353
O O2 0.385212 0.374430 0.324218
O O3 0.106787 0.500000 0.517773
O O4 0.765673 0.500000 0.111595
O O5 0.735439 0.653941 0.213414
O O6 0.662558 0.741131 0.152308
O O7 0.000000 0.675265 0.000000
O O8 0.250000 0.750000 0.500000
O O9 0.338396 0.854367 0.359707
O O10 0.984657 0.812861 0.581347
O O11 0.161595 0.000000 0.523089
O O12 0.866150 0.269796 0.243782
O O13 0.663940 0.126583 0.289893
#
# Coordination Sequence:
#
# PCOD9220994 Si02
#       6
#     4   8   8   8   4   8
#     4   9  16  32  59  96 127 165 210 248 311 403
#     4  11  25  45  67  91 124 173 233 286 332 390
#     4  12  26  39  64 102 141 176 212 264 336 406
#     4  11  23  39  68  98 133 172 218 272 332 399
#     4   9  18  32  59  96 129 165 208 254 323 395
#     4  11  22  40  67  96 134 174 214 271 332 398
#
# _framework density 21.308983999999999
#
# number of rings (size 3 to 8) (size 9 to 14) (size 15 to 20)
#    0.000    1.200    5.000    1.200    2.800    3.200 
#    0.000    0.500    0.000    0.000    0.000    0.000 
#    0.000    0.000    0.000    0.000    0.000    0.000 
#
# Total GULP energy -111654.035414 kJ/mol
# GULP energy per Si atom -5582.701771 kJ/mol
# Density = 2.126048 g / cm^3
# Si number density = 21.308984 Si / 1000 Ang^3
#
#
#
# Elastic Constant Matrix: (Units=GPa)
#
#
# Indices 1 2 3 4 5 6 
#
# 1 108.0704 15.4528 33.4060 0.0000 -32.5320 -0.0001
# 2 15.4528 102.9468 5.7847 0.0006 -10.0355 -0.0002
# 3 33.4060 5.7847 72.1038 0.0015 -38.7638 -0.0012
# 4 0.0000 0.0006 0.0015 23.1888 -0.0008 5.7413
# 5 -32.5320 -10.0355 -38.7638 -0.0008 35.4989 0.0008
# 6 -0.0001 -0.0002 -0.0012 5.7413 0.0008 17.5814
#
#
#
# Elastic Compliance Matrix: (Units=1/GPa)
#
#
# Indices 1 2 3 4 5 6 
#
# 1 0.012861 -0.000763 0.000782 0.000001 0.012424 -0.000001
# 2 -0.000763 0.010125 0.001705 0.000000 0.004025 0.000000
# 3 0.000782 0.001705 0.033937 -0.000001 0.038257 0.000001
# 4 0.000001 0.000000 -0.000001 0.046918 0.000001 -0.015321
# 5 0.012424 0.004025 0.038257 0.000001 0.082469 -0.000001
# 6 -0.000001 0.000000 0.000001 -0.015321 -0.000001 0.061881
#
#
# Mechanical properties :
#
#
# Convention : Reuss Voigt Hill
#
# Bulk Modulus (GPa) = 16.56434 43.60088 30.08261
# Shear Modulus (GPa) = 18.87743 30.48568 24.68156
#
# Velocity S-wave (km/s) = 2.97962 3.78650 3.40703
# Velocity P-wave (km/s) = 4.43033 6.29463 5.44290
#
# Compressibility (1/GPa) = 0.06037067
#
# Stress axis : x y z
#
# Youngs Moduli (GPa) = 77.75725 98.76689 29.46611
#
# Poissons Ratio (x) = 0.07538 -0.02305
# Poissons Ratio (y) = 0.05935 -0.05024
# Poissons Ratio (z) = -0.06082 -0.16840
#
# Static dielectric constant tensor:
#      x y z
#    x 1.820370 0.000000 -0.037410 
#    y 0.000000 1.787980 0.000000 
#    z -0.037410 0.000000 1.774840 
# 
# From -- ./inp_files/339464.got.cif
#   From: 2010.05.17/outbox.cif.g08.bks.cpg/sg12_170_cif.got.tgz:339464.got - 2010.06.03 13:09:07.
