data_PCOD9220176
_publ_section_title
;
Structure prediction by ZEFSAII (Michael W. Deem and Ramdas Pophale) SiO2 
 PCOD9220176
Probable space group: C 2/M
;
_chemical_formula_sum "Si O2"
_cell_formula_units_Z 44
_cell_length_a 23.838148
_cell_length_b 15.408030
_cell_length_c 14.233594
_cell_angle_alpha 90.000000
_cell_angle_beta 19.743432
_cell_angle_gamma 90.000000
_cell_volume 1766.058938
_symmetry_space_group_name_H-M "C 2/M"
_symmetry_group_IT_number 12
_symmetry_cell_setting 'monoclinic'
loop_
_space_group_symop_operation_xyz
x,y,z
-x,y,-z
-x,-y,-z
x,-y,z
1/2+x,1/2+y,z
1/2-x,1/2+y,-z
1/2-x,1/2-y,-z
1/2+x,1/2-y,z
loop_
_atom_site_type_symbol
_atom_site_label
_atom_site_fract_x
_atom_site_fract_y
_atom_site_fract_z
Si Si1 0.558587 0.120226 0.514593
Si Si2 0.918151 0.142896 0.929713
Si Si3 0.600872 0.840941 0.980764
Si Si4 0.428534 0.698044 0.713717
Si Si5 0.649457 0.000000 0.020288
Si Si6 0.278387 0.898744 0.404238
O O1 0.500000 0.105841 0.500000
O O2 0.551350 0.223014 0.542009
O O3 0.430021 0.073858 0.783824
O O4 0.749797 0.096967 0.227007
O O5 0.899480 0.246478 0.974286
O O6 0.929569 0.131488 0.798276
O O7 0.082924 0.113971 0.723840
O O8 0.700619 0.920738 0.868929
O O9 0.407599 0.873022 0.281804
O O10 0.668756 0.839858 0.767462
O O11 0.500000 0.665601 0.500000
O O12 0.250000 0.750000 0.000000
O O13 0.311141 0.000000 0.332678
#
# Coordination Sequence:
#
# PCOD9220176 Si02
#       6
#     8   8   8   8   4   8
#     4  11  24  42  65  99 134 179 220 279 332 403
#     4  12  24  42  71  99 134 175 230 272 336 401
#     4  11  23  45  68  96 129 183 219 276 345 410
#     4  11  21  39  66  96 132 179 226 273 326 397
#     4  12  23  41  71  91 133 179 221 268 350 399
#     4  11  24  45  67  98 136 170 225 281 340 400
#
# _framework density 24.914231000000001
#
# number of rings (size 3 to 8) (size 9 to 14) (size 15 to 20)
#    0.000    0.727    7.273    2.455    1.273    0.000 
#    0.000    0.909    0.000    1.636    0.000    0.000 
#    0.000    0.000    0.000    0.000    0.000    0.000 
#
# Total GULP energy -122506.665148 kJ/mol
# GULP energy per Si atom -5568.484779 kJ/mol
# Density = 2.485752 g / cm^3
# Si number density = 24.914231 Si / 1000 Ang^3
#
#
#
# Elastic Constant Matrix: (Units=GPa)
#
#
# Indices 1 2 3 4 5 6 
#
# 1 42.5976 6.7735 13.9580 -0.0003 7.5989 0.0002
# 2 6.7735 83.0376 -16.0774 -0.0001 2.1940 0.0008
# 3 13.9580 -16.0774 115.4453 0.0000 -40.9980 0.0014
# 4 -0.0003 -0.0001 0.0000 -3.5141 0.0002 26.0566
# 5 7.5989 2.1940 -40.9980 0.0002 44.2259 -0.0004
# 6 0.0002 0.0008 0.0014 26.0566 -0.0004 -79.9891
#
#
#
# Elastic Compliance Matrix: (Units=1/GPa)
#
#
# Indices 1 2 3 4 5 6 
#
# 1 0.029154 -0.003701 -0.008578 0.000003 -0.012778 0.000001
# 2 -0.003701 0.012911 0.003345 -0.000001 0.003097 0.000000
# 3 -0.008578 0.003345 0.015846 -0.000002 0.015998 -0.000001
# 4 0.000003 -0.000001 -0.000002 0.201051 -0.000003 0.065493
# 5 -0.012778 0.003097 0.015998 -0.000003 0.039483 -0.000001
# 6 0.000001 0.000000 -0.000001 0.065493 -0.000001 0.008833
#
#
# Mechanical properties :
#
#
# Convention : Reuss Voigt Hill
#
# Bulk Modulus (GPa) = 24.97355 27.82099 26.39727
# Shear Modulus (GPa) = 14.77131 7.90628 11.33880
#
# Velocity S-wave (km/s) = 2.43757 1.78334 2.13565
# Velocity P-wave (km/s) = 4.23885 3.92827 4.08652
#
# Compressibility (1/GPa) = 0.04004237
#
# Stress axis : x y z
#
# Youngs Moduli (GPa) = 34.30029 77.45617 63.10576
#
# Poissons Ratio (x) = 0.28670 0.54133
# Poissons Ratio (y) = 0.12696 -0.21110
# Poissons Ratio (z) = 0.29423 -0.25910
#
# Static dielectric constant tensor:
#      x y z
#    x 2.038550 0.000020 -0.027190 
#    y 0.000020 -2.149590 0.000030 
#    z -0.027190 0.000030 2.055190 
# 
# From -- ./inp_files/241388.got.cif
#   From: 2010.05.17/outbox.cif.g08.bks.cpg/sg12_121_cif.got.tgz:241388.got - 2010.06.03 13:09:07.
