data_PCOD9220487
_publ_section_title
;
Structure prediction by ZEFSAII (Michael W. Deem and Ramdas Pophale) SiO2 
 PCOD9220487
Probable space group: C 2/M
;
_chemical_formula_sum "Si O2"
_cell_formula_units_Z 56
_cell_length_a 30.665267
_cell_length_b 8.720125
_cell_length_c 12.710865
_cell_angle_alpha 90.000000
_cell_angle_beta 105.548967
_cell_angle_gamma 90.000000
_cell_volume 3274.552667
_symmetry_space_group_name_H-M "C 2/M"
_symmetry_group_IT_number 12
_symmetry_cell_setting 'monoclinic'
loop_
_space_group_symop_operation_xyz
x,y,z
-x,y,-z
-x,-y,-z
x,-y,z
1/2+x,1/2+y,z
1/2-x,1/2+y,-z
1/2-x,1/2-y,-z
1/2+x,1/2-y,z
loop_
_atom_site_type_symbol
_atom_site_label
_atom_site_fract_x
_atom_site_fract_y
_atom_site_fract_z
Si Si1 0.052737 0.184062 0.911741
Si Si2 0.704967 0.183278 0.524941
Si Si3 0.695278 0.682763 0.129205
Si Si4 0.355984 0.817849 0.106443
Si Si5 0.293332 0.682837 0.242453
Si Si6 0.550479 0.683794 0.159382
Si Si7 0.141163 0.681473 0.290623
O O1 0.092001 0.268950 0.875105
O O2 0.001322 0.224747 0.847626
O O3 0.057942 0.000000 0.903799
O O4 0.057425 0.217824 0.039612
O O5 0.750000 0.250000 0.500000
O O6 0.698839 0.260305 0.633836
O O7 0.664054 0.213202 0.417651
O O8 0.709872 0.000000 0.541013
O O9 0.694749 0.500000 0.116716
O O10 0.746318 0.743204 0.172398
O O11 0.668634 0.729718 0.217721
O O12 0.670470 0.758730 0.014054
O O13 0.332971 0.738708 0.191583
O O14 0.351722 0.000000 0.111685
O O15 0.289078 0.500000 0.237138
O O16 0.555162 0.500000 0.174163
O O17 0.589216 0.768111 0.248864
O O18 0.145618 0.500000 0.272686
#
# Coordination Sequence:
#
# PCOD9220487 Si02
#       7
#     8   8   8   8   8   8   8
#     4   9  18  34  55  83 115 150 187 229 279 336
#     4  11  23  39  59  83 114 151 191 238 282 331
#     4  12  23  37  57  82 116 153 189 230 281 337
#     4  12  24  38  57  84 117 152 189 231 285 342
#     4  12  25  41  59  81 112 151 196 237 280 338
#     4   9  18  33  56  83 115 150 187 229 281 335
#     4  11  22  35  56  86 118 148 187 233 283 334
#
# _framework density 17.101572000000001
#
# number of rings (size 3 to 8) (size 9 to 14) (size 15 to 20)
#    0.000    1.143    2.857    6.000    0.000    2.286 
#    0.000    1.429    0.000    0.857    0.000    6.000 
#    0.000    0.000    0.000    0.000    0.000    0.000 
#
# Total GULP energy -156536.517252 kJ/mol
# GULP energy per Si atom -5590.589902 kJ/mol
# Density = 1.706265 g / cm^3
# Si number density = 17.101572 Si / 1000 Ang^3
#
#
#
# Elastic Constant Matrix: (Units=GPa)
#
#
# Indices 1 2 3 4 5 6 
#
# 1 97.0428 15.1402 40.2608 0.0000 9.0286 0.0000
# 2 15.1402 44.6317 12.1125 0.0000 8.6532 0.0000
# 3 40.2608 12.1125 44.6259 0.0000 0.5677 0.0000
# 4 0.0000 0.0000 0.0000 26.7256 0.0000 0.3365
# 5 9.0286 8.6532 0.5677 0.0000 31.1998 0.0000
# 6 0.0000 0.0000 0.0000 0.3365 0.0000 32.2230
#
#
#
# Elastic Compliance Matrix: (Units=1/GPa)
#
#
# Indices 1 2 3 4 5 6 
#
# 1 0.017152 -0.000831 -0.015192 0.000000 -0.004456 0.000000
# 2 -0.000831 0.025663 -0.006129 0.000000 -0.006765 0.000000
# 3 -0.015192 -0.006129 0.037709 0.000000 0.005410 0.000000
# 4 0.000000 0.000000 0.000000 0.037422 0.000000 -0.000391
# 5 -0.004456 -0.006765 0.005410 0.000000 0.035119 0.000000
# 6 0.000000 0.000000 0.000000 -0.000391 0.000000 0.031038
#
#
# Mechanical properties :
#
#
# Convention : Reuss Voigt Hill
#
# Bulk Modulus (GPa) = 27.61006 35.70306 31.65656
# Shear Modulus (GPa) = 20.79173 25.94881 23.37027
#
# Velocity S-wave (km/s) = 3.49059 3.89952 3.70071
# Velocity P-wave (km/s) = 5.69433 6.41852 6.06724
#
# Compressibility (1/GPa) = 0.03621868
#
# Stress axis : x y z
#
# Youngs Moduli (GPa) = 58.30316 38.96698 26.51884
#
# Poissons Ratio (x) = 0.03240 0.40287
# Poissons Ratio (y) = 0.04848 0.16254
# Poissons Ratio (z) = 0.88572 0.23884
#
# Static dielectric constant tensor:
#      x y z
#    x 1.571340 0.000000 0.010900 
#    y 0.000000 1.572680 0.000000 
#    z 0.010900 0.000000 1.555830 
# 
# From -- ./inp_files/181104.got.cif
#   From: 2010.05.17/outbox.cif.g08.bks.cpg/sg12_91_cif.got.tgz:181104.got - 2010.06.03 13:09:07.
