data_PCOD9220693
_publ_section_title
;
Structure prediction by ZEFSAII (Michael W. Deem and Ramdas Pophale) SiO2 
 PCOD9220693
Probable space group: C 2/M
;
_chemical_formula_sum "Si O2"
_cell_formula_units_Z 52
_cell_length_a 14.632407
_cell_length_b 24.867628
_cell_length_c 10.585550
_cell_angle_alpha 90.000000
_cell_angle_beta 39.074874
_cell_angle_gamma 90.000000
_cell_volume 2427.925064
_symmetry_space_group_name_H-M "C 2/M"
_symmetry_group_IT_number 12
_symmetry_cell_setting 'monoclinic'
loop_
_space_group_symop_operation_xyz
x,y,z
-x,y,-z
-x,-y,-z
x,-y,z
1/2+x,1/2+y,z
1/2-x,1/2+y,-z
1/2-x,1/2-y,-z
1/2+x,1/2-y,z
loop_
_atom_site_type_symbol
_atom_site_label
_atom_site_fract_x
_atom_site_fract_y
_atom_site_fract_z
Si Si1 0.459038 0.656545 0.906090
Si Si2 0.242632 0.369665 0.939377
Si Si3 0.721909 0.303200 0.455978
Si Si4 0.500000 0.168282 0.500000
Si Si5 0.327441 0.060653 0.215919
Si Si6 0.917761 0.385480 0.346762
Si Si7 0.268580 0.250523 0.819720
O O1 0.356839 0.619836 0.927964
O O2 0.596555 0.667052 0.668034
O O3 0.500000 0.634561 0.000000
O O4 0.374916 0.713255 0.028005
O O5 0.258119 0.397694 0.784043
O O6 0.248092 0.303981 0.925480
O O7 0.088843 0.392380 0.150307
O O8 0.750000 0.250000 0.500000
O O9 0.869991 0.336308 0.307633
O O10 0.690199 0.281674 0.352840
O O11 0.598883 0.133155 0.489915
O O12 0.399423 0.207747 0.690371
O O13 0.326324 0.069620 0.369651
O O14 0.282798 0.000000 0.233183
O O15 0.500000 0.066288 0.000000
#
# Coordination Sequence:
#
# PCOD9220693 Si02
#       7
#     8   8   8   4   8   8   8
#     4  12  24  37  55  84 127 167 204 238 296 365
#     4  11  23  38  59  86 118 161 204 252 298 356
#     4  12  22  36  55  82 124 171 201 244 283 356
#     4  12  22  34  55  90 131 162 198 236 292 372
#     4   9  20  41  68  90 112 150 207 266 311 351
#     4  11  22  38  58  88 122 158 203 249 304 352
#     4  12  23  35  55  86 126 168 206 236 288 360
#
# _framework density 21.417466000000001
#
# number of rings (size 3 to 8) (size 9 to 14) (size 15 to 20)
#    0.000    0.769    6.154    2.308    0.000    0.000 
#    0.000    0.385    0.000    2.308    0.000    0.000 
#    0.000    0.000    0.000    0.000    0.000    0.000 
#
# Total GULP energy -144787.643931 kJ/mol
# GULP energy per Si atom -5568.755536 kJ/mol
# Density = 2.136872 g / cm^3
# Si number density = 21.417466 Si / 1000 Ang^3
#
#
#
# Elastic Constant Matrix: (Units=GPa)
#
#
# Indices 1 2 3 4 5 6 
#
# 1 167.5345 36.1113 40.3993 0.0000 15.1512 0.0000
# 2 36.1113 71.0412 -3.8564 0.0000 2.8817 0.0000
# 3 40.3993 -3.8564 69.9795 0.0000 16.6136 0.0000
# 4 0.0000 0.0000 0.0000 10.5500 0.0000 1.3029
# 5 15.1512 2.8817 16.6136 0.0000 33.8722 0.0000
# 6 0.0000 0.0000 0.0000 1.3029 0.0000 21.1771
#
#
#
# Elastic Compliance Matrix: (Units=1/GPa)
#
#
# Indices 1 2 3 4 5 6 
#
# 1 0.008127 -0.004348 -0.004704 0.000000 -0.000958 0.000000
# 2 -0.004348 0.016541 0.003728 0.000000 -0.001291 0.000000
# 3 -0.004704 0.003728 0.018999 0.000000 -0.007532 0.000000
# 4 0.000000 0.000000 0.000000 0.095512 0.000000 -0.005876
# 5 -0.000958 -0.001291 -0.007532 0.000000 0.033755 0.000000
# 6 0.000000 0.000000 0.000000 -0.005876 0.000000 0.047582
#
#
# Mechanical properties :
#
#
# Convention : Reuss Voigt Hill
#
# Bulk Modulus (GPa) = 30.28474 50.42930 40.35702
# Shear Modulus (GPa) = 20.64662 28.84659 24.74660
#
# Velocity S-wave (km/s) = 3.10822 3.67396 3.40286
# Velocity P-wave (km/s) = 5.20118 6.44936 5.85861
#
# Compressibility (1/GPa) = 0.03301993
#
# Stress axis : x y z
#
# Youngs Moduli (GPa) = 123.04757 60.45590 52.63461
#
# Poissons Ratio (x) = 0.26283 0.24758
# Poissons Ratio (y) = 0.53495 -0.19621
# Poissons Ratio (z) = 0.57879 -0.22537
#
# Static dielectric constant tensor:
#      x y z
#    x 1.830040 0.000000 0.037520 
#    y 0.000000 1.586200 0.000000 
#    z 0.037520 0.000000 1.937650 
# 
# From -- ./inp_files/148869.got.cif
#   From: 2010.05.17/outbox.cif.g08.bks.cpg/sg12_75_cif.got.tgz:148869.got - 2010.06.03 13:09:07.
