data_PCOD9220285
_publ_section_title
;
Structure prediction by ZEFSAII (Michael W. Deem and Ramdas Pophale) SiO2 
 PCOD9220285
Probable space group: C 2/M
;
_chemical_formula_sum "Si O2"
_cell_formula_units_Z 40
_cell_length_a 9.584983
_cell_length_b 27.464404
_cell_length_c 11.618744
_cell_angle_alpha 90.000000
_cell_angle_beta 37.125682
_cell_angle_gamma 90.000000
_cell_volume 1846.056835
_symmetry_space_group_name_H-M "C 2/M"
_symmetry_group_IT_number 12
_symmetry_cell_setting 'monoclinic'
loop_
_space_group_symop_operation_xyz
x,y,z
-x,y,-z
-x,-y,-z
x,-y,z
1/2+x,1/2+y,z
1/2-x,1/2+y,-z
1/2-x,1/2-y,-z
1/2+x,1/2-y,z
loop_
_atom_site_type_symbol
_atom_site_label
_atom_site_fract_x
_atom_site_fract_y
_atom_site_fract_z
Si Si1 0.488470 0.258503 0.637466
Si Si2 0.755207 0.669455 0.882563
Si Si3 0.630528 0.365539 0.212784
Si Si4 0.727947 0.053558 0.707612
Si Si5 0.609153 0.095470 0.545147
O O1 0.500000 0.240932 0.500000
O O2 0.322042 0.225866 0.825227
O O3 0.415043 0.314750 0.691802
O O4 0.750000 0.250000 0.500000
O O5 0.752348 0.649085 0.013649
O O6 0.946623 0.641252 0.682306
O O7 0.500000 0.661856 0.000000
O O8 0.770494 0.403322 0.199888
O O9 0.376236 0.388385 0.353266
O O10 0.605998 0.064701 0.665784
O O11 0.000000 0.051214 0.500000
O O12 0.656876 0.000000 0.795560
O O13 0.500000 0.073386 0.500000
#
# Coordination Sequence:
#
# PCOD9220285 Si02
#       5
#     8   8   8   8   8
#     4  12  24  42  65  96 138 181 224 274 331 397
#     4  12  24  41  65  98 132 183 225 271 333 404
#     4  11  23  42  67  97 135 176 225 281 334 402
#     4   9  21  43  71 100 131 174 225 283 346 397
#     4  11  21  41  67  94 135 174 219 280 330 398
#
# _framework density 21.667805999999999
#
# number of rings (size 3 to 8) (size 9 to 14) (size 15 to 20)
#    0.000    1.000    4.000    4.200    0.000    1.200 
#    0.000    2.000    0.000    1.200    0.000    0.000 
#    0.000    0.000    0.000    0.000    0.000    0.000 
#
# Total GULP energy -111756.329342 kJ/mol
# GULP energy per Si atom -5587.816467 kJ/mol
# Density = 2.161849 g / cm^3
# Si number density = 21.667806 Si / 1000 Ang^3
#
#
#
# Elastic Constant Matrix: (Units=GPa)
#
#
# Indices 1 2 3 4 5 6 
#
# 1 193.5208 81.9627 54.6130 0.0000 10.0540 0.0000
# 2 81.9627 149.8048 29.5749 0.0000 4.6684 0.0000
# 3 54.6130 29.5749 83.3529 0.0000 3.8046 0.0000
# 4 0.0000 0.0000 0.0000 4.5305 0.0000 3.4629
# 5 10.0540 4.6684 3.8046 0.0000 36.5801 0.0000
# 6 0.0000 0.0000 0.0000 3.4629 0.0000 22.6347
#
#
#
# Elastic Compliance Matrix: (Units=1/GPa)
#
#
# Indices 1 2 3 4 5 6 
#
# 1 0.007776 -0.003462 -0.003807 0.000000 -0.001299 0.000000
# 2 -0.003462 0.008735 -0.000827 0.000000 -0.000077 0.000000
# 3 -0.003807 -0.000827 0.014803 0.000000 -0.000388 0.000000
# 4 0.000000 0.000000 0.000000 0.249957 0.000000 -0.038241
# 5 -0.001299 -0.000077 -0.000388 0.000000 0.027745 0.000000
# 6 0.000000 0.000000 0.000000 -0.038241 0.000000 0.050030
#
#
# Mechanical properties :
#
#
# Convention : Reuss Voigt Hill
#
# Bulk Modulus (GPa) = 66.13466 84.33106 75.23286
# Shear Modulus (GPa) = 13.14826 30.11759 21.63293
#
# Velocity S-wave (km/s) = 2.46603 3.73227 3.16316
# Velocity P-wave (km/s) = 6.22067 7.58799 6.93810
#
# Compressibility (1/GPa) = 0.01512067
#
# Stress axis : x y z
#
# Youngs Moduli (GPa) = 128.60767 114.47673 67.55511
#
# Poissons Ratio (x) = 0.39634 0.25717
# Poissons Ratio (y) = 0.44527 0.05590
# Poissons Ratio (z) = 0.48959 0.09473
#
# Static dielectric constant tensor:
#      x y z
#    x 1.803300 0.000000 0.030850 
#    y 0.000000 1.817970 0.000000 
#    z 0.030850 0.000000 1.775560 
# 
# From -- ./inp_files/41395.got.cif
#   From: 2010.05.17/outbox.cif.g08.bks.cpg/sg12_21_cif.got.tgz:41395.got - 2010.06.03 13:09:07.
