data_PCOD9220627
_publ_section_title
;
Structure prediction by ZEFSAII (Michael W. Deem and Ramdas Pophale) SiO2 
 PCOD9220627
Probable space group: C 2/M
;
_chemical_formula_sum "Si O2"
_cell_formula_units_Z 40
_cell_length_a 16.697517
_cell_length_b 8.629137
_cell_length_c 14.921601
_cell_angle_alpha 90.000000
_cell_angle_beta 62.657226
_cell_angle_gamma 90.000000
_cell_volume 1909.773734
_symmetry_space_group_name_H-M "C 2/M"
_symmetry_group_IT_number 12
_symmetry_cell_setting 'monoclinic'
loop_
_space_group_symop_operation_xyz
x,y,z
-x,y,-z
-x,-y,-z
x,-y,z
1/2+x,1/2+y,z
1/2-x,1/2+y,-z
1/2-x,1/2-y,-z
1/2+x,1/2-y,z
loop_
_atom_site_type_symbol
_atom_site_label
_atom_site_fract_x
_atom_site_fract_y
_atom_site_fract_z
Si Si1 0.770562 0.185352 0.727894
Si Si2 0.613874 0.313234 0.701758
Si Si3 0.304040 0.323443 0.052686
Si Si4 0.978979 0.811886 0.611619
Si Si5 0.474366 0.170465 0.910725
O O1 0.715845 0.258687 0.671992
O O2 0.717039 0.230394 0.845907
O O3 0.875422 0.235990 0.686207
O O4 0.769619 0.000000 0.717495
O O5 0.610847 0.500000 0.711599
O O6 0.559659 0.268755 0.638592
O O7 0.554231 0.229357 0.808167
O O8 0.281890 0.500000 0.082655
O O9 0.250000 0.250000 0.000000
O O10 0.402640 0.305890 0.959770
O O11 0.000000 0.760238 0.500000
O O12 0.977951 0.000000 0.613295
O O13 0.440908 0.000000 0.895586
O O14 0.500000 0.148286 0.000000
#
# Coordination Sequence:
#
# PCOD9220627 Si02
#       5
#     8   8   8   8   8
#     4  11  22  39  63  91 123 162 208 258 312 371
#     4  11  22  38  64  94 125 165 209 257 312 373
#     4  12  24  38  59  87 124 165 207 253 304 366
#     4   9  21  42  65  89 120 160 207 258 316 379
#     4  11  22  37  59  87 123 163 203 247 298 360
#
# _framework density 20.944889
#
# number of rings (size 3 to 8) (size 9 to 14) (size 15 to 20)
#    0.000    1.200    2.000    4.800    0.000    3.200 
#    0.000    3.000    0.000    8.400    0.000    0.000 
#    0.000    0.000    0.000    0.000    0.000    0.000 
#
# Total GULP energy -111473.824276 kJ/mol
# GULP energy per Si atom -5573.691214 kJ/mol
# Density = 2.089722 g / cm^3
# Si number density = 20.944889 Si / 1000 Ang^3
#
#
#
# Elastic Constant Matrix: (Units=GPa)
#
#
# Indices 1 2 3 4 5 6 
#
# 1 127.1198 26.2734 23.6415 0.0000 28.7040 0.0000
# 2 26.2734 76.6736 10.9068 0.0000 10.8384 0.0000
# 3 23.6415 10.9068 48.0519 0.0000 18.9087 0.0000
# 4 0.0000 0.0000 0.0000 46.1590 0.0000 6.4115
# 5 28.7040 10.8384 18.9087 0.0000 34.3933 0.0000
# 6 0.0000 0.0000 0.0000 6.4115 0.0000 31.8068
#
#
#
# Elastic Compliance Matrix: (Units=1/GPa)
#
#
# Indices 1 2 3 4 5 6 
#
# 1 0.010213 -0.002278 -0.001833 0.000000 -0.006798 0.000000
# 2 -0.002278 0.014281 -0.001401 0.000000 -0.001829 0.000000
# 3 -0.001833 -0.001401 0.027123 0.000000 -0.012940 0.000000
# 4 0.000000 0.000000 0.000000 0.022288 0.000000 -0.004493
# 5 -0.006798 -0.001829 -0.012940 0.000000 0.042440 0.000000
# 6 0.000000 0.000000 0.000000 -0.004493 0.000000 0.032345
#
#
# Mechanical properties :
#
#
# Convention : Reuss Voigt Hill
#
# Bulk Modulus (GPa) = 24.63465 41.49875 33.06670
# Shear Modulus (GPa) = 28.86089 35.20673 32.03381
#
# Velocity S-wave (km/s) = 3.71609 4.10435 3.91504
# Velocity P-wave (km/s) = 5.49542 6.50517 6.02150
#
# Compressibility (1/GPa) = 0.04059323
#
# Stress axis : x y z
#
# Youngs Moduli (GPa) = 97.91085 70.02448 36.86967
#
# Poissons Ratio (x) = 0.15952 0.06757
# Poissons Ratio (y) = 0.22305 0.05165
# Poissons Ratio (z) = 0.17944 0.09810
#
# Static dielectric constant tensor:
#      x y z
#    x 1.757690 0.000000 0.034880 
#    y 0.000000 1.662780 0.000000 
#    z 0.034880 0.000000 1.694930 
# 
# From -- ./inp_files/211166.got.cif
#   From: 2010.05.17/outbox.cif.g08.bks.cpg/sg12_106_cif.got.tgz:211166.got - 2010.06.03 13:09:07.
