data_PCOD9220179
_publ_section_title
;
Structure prediction by ZEFSAII (Michael W. Deem and Ramdas Pophale) SiO2 
 PCOD9220179
Probable space group: C 2/M
;
_chemical_formula_sum "Si O2"
_cell_formula_units_Z 42
_cell_length_a 16.381830
_cell_length_b 18.396565
_cell_length_c 15.034655
_cell_angle_alpha 90.000000
_cell_angle_beta 151.661294
_cell_angle_gamma 90.000000
_cell_volume 2150.781104
_symmetry_space_group_name_H-M "C 2/M"
_symmetry_group_IT_number 12
_symmetry_cell_setting 'monoclinic'
loop_
_space_group_symop_operation_xyz
x,y,z
-x,y,-z
-x,-y,-z
x,-y,z
1/2+x,1/2+y,z
1/2-x,1/2+y,-z
1/2-x,1/2-y,-z
1/2+x,1/2-y,z
loop_
_atom_site_type_symbol
_atom_site_label
_atom_site_fract_x
_atom_site_fract_y
_atom_site_fract_z
Si Si1 0.141906 0.916514 0.412517
Si Si2 0.636773 0.614054 0.006762
Si Si3 0.985561 0.649661 0.262387
Si Si4 0.000000 0.000000 0.000000
Si Si5 0.487165 0.228046 0.890445
Si Si6 0.415078 0.718759 0.516261
O O1 0.332966 0.892180 0.565051
O O2 0.083246 0.858738 0.431327
O O3 0.011985 0.910622 0.204699
O O4 0.144878 0.000000 0.446186
O O5 0.625904 0.563613 0.081395
O O6 0.593000 0.697331 0.988520
O O7 0.821757 0.606756 0.139548
O O8 0.951239 0.676975 0.129581
O O9 0.001220 0.721061 0.339540
O O10 0.285072 0.241685 0.681271
O O11 0.500000 0.193954 0.000000
O O12 0.500000 0.716690 0.500000
#
# Coordination Sequence:
#
# PCOD9220179 Si02
#       6
#     8   8   8   2   8   8
#     4  11  24  43  63  90 133 170 210 263 324 388
#     4  12  23  41  64  92 135 170 208 259 328 385
#     4  11  24  42  69  96 126 173 220 267 322 376
#     4  12  28  40  58 108 132 162 214 252 326 416
#     4  11  21  39  66  99 128 161 221 275 312 375
#     4  11  23  40  66  98 126 167 226 269 316 380
#
# _framework density 19.52779
#
# number of rings (size 3 to 8) (size 9 to 14) (size 15 to 20)
#    0.000    0.762    5.714    2.857    4.000    0.381 
#    0.000    0.952    0.000    2.286    0.000    0.000 
#    0.000    0.000    0.000    0.000    0.000    0.000 
#
# Total GULP energy -117104.521272 kJ/mol
# GULP energy per Si atom -5576.405775 kJ/mol
# Density = 1.948334 g / cm^3
# Si number density = 19.527790 Si / 1000 Ang^3
#
#
#
# Elastic Constant Matrix: (Units=GPa)
#
#
# Indices 1 2 3 4 5 6 
#
# 1 97.6589 18.7660 6.1205 0.0000 23.3663 0.0000
# 2 18.7660 72.5148 19.7545 0.0000 3.1903 0.0000
# 3 6.1205 19.7545 41.6895 0.0001 16.6857 0.0000
# 4 0.0000 0.0000 0.0001 12.7840 0.0001 6.8957
# 5 23.3663 3.1903 16.6857 0.0001 29.3717 0.0000
# 6 0.0000 0.0000 0.0000 6.8957 0.0000 27.3705
#
#
#
# Elastic Compliance Matrix: (Units=1/GPa)
#
#
# Indices 1 2 3 4 5 6 
#
# 1 0.014102 -0.004585 0.005686 0.000000 -0.013951 0.000000
# 2 -0.004585 0.017574 -0.010808 0.000000 0.007878 0.000000
# 3 0.005686 -0.010808 0.038329 0.000000 -0.025123 0.000000
# 4 0.000000 0.000000 0.000000 0.090525 0.000000 -0.022807
# 5 -0.013951 0.007878 -0.025123 0.000000 0.058562 0.000000
# 6 0.000000 0.000000 0.000000 -0.022807 0.000000 0.042282
#
#
# Mechanical properties :
#
#
# Convention : Reuss Voigt Hill
#
# Bulk Modulus (GPa) = 19.76586 33.46058 26.61322
# Shear Modulus (GPa) = 16.79823 25.05339 20.92581
#
# Velocity S-wave (km/s) = 2.93614 3.58573 3.27707
# Velocity P-wave (km/s) = 4.65171 5.85793 5.28932
#
# Compressibility (1/GPa) = 0.05059227
#
# Stress axis : x y z
#
# Youngs Moduli (GPa) = 70.91017 56.90108 26.09021
#
# Poissons Ratio (x) = 0.26087 -0.14834
# Poissons Ratio (y) = 0.32510 0.28197
# Poissons Ratio (z) = -0.40318 0.61496
#
# Static dielectric constant tensor:
#      x y z
#    x 1.691370 0.000000 -0.020740 
#    y 0.000000 1.653120 0.000000 
#    z -0.020740 0.000000 1.709390 
# 
# From -- ./inp_files/61325.got.cif
#   From: 2010.05.17/outbox.cif.g08.bks.cpg/sg12_31_cif.got.tgz:61325.got - 2010.06.03 13:09:07.
