data_PCOD9220665
_publ_section_title
;
Structure prediction by ZEFSAII (Michael W. Deem and Ramdas Pophale) SiO2 
 PCOD9220665
Probable space group: C 2/M
;
_chemical_formula_sum "Si O2"
_cell_formula_units_Z 64
_cell_length_a 14.734773
_cell_length_b 16.929160
_cell_length_c 10.853207
_cell_angle_alpha 90.000000
_cell_angle_beta 77.855040
_cell_angle_gamma 90.000000
_cell_volume 2646.709851
_symmetry_space_group_name_H-M "C 2/M"
_symmetry_group_IT_number 12
_symmetry_cell_setting 'monoclinic'
loop_
_space_group_symop_operation_xyz
x,y,z
-x,y,-z
-x,-y,-z
x,-y,z
1/2+x,1/2+y,z
1/2-x,1/2+y,-z
1/2-x,1/2-y,-z
1/2+x,1/2-y,z
loop_
_atom_site_type_symbol
_atom_site_label
_atom_site_fract_x
_atom_site_fract_y
_atom_site_fract_z
Si Si1 0.449632 0.627608 0.390650
Si Si2 0.889420 0.811936 0.033358
Si Si3 0.709665 0.910377 0.682204
Si Si4 0.609787 0.124048 0.964842
Si Si5 0.448839 0.183633 0.389832
Si Si6 0.601739 0.088712 0.233715
Si Si7 0.128251 0.092059 0.200054
Si Si8 0.706473 0.590256 0.725516
O O1 0.500000 0.599804 0.500000
O O2 0.444548 0.722384 0.392391
O O3 0.520328 0.600584 0.263992
O O4 0.347793 0.596952 0.387412
O O5 0.875977 0.718232 0.040149
O O6 0.842823 0.850805 0.165622
O O7 0.850052 0.852100 0.920962
O O8 0.000000 0.826641 0.000000
O O9 0.656235 0.909974 0.829776
O O10 0.650350 0.854062 0.611529
O O11 0.811798 0.883683 0.696799
O O12 0.711501 0.000000 0.634355
O O13 0.500000 0.105642 0.000000
O O14 0.645469 0.092039 0.085175
O O15 0.500000 0.156347 0.500000
O O16 0.520152 0.152320 0.265616
O O17 0.684352 0.107462 0.304562
O O18 0.565548 0.000000 0.267268
O O19 0.148671 0.000000 0.168614
O O20 0.697014 0.500000 0.772416
#
# Coordination Sequence:
#
# PCOD9220665 Si02
#       8
#     8   8   8   8   8   8   8   8
#     4  11  25  44  65  90 121 161 209 257 306 361
#     4  11  22  37  62  95 128 163 202 247 305 367
#     4  11  24  41  64  94 126 162 204 251 306 366
#     4  11  22  37  62  95 128 163 202 247 305 367
#     4  11  25  44  65  90 121 161 209 257 306 361
#     4  11  24  41  64  94 126 162 204 251 306 366
#     4  11  24  41  64  94 126 162 204 251 306 366
#     4  11  24  41  64  94 126 162 204 251 306 366
#
# _framework density 24.180966000000002
#
# number of rings (size 3 to 8) (size 9 to 14) (size 15 to 20)
#    0.000    1.000    2.500    3.750    0.000   11.000 
#    0.000    5.000    0.000    0.000    0.000    0.000 
#    0.000    0.000    0.000    0.000    0.000    0.000 
#
# Total GULP energy -179290.000368 kJ/mol
# GULP energy per Si atom -5602.812512 kJ/mol
# Density = 2.412593 g / cm^3
# Si number density = 24.180966 Si / 1000 Ang^3
#
#
#
# Elastic Constant Matrix: (Units=GPa)
#
#
# Indices 1 2 3 4 5 6 
#
# 1 106.7677 32.6144 5.1830 0.0000 30.8980 0.0000
# 2 32.6144 91.3851 6.1602 0.0000 15.2856 0.0000
# 3 5.1830 6.1602 69.7280 0.0000 19.5245 0.0000
# 4 0.0000 0.0000 0.0000 18.4896 0.0000 18.4434
# 5 30.8980 15.2856 19.5245 0.0000 44.2440 0.0000
# 6 0.0000 0.0000 0.0000 18.4434 0.0000 28.0482
#
#
#
# Elastic Compliance Matrix: (Units=1/GPa)
#
#
# Indices 1 2 3 4 5 6 
#
# 1 0.012743 -0.003235 0.001731 0.000000 -0.008546 0.000000
# 2 -0.003235 0.012436 -0.000328 0.000000 -0.001892 0.000000
# 3 0.001731 -0.000328 0.016600 0.000000 -0.008421 0.000000
# 4 0.000000 0.000000 0.000000 0.157183 0.000000 -0.103357
# 5 -0.008546 -0.001892 -0.008421 0.000000 0.032940 0.000000
# 6 0.000000 0.000000 0.000000 -0.103357 0.000000 0.103616
#
#
# Mechanical properties :
#
#
# Convention : Reuss Voigt Hill
#
# Bulk Modulus (GPa) = 26.23655 39.53290 32.88473
# Shear Modulus (GPa) = 14.20909 33.08458 23.64684
#
# Velocity S-wave (km/s) = 2.42671 3.70294 3.13055
# Velocity P-wave (km/s) = 4.32730 5.88784 5.16682
#
# Compressibility (1/GPa) = 0.03811476
#
# Stress axis : x y z
#
# Youngs Moduli (GPa) = 78.47157 80.41186 60.24197
#
# Poissons Ratio (x) = 0.26016 -0.10431
# Poissons Ratio (y) = 0.25388 0.01978
# Poissons Ratio (z) = -0.13587 0.02641
#
# Static dielectric constant tensor:
#      x y z
#    x 1.956170 0.000000 0.029230 
#    y 0.000000 1.835190 0.000000 
#    z 0.029230 0.000000 1.974640 
# 
# From -- ./inp_files/112046.got.cif
#   From: 2010.05.17/outbox.cif.g08.bks.cpg/sg12_57_cif.got.tgz:112046.got - 2010.06.03 13:09:07.
