data_PCOD9220976
_publ_section_title
;
Structure prediction by ZEFSAII (Michael W. Deem and Ramdas Pophale) SiO2 
 PCOD9220976
Probable space group: C 2/M
;
_chemical_formula_sum "Si O2"
_cell_formula_units_Z 48
_cell_length_a 19.932538
_cell_length_b 17.458902
_cell_length_c 14.431812
_cell_angle_alpha 90.000000
_cell_angle_beta 26.786027
_cell_angle_gamma 90.000000
_cell_volume 2263.337175
_symmetry_space_group_name_H-M "C 2/M"
_symmetry_group_IT_number 12
_symmetry_cell_setting 'monoclinic'
loop_
_space_group_symop_operation_xyz
x,y,z
-x,y,-z
-x,-y,-z
x,-y,z
1/2+x,1/2+y,z
1/2-x,1/2+y,-z
1/2-x,1/2-y,-z
1/2+x,1/2-y,z
loop_
_atom_site_type_symbol
_atom_site_label
_atom_site_fract_x
_atom_site_fract_y
_atom_site_fract_z
Si Si1 0.096302 0.411333 0.636625
Si Si2 0.437939 0.412725 0.979903
Si Si3 0.145172 0.807225 0.372443
Si Si4 0.129828 0.717398 0.072571
Si Si5 0.367634 0.345858 0.406274
Si Si6 0.863419 0.630829 0.611736
O O1 0.085204 0.500000 0.683022
O O2 0.203613 0.355554 0.564071
O O3 0.164050 0.411676 0.449995
O O4 0.941013 0.365734 0.816018
O O5 0.401907 0.500000 0.044258
O O6 0.284151 0.372218 0.145620
O O7 0.500000 0.377488 0.000000
O O8 0.547697 0.409365 0.758561
O O9 0.106047 0.719448 0.448309
O O10 0.000000 0.838843 0.500000
O O11 0.838583 0.851104 0.551225
O O12 0.282059 0.798878 0.132543
O O13 0.987271 0.775842 0.243288
O O14 0.250000 0.750000 0.000000
O O15 0.000000 0.598269 0.500000
#
# Coordination Sequence:
#
# PCOD9220976 Si02
#       6
#     8   8   8   8   8   8
#     4  12  27  46  68 105 149 187 235 297 366 428
#     4  11  23  40  63  96 139 181 231 291 354 422
#     4  11  23  42  71 106 139 178 242 304 349 421
#     4  12  24  47  76 104 138 188 249 294 350 430
#     4  12  24  43  71 104 143 185 233 294 354 429
#     4  11  22  40  66 101 139 180 234 300 362 419
#
# _framework density 21.207623000000002
#
# number of rings (size 3 to 8) (size 9 to 14) (size 15 to 20)
#    0.000    0.500    6.667    2.500    0.000    2.000 
#    0.000    3.333    0.000    2.500    0.000    0.000 
#    0.000    0.000    0.000    0.000    0.000    0.000 
#
# Total GULP energy -133731.743828 kJ/mol
# GULP energy per Si atom -5572.155993 kJ/mol
# Density = 2.115935 g / cm^3
# Si number density = 21.207623 Si / 1000 Ang^3
#
#
#
# Elastic Constant Matrix: (Units=GPa)
#
#
# Indices 1 2 3 4 5 6 
#
# 1 145.1270 32.3848 58.7420 -0.0003 3.4790 0.0002
# 2 32.3848 66.9982 32.0959 -0.0007 -11.4990 0.0005
# 3 58.7420 32.0959 118.4777 -0.0005 8.1792 0.0002
# 4 -0.0003 -0.0007 -0.0005 46.2059 0.0004 3.5926
# 5 3.4790 -11.4990 8.1792 0.0004 48.9916 -0.0003
# 6 0.0002 0.0005 0.0002 3.5926 -0.0003 14.2854
#
#
#
# Elastic Compliance Matrix: (Units=1/GPa)
#
#
# Indices 1 2 3 4 5 6 
#
# 1 0.009000 -0.002697 -0.003686 0.000000 -0.000657 0.000000
# 2 -0.002697 0.019184 -0.004233 0.000000 0.005401 -0.000001
# 3 -0.003686 -0.004233 0.011599 0.000000 -0.002668 0.000000
# 4 0.000000 0.000000 0.000000 0.022074 0.000000 -0.005551
# 5 -0.000657 0.005401 -0.002668 0.000000 0.022171 0.000000
# 6 0.000000 -0.000001 0.000000 -0.005551 0.000000 0.071398
#
#
# Mechanical properties :
#
#
# Convention : Reuss Voigt Hill
#
# Bulk Modulus (GPa) = 53.90537 64.11646 59.01091
# Shear Modulus (GPa) = 27.34595 35.72193 31.53394
#
# Velocity S-wave (km/s) = 3.59477 4.10859 3.86024
# Velocity P-wave (km/s) = 6.53475 7.26675 6.91045
#
# Compressibility (1/GPa) = 0.01855103
#
# Stress axis : x y z
#
# Youngs Moduli (GPa) = 111.10831 52.12641 86.21470
#
# Poissons Ratio (x) = 0.14059 0.31782
# Poissons Ratio (y) = 0.29968 0.36491
# Poissons Ratio (z) = 0.40959 0.22063
#
# Static dielectric constant tensor:
#      x y z
#    x 1.828700 0.000000 -0.004390 
#    y 0.000000 1.760970 0.000000 
#    z -0.004390 0.000000 1.839050 
# 
# From -- ./inp_files/226722.got.cif
#   From: 2010.05.17/outbox.cif.g08.bks.cpg/sg12_114_cif.got.tgz:226722.got - 2010.06.03 13:09:07.
