data_PCOD9220001
_publ_section_title
;
Structure prediction by ZEFSAII (Michael W. Deem and Ramdas Pophale) SiO2 
 PCOD9220001
Probable space group: C 2/M
;
_chemical_formula_sum "Si O2"
_cell_formula_units_Z 48
_cell_length_a 25.786316
_cell_length_b 8.504981
_cell_length_c 12.627151
_cell_angle_alpha 90.000000
_cell_angle_beta 70.876932
_cell_angle_gamma 90.000000
_cell_volume 2616.470027
_symmetry_space_group_name_H-M "C 2/M"
_symmetry_group_IT_number 12
_symmetry_cell_setting 'monoclinic'
loop_
_space_group_symop_operation_xyz
x,y,z
-x,y,-z
-x,-y,-z
x,-y,z
1/2+x,1/2+y,z
1/2-x,1/2+y,-z
1/2-x,1/2-y,-z
1/2+x,1/2-y,z
loop_
_atom_site_type_symbol
_atom_site_label
_atom_site_fract_x
_atom_site_fract_y
_atom_site_fract_z
Si Si1 0.693156 0.811326 0.488621
Si Si2 0.615755 0.312635 0.125941
Si Si3 0.501644 0.691450 0.876432
Si Si4 0.878460 0.811191 0.279384
Si Si5 0.315921 0.814295 0.116500
Si Si6 0.302290 0.187105 0.760044
O O1 0.750000 0.750000 0.500000
O O2 0.644582 0.742565 0.592586
O O3 0.690213 0.765560 0.367429
O O4 0.692447 0.000000 0.495509
O O5 0.615525 0.500000 0.142175
O O6 0.553476 0.257928 0.146323
O O7 0.645835 0.231773 0.203728
O O8 0.650627 0.273812 0.997408
O O9 0.500686 0.500000 0.878996
O O10 0.558872 0.737987 0.784852
O O11 0.500000 0.744037 0.000000
O O12 0.840560 0.737819 0.212965
O O13 0.874832 0.000000 0.273201
O O14 0.252003 0.769408 0.157787
O O15 0.322447 0.000000 0.097632
O O16 0.293157 0.000000 0.769436
#
# Coordination Sequence:
#
# PCOD9220001 Si02
#       6
#     8   8   8   8   8   8
#     4  11  23  39  61  86 118 156 197 243 294 350
#     4  11  22  39  62  87 119 157 198 242 292 350
#     4   9  18  36  61  87 117 154 194 238 291 349
#     4  11  21  37  62  90 119 152 196 247 292 343
#     4  12  23  36  58  89 123 155 193 240 297 357
#     4  11  24  41  59  84 120 159 196 240 297 352
#
# _framework density 18.345327999999999
#
# number of rings (size 3 to 8) (size 9 to 14) (size 15 to 20)
#    0.000    1.167    3.333    4.000    0.000    2.000 
#    0.000    5.000    0.000    5.000    0.000    0.000 
#    0.000    0.000    0.000    0.000    0.000    0.000 
#
# Total GULP energy -134179.531904 kJ/mol
# GULP energy per Si atom -5590.813829 kJ/mol
# Density = 1.830357 g / cm^3
# Si number density = 18.345328 Si / 1000 Ang^3
#
#
#
# Elastic Constant Matrix: (Units=GPa)
#
#
# Indices 1 2 3 4 5 6 
#
# 1 123.8797 -2.3792 23.0631 0.0000 -10.6820 0.0000
# 2 -2.3792 20.6308 -7.8903 0.0000 -2.6615 0.0000
# 3 23.0631 -7.8903 55.0887 0.0000 -15.9447 0.0000
# 4 0.0000 0.0000 0.0000 31.0748 0.0000 1.3362
# 5 -10.6820 -2.6615 -15.9447 0.0000 34.6363 0.0000
# 6 0.0000 0.0000 0.0000 1.3362 0.0000 23.5843
#
#
#
# Elastic Compliance Matrix: (Units=1/GPa)
#
#
# Indices 1 2 3 4 5 6 
#
# 1 0.008796 -0.000124 -0.003367 0.000000 0.001153 0.000000
# 2 -0.000124 0.053517 0.010264 0.000000 0.008799 0.000000
# 3 -0.003367 0.010264 0.024182 0.000000 0.010882 0.000000
# 4 0.000000 0.000000 0.000000 0.032259 0.000000 -0.001828
# 5 0.001153 0.008799 0.010882 0.000000 0.034913 0.000000
# 6 0.000000 0.000000 0.000000 -0.001828 0.000000 0.042505
#
#
# Mechanical properties :
#
#
# Convention : Reuss Voigt Hill
#
# Bulk Modulus (GPa) = 9.99582 25.02073 17.50827
# Shear Modulus (GPa) = 23.15105 30.31279 26.73192
#
# Velocity S-wave (km/s) = 3.55626 4.06931 3.82141
# Velocity P-wave (km/s) = 4.72474 5.97892 5.38844
#
# Compressibility (1/GPa) = 0.10004178
#
# Stress axis : x y z
#
# Youngs Moduli (GPa) = 113.68582 18.68551 41.35336
#
# Poissons Ratio (x) = 0.00232 0.13922
# Poissons Ratio (y) = 0.01413 -0.42445
# Poissons Ratio (z) = 0.38272 -0.19179
#
# Static dielectric constant tensor:
#      x y z
#    x 1.616080 0.000000 -0.001930 
#    y 0.000000 1.627660 0.000000 
#    z -0.001930 0.000000 1.610150 
# 
# From -- ./inp_files/172892.got.cif
#   From: 2010.05.17/outbox.cif.g08.bks.cpg/sg12_87_cif.got.tgz:172892.got - 2010.06.03 13:09:07.
