data_PCOD9220142
_publ_section_title
;
Structure prediction by ZEFSAII (Michael W. Deem and Ramdas Pophale) SiO2 
 PCOD9220142
Probable space group: C 2/M
;
_chemical_formula_sum "Si O2"
_cell_formula_units_Z 64
_cell_length_a 17.440171
_cell_length_b 33.215811
_cell_length_c 11.414021
_cell_angle_alpha 90.000000
_cell_angle_beta 150.975413
_cell_angle_gamma 90.000000
_cell_volume 3208.053035
_symmetry_space_group_name_H-M "C 2/M"
_symmetry_group_IT_number 12
_symmetry_cell_setting 'monoclinic'
loop_
_space_group_symop_operation_xyz
x,y,z
-x,y,-z
-x,-y,-z
x,-y,z
1/2+x,1/2+y,z
1/2-x,1/2+y,-z
1/2-x,1/2-y,-z
1/2+x,1/2-y,z
loop_
_atom_site_type_symbol
_atom_site_label
_atom_site_fract_x
_atom_site_fract_y
_atom_site_fract_z
Si Si1 0.172513 0.678428 0.467163
Si Si2 0.449519 0.386570 0.808827
Si Si3 0.119546 0.170829 0.872261
Si Si4 0.241881 0.810341 0.671378
Si Si5 0.447692 0.455056 0.622794
Si Si6 0.739738 0.045189 0.109103
Si Si7 0.854420 0.632454 0.004661
Si Si8 0.315069 0.768241 0.284011
O O1 0.309875 0.645101 0.644324
O O2 0.181935 0.699696 0.352313
O O3 0.195622 0.707586 0.607573
O O4 0.007794 0.655246 0.255698
O O5 0.589534 0.360364 0.937877
O O6 0.406815 0.420611 0.659103
O O7 0.500000 0.404358 0.000000
O O8 0.945835 0.184440 0.599173
O O9 0.207381 0.147567 0.886193
O O10 0.221801 0.207537 0.059466
O O11 0.260909 0.775108 0.791524
O O12 0.315279 0.851155 0.822251
O O13 0.432139 0.500000 0.651853
O O14 0.626657 0.450573 0.813132
O O15 0.336782 0.452840 0.360520
O O16 0.670103 0.000000 0.006900
O O17 0.630900 0.084471 0.964510
O O18 0.500000 0.764391 0.500000
#
# Coordination Sequence:
#
# PCOD9220142 Si02
#       8
#     8   8   8   8   8   8   8   8
#     4  11  25  42  59  90 124 165 199 253 311 363
#     4  11  21  39  60  87 120 161 205 246 302 362
#     4  11  23  40  65  87 116 164 211 255 291 370
#     4  11  27  40  62  89 124 162 204 256 310 362
#     4   9  18  33  59  91 121 153 198 250 298 359
#     4   9  18  34  62  94 120 151 198 253 303 358
#     4  12  22  41  65  91 125 160 201 253 312 366
#     4  12  24  43  63  88 120 163 216 255 302 354
#
# _framework density 19.949794000000001
#
# number of rings (size 3 to 8) (size 9 to 14) (size 15 to 20)
#    0.000    1.250    3.750    4.125    3.500    1.250 
#    4.500    0.625    0.000    3.000    0.000    2.625 
#    0.000    0.000    0.000    0.000    0.000    0.000 
#
# Total GULP energy -178869.052977 kJ/mol
# GULP energy per Si atom -5589.657906 kJ/mol
# Density = 1.990439 g / cm^3
# Si number density = 19.949794 Si / 1000 Ang^3
#
#
#
# Elastic Constant Matrix: (Units=GPa)
#
#
# Indices 1 2 3 4 5 6 
#
# 1 71.5516 23.9499 -3.0381 0.0000 -5.9062 0.0000
# 2 23.9499 111.1729 2.4699 0.0000 -3.0056 0.0000
# 3 -3.0381 2.4699 23.3581 0.0000 2.3917 0.0000
# 4 0.0000 0.0000 0.0000 20.1985 0.0000 -10.5302
# 5 -5.9062 -3.0056 2.3917 0.0000 27.8614 0.0000
# 6 0.0000 0.0000 0.0000 -10.5302 0.0000 22.7568
#
#
#
# Elastic Compliance Matrix: (Units=1/GPa)
#
#
# Indices 1 2 3 4 5 6 
#
# 1 0.015390 -0.003288 0.002070 0.000000 0.002730 0.000000
# 2 -0.003288 0.009750 -0.001508 0.000000 0.000484 0.000000
# 3 0.002070 -0.001508 0.043595 0.000000 -0.003466 0.000000
# 4 0.000000 0.000000 0.000000 0.065249 0.000000 0.030192
# 5 0.002730 0.000484 -0.003466 0.000000 0.036820 0.000000
# 6 0.000000 0.000000 0.000000 0.030192 0.000000 0.057914
#
#
# Mechanical properties :
#
#
# Convention : Reuss Voigt Hill
#
# Bulk Modulus (GPa) = 15.80208 28.09402 21.94805
# Shear Modulus (GPa) = 19.58758 26.34341 22.96549
#
# Velocity S-wave (km/s) = 3.13684 3.63779 3.39656
# Velocity P-wave (km/s) = 4.58888 5.63539 5.13884
#
# Compressibility (1/GPa) = 0.06328282
#
# Stress axis : x y z
#
# Youngs Moduli (GPa) = 64.97909 102.56584 22.93825
#
# Poissons Ratio (x) = 0.33719 -0.04748
# Poissons Ratio (y) = 0.21362 0.03459
# Poissons Ratio (z) = -0.13449 0.15469
#
# Static dielectric constant tensor:
#      x y z
#    x 1.716890 0.000000 -0.008320 
#    y 0.000000 1.708610 0.000000 
#    z -0.008320 0.000000 1.685980 
# 
# From -- ./inp_files/161256.got.cif
#   From: 2010.05.17/outbox.cif.g08.bks.cpg/sg12_81_cif.got.tgz:161256.got - 2010.06.03 13:09:07.
