data_PCOD9220479
_publ_section_title
;
Structure prediction by ZEFSAII (Michael W. Deem and Ramdas Pophale) SiO2 
 PCOD9220479
Probable space group: C 2/M
;
_chemical_formula_sum "Si O2"
_cell_formula_units_Z 56
_cell_length_a 25.422938
_cell_length_b 8.889275
_cell_length_c 15.358458
_cell_angle_alpha 90.000000
_cell_angle_beta 74.393946
_cell_angle_gamma 90.000000
_cell_volume 3342.923783
_symmetry_space_group_name_H-M "C 2/M"
_symmetry_group_IT_number 12
_symmetry_cell_setting 'monoclinic'
loop_
_space_group_symop_operation_xyz
x,y,z
-x,y,-z
-x,-y,-z
x,-y,z
1/2+x,1/2+y,z
1/2-x,1/2+y,-z
1/2-x,1/2-y,-z
1/2+x,1/2-y,z
loop_
_atom_site_type_symbol
_atom_site_label
_atom_site_fract_x
_atom_site_fract_y
_atom_site_fract_z
Si Si1 0.432979 0.179697 0.891602
Si Si2 0.261868 0.179396 0.089213
Si Si3 0.455790 0.180234 0.394985
Si Si4 0.876727 0.820454 0.084139
Si Si5 0.354932 0.321598 0.780346
Si Si6 0.951867 0.821339 0.213954
Si Si7 0.420168 0.180257 0.601376
O O1 0.390967 0.236595 0.836676
O O2 0.492835 0.238672 0.840291
O O3 0.432560 0.000000 0.895113
O O4 0.413322 0.248255 0.991672
O O5 0.316569 0.251824 0.102738
O O6 0.208541 0.207468 0.171822
O O7 0.269038 0.000000 0.076831
O O8 0.250000 0.250000 0.000000
O O9 0.437623 0.264065 0.316545
O O10 0.424017 0.220394 0.497769
O O11 0.519895 0.213143 0.384718
O O12 0.451604 0.000000 0.385112
O O13 0.905079 0.790468 0.163996
O O14 0.874394 0.000000 0.071513
O O15 0.364519 0.500000 0.785041
O O16 0.375404 0.264844 0.677885
O O17 0.962019 0.000000 0.210679
O O18 0.412499 0.000000 0.611108
#
# Coordination Sequence:
#
# PCOD9220479 Si02
#       7
#     8   8   8   8   8   8   8
#     4  12  23  35  55  81 111 149 186 222 270 331
#     4  11  23  38  58  81 109 146 186 231 276 321
#     4   9  18  33  54  81 113 144 180 223 269 328
#     4  11  24  40  56  78 111 148 188 231 273 325
#     4  11  22  35  55  83 114 143 179 228 277 323
#     4  11  23  37  55  81 114 148 182 227 278 326
#     4   9  18  33  54  82 112 144 180 222 273 325
#
# _framework density 16.751804
#
# number of rings (size 3 to 8) (size 9 to 14) (size 15 to 20)
#    0.000    1.429    2.857    4.286    0.000    6.286 
#    0.000    1.429    0.000    0.857    0.000    0.000 
#    0.000    0.000    0.000    0.000    0.000    0.000 
#
# Total GULP energy -156450.897622 kJ/mol
# GULP energy per Si atom -5587.532058 kJ/mol
# Density = 1.671368 g / cm^3
# Si number density = 16.751804 Si / 1000 Ang^3
#
#
#
# Elastic Constant Matrix: (Units=GPa)
#
#
# Indices 1 2 3 4 5 6 
#
# 1 82.4003 57.7157 65.7290 0.0000 17.3433 0.0000
# 2 57.7157 83.4277 74.9329 0.0000 7.4725 0.0000
# 3 65.7290 74.9329 153.3944 0.0000 5.2696 0.0000
# 4 0.0000 0.0000 0.0000 33.8109 0.0000 -0.6966
# 5 17.3433 7.4725 5.2696 0.0000 18.9863 0.0000
# 6 0.0000 0.0000 0.0000 -0.6966 0.0000 26.2653
#
#
#
# Elastic Compliance Matrix: (Units=1/GPa)
#
#
# Indices 1 2 3 4 5 6 
#
# 1 0.031430 -0.014959 -0.005428 0.000000 -0.021316 0.000000
# 2 -0.014959 0.029075 -0.007945 0.000000 0.004426 0.000000
# 3 -0.005428 -0.007945 0.012568 0.000000 0.004597 0.000000
# 4 0.000000 0.000000 0.000000 0.029592 0.000000 0.000785
# 5 -0.021316 0.004426 0.004597 0.000000 0.069123 0.000000
# 6 0.000000 0.000000 0.000000 0.000785 0.000000 0.038094
#
#
# Mechanical properties :
#
#
# Convention : Reuss Voigt Hill
#
# Bulk Modulus (GPa) = 60.94245 79.55305 70.24775
# Shear Modulus (GPa) = 18.38131 23.86884 21.12508
#
# Velocity S-wave (km/s) = 3.31611 3.77882 3.55500
# Velocity P-wave (km/s) = 7.14987 8.16282 7.67308
#
# Compressibility (1/GPa) = 0.01640892
#
# Stress axis : x y z
#
# Youngs Moduli (GPa) = 31.81699 34.39415 79.56513
#
# Poissons Ratio (x) = 0.51449 0.43188
# Poissons Ratio (y) = 0.47594 0.63216
# Poissons Ratio (z) = 0.17270 0.27327
#
# Static dielectric constant tensor:
#      x y z
#    x 1.537600 0.000000 -0.000770 
#    y 0.000000 1.559820 0.000000 
#    z -0.000770 0.000000 1.561930 
# 
# From -- ./inp_files/237421.got.cif
#   From: 2010.05.17/outbox.cif.g08.bks.cpg/sg12_119_cif.got.tgz:237421.got - 2010.06.03 13:09:07.
