data_PCOD9220424
_publ_section_title
;
Structure prediction by ZEFSAII (Michael W. Deem and Ramdas Pophale) SiO2 
 PCOD9220424
Probable space group: C 2/M
;
_chemical_formula_sum "Si O2"
_cell_formula_units_Z 56
_cell_length_a 20.198679
_cell_length_b 9.234030
_cell_length_c 25.403368
_cell_angle_alpha 90.000000
_cell_angle_beta 134.291687
_cell_angle_gamma 90.000000
_cell_volume 3391.514182
_symmetry_space_group_name_H-M "C 2/M"
_symmetry_group_IT_number 12
_symmetry_cell_setting 'monoclinic'
loop_
_space_group_symop_operation_xyz
x,y,z
-x,y,-z
-x,-y,-z
x,-y,z
1/2+x,1/2+y,z
1/2-x,1/2+y,-z
1/2-x,1/2-y,-z
1/2+x,1/2-y,z
loop_
_atom_site_type_symbol
_atom_site_label
_atom_site_fract_x
_atom_site_fract_y
_atom_site_fract_z
Si Si1 0.972360 0.830234 0.046071
Si Si2 0.780224 0.325178 0.963084
Si Si3 0.581737 0.166217 0.501092
Si Si4 0.544659 0.332314 0.644673
Si Si5 0.149299 0.675349 0.188205
Si Si6 0.189863 0.175299 0.805191
Si Si7 0.207265 0.833294 0.646200
O O1 0.055351 0.759786 0.125529
O O2 0.958374 0.000000 0.051487
O O3 0.000000 0.821581 0.000000
O O4 0.880255 0.737695 0.003680
O O5 0.782683 0.500000 0.968724
O O6 0.711106 0.285094 0.876751
O O7 0.750000 0.250000 0.000000
O O8 0.500000 0.172728 0.500000
O O9 0.540041 0.246321 0.427323
O O10 0.669798 0.240015 0.577258
O O11 0.600069 0.000000 0.499552
O O12 0.518509 0.500000 0.637709
O O13 0.595529 0.272757 0.725079
O O14 0.626925 0.330155 0.646527
O O15 0.136555 0.500000 0.179084
O O16 0.222376 0.715573 0.182550
O O17 0.200271 0.711357 0.271479
O O18 0.185545 0.000000 0.800016
O O19 0.216658 0.000000 0.634942
#
# Coordination Sequence:
#
# PCOD9220424 Si02
#       7
#     8   8   8   8   8   8   8
#     4  11  22  34  50  75 102 128 164 206 248 297
#     4  11  22  37  55  73  99 131 166 207 253 299
#     4   9  15  21  30  50  82 117 149 182 230 281
#     4   8  13  23  38  55  77 111 155 192 225 273
#     4   9  16  29  48  69  90 121 164 202 242 287
#     4   8  15  28  47  67  88 120 160 200 241 289
#     4   8  14  23  37  56  81 114 153 192 228 277
#
# _framework density 16.511799
#
# number of rings (size 3 to 8) (size 9 to 14) (size 15 to 20)
#    0.000    2.857    1.429    3.000    0.000    2.857 
#    0.000    3.571    0.000    0.000    0.000    0.000 
#    0.000    1.143    0.000    3.429    0.000    5.143 
#
# Total GULP energy -155914.202993 kJ/mol
# GULP energy per Si atom -5568.364393 kJ/mol
# Density = 1.647422 g / cm^3
# Si number density = 16.511799 Si / 1000 Ang^3
#
#
#
# Elastic Constant Matrix: (Units=GPa)
#
#
# Indices 1 2 3 4 5 6 
#
# 1 28.2045 21.4099 28.4441 0.0000 -9.1101 0.0000
# 2 21.4099 80.4126 82.6158 0.0000 -2.7850 0.0000
# 3 28.4441 82.6158 191.1823 0.0000 -7.3175 0.0000
# 4 0.0000 0.0000 0.0000 16.1049 0.0000 -0.8622
# 5 -9.1101 -2.7850 -7.3175 0.0000 11.7504 0.0000
# 6 0.0000 0.0000 0.0000 -0.8622 0.0000 15.3118
#
#
#
# Elastic Compliance Matrix: (Units=1/GPa)
#
#
# Indices 1 2 3 4 5 6 
#
# 1 0.060998 -0.012803 -0.001894 0.000000 0.043078 0.000000
# 2 -0.012803 0.025059 -0.009298 0.000000 -0.009777 0.000000
# 3 -0.001894 -0.009298 0.009619 0.000000 0.002318 0.000000
# 4 0.000000 0.000000 0.000000 0.062281 0.000000 0.003507
# 5 0.043078 -0.009777 0.002318 0.000000 0.117628 0.000000
# 6 0.000000 0.000000 0.000000 0.003507 0.000000 0.065507
#
#
# Mechanical properties :
#
#
# Convention : Reuss Voigt Hill
#
# Bulk Modulus (GPa) = 20.97050 62.74880 41.85965
# Shear Modulus (GPa) = 12.34639 19.78874 16.06756
#
# Velocity S-wave (km/s) = 2.73743 3.46563 3.12283
# Velocity P-wave (km/s) = 4.76647 7.35521 6.19751
#
# Compressibility (1/GPa) = 0.04768603
#
# Stress axis : x y z
#
# Youngs Moduli (GPa) = 16.39394 39.90588 103.95959
#
# Poissons Ratio (x) = 0.51092 0.19689
# Poissons Ratio (y) = 0.20989 0.96663
# Poissons Ratio (z) = 0.03105 0.37105
#
# Static dielectric constant tensor:
#      x y z
#    x 1.530690 0.000000 -0.006240 
#    y 0.000000 1.547710 0.000000 
#    z -0.006240 0.000000 1.584130 
# 
# From -- ./inp_files/342537.got.cif
#   From: 2010.05.17/outbox.cif.g08.bks.cpg/sg12_172_cif.got.tgz:342537.got - 2010.06.03 13:09:07.
