data_PCOD9220721
_publ_section_title
;
Structure prediction by ZEFSAII (Michael W. Deem and Ramdas Pophale) SiO2 
 PCOD9220721
Probable space group: C 2/M
;
_chemical_formula_sum "Si O2"
_cell_formula_units_Z 56
_cell_length_a 18.996878
_cell_length_b 24.743151
_cell_length_c 10.043190
_cell_angle_alpha 90.000000
_cell_angle_beta 144.329725
_cell_angle_gamma 90.000000
_cell_volume 2752.749704
_symmetry_space_group_name_H-M "C 2/M"
_symmetry_group_IT_number 12
_symmetry_cell_setting 'monoclinic'
loop_
_space_group_symop_operation_xyz
x,y,z
-x,y,-z
-x,-y,-z
x,-y,z
1/2+x,1/2+y,z
1/2-x,1/2+y,-z
1/2-x,1/2-y,-z
1/2+x,1/2-y,z
loop_
_atom_site_type_symbol
_atom_site_label
_atom_site_fract_x
_atom_site_fract_y
_atom_site_fract_z
Si Si1 0.005958 0.159325 0.357110
Si Si2 0.861181 0.391102 0.756878
Si Si3 0.672178 0.437470 0.666351
Si Si4 0.262171 0.280127 0.381502
Si Si5 0.896033 0.437800 0.533901
Si Si6 0.158497 0.597289 0.833206
Si Si7 0.254382 0.296087 0.896142
O O1 0.057113 0.098657 0.449571
O O2 0.108042 0.192179 0.436886
O O3 0.000000 0.180491 0.500000
O O4 0.878086 0.169856 0.094758
O O5 0.771029 0.428734 0.701945
O O6 0.831267 0.330396 0.761499
O O7 0.845386 0.400348 0.574285
O O8 0.000000 0.404261 0.000000
O O9 0.644449 0.500000 0.641777
O O10 0.735972 0.413856 0.897844
O O11 0.250000 0.250000 0.500000
O O12 0.250725 0.235880 0.248751
O O13 0.894606 0.500000 0.576851
O O14 0.828803 0.433001 0.288547
O O15 0.033787 0.420933 0.710593
O O16 0.154502 0.659874 0.782958
O O17 0.250000 0.250000 0.000000
#
# Coordination Sequence:
#
# PCOD9220721 Si02
#       7
#     8   8   8   8   8   8   8
#     4  11  23  44  62  96 128 160 218 260 312 398
#     4  11  23  39  62  94 128 163 221 262 318 397
#     4  11  22  41  65  92 129 170 214 268 320 378
#     4  11  26  43  65  95 127 171 213 268 326 378
#     4  11  23  39  62  95 135 167 203 271 338 383
#     4  11  22  38  60  97 128 163 219 260 316 395
#     4  12  24  42  67  91 127 174 212 270 323 375
#
# _framework density 20.343295000000001
#
# number of rings (size 3 to 8) (size 9 to 14) (size 15 to 20)
#    0.000    0.857    4.286    3.857    2.000    3.143 
#    0.000    0.000    0.000    0.000    0.000    5.000 
#    0.000    0.000    0.000    0.000    0.000    0.000 
#
# Total GULP energy -156479.524794 kJ/mol
# GULP energy per Si atom -5588.554457 kJ/mol
# Density = 2.029699 g / cm^3
# Si number density = 20.343295 Si / 1000 Ang^3
#
#
#
# Elastic Constant Matrix: (Units=GPa)
#
#
# Indices 1 2 3 4 5 6 
#
# 1 100.7841 27.9715 13.9975 0.0000 -16.4892 0.0000
# 2 27.9715 130.0553 20.1319 0.0000 -7.5745 0.0000
# 3 13.9975 20.1319 50.6720 0.0000 -5.8182 0.0000
# 4 0.0000 0.0000 0.0000 20.8704 0.0000 -7.9031
# 5 -16.4892 -7.5745 -5.8182 0.0000 39.6357 0.0000
# 6 0.0000 0.0000 0.0000 -7.9031 0.0000 30.9857
#
#
#
# Elastic Compliance Matrix: (Units=1/GPa)
#
#
# Indices 1 2 3 4 5 6 
#
# 1 0.011389 -0.001915 -0.001916 0.000000 0.004091 0.000000
# 2 -0.001915 0.008563 -0.002824 0.000000 0.000425 0.000000
# 3 -0.001916 -0.002824 0.021597 0.000000 0.001834 0.000000
# 4 0.000000 0.000000 0.000000 0.053037 0.000000 0.013528
# 5 0.004091 0.000425 0.001834 0.000000 0.027282 0.000000
# 6 0.000000 0.000000 0.000000 0.013528 0.000000 0.035723
#
#
# Mechanical properties :
#
#
# Convention : Reuss Voigt Hill
#
# Bulk Modulus (GPa) = 35.41181 45.07925 40.24553
# Shear Modulus (GPa) = 27.72954 32.92572 30.32763
#
# Velocity S-wave (km/s) = 3.69600 4.02743 3.86527
# Velocity P-wave (km/s) = 5.97150 6.62075 6.30448
#
# Compressibility (1/GPa) = 0.02823917
#
# Stress axis : x y z
#
# Youngs Moduli (GPa) = 87.80435 116.78443 46.30368
#
# Poissons Ratio (x) = 0.22361 0.08870
# Poissons Ratio (y) = 0.16812 0.13077
# Poissons Ratio (z) = 0.16820 0.32983
#
# Static dielectric constant tensor:
#      x y z
#    x 1.765720 0.000000 0.048440 
#    y 0.000000 1.739920 0.000000 
#    z 0.048440 0.000000 1.761860 
# 
# From -- ./inp_files/80109.got.cif
#   From: 2010.05.17/outbox.cif.g08.bks.cpg/sg12_41_cif.got.tgz:80109.got - 2010.06.03 13:09:07.
