data_PCOD9220010
_publ_section_title
;
Structure prediction by ZEFSAII (Michael W. Deem and Ramdas Pophale) SiO2 
 PCOD9220010
Probable space group: C 2/M
;
_chemical_formula_sum "Si O2"
_cell_formula_units_Z 28
_cell_length_a 12.261256
_cell_length_b 21.759078
_cell_length_c 5.107206
_cell_angle_alpha 90.000000
_cell_angle_beta 98.931999
_cell_angle_gamma 90.000000
_cell_volume 1346.046539
_symmetry_space_group_name_H-M "C 2/M"
_symmetry_group_IT_number 12
_symmetry_cell_setting 'monoclinic'
loop_
_space_group_symop_operation_xyz
x,y,z
-x,y,-z
-x,-y,-z
x,-y,z
1/2+x,1/2+y,z
1/2-x,1/2+y,-z
1/2-x,1/2-y,-z
1/2+x,1/2-y,z
loop_
_atom_site_type_symbol
_atom_site_label
_atom_site_fract_x
_atom_site_fract_y
_atom_site_fract_z
Si Si1 0.258366 0.385000 0.182002
Si Si2 0.425840 0.723208 0.232205
Si Si3 0.620586 0.136161 0.645460
Si Si4 0.421343 0.500000 0.220882
O O1 0.325240 0.322560 0.145335
O O2 0.207050 0.378811 0.450129
O O3 0.343529 0.440537 0.194697
O O4 0.161911 0.392231 0.932248
O O5 0.500000 0.697908 0.500000
O O6 0.386501 0.790422 0.308050
O O7 0.500000 0.729367 0.000000
O O8 0.500000 0.116616 0.500000
O O9 0.500000 0.500000 0.500000
O O10 0.500000 0.500000 0.000000
#
# Coordination Sequence:
#
# PCOD9220010 Si02
#       4
#     8   8   8   4
#     4  12  23  41  64  90 124 167 203 249 308 359
#     4  11  21  37  62  95 126 159 200 254 311 365
#     4  11  23  40  61  91 126 162 205 253 299 362
#     4  12  26  46  67  94 123 156 204 256 302 366
#
# _framework density 20.801656999999999
#
# number of rings (size 3 to 8) (size 9 to 14) (size 15 to 20)
#    0.000    0.571    0.000   11.143    0.000    0.000 
#    0.000    4.286    0.000    0.000    0.000    0.000 
#    0.000    0.000    0.000    0.000    0.000    0.000 
#
# Total GULP energy -78406.690136 kJ/mol
# GULP energy per Si atom -5600.477867 kJ/mol
# Density = 2.075431 g / cm^3
# Si number density = 20.801657 Si / 1000 Ang^3
#
#
#
# Elastic Constant Matrix: (Units=GPa)
#
#
# Indices 1 2 3 4 5 6 
#
# 1 73.4858 28.2949 14.1796 0.0000 -13.3954 0.0000
# 2 28.2949 45.9044 14.2214 0.0000 0.3955 0.0000
# 3 14.1796 14.2214 128.7581 0.0000 7.3160 0.0000
# 4 0.0000 0.0000 0.0000 211.3462 0.0000 -36.2633
# 5 -13.3954 0.3955 7.3160 0.0000 68.0237 0.0000
# 6 0.0000 0.0000 0.0000 -36.2633 0.0000 46.3200
#
#
#
# Elastic Compliance Matrix: (Units=1/GPa)
#
#
# Indices 1 2 3 4 5 6 
#
# 1 0.018893 -0.011354 -0.001048 0.000000 0.003899 0.000000
# 2 -0.011354 0.029381 -0.001869 0.000000 -0.002206 0.000000
# 3 -0.001048 -0.001869 0.008149 0.000000 -0.001072 0.000000
# 4 0.000000 0.000000 0.000000 0.005466 0.000000 0.004279
# 5 0.003899 -0.002206 -0.001072 0.000000 0.015597 0.000000
# 6 0.000000 0.000000 0.000000 0.004279 0.000000 0.024939
#
#
# Mechanical properties :
#
#
# Convention : Reuss Voigt Hill
#
# Bulk Modulus (GPa) = 35.86815 40.17111 38.01963
# Shear Modulus (GPa) = 35.64765 77.90147 56.77456
#
# Velocity S-wave (km/s) = 4.14417 6.12625 5.22997
# Velocity P-wave (km/s) = 6.33871 8.33035 7.40182
#
# Compressibility (1/GPa) = 0.02787989
#
# Stress axis : x y z
#
# Youngs Moduli (GPa) = 52.92996 34.03538 122.70975
#
# Poissons Ratio (x) = 0.38645 0.12861
# Poissons Ratio (y) = 0.60098 0.22940
# Poissons Ratio (z) = 0.05547 0.06363
#
# Static dielectric constant tensor:
#      x y z
#    x 1.721200 0.000000 0.037890 
#    y 0.000000 1.715570 0.000000 
#    z 0.037890 0.000000 1.736360 
# 
# From -- ./inp_files/5662.got.cif
#   From: 2010.05.17/outbox.cif.g08.bks.cpg/sg12_3_cif.got.tgz:5662.got - 2010.06.03 13:09:07.
