data_PCOD9220107
_publ_section_title
;
Structure prediction by ZEFSAII (Michael W. Deem and Ramdas Pophale) SiO2 
 PCOD9220107
Probable space group: C 2/M
;
_chemical_formula_sum "Si O2"
_cell_formula_units_Z 56
_cell_length_a 20.529557
_cell_length_b 14.298978
_cell_length_c 9.515645
_cell_angle_alpha 90.000000
_cell_angle_beta 100.756925
_cell_angle_gamma 90.000000
_cell_volume 2744.248726
_symmetry_space_group_name_H-M "C 2/M"
_symmetry_group_IT_number 12
_symmetry_cell_setting 'monoclinic'
loop_
_space_group_symop_operation_xyz
x,y,z
-x,y,-z
-x,-y,-z
x,-y,z
1/2+x,1/2+y,z
1/2-x,1/2+y,-z
1/2-x,1/2-y,-z
1/2+x,1/2-y,z
loop_
_atom_site_type_symbol
_atom_site_label
_atom_site_fract_x
_atom_site_fract_y
_atom_site_fract_z
Si Si1 0.623416 0.109364 0.770975
Si Si2 0.352656 0.105205 0.719231
Si Si3 0.346835 0.602220 0.809725
Si Si4 0.184543 0.717262 0.048882
Si Si5 0.495246 0.600988 0.828176
Si Si6 0.721038 0.162936 0.577370
Si Si7 0.503796 0.812132 0.173357
O O1 0.664280 0.171185 0.674775
O O2 0.544756 0.123348 0.753943
O O3 0.639919 0.000000 0.756830
O O4 0.646307 0.148447 0.930860
O O5 0.303973 0.159022 0.805559
O O6 0.317451 0.104009 0.555568
O O7 0.420937 0.163803 0.752970
O O8 0.366938 0.000000 0.772518
O O9 0.338715 0.500000 0.874435
O O10 0.351385 0.686963 0.921279
O O11 0.417017 0.601304 0.759565
O O12 0.284361 0.619834 0.683581
O O13 0.250000 0.750000 0.000000
O O14 0.523496 0.500000 0.789592
O O15 0.518100 0.705289 0.799851
O O16 0.500000 0.598007 0.000000
O O17 0.750000 0.250000 0.500000
O O18 0.500000 0.824711 0.000000
#
# Coordination Sequence:
#
# PCOD9220107 Si02
#       7
#     8   8   8   8   8   8   8
#     4  12  25  41  66  98 136 176 219 272 333 399
#     4  12  24  40  63  91 130 175 220 268 326 399
#     4  11  21  38  64  91 123 170 218 268 336 393
#     4  12  22  38  61  94 126 166 214 273 327 384
#     4   9  17  33  59  88 119 159 209 263 319 381
#     4  12  24  45  63  90 130 175 221 272 331 395
#     4  11  21  39  63  97 133 173 217 272 336 392
#
# _framework density 20.406313000000001
#
# number of rings (size 3 to 8) (size 9 to 14) (size 15 to 20)
#    0.000    0.714    5.714    3.000    0.000    1.714 
#    0.000    1.429    0.000    2.571    0.000    3.000 
#    0.000    0.000    0.000    0.000    0.000    0.000 
#
# Total GULP energy -156067.050976 kJ/mol
# GULP energy per Si atom -5573.823249 kJ/mol
# Density = 2.035987 g / cm^3
# Si number density = 20.406313 Si / 1000 Ang^3
#
#
#
# Elastic Constant Matrix: (Units=GPa)
#
#
# Indices 1 2 3 4 5 6 
#
# 1 81.2392 5.5389 30.8155 0.0000 8.5056 0.0000
# 2 5.5389 139.1963 16.6762 0.0000 -10.4181 0.0000
# 3 30.8155 16.6762 73.4414 0.0000 -5.4284 0.0000
# 4 0.0000 0.0000 0.0000 18.1794 0.0000 -7.8223
# 5 8.5056 -10.4181 -5.4284 0.0000 26.0676 0.0000
# 6 0.0000 0.0000 0.0000 -7.8223 0.0000 5.6553
#
#
#
# Elastic Compliance Matrix: (Units=1/GPa)
#
#
# Indices 1 2 3 4 5 6 
#
# 1 0.015690 -0.000285 -0.007013 0.000000 -0.006694 0.000000
# 2 -0.000285 0.007574 -0.001391 0.000000 0.002830 0.000000
# 3 -0.007013 -0.001391 0.017269 0.000000 0.005329 0.000000
# 4 0.000000 0.000000 0.000000 0.135875 0.000000 0.187940
# 5 -0.006694 0.002830 0.005329 0.000000 0.042787 0.000000
# 6 0.000000 0.000000 0.000000 0.187940 0.000000 0.436781
#
#
# Mechanical properties :
#
#
# Convention : Reuss Voigt Hill
#
# Bulk Modulus (GPa) = 43.18974 44.43757 43.81365
# Shear Modulus (GPa) = 7.34137 26.03687 16.68912
#
# Velocity S-wave (km/s) = 1.89879 3.57588 2.86289
# Velocity P-wave (km/s) = 5.10079 6.23481 5.69609
#
# Compressibility (1/GPa) = 0.02315365
#
# Stress axis : x y z
#
# Youngs Moduli (GPa) = 63.73510 132.03199 57.90791
#
# Poissons Ratio (x) = 0.03764 0.40613
# Poissons Ratio (y) = 0.01817 0.08055
# Poissons Ratio (z) = 0.44700 0.18365
#
# Static dielectric constant tensor:
#      x y z
#    x 1.769420 0.000000 0.040110 
#    y 0.000000 1.784560 0.000000 
#    z 0.040110 0.000000 1.717240 
# 
# From -- ./inp_files/86360.got.cif
#   From: 2010.05.17/outbox.cif.g08.bks.cpg/sg12_44_cif.got.tgz:86360.got - 2010.06.03 13:09:07.
