data_PCOD9220136
_publ_section_title
;
Structure prediction by ZEFSAII (Michael W. Deem and Ramdas Pophale) SiO2 
 PCOD9220136
Probable space group: C 2/M
;
_chemical_formula_sum "Si O2"
_cell_formula_units_Z 56
_cell_length_a 10.123894
_cell_length_b 21.741632
_cell_length_c 14.119737
_cell_angle_alpha 90.000000
_cell_angle_beta 89.186006
_cell_angle_gamma 90.000000
_cell_volume 3107.581361
_symmetry_space_group_name_H-M "C 2/M"
_symmetry_group_IT_number 12
_symmetry_cell_setting 'monoclinic'
loop_
_space_group_symop_operation_xyz
x,y,z
-x,y,-z
-x,-y,-z
x,-y,z
1/2+x,1/2+y,z
1/2-x,1/2+y,-z
1/2-x,1/2-y,-z
1/2+x,1/2-y,z
loop_
_atom_site_type_symbol
_atom_site_label
_atom_site_fract_x
_atom_site_fract_y
_atom_site_fract_z
Si Si1 0.330179 0.316403 0.093081
Si Si2 0.889865 0.135394 0.692678
Si Si3 0.342295 0.927182 0.414455
Si Si4 0.123642 0.254859 0.433526
Si Si5 0.350119 0.571614 0.230674
Si Si6 0.868701 0.616142 0.627672
Si Si7 0.372932 0.288812 0.877686
O O1 0.332188 0.383051 0.141382
O O2 0.467636 0.283011 0.122000
O O3 0.206913 0.274818 0.126170
O O4 0.333194 0.318448 0.979114
O O5 0.780201 0.092053 0.648215
O O6 0.909074 0.191877 0.619590
O O7 0.841421 0.166956 0.790429
O O8 0.023446 0.098573 0.713990
O O9 0.478091 0.901921 0.368803
O O10 0.327293 0.899424 0.519980
O O11 0.353555 0.000000 0.424219
O O12 0.250000 0.250000 0.500000
O O13 0.147364 0.310638 0.360890
O O14 0.000000 0.272637 0.500000
O O15 0.368844 0.500000 0.206888
O O16 0.223115 0.580380 0.298886
#
# Coordination Sequence:
#
# PCOD9220136 Si02
#       7
#     8   8   8   8   8   8   8
#     4   9  19  38  61  87 115 144 186 236 292 337
#     4  11  23  36  56  85 115 147 187 233 287 338
#     4  11  22  38  55  76 109 152 193 228 272 337
#     4  12  21  36  54  80 111 141 183 239 285 324
#     4  11  23  38  57  85 117 154 193 230 280 344
#     4  11  21  39  57  78 107 151 193 236 279 332
#     4   9  19  37  60  88 114 144 185 237 290 340
#
# _framework density 18.020444999999999
#
# number of rings (size 3 to 8) (size 9 to 14) (size 15 to 20)
#    0.000    1.429    2.857    3.857    0.000    4.571 
#    0.000    7.857    0.000    0.000    0.000   10.000 
#    0.000    0.000    0.000    0.000    0.000    0.000 
#
# Total GULP energy -156383.618622 kJ/mol
# GULP energy per Si atom -5585.129236 kJ/mol
# Density = 1.797943 g / cm^3
# Si number density = 18.020445 Si / 1000 Ang^3
#
#
#
# Elastic Constant Matrix: (Units=GPa)
#
#
# Indices 1 2 3 4 5 6 
#
# 1 49.4538 37.3513 29.0566 0.0000 -1.4463 0.0000
# 2 37.3513 134.1159 26.9236 0.0000 1.8005 0.0000
# 3 29.0566 26.9236 57.9136 0.0000 2.4889 0.0000
# 4 0.0000 0.0000 0.0000 2.6535 0.0000 -0.6406
# 5 -1.4463 1.8005 2.4889 0.0000 19.2308 0.0000
# 6 0.0000 0.0000 0.0000 -0.6406 0.0000 19.4055
#
#
#
# Elastic Compliance Matrix: (Units=1/GPa)
#
#
# Indices 1 2 3 4 5 6 
#
# 1 0.033575 -0.006610 -0.013986 0.000000 0.004954 0.000000
# 2 -0.006610 0.009526 -0.001059 0.000000 -0.001252 0.000000
# 3 -0.013986 -0.001059 0.024956 0.000000 -0.004183 0.000000
# 4 0.000000 0.000000 0.000000 0.379895 0.000000 0.012541
# 5 0.004954 -0.001252 -0.004183 0.000000 0.053031 0.000000
# 6 0.000000 0.000000 0.000000 0.012541 0.000000 0.051946
#
#
# Mechanical properties :
#
#
# Convention : Reuss Voigt Hill
#
# Bulk Modulus (GPa) = 40.40470 47.57182 43.98826
# Shear Modulus (GPa) = 8.27148 18.13475 13.20311
#
# Velocity S-wave (km/s) = 2.14476 3.17573 2.70973
# Velocity P-wave (km/s) = 5.34824 6.31689 5.85264
#
# Compressibility (1/GPa) = 0.02474959
#
# Stress axis : x y z
#
# Youngs Moduli (GPa) = 29.78400 104.97189 40.07068
#
# Poissons Ratio (x) = 0.69382 0.56041
# Poissons Ratio (y) = 0.19686 0.04242
# Poissons Ratio (z) = 0.41655 0.11114
#
# Static dielectric constant tensor:
#      x y z
#    x 1.610200 0.000000 -0.000030 
#    y 0.000000 1.624250 0.000000 
#    z -0.000030 0.000000 1.618400 
# 
# From -- ./inp_files/197514.got.cif
#   From: 2010.05.17/outbox.cif.g08.bks.cpg/sg12_99_cif.got.tgz:197514.got - 2010.06.03 13:09:07.
