data_PCOD9220061
_publ_section_title
;
Structure prediction by ZEFSAII (Michael W. Deem and Ramdas Pophale) SiO2 
 PCOD9220061
Probable space group: C 2/M
;
_chemical_formula_sum "Si O2"
_cell_formula_units_Z 56
_cell_length_a 14.913894
_cell_length_b 16.863136
_cell_length_c 14.309027
_cell_angle_alpha 90.000000
_cell_angle_beta 64.034979
_cell_angle_gamma 90.000000
_cell_volume 3235.406846
_symmetry_space_group_name_H-M "C 2/M"
_symmetry_group_IT_number 12
_symmetry_cell_setting 'monoclinic'
loop_
_space_group_symop_operation_xyz
x,y,z
-x,y,-z
-x,-y,-z
x,-y,z
1/2+x,1/2+y,z
1/2-x,1/2+y,-z
1/2-x,1/2-y,-z
1/2+x,1/2-y,z
loop_
_atom_site_type_symbol
_atom_site_label
_atom_site_fract_x
_atom_site_fract_y
_atom_site_fract_z
Si Si1 0.661946 0.708606 0.168999
Si Si2 0.116125 0.500000 0.824467
Si Si3 0.257974 0.368055 0.047120
Si Si4 0.072702 0.202449 0.711957
Si Si5 0.881227 0.500000 0.960163
Si Si6 0.221605 0.654390 0.696915
Si Si7 0.100713 0.094483 0.516200
Si Si8 0.578398 0.409842 0.887817
O O1 0.718683 0.785792 0.105744
O O2 0.544809 0.725176 0.237703
O O3 0.717360 0.681638 0.238260
O O4 0.677154 0.646206 0.076747
O O5 0.156011 0.578558 0.756305
O O6 0.997640 0.500000 0.887869
O O7 0.149122 0.500000 0.917359
O O8 0.165979 0.422059 0.061792
O O9 0.320324 0.409253 0.099869
O O10 0.148911 0.276136 0.690997
O O11 0.093265 0.148742 0.611594
O O12 0.084828 0.146441 0.796717
O O13 0.304322 0.625055 0.585560
O O14 0.000000 0.103761 0.500000
O O15 0.110098 0.000000 0.532945
O O16 0.550190 0.500000 0.874745
O O17 0.500000 0.378327 0.000000
#
# Coordination Sequence:
#
# PCOD9220061 Si02
#       8
#     8   4   8   8   4   8   8   8
#     4  11  23  37  60  91 123 162 209 248 305 362
#     4  11  24  40  61  93 123 169 217 252 310 363
#     4  11  21  38  57  86 128 165 203 252 296 367
#     4  12  24  41  63  93 123 165 205 260 309 381
#     4  11  22  38  61  89 123 175 211 248 304 371
#     4  12  23  43  65  88 127 162 206 265 310 366
#     4  11  24  43  69  94 120 154 206 265 321 371
#     4  11  22  36  58  89 125 163 202 247 309 371
#
# _framework density 17.308488000000001
#
# number of rings (size 3 to 8) (size 9 to 14) (size 15 to 20)
#    0.000    0.714    7.143    1.714    0.000    0.000 
#    5.143    0.000    0.000    0.000    0.000    2.500 
#    0.000    0.000    0.000    0.000    0.000    0.000 
#
# Total GULP energy -156303.229739 kJ/mol
# GULP energy per Si atom -5582.258205 kJ/mol
# Density = 1.726909 g / cm^3
# Si number density = 17.308488 Si / 1000 Ang^3
#
#
#
# Elastic Constant Matrix: (Units=GPa)
#
#
# Indices 1 2 3 4 5 6 
#
# 1 85.6635 49.6822 46.8515 0.0000 4.8033 0.0000
# 2 49.6822 104.0341 65.1995 0.0000 5.1467 0.0000
# 3 46.8515 65.1995 127.2226 0.0000 -3.4868 0.0000
# 4 0.0000 0.0000 0.0000 29.7864 0.0000 -4.1096
# 5 4.8033 5.1467 -3.4868 0.0000 28.5364 0.0000
# 6 0.0000 0.0000 0.0000 -4.1096 0.0000 32.3984
#
#
#
# Elastic Compliance Matrix: (Units=1/GPa)
#
#
# Indices 1 2 3 4 5 6 
#
# 1 0.017059 -0.005986 -0.003275 0.000000 -0.002192 0.000000
# 2 -0.005986 0.016608 -0.006383 0.000000 -0.002768 0.000000
# 3 -0.003275 -0.006383 0.012425 0.000000 0.003221 0.000000
# 4 0.000000 0.000000 0.000000 0.034170 0.000000 0.004334
# 5 -0.002192 -0.002768 0.003221 0.000000 0.036305 0.000000
# 6 0.000000 0.000000 0.000000 0.004334 0.000000 0.031416
#
#
# Mechanical properties :
#
#
# Convention : Reuss Voigt Hill
#
# Bulk Modulus (GPa) = 67.54082 71.15407 69.34745
# Shear Modulus (GPa) = 27.14365 28.49003 27.81684
#
# Velocity S-wave (km/s) = 3.96438 4.06151 4.01324
# Velocity P-wave (km/s) = 7.74994 7.94941 7.85031
#
# Compressibility (1/GPa) = 0.01480586
#
# Stress axis : x y z
#
# Youngs Moduli (GPa) = 58.61943 60.21204 80.47994
#
# Poissons Ratio (x) = 0.36043 0.26354
# Poissons Ratio (y) = 0.35090 0.51368
# Poissons Ratio (z) = 0.19195 0.38432
#
# Static dielectric constant tensor:
#      x y z
#    x 1.586280 0.000000 0.003090 
#    y 0.000000 1.578920 0.000000 
#    z 0.003090 0.000000 1.567580 
# 
# From -- ./inp_files/145710.got.cif
#   From: 2010.05.17/outbox.cif.g08.bks.cpg/sg12_73_cif.got.tgz:145710.got - 2010.06.03 13:09:07.
