data_PCOD9220690
_publ_section_title
;
Structure prediction by ZEFSAII (Michael W. Deem and Ramdas Pophale) SiO2 
 PCOD9220690
Probable space group: C 2/M
;
_chemical_formula_sum "Si O2"
_cell_formula_units_Z 64
_cell_length_a 9.526856
_cell_length_b 18.765335
_cell_length_c 33.182605
_cell_angle_alpha 90.000000
_cell_angle_beta 37.356973
_cell_angle_gamma 90.000000
_cell_volume 3599.540035
_symmetry_space_group_name_H-M "C 2/M"
_symmetry_group_IT_number 12
_symmetry_cell_setting 'monoclinic'
loop_
_space_group_symop_operation_xyz
x,y,z
-x,y,-z
-x,-y,-z
x,-y,z
1/2+x,1/2+y,z
1/2-x,1/2+y,-z
1/2-x,1/2-y,-z
1/2+x,1/2-y,z
loop_
_atom_site_type_symbol
_atom_site_label
_atom_site_fract_x
_atom_site_fract_y
_atom_site_fract_z
Si Si1 0.227575 0.583125 0.052070
Si Si2 0.303242 0.682125 0.174836
Si Si3 0.112263 0.915302 0.311344
Si Si4 0.782368 0.320476 0.020558
Si Si5 0.964193 0.585112 0.302682
Si Si6 0.916266 0.586930 0.563017
Si Si7 0.232574 0.586920 0.565603
Si Si8 0.954222 0.673318 0.180648
O O1 0.165977 0.500000 0.069406
O O2 0.088880 0.630910 0.115333
O O3 0.500000 0.590187 0.000000
O O4 0.181939 0.614582 0.018353
O O5 0.554372 0.663819 0.099122
O O6 0.341145 0.755880 0.189091
O O7 0.179302 0.626037 0.233113
O O8 0.134172 0.690826 0.175210
O O9 0.243186 0.902975 0.323865
O O10 0.259915 0.876721 0.243884
O O11 0.848426 0.890748 0.371173
O O12 0.115397 0.000000 0.303857
O O13 0.750000 0.250000 0.000000
O O14 0.000000 0.309156 0.000000
O O15 0.010599 0.500000 0.292545
O O16 0.890396 0.608246 0.364436
O O17 0.919798 0.500000 0.562206
O O18 0.000000 0.610324 0.500000
O O19 0.082164 0.609903 0.561450
O O20 0.500000 0.609829 0.500000
O O21 0.235992 0.500000 0.565304
#
# Coordination Sequence:
#
# PCOD9220690 Si02
#       8
#     8   8   8   8   8   8   8   8
#     4  11  23  40  63  88 115 148 191 239 291 345
#     4  11  23  37  60  83 111 151 190 234 288 340
#     4   9  18  33  53  77 109 143 181 231 278 328
#     4  12  23  40  63  86 116 152 197 241 289 345
#     4   9  19  35  54  80 111 146 188 231 283 339
#     4   9  16  27  47  77 109 143 183 225 273 328
#     4   9  16  28  49  77 111 148 184 226 278 335
#     4  11  22  38  58  84 110 149 192 232 281 347
#
# _framework density 17.780049999999999
#
# number of rings (size 3 to 8) (size 9 to 14) (size 15 to 20)
#    0.000    1.875    2.500    2.250    0.000    5.250 
#    0.000    0.000    0.000    0.750    0.000    5.250 
#    0.000    0.000    0.000    0.000    0.000    0.000 
#
# Total GULP energy -178586.753735 kJ/mol
# GULP energy per Si atom -5580.836054 kJ/mol
# Density = 1.773958 g / cm^3
# Si number density = 17.780050 Si / 1000 Ang^3
#
#
#
# Elastic Constant Matrix: (Units=GPa)
#
#
# Indices 1 2 3 4 5 6 
#
# 1 136.7349 48.5629 100.7698 -0.0049 0.1328 0.0032
# 2 48.5629 51.8501 41.6188 -0.0096 1.8820 -0.0011
# 3 100.7698 41.6188 165.7331 -0.0144 0.0711 0.0046
# 4 -0.0049 -0.0096 -0.0144 43.2123 -0.0017 -5.2426
# 5 0.1328 1.8820 0.0711 -0.0017 33.6398 -0.0042
# 6 0.0032 -0.0011 0.0046 -5.2426 -0.0042 26.4608
#
#
#
# Elastic Compliance Matrix: (Units=1/GPa)
#
#
# Indices 1 2 3 4 5 6 
#
# 1 0.016033 -0.009028 -0.007482 -0.000003 0.000458 -0.000001
# 2 -0.009028 0.029299 -0.001868 0.000005 -0.001600 0.000003
# 3 -0.007482 -0.001868 0.011052 0.000002 0.000111 -0.000001
# 4 -0.000003 0.000005 0.000002 0.023712 0.000002 0.004698
# 5 0.000458 -0.001600 0.000111 0.000002 0.029814 0.000005
# 6 -0.000001 0.000003 -0.000001 0.004698 0.000005 0.038723
#
#
# Mechanical properties :
#
#
# Convention : Reuss Voigt Hill
#
# Bulk Modulus (GPa) = 50.94366 81.80235 66.37300
# Shear Modulus (GPa) = 26.05118 31.55368 28.80243
#
# Velocity S-wave (km/s) = 3.83193 4.21725 4.02920
# Velocity P-wave (km/s) = 6.94929 8.35592 7.68486
#
# Compressibility (1/GPa) = 0.01962953
#
# Stress axis : x y z
#
# Youngs Moduli (GPa) = 62.37105 34.13068 90.48326
#
# Poissons Ratio (x) = 0.30813 0.67696
# Poissons Ratio (y) = 0.56308 0.16900
# Poissons Ratio (z) = 0.46664 0.06375
#
# Static dielectric constant tensor:
#      x y z
#    x 1.596100 0.000000 0.003370 
#    y 0.000000 1.588190 0.000000 
#    z 0.003370 0.000000 1.633590 
# 
# From -- ./inp_files/372922.got.cif
#   From: 2010.05.17/outbox.cif.g08.bks.cpg/sg12_187_cif.got.tgz:372922.got - 2010.06.03 13:09:07.
