data_PCOD9220356
_publ_section_title
;
Structure prediction by ZEFSAII (Michael W. Deem and Ramdas Pophale) SiO2 
 PCOD9220356
Probable space group: C 2/M
;
_chemical_formula_sum "Si O2"
_cell_formula_units_Z 42
_cell_length_a 8.672850
_cell_length_b 15.087347
_cell_length_c 17.885660
_cell_angle_alpha 90.000000
_cell_angle_beta 123.326338
_cell_angle_gamma 90.000000
_cell_volume 1955.485829
_symmetry_space_group_name_H-M "C 2/M"
_symmetry_group_IT_number 12
_symmetry_cell_setting 'monoclinic'
loop_
_space_group_symop_operation_xyz
x,y,z
-x,y,-z
-x,-y,-z
x,-y,z
1/2+x,1/2+y,z
1/2-x,1/2+y,-z
1/2-x,1/2-y,-z
1/2+x,1/2-y,z
loop_
_atom_site_type_symbol
_atom_site_label
_atom_site_fract_x
_atom_site_fract_y
_atom_site_fract_z
Si Si1 0.720161 0.176923 0.056402
Si Si2 0.704764 0.852925 0.314374
Si Si3 0.000000 0.500000 0.500000
Si Si4 0.014342 0.826983 0.736646
Si Si5 0.782371 0.000000 0.452751
Si Si6 0.943030 0.500000 0.189626
Si Si7 0.276287 0.500000 0.713841
Si Si8 0.334122 0.500000 0.013981
O O1 0.818982 0.199130 0.161550
O O2 0.500000 0.162610 0.000000
O O3 0.750000 0.250000 0.000000
O O4 0.824491 0.087934 0.059587
O O5 0.893775 0.846253 0.318898
O O6 0.621101 0.756593 0.304380
O O7 0.720435 0.910764 0.393221
O O8 0.567303 0.912723 0.228418
O O9 0.796342 0.500000 0.485464
O O10 0.899142 0.500000 0.389052
O O11 0.899514 0.912543 0.732702
O O12 0.000000 0.000000 0.500000
O O13 0.802642 0.500000 0.222435
O O14 0.845189 0.500000 0.085181
O O15 0.500000 0.500000 0.000000
#
# Coordination Sequence:
#
# PCOD9220356 Si02
#       8
#     8   8   2   8   4   4   4   4
#     4  12  25  42  63 100 140 188 238 297 342 405
#     4  11  24  43  69 100 134 183 228 278 357 421
#     4  12  24  50  78 104 140 174 240 286 378 420
#     4  12  24  43  68 100 141 189 236 285 354 420
#     4  11  25  51  76 108 143 178 230 304 361 435
#     4  11  21  43  64  94 134 180 230 283 351 415
#     4  12  25  45  73  97 137 185 230 295 359 432
#     4  12  24  38  62  95 132 181 236 287 339 407
#
# _framework density 21.478038999999999
#
# number of rings (size 3 to 8) (size 9 to 14) (size 15 to 20)
#    0.000    0.381    1.905    9.429    0.000    0.000 
#    1.714    1.905    0.000    0.000    0.000    0.000 
#    0.000    0.000    0.000    0.000    0.000    0.000 
#
# Total GULP energy -117284.268292 kJ/mol
# GULP energy per Si atom -5584.965157 kJ/mol
# Density = 2.142915 g / cm^3
# Si number density = 21.478039 Si / 1000 Ang^3
#
#
#
# Elastic Constant Matrix: (Units=GPa)
#
#
# Indices 1 2 3 4 5 6 
#
# 1 125.4998 44.3799 -7.8172 0.0000 -5.8962 0.0000
# 2 44.3799 157.8569 1.3375 0.0000 -1.2027 0.0000
# 3 -7.8172 1.3375 65.2819 0.0000 -1.7213 0.0000
# 4 0.0000 0.0000 0.0000 -49.4601 0.0000 -13.8378
# 5 -5.8962 -1.2027 -1.7213 0.0000 39.3211 0.0000
# 6 0.0000 0.0000 0.0000 -13.8378 0.0000 36.4114
#
#
#
# Elastic Compliance Matrix: (Units=1/GPa)
#
#
# Indices 1 2 3 4 5 6 
#
# 1 0.008997 -0.002529 0.001164 0.000000 0.001323 0.000000
# 2 -0.002529 0.007048 -0.000452 0.000000 -0.000183 0.000000
# 3 0.001164 -0.000452 0.015489 0.000000 0.000839 0.000000
# 4 0.000000 0.000000 0.000000 -0.018275 0.000000 -0.006945
# 5 0.001323 -0.000183 0.000839 0.000000 0.025661 0.000000
# 6 0.000000 0.000000 0.000000 -0.006945 0.000000 0.024824
#
#
# Mechanical properties :
#
#
# Convention : Reuss Voigt Hill
#
# Bulk Modulus (GPa) = 35.84238 47.15988 41.50113
# Shear Modulus (GPa) = 65.20652 25.97037 45.58845
#
# Velocity S-wave (km/s) = 5.51593 3.48107 4.61212
# Velocity P-wave (km/s) = 7.56912 6.17754 6.90846
#
# Compressibility (1/GPa) = 0.02789993
#
# Stress axis : x y z
#
# Youngs Moduli (GPa) = 111.14564 141.87701 64.56209
#
# Poissons Ratio (x) = 0.35884 -0.07516
# Poissons Ratio (y) = 0.28112 0.02919
# Poissons Ratio (z) = -0.12938 0.06415
#
# Static dielectric constant tensor:
#      x y z
#    x 1.770290 0.000000 0.040350 
#    y 0.000000 1.883040 0.000000 
#    z 0.040350 0.000000 1.800950 
# 
# From -- ./inp_files/255746.got.cif
#   From: 2010.05.17/outbox.cif.g08.bks.cpg/sg12_128_cif.got.tgz:255746.got - 2010.06.03 13:09:07.
