data_PCOD9220911
_publ_section_title
;
Structure prediction by ZEFSAII (Michael W. Deem and Ramdas Pophale) SiO2 
 PCOD9220911
Probable space group: C 2/M
;
_chemical_formula_sum "Si O2"
_cell_formula_units_Z 58
_cell_length_a 22.252941
_cell_length_b 19.093387
_cell_length_c 11.811806
_cell_angle_alpha 90.000000
_cell_angle_beta 145.527002
_cell_angle_gamma 90.000000
_cell_volume 2840.643770
_symmetry_space_group_name_H-M "C 2/M"
_symmetry_group_IT_number 12
_symmetry_cell_setting 'monoclinic'
loop_
_space_group_symop_operation_xyz
x,y,z
-x,y,-z
-x,-y,-z
x,-y,z
1/2+x,1/2+y,z
1/2-x,1/2+y,-z
1/2-x,1/2-y,-z
1/2+x,1/2-y,z
loop_
_atom_site_type_symbol
_atom_site_label
_atom_site_fract_x
_atom_site_fract_y
_atom_site_fract_z
Si Si1 0.000000 0.500000 0.500000
Si Si2 0.328529 0.920433 0.992175
Si Si3 0.606576 0.290237 0.239505
Si Si4 0.255015 0.921883 0.445489
Si Si5 0.626671 0.141399 0.177247
Si Si6 0.826395 0.811190 0.166639
Si Si7 0.558458 0.891119 0.440281
Si Si8 0.049381 0.225881 0.415528
O O1 0.917678 0.437584 0.414086
O O2 0.447372 0.924214 0.226490
O O3 0.296082 0.000000 0.914332
O O4 0.345393 0.871196 0.908836
O O5 0.243194 0.881575 0.938109
O O6 0.670753 0.359838 0.310819
O O7 0.658834 0.217456 0.276969
O O8 0.582755 0.284943 0.336896
O O9 0.500000 0.292991 0.000000
O O10 0.310903 0.915913 0.654192
O O11 0.349221 0.904097 0.505428
O O12 0.213632 0.000000 0.361582
O O13 0.500000 0.134401 0.000000
O O14 0.867743 0.799221 0.360063
O O15 0.934930 0.809209 0.262393
O O16 0.750000 0.750000 0.000000
O O17 0.539846 0.809016 0.423526
#
# Coordination Sequence:
#
# PCOD9220911 Si02
#       8
#     2   8   8   8   8   8   8   8
#     4  12  24  40  56  90 138 178 198 266 358 410
#     4  12  24  42  64 101 138 168 217 275 342 408
#     4  11  25  45  69  98 133 179 236 277 327 402
#     4  12  24  41  64  99 138 173 212 276 343 403
#     4  11  22  39  67  97 132 172 212 274 340 403
#     4  11  25  42  71 100 132 184 230 275 332 397
#     4  12  23  40  62  93 134 168 218 275 336 401
#     4  11  24  47  68  99 133 176 237 284 321 396
#
# _framework density 20.417905999999999
#
# number of rings (size 3 to 8) (size 9 to 14) (size 15 to 20)
#    0.000    0.552    5.517    3.310    1.931    0.828 
#    0.000    2.069    0.000    0.000    0.000    0.000 
#    0.000    0.000    0.000    0.000    0.000    0.000 
#
# Total GULP energy -161784.130625 kJ/mol
# GULP energy per Si atom -5578.763125 kJ/mol
# Density = 2.037143 g / cm^3
# Si number density = 20.417906 Si / 1000 Ang^3
#
#
#
# Elastic Constant Matrix: (Units=GPa)
#
#
# Indices 1 2 3 4 5 6 
#
# 1 125.4668 61.3376 42.2170 0.0000 -2.2901 0.0000
# 2 61.3376 152.7187 29.3249 0.0000 21.3624 0.0000
# 3 42.2170 29.3249 78.3209 0.0000 6.0827 0.0000
# 4 0.0000 0.0000 0.0000 9.0198 0.0000 -5.5150
# 5 -2.2901 21.3624 6.0827 0.0000 29.5567 0.0000
# 6 0.0000 0.0000 0.0000 -5.5150 0.0000 24.9755
#
#
#
# Elastic Compliance Matrix: (Units=1/GPa)
#
#
# Indices 1 2 3 4 5 6 
#
# 1 0.012059 -0.004590 -0.005195 0.000000 0.005321 0.000000
# 2 -0.004590 0.009486 -0.000526 0.000000 -0.007104 0.000000
# 3 -0.005195 -0.000526 0.016023 0.000000 -0.003320 0.000000
# 4 0.000000 0.000000 0.000000 0.128173 0.000000 0.028303
# 5 0.005321 -0.007104 -0.003320 0.000000 0.040063 0.000000
# 6 0.000000 0.000000 0.000000 0.028303 0.000000 0.046289
#
#
# Mechanical properties :
#
#
# Convention : Reuss Voigt Hill
#
# Bulk Modulus (GPa) = 59.00935 69.14059 64.07497
# Shear Modulus (GPa) = 17.96208 27.61886 22.79047
#
# Velocity S-wave (km/s) = 2.96923 3.68187 3.34458
# Velocity P-wave (km/s) = 6.38111 7.21187 6.80917
#
# Compressibility (1/GPa) = 0.01694647
#
# Stress axis : x y z
#
# Youngs Moduli (GPa) = 82.92256 105.41529 62.41065
#
# Poissons Ratio (x) = 0.48389 0.32422
# Poissons Ratio (y) = 0.38064 0.03282
# Poissons Ratio (z) = 0.43078 0.05543
#
# Static dielectric constant tensor:
#      x y z
#    x 1.839610 0.000000 -0.115660 
#    y 0.000000 1.612560 0.000000 
#    z -0.115660 0.000000 1.879000 
# 
# From -- ./inp_files/168992.got.cif
#   From: 2010.05.17/outbox.cif.g08.bks.cpg/sg12_85_cif.got.tgz:168992.got - 2010.06.03 13:09:07.
