data_PCOD9220599
_publ_section_title
;
Structure prediction by ZEFSAII (Michael W. Deem and Ramdas Pophale) SiO2 
 PCOD9220599
Probable space group: C 2/M
;
_chemical_formula_sum "Si O2"
_cell_formula_units_Z 56
_cell_length_a 13.248619
_cell_length_b 27.288211
_cell_length_c 8.138467
_cell_angle_alpha 90.000000
_cell_angle_beta 108.280381
_cell_angle_gamma 90.000000
_cell_volume 2793.819323
_symmetry_space_group_name_H-M "C 2/M"
_symmetry_group_IT_number 12
_symmetry_cell_setting 'monoclinic'
loop_
_space_group_symop_operation_xyz
x,y,z
-x,y,-z
-x,-y,-z
x,-y,z
1/2+x,1/2+y,z
1/2-x,1/2+y,-z
1/2-x,1/2-y,-z
1/2+x,1/2-y,z
loop_
_atom_site_type_symbol
_atom_site_label
_atom_site_fract_x
_atom_site_fract_y
_atom_site_fract_z
Si Si1 0.443244 0.114286 0.650067
Si Si2 0.446121 0.313251 0.299824
Si Si3 0.413512 0.614964 0.841042
Si Si4 0.959771 0.290945 0.155699
Si Si5 0.372959 0.055190 0.103888
Si Si6 0.248118 0.646411 0.031319
Si Si7 0.241120 0.555936 0.593144
O O1 0.500000 0.116651 0.500000
O O2 0.458363 0.167903 0.735779
O O3 0.511433 0.077414 0.798375
O O4 0.328594 0.091847 0.555223
O O5 0.500000 0.323359 0.500000
O O6 0.521017 0.341872 0.210178
O O7 0.447308 0.255420 0.265566
O O8 0.326557 0.333171 0.210311
O O9 0.356008 0.579048 0.685125
O O10 0.500000 0.587957 0.000000
O O11 0.322678 0.637799 0.910552
O O12 0.847120 0.317649 0.068303
O O13 0.000000 0.273098 0.000000
O O14 0.315955 0.054398 0.255342
O O15 0.375645 0.000000 0.042391
O O16 0.307458 0.094148 0.962943
O O17 0.243056 0.500000 0.533680
#
# Coordination Sequence:
#
# PCOD9220599 Si02
#       7
#     8   8   8   8   8   8   8
#     4   9  17  30  50  80 112 137 173 221 265 313
#     4  11  23  38  56  78 105 138 181 227 269 311
#     4   9  19  36  55  77 108 143 183 222 257 308
#     4  11  22  37  57  80 109 142 176 214 268 329
#     4   8  14  27  52  81 106 138 177 217 260 310
#     4   9  19  37  57  78 109 143 177 218 261 315
#     4   9  16  28  51  81 109 137 174 221 265 304
#
# _framework density 20.044246999999999
#
# number of rings (size 3 to 8) (size 9 to 14) (size 15 to 20)
#    0.000    2.571    0.000    3.429    0.000    3.143 
#    0.000    4.286    0.000   15.857    0.000    0.000 
#    0.000    0.000    0.000    0.000    0.000    0.000 
#
# Total GULP energy -156282.256232 kJ/mol
# GULP energy per Si atom -5581.509151 kJ/mol
# Density = 1.999862 g / cm^3
# Si number density = 20.044247 Si / 1000 Ang^3
#
#
#
# Elastic Constant Matrix: (Units=GPa)
#
#
# Indices 1 2 3 4 5 6 
#
# 1 54.3392 17.3595 28.6589 0.0000 23.8522 0.0000
# 2 17.3595 127.4413 61.2338 0.0000 36.4844 0.0000
# 3 28.6589 61.2338 110.2936 0.0000 35.7242 0.0000
# 4 0.0000 0.0000 0.0000 18.7008 0.0000 -0.0312
# 5 23.8522 36.4844 35.7242 0.0000 36.9720 0.0000
# 6 0.0000 0.0000 0.0000 -0.0312 0.0000 12.4977
#
#
#
# Elastic Compliance Matrix: (Units=1/GPa)
#
#
# Indices 1 2 3 4 5 6 
#
# 1 0.026497 0.002601 -0.002854 0.000000 -0.016903 0.000000
# 2 0.002601 0.012372 -0.004435 0.000000 -0.009602 0.000000
# 3 -0.002854 -0.004435 0.014929 0.000000 -0.008207 0.000000
# 4 0.000000 0.000000 0.000000 0.053474 0.000000 0.000133
# 5 -0.016903 -0.009602 -0.008207 0.000000 0.055358 0.000000
# 6 0.000000 0.000000 0.000000 0.000133 0.000000 0.080015
#
#
# Mechanical properties :
#
#
# Convention : Reuss Voigt Hill
#
# Bulk Modulus (GPa) = 22.51097 56.28648 39.39873
# Shear Modulus (GPa) = 18.73864 25.95556 22.34710
#
# Velocity S-wave (km/s) = 3.06087 3.60239 3.34262
# Velocity P-wave (km/s) = 4.87308 6.74130 5.88184
#
# Compressibility (1/GPa) = 0.04442278
#
# Stress axis : x y z
#
# Youngs Moduli (GPa) = 37.74013 80.82666 66.98460
#
# Poissons Ratio (x) = -0.21025 0.19119
# Poissons Ratio (y) = -0.09817 0.29705
# Poissons Ratio (z) = 0.10772 0.35844
#
# Static dielectric constant tensor:
#      x y z
#    x 1.717630 0.000000 -0.021420 
#    y 0.000000 1.688460 0.000000 
#    z -0.021420 0.000000 1.730230 
# 
# From -- ./inp_files/67057.got.cif
#   From: 2010.05.17/outbox.cif.g08.bks.cpg/sg12_34_cif.got.tgz:67057.got - 2010.06.03 13:09:07.
