data_PCOD9220704
_publ_section_title
;
Structure prediction by ZEFSAII (Michael W. Deem and Ramdas Pophale) SiO2 
 PCOD9220704
Probable space group: C 2/M
;
_chemical_formula_sum "Si O2"
_cell_formula_units_Z 64
_cell_length_a 9.236415
_cell_length_b 23.148942
_cell_length_c 15.321416
_cell_angle_alpha 90.000000
_cell_angle_beta 92.617842
_cell_angle_gamma 90.000000
_cell_volume 3272.502754
_symmetry_space_group_name_H-M "C 2/M"
_symmetry_group_IT_number 12
_symmetry_cell_setting 'monoclinic'
loop_
_space_group_symop_operation_xyz
x,y,z
-x,y,-z
-x,-y,-z
x,-y,z
1/2+x,1/2+y,z
1/2-x,1/2+y,-z
1/2-x,1/2-y,-z
1/2+x,1/2-y,z
loop_
_atom_site_type_symbol
_atom_site_label
_atom_site_fract_x
_atom_site_fract_y
_atom_site_fract_z
Si Si1 0.007981 0.173663 0.270965
Si Si2 0.662072 0.567705 0.521498
Si Si3 0.715041 0.876563 0.309133
Si Si4 0.575289 0.830342 0.915294
Si Si5 0.726574 0.119432 0.641493
Si Si6 0.398460 0.282426 0.912467
Si Si7 0.499805 0.785771 0.605766
Si Si8 0.951555 0.566237 0.214545
O O1 0.113134 0.126333 0.316469
O O2 0.065330 0.184305 0.175409
O O3 0.014515 0.227836 0.337994
O O4 0.841696 0.155456 0.261733
O O5 0.500000 0.590201 0.500000
O O6 0.663221 0.500000 0.503563
O O7 0.710805 0.581374 0.619493
O O8 0.768190 0.598241 0.456833
O O9 0.623879 0.829749 0.363143
O O10 0.612496 0.913425 0.244160
O O11 0.452902 0.782408 0.887514
O O12 0.729062 0.796071 0.928724
O O13 0.601377 0.883487 0.851793
O O14 0.500000 0.855025 0.000000
O O15 0.647061 0.181384 0.638458
O O16 0.638886 0.075507 0.699265
O O17 0.500000 0.296442 0.000000
O O18 0.500000 0.777089 0.500000
O O19 0.943149 0.500000 0.184650
#
# Coordination Sequence:
#
# PCOD9220704 Si02
#       8
#     8   8   8   8   8   8   8   8
#     4  12  25  38  64  93 131 168 209 263 323 390
#     4  11  22  38  59  84 118 169 227 275 313 366
#     4  11  24  40  61  91 129 168 221 263 317 374
#     4  11  24  43  72 101 131 168 209 264 329 392
#     4  11  22  42  58  91 126 169 215 261 317 372
#     4  11  24  43  70 103 133 169 212 269 326 389
#     4  11  24  37  60  93 134 172 211 261 320 381
#     4  11  25  45  67  94 128 168 217 268 323 385
#
# _framework density 19.556898
#
# number of rings (size 3 to 8) (size 9 to 14) (size 15 to 20)
#    0.000    0.875    3.750    4.500    7.000    1.250 
#    0.000    1.875    0.000    0.375    0.000    0.000 
#    0.000    0.000    0.000    0.000    0.000    0.000 
#
# Total GULP energy -178601.747209 kJ/mol
# GULP energy per Si atom -5581.304600 kJ/mol
# Density = 1.951239 g / cm^3
# Si number density = 19.556898 Si / 1000 Ang^3
#
#
#
# Elastic Constant Matrix: (Units=GPa)
#
#
# Indices 1 2 3 4 5 6 
#
# 1 109.0646 33.5040 15.4910 0.0000 -6.5799 0.0000
# 2 33.5040 66.3655 18.1611 0.0000 7.8238 0.0000
# 3 15.4910 18.1611 69.5500 0.0000 -12.2322 0.0000
# 4 0.0000 0.0000 0.0000 17.0485 0.0000 4.9921
# 5 -6.5799 7.8238 -12.2322 0.0000 30.7022 0.0000
# 6 0.0000 0.0000 0.0000 4.9921 0.0000 15.4006
#
#
#
# Elastic Compliance Matrix: (Units=1/GPa)
#
#
# Indices 1 2 3 4 5 6 
#
# 1 0.011312 -0.006102 -0.000243 0.000000 0.003882 0.000000
# 2 -0.006102 0.020722 -0.005603 0.000000 -0.008821 0.000000
# 3 -0.000243 -0.005603 0.017353 0.000000 0.008290 0.000000
# 4 0.000000 0.000000 0.000000 0.064808 0.000000 -0.021008
# 5 0.003882 -0.008821 0.008290 0.000000 0.038953 0.000000
# 6 0.000000 0.000000 0.000000 -0.021008 0.000000 0.071742
#
#
# Mechanical properties :
#
#
# Convention : Reuss Voigt Hill
#
# Bulk Modulus (GPa) = 39.23060 42.14358 40.68709
# Shear Modulus (GPa) = 19.43376 24.48519 21.95948
#
# Velocity S-wave (km/s) = 3.15573 3.54220 3.35453
# Velocity P-wave (km/s) = 5.77767 6.19076 5.98778
#
# Compressibility (1/GPa) = 0.02549031
#
# Stress axis : x y z
#
# Youngs Moduli (GPa) = 88.40062 48.25853 57.62564
#
# Poissons Ratio (x) = 0.29447 0.01403
# Poissons Ratio (y) = 0.53941 0.32289
# Poissons Ratio (z) = 0.02152 0.27040
#
# Static dielectric constant tensor:
#      x y z
#    x 1.719610 0.000000 0.002960 
#    y 0.000000 1.678970 0.000000 
#    z 0.002960 0.000000 1.708880 
# 
# From -- ./inp_files/198891.got.cif
#   From: 2010.05.17/outbox.cif.g08.bks.cpg/sg12_100_cif.got.tgz:198891.got - 2010.06.03 13:09:07.
