data_PCOD9220085
_publ_section_title
;
Structure prediction by ZEFSAII (Michael W. Deem and Ramdas Pophale) SiO2 
 PCOD9220085
Probable space group: C 2/M
;
_chemical_formula_sum "Si O2"
_cell_formula_units_Z 64
_cell_length_a 9.988800
_cell_length_b 15.741876
_cell_length_c 29.705525
_cell_angle_alpha 90.000000
_cell_angle_beta 35.701466
_cell_angle_gamma 90.000000
_cell_volume 2725.800289
_symmetry_space_group_name_H-M "C 2/M"
_symmetry_group_IT_number 12
_symmetry_cell_setting 'monoclinic'
loop_
_space_group_symop_operation_xyz
x,y,z
-x,y,-z
-x,-y,-z
x,-y,z
1/2+x,1/2+y,z
1/2-x,1/2+y,-z
1/2-x,1/2-y,-z
1/2+x,1/2-y,z
loop_
_atom_site_type_symbol
_atom_site_label
_atom_site_fract_x
_atom_site_fract_y
_atom_site_fract_z
Si Si1 0.381554 0.667426 0.328079
Si Si2 0.391063 0.642063 0.174595
Si Si3 0.386654 0.849329 0.172280
Si Si4 0.390721 0.140610 0.332196
Si Si5 0.364695 0.151335 0.080407
Si Si6 0.645900 0.163124 0.552504
Si Si7 0.455501 0.411134 0.398290
Si Si8 0.352122 0.641424 0.083575
O O1 0.621563 0.623443 0.248917
O O2 0.401557 0.765108 0.308254
O O3 0.398287 0.660446 0.377603
O O4 0.125019 0.647290 0.382175
O O5 0.383993 0.746116 0.177865
O O6 0.605688 0.619323 0.146555
O O7 0.431944 0.616545 0.111568
O O8 0.149311 0.607833 0.258220
O O9 0.468979 0.871443 0.099710
O O10 0.583110 0.881988 0.151779
O O11 0.313766 0.151803 0.405154
O O12 0.204337 0.095303 0.352471
O O13 0.363081 0.254905 0.079708
O O14 0.500000 0.121706 0.000000
O O15 0.750000 0.250000 0.500000
O O16 0.783268 0.094517 0.486595
O O17 0.425735 0.500000 0.381543
O O18 0.500000 0.612451 0.000000
#
# Coordination Sequence:
#
# PCOD9220085 Si02
#       8
#     8   8   8   8   8   8   8   8
#     4  11  21  38  61  85 118 158 204 249 297 362
#     4   9  17  27  44  71 103 146 193 234 281 347
#     4   9  17  27  44  71 103 146 193 234 281 347
#     4  11  21  38  61  85 118 158 204 249 297 362
#     4   9  15  24  39  66 106 143 181 233 290 341
#     4  12  23  38  62  88 113 155 204 249 299 362
#     4  12  27  42  62  92 124 154 197 258 308 353
#     4   9  15  24  39  64 105 151 186 225 286 348
#
# _framework density 23.479341999999999
#
# number of rings (size 3 to 8) (size 9 to 14) (size 15 to 20)
#    0.000    1.750    2.500    3.000    0.000    9.000 
#    0.000    0.000    0.000    0.000    0.000    0.000 
#    0.000   19.000    0.000    0.000    0.000    0.000 
#
# Total GULP energy -178563.517119 kJ/mol
# GULP energy per Si atom -5580.109910 kJ/mol
# Density = 2.342590 g / cm^3
# Si number density = 23.479342 Si / 1000 Ang^3
#
#
#
# Elastic Constant Matrix: (Units=GPa)
#
#
# Indices 1 2 3 4 5 6 
#
# 1 77.4463 -6.3037 -12.0227 0.0030 -8.9839 -0.0002
# 2 -6.3037 39.1998 -3.4411 0.0004 -3.4674 0.0004
# 3 -12.0227 -3.4411 67.4488 0.0001 -5.2391 -0.0002
# 4 0.0030 0.0004 0.0001 -10.4533 0.0004 4.7156
# 5 -8.9839 -3.4674 -5.2391 0.0004 43.4731 0.0004
# 6 -0.0002 0.0004 -0.0002 4.7156 0.0004 0.0957
#
#
#
# Elastic Compliance Matrix: (Units=1/GPa)
#
#
# Indices 1 2 3 4 5 6 
#
# 1 0.013995 0.002812 0.002907 0.000000 0.003467 -0.000009
# 2 0.002812 0.026405 0.002077 -0.000002 0.002937 -0.000009
# 3 0.002907 0.002077 0.015656 0.000000 0.002653 -0.000002
# 4 0.000000 -0.000002 0.000000 -0.004118 -0.000002 0.202934
# 5 0.003467 0.002937 0.002653 -0.000002 0.024273 -0.000009
# 6 -0.000009 -0.000009 -0.000002 0.202934 -0.000009 0.449856
#
#
# Mechanical properties :
#
#
# Convention : Reuss Voigt Hill
#
# Bulk Modulus (GPa) = 13.95716 15.61778 14.78747
# Shear Modulus (GPa) = 9.35704 20.34725 14.85214
#
# Velocity S-wave (km/s) = 1.99847 2.94700 2.51781
# Velocity P-wave (km/s) = 3.35894 4.27153 3.84242
#
# Compressibility (1/GPa) = 0.07164782
#
# Stress axis : x y z
#
# Youngs Moduli (GPa) = 71.45643 37.87205 63.87205
#
# Poissons Ratio (x) = -0.10651 -0.18569
# Poissons Ratio (y) = -0.20096 -0.13263
# Poissons Ratio (z) = -0.20774 -0.07864
#
# Static dielectric constant tensor:
#      x y z
#    x 1.852040 0.000000 -0.014620 
#    y 0.000000 1.913440 0.000000 
#    z -0.014620 0.000000 1.930710 
# 
# From -- ./inp_files/372933.got.cif
#   From: 2010.05.17/outbox.cif.g08.bks.cpg/sg12_187_cif.got.tgz:372933.got - 2010.06.03 13:09:07.
