data_PCOD9220373
_publ_section_title
;
Structure prediction by ZEFSAII (Michael W. Deem and Ramdas Pophale) SiO2 
 PCOD9220373
Probable space group: C 2/M
;
_chemical_formula_sum "Si O2"
_cell_formula_units_Z 44
_cell_length_a 14.919748
_cell_length_b 14.664622
_cell_length_c 16.383386
_cell_angle_alpha 90.000000
_cell_angle_beta 27.237466
_cell_angle_gamma 90.000000
_cell_volume 1640.579996
_symmetry_space_group_name_H-M "C 2/M"
_symmetry_group_IT_number 12
_symmetry_cell_setting 'monoclinic'
loop_
_space_group_symop_operation_xyz
x,y,z
-x,y,-z
-x,-y,-z
x,-y,z
1/2+x,1/2+y,z
1/2-x,1/2+y,-z
1/2-x,1/2-y,-z
1/2+x,1/2-y,z
loop_
_atom_site_type_symbol
_atom_site_label
_atom_site_fract_x
_atom_site_fract_y
_atom_site_fract_z
Si Si1 0.211285 0.099277 0.722254
Si Si2 0.000000 0.242898 0.500000
Si Si3 0.904679 0.605089 0.333297
Si Si4 0.021897 0.895943 0.336985
Si Si5 0.066674 0.637891 0.033553
Si Si6 0.690234 0.345542 0.927931
O O1 0.338443 0.186970 0.594562
O O2 0.213649 0.111078 0.819246
O O3 0.291400 0.000000 0.633686
O O4 0.982194 0.101636 0.886005
O O5 0.064785 0.176108 0.374729
O O6 0.940242 0.500000 0.327536
O O7 0.684981 0.630657 0.536467
O O8 0.916048 0.613259 0.225961
O O9 0.093548 0.659505 0.210424
O O10 0.214775 0.896596 0.125790
O O11 0.992484 0.000000 0.391153
O O12 0.095584 0.745763 0.002765
O O13 0.000000 0.602267 0.000000
#
# Coordination Sequence:
#
# PCOD9220373 Si02
#       6
#     8   4   8   8   8   8
#     4  11  22  40  69  96 130 175 221 277 333 395
#     4  12  22  42  62  96 134 166 230 274 332 394
#     4  11  25  42  65  98 134 178 222 270 334 395
#     4  11  24  42  65  96 134 175 219 275 332 391
#     4  12  23  43  69 102 132 173 225 275 330 397
#     4  11  21  44  67  93 132 172 221 272 337 398
#
# _framework density 26.819783999999999
#
# number of rings (size 3 to 8) (size 9 to 14) (size 15 to 20)
#    0.000    0.727    3.636    6.000    0.000    3.636 
#    3.273    0.000    0.000    0.000    0.000    0.000 
#    0.000    0.000    0.000    0.000    0.000    0.000 
#
# Total GULP energy -123278.353719 kJ/mol
# GULP energy per Si atom -5603.561533 kJ/mol
# Density = 2.675874 g / cm^3
# Si number density = 26.819784 Si / 1000 Ang^3
#
#
#
# Elastic Constant Matrix: (Units=GPa)
#
#
# Indices 1 2 3 4 5 6 
#
# 1 84.3649 -0.9986 17.1178 0.0010 -10.9684 -0.0009
# 2 -0.9986 170.9947 12.2862 0.0785 -2.5491 0.0189
# 3 17.1178 12.2862 167.7597 0.0357 -18.9759 0.0105
# 4 0.0010 0.0785 0.0357 -72.6409 -0.0087 -23.9031
# 5 -10.9684 -2.5491 -18.9759 -0.0087 41.0739 0.0002
# 6 -0.0009 0.0189 0.0105 -23.9031 0.0002 3.2505
#
#
#
# Elastic Compliance Matrix: (Units=1/GPa)
#
#
# Indices 1 2 3 4 5 6 
#
# 1 0.012425 0.000184 -0.000955 -0.000001 0.002888 0.000001
# 2 0.000184 0.005883 -0.000425 0.000005 0.000218 0.000004
# 3 -0.000955 -0.000425 0.006392 0.000002 0.002672 0.000000
# 4 -0.000001 0.000005 0.000002 -0.004026 0.000001 -0.029602
# 5 0.002888 0.000218 0.002672 0.000001 0.026365 -0.000006
# 6 0.000001 0.000004 0.000000 -0.029602 -0.000006 0.089960
#
#
# Mechanical properties :
#
#
# Convention : Reuss Voigt Hill
#
# Bulk Modulus (GPa) = 44.82584 53.32555 49.07569
# Shear Modulus (GPa) = 34.05393 20.65098 27.35246
#
# Velocity S-wave (km/s) = 3.56720 2.77788 3.19699
# Velocity P-wave (km/s) = 5.80659 5.49681 5.65382
#
# Compressibility (1/GPa) = 0.02230856
#
# Stress axis : x y z
#
# Youngs Moduli (GPa) = 80.48520 169.98147 156.45459
#
# Poissons Ratio (x) = -0.03131 0.14935
# Poissons Ratio (y) = -0.01483 0.06649
# Poissons Ratio (z) = 0.07683 0.07224
#
# Static dielectric constant tensor:
#      x y z
#    x 2.088420 -0.000010 -0.025600 
#    y -0.000010 2.064610 0.000020 
#    z -0.025600 0.000020 2.096950 
# 
# From -- ./inp_files/343935.got.cif
#   From: 2010.05.17/outbox.cif.g08.bks.cpg/sg12_172_cif.got.tgz:343935.got - 2010.06.03 13:09:07.
