data_PCOD9220999
_publ_section_title
;
Structure prediction by ZEFSAII (Michael W. Deem and Ramdas Pophale) SiO2 
 PCOD9220999
Probable space group: C 2/M
;
_chemical_formula_sum "Si O2"
_cell_formula_units_Z 36
_cell_length_a 13.745284
_cell_length_b 16.863103
_cell_length_c 11.291758
_cell_angle_alpha 90.000000
_cell_angle_beta 136.732355
_cell_angle_gamma 90.000000
_cell_volume 1793.913418
_symmetry_space_group_name_H-M "C 2/M"
_symmetry_group_IT_number 12
_symmetry_cell_setting 'monoclinic'
loop_
_space_group_symop_operation_xyz
x,y,z
-x,y,-z
-x,-y,-z
x,-y,z
1/2+x,1/2+y,z
1/2-x,1/2+y,-z
1/2-x,1/2-y,-z
1/2+x,1/2-y,z
loop_
_atom_site_type_symbol
_atom_site_label
_atom_site_fract_x
_atom_site_fract_y
_atom_site_fract_z
Si Si1 0.500000 0.808864 0.000000
Si Si2 0.055313 0.089434 0.912578
Si Si3 0.073694 0.410630 0.440441
Si Si4 0.666031 0.834976 0.922102
Si Si5 0.166962 0.800374 0.330146
O O1 0.603432 0.851912 0.998013
O O2 0.390816 0.755235 0.826184
O O3 0.974200 0.152530 0.758604
O O4 0.021045 0.000000 0.849644
O O5 0.220337 0.106143 0.036823
O O6 0.000000 0.100063 0.000000
O O7 0.084289 0.500000 0.396026
O O8 0.224747 0.371249 0.602058
O O9 0.000000 0.419143 0.500000
O O10 0.976590 0.348675 0.281073
O O11 0.750000 0.750000 0.000000
O O12 0.250000 0.750000 0.500000
#
# Coordination Sequence:
#
# PCOD9220999 Si02
#       5
#     4   8   8   8   8
#     4  12  24  42  68  98 132 170 222 262 330 392
#     4  11  22  40  67  99 131 166 214 275 327 373
#     4  11  23  39  63  98 131 166 218 277 325 375
#     4  12  22  41  66  96 135 171 216 265 326 393
#     4  12  22  41  66  94 127 171 217 267 318 386
#
# _framework density 20.067858000000001
#
# number of rings (size 3 to 8) (size 9 to 14) (size 15 to 20)
#    0.000    0.444    5.556    4.000    0.000    3.556 
#    0.000    2.222    0.000    1.333    0.000    0.000 
#    0.000    0.000    0.000    0.000    0.000    0.000 
#
# Total GULP energy -100240.870231 kJ/mol
# GULP energy per Si atom -5568.937235 kJ/mol
# Density = 2.002218 g / cm^3
# Si number density = 20.067858 Si / 1000 Ang^3
#
#
#
# Elastic Constant Matrix: (Units=GPa)
#
#
# Indices 1 2 3 4 5 6 
#
# 1 116.8513 17.6979 20.4342 0.0000 11.4634 0.0000
# 2 17.6979 75.8006 32.7776 0.0000 -5.9583 0.0000
# 3 20.4342 32.7776 134.2318 0.0000 10.8049 0.0000
# 4 0.0000 0.0000 0.0000 -2.7795 0.0000 -1.3337
# 5 11.4634 -5.9583 10.8049 0.0000 37.2833 0.0000
# 6 0.0000 0.0000 0.0000 -1.3337 0.0000 19.4484
#
#
#
# Elastic Compliance Matrix: (Units=1/GPa)
#
#
# Indices 1 2 3 4 5 6 
#
# 1 0.009289 -0.002122 -0.000654 0.000000 -0.003006 0.000000
# 2 -0.002122 0.015690 -0.003852 0.000000 0.004276 0.000000
# 3 -0.000654 -0.003852 0.008727 0.000000 -0.002944 0.000000
# 4 0.000000 0.000000 0.000000 -0.348313 0.000000 -0.023887
# 5 -0.003006 0.004276 -0.002944 0.000000 0.029282 0.000000
# 6 0.000000 0.000000 0.000000 -0.023887 0.000000 0.049780
#
#
# Mechanical properties :
#
#
# Convention : Reuss Voigt Hill
#
# Bulk Modulus (GPa) = 48.90325 52.07810 50.49067
# Shear Modulus (GPa) = -23.20485 27.85537 2.32526
#
# Velocity S-wave (km/s) = -3.40416 3.72971 1.07760
# Velocity P-wave (km/s) = 2.99513 6.67495 5.17329
#
# Compressibility (1/GPa) = 0.02044854
#
# Stress axis : x y z
#
# Youngs Moduli (GPa) = 107.65999 63.73477 114.58682
#
# Poissons Ratio (x) = 0.13526 0.07492
# Poissons Ratio (y) = 0.22848 0.44144
# Poissons Ratio (z) = 0.07039 0.24554
#
# Static dielectric constant tensor:
#      x y z
#    x 1.765060 0.000000 0.030260 
#    y 0.000000 1.811680 0.000000 
#    z 0.030260 0.000000 1.749710 
# 
# From -- ./inp_files/143969.got.cif
#   From: 2010.05.17/outbox.cif.g08.bks.cpg/sg12_72_cif.got.tgz:143969.got - 2010.06.03 13:09:07.
