data_PCOD9220206
_publ_section_title
;
Structure prediction by ZEFSAII (Michael W. Deem and Ramdas Pophale) SiO2 
 PCOD9220206
Probable space group: C 2/M
;
_chemical_formula_sum "Si O2"
_cell_formula_units_Z 56
_cell_length_a 29.732077
_cell_length_b 20.243704
_cell_length_c 9.420041
_cell_angle_alpha 90.000000
_cell_angle_beta 28.714168
_cell_angle_gamma 90.000000
_cell_volume 2724.002639
_symmetry_space_group_name_H-M "C 2/M"
_symmetry_group_IT_number 12
_symmetry_cell_setting 'monoclinic'
loop_
_space_group_symop_operation_xyz
x,y,z
-x,y,-z
-x,-y,-z
x,-y,z
1/2+x,1/2+y,z
1/2-x,1/2+y,-z
1/2-x,1/2-y,-z
1/2+x,1/2-y,z
loop_
_atom_site_type_symbol
_atom_site_label
_atom_site_fract_x
_atom_site_fract_y
_atom_site_fract_z
Si Si1 0.353179 0.000000 0.499543
Si Si2 0.052050 0.500000 0.074779
Si Si3 0.013659 0.922115 0.632411
Si Si4 0.338710 0.664158 0.196379
Si Si5 0.217434 0.355401 0.276910
Si Si6 0.798162 0.858062 0.762552
Si Si7 0.108240 0.751755 0.703506
Si Si8 0.790172 0.425959 0.255192
O O1 0.441325 0.000000 0.363527
O O2 0.292003 0.934267 0.687214
O O3 0.399994 0.000000 0.213947
O O4 0.099294 0.437171 0.023206
O O5 0.000000 0.913955 0.500000
O O6 0.113927 0.896216 0.409778
O O7 0.004261 0.000000 0.689760
O O8 0.932669 0.879516 0.932081
O O9 0.302161 0.672045 0.138383
O O10 0.356022 0.730180 0.238256
O O11 0.258804 0.622817 0.499262
O O12 0.127497 0.321920 0.597482
O O13 0.233550 0.335679 0.070869
O O14 0.838246 0.799413 0.554631
O O15 0.738754 0.903626 0.820778
O O16 0.000000 0.767600 0.000000
O O17 0.751334 0.500000 0.388011
#
# Coordination Sequence:
#
# PCOD9220206 Si02
#       8
#     4   4   8   8   8   8   8   8
#     4  11  24  39  71 100 123 168 214 277 325 371
#     4   9  20  41  59  96 131 162 216 265 313 375
#     4  11  22  34  61  99 141 165 204 262 321 385
#     4  11  21  40  62  94 124 173 212 260 315 384
#     4  12  25  41  67  93 129 166 221 263 326 384
#     4  11  23  41  63  95 130 173 207 259 326 387
#     4  11  25  44  64  90 125 171 220 269 316 377
#     4   9  19  36  62  89 132 161 202 257 313 385
#
# _framework density 20.557981999999999
#
# number of rings (size 3 to 8) (size 9 to 14) (size 15 to 20)
#    0.429    0.857    4.286    1.714    5.000    0.000 
#    0.000    3.571    0.000    0.000    0.000    0.000 
#    0.000    0.000    0.000    0.000    0.000    0.000 
#
# Total GULP energy -156363.863202 kJ/mol
# GULP energy per Si atom -5584.423686 kJ/mol
# Density = 2.051119 g / cm^3
# Si number density = 20.557982 Si / 1000 Ang^3
#
#
#
# Elastic Constant Matrix: (Units=GPa)
#
#
# Indices 1 2 3 4 5 6 
#
# 1 123.7665 12.4266 21.7942 0.0000 -5.8209 0.0000
# 2 12.4266 66.8903 14.9618 0.0000 9.4411 0.0000
# 3 21.7942 14.9618 52.8294 0.0000 2.3056 0.0000
# 4 0.0000 0.0000 0.0000 18.9252 0.0000 -1.9037
# 5 -5.8209 9.4411 2.3056 0.0000 25.4979 0.0000
# 6 0.0000 0.0000 0.0000 -1.9037 0.0000 22.9099
#
#
#
# Elastic Compliance Matrix: (Units=1/GPa)
#
#
# Indices 1 2 3 4 5 6 
#
# 1 0.008950 -0.001291 -0.003450 0.000000 0.002833 0.000000
# 2 -0.001291 0.016961 -0.004000 0.000000 -0.006213 0.000000
# 3 -0.003450 -0.004000 0.021540 0.000000 -0.001254 0.000000
# 4 0.000000 0.000000 0.000000 0.053285 0.000000 0.004428
# 5 0.002833 -0.006213 -0.001254 0.000000 0.042280 0.000000
# 6 0.000000 0.000000 0.000000 0.004428 0.000000 0.044017
#
#
# Mechanical properties :
#
#
# Convention : Reuss Voigt Hill
#
# Bulk Modulus (GPa) = 33.36777 37.98350 35.67563
# Shear Modulus (GPa) = 23.30948 26.42019 24.86483
#
# Velocity S-wave (km/s) = 3.37091 3.58879 3.48156
# Velocity P-wave (km/s) = 5.60509 5.97403 5.79249
#
# Compressibility (1/GPa) = 0.02996904
#
# Stress axis : x y z
#
# Youngs Moduli (GPa) = 111.72983 58.95772 46.42563
#
# Poissons Ratio (x) = 0.07610 0.16019
# Poissons Ratio (y) = 0.14423 0.18570
# Poissons Ratio (z) = 0.38551 0.23583
#
# Static dielectric constant tensor:
#      x y z
#    x 1.753610 0.000000 -0.007970 
#    y 0.000000 1.732050 0.000000 
#    z -0.007970 0.000000 1.713930 
# 
# From -- ./inp_files/113369.got.cif
#   From: 2010.05.17/outbox.cif.g08.bks.cpg/sg12_57_cif.got.tgz:113369.got - 2010.06.03 13:09:07.
