data_PCOD9220849
_publ_section_title
;
Structure prediction by ZEFSAII (Michael W. Deem and Ramdas Pophale) SiO2 
 PCOD9220849
Probable space group: C 2/M
;
_chemical_formula_sum "Si O2"
_cell_formula_units_Z 56
_cell_length_a 11.449963
_cell_length_b 30.600128
_cell_length_c 8.904072
_cell_angle_alpha 90.000000
_cell_angle_beta 61.755054
_cell_angle_gamma 90.000000
_cell_volume 2748.265051
_symmetry_space_group_name_H-M "C 2/M"
_symmetry_group_IT_number 12
_symmetry_cell_setting 'monoclinic'
loop_
_space_group_symop_operation_xyz
x,y,z
-x,y,-z
-x,-y,-z
x,-y,z
1/2+x,1/2+y,z
1/2-x,1/2+y,-z
1/2-x,1/2-y,-z
1/2+x,1/2-y,z
loop_
_atom_site_type_symbol
_atom_site_label
_atom_site_fract_x
_atom_site_fract_y
_atom_site_fract_z
Si Si1 0.648902 0.094871 0.911003
Si Si2 0.609181 0.296145 0.129645
Si Si3 0.250086 0.170957 0.342201
Si Si4 0.098492 0.129000 0.700712
Si Si5 0.929231 0.049477 0.706148
Si Si6 0.199874 0.651024 0.176082
Si Si7 0.521118 0.782321 0.651404
O O1 0.652712 0.135038 0.790603
O O2 0.775161 0.064507 0.795053
O O3 0.500000 0.075710 0.000000
O O4 0.680802 0.117273 0.051802
O O5 0.683208 0.305337 0.242233
O O6 0.497786 0.332982 0.184847
O O7 0.538654 0.249673 0.185949
O O8 0.712429 0.307726 0.936906
O O9 0.146755 0.144369 0.506963
O O10 0.330319 0.204555 0.396759
O O11 0.224270 0.128373 0.733328
O O12 0.013384 0.084957 0.747685
O O13 0.000000 0.049879 0.500000
O O14 0.936780 0.000000 0.759956
O O15 0.062897 0.673218 0.303457
O O16 0.500000 0.761485 0.500000
#
# Coordination Sequence:
#
# PCOD9220849 Si02
#       7
#     8   8   8   8   8   8   8
#     4  11  22  42  65  94 130 168 207 255 326 385
#     4  11  25  38  59  85 124 168 213 270 310 368
#     4  11  22  39  63  86 122 174 217 257 308 381
#     4  12  21  42  64  90 124 164 209 263 319 373
#     4  11  23  42  73 102 124 160 212 261 316 391
#     4  11  24  39  60  91 125 170 209 260 323 368
#     4  12  24  39  58  91 125 170 224 265 307 367
#
# _framework density 20.376491000000001
#
# number of rings (size 3 to 8) (size 9 to 14) (size 15 to 20)
#    0.000    0.714    7.143    2.143    2.000    1.429 
#    5.143    1.429    0.000    0.000    0.000    3.000 
#    0.000    0.000    0.000    0.000    0.000    0.000 
#
# Total GULP energy -156511.402392 kJ/mol
# GULP energy per Si atom -5589.692943 kJ/mol
# Density = 2.033011 g / cm^3
# Si number density = 20.376491 Si / 1000 Ang^3
#
#
#
# Elastic Constant Matrix: (Units=GPa)
#
#
# Indices 1 2 3 4 5 6 
#
# 1 96.0854 52.1975 9.6979 0.0000 -7.0881 0.0000
# 2 52.1975 92.3962 5.4585 0.0000 -10.5434 0.0000
# 3 9.6979 5.4585 55.4113 0.0000 -10.7269 0.0000
# 4 0.0000 0.0000 0.0000 9.0867 0.0000 -14.9225
# 5 -7.0881 -10.5434 -10.7269 0.0000 32.7729 0.0000
# 6 0.0000 0.0000 0.0000 -14.9225 0.0000 -1.6270
#
#
#
# Elastic Compliance Matrix: (Units=1/GPa)
#
#
# Indices 1 2 3 4 5 6 
#
# 1 0.015197 -0.008482 -0.001832 0.000000 -0.000042 0.000000
# 2 -0.008482 0.015979 0.000588 0.000000 0.003499 0.000000
# 3 -0.001832 0.000588 0.019505 0.000000 0.006177 0.000000
# 4 0.000000 0.000000 0.000000 0.006852 0.000000 -0.062841
# 5 -0.000042 0.003499 0.006177 0.000000 0.033651 0.000000
# 6 0.000000 0.000000 0.000000 -0.062841 0.000000 -0.038265
#
#
# Mechanical properties :
#
#
# Convention : Reuss Voigt Hill
#
# Bulk Modulus (GPa) = 32.02174 42.06674 37.04424
# Shear Modulus (GPa) = 60.40028 19.81579 40.10803
#
# Velocity S-wave (km/s) = 5.45037 3.12185 4.44142
# Velocity P-wave (km/s) = 7.44028 5.80380 6.67240
#
# Compressibility (1/GPa) = 0.03122878
#
# Stress axis : x y z
#
# Youngs Moduli (GPa) = 65.80310 62.58201 51.26770
#
# Poissons Ratio (x) = 0.53080 0.09394
# Poissons Ratio (y) = 0.55812 -0.03013
# Poissons Ratio (z) = 0.12057 -0.03678
#
# Static dielectric constant tensor:
#      x y z
#    x 1.738540 0.000000 -0.007110 
#    y 0.000000 1.697140 0.000000 
#    z -0.007110 0.000000 1.773710 
# 
# From -- ./inp_files/54610.got.cif
#   From: 2010.05.17/outbox.cif.g08.bks.cpg/sg12_28_cif.got.tgz:54610.got - 2010.06.03 13:09:07.
