data_PCOD9220760
_publ_section_title
;
Structure prediction by ZEFSAII (Michael W. Deem and Ramdas Pophale) SiO2 
 PCOD9220760
Probable space group: C 2/M
;
_chemical_formula_sum "Si O2"
_cell_formula_units_Z 60
_cell_length_a 23.020687
_cell_length_b 19.374105
_cell_length_c 9.371629
_cell_angle_alpha 90.000000
_cell_angle_beta 127.783210
_cell_angle_gamma 90.000000
_cell_volume 3303.436811
_symmetry_space_group_name_H-M "C 2/M"
_symmetry_group_IT_number 12
_symmetry_cell_setting 'monoclinic'
loop_
_space_group_symop_operation_xyz
x,y,z
-x,y,-z
-x,-y,-z
x,-y,z
1/2+x,1/2+y,z
1/2-x,1/2+y,-z
1/2-x,1/2-y,-z
1/2+x,1/2-y,z
loop_
_atom_site_type_symbol
_atom_site_label
_atom_site_fract_x
_atom_site_fract_y
_atom_site_fract_z
Si Si1 0.411173 0.136477 0.361469
Si Si2 0.775718 0.692220 0.720137
Si Si3 0.790139 0.889653 0.139869
Si Si4 0.857189 0.291401 0.562780
Si Si5 0.481758 0.314707 0.809665
Si Si6 0.866887 0.765121 0.093249
Si Si7 0.060764 0.921668 0.480069
Si Si8 0.318052 0.000000 0.155765
O O1 0.500000 0.137259 0.500000
O O2 0.378854 0.158514 0.467162
O O3 0.384112 0.197448 0.213730
O O4 0.379271 0.062244 0.270836
O O5 0.760924 0.628803 0.802092
O O6 0.815423 0.673818 0.632603
O O7 0.699741 0.732385 0.575774
O O8 0.826767 0.743434 0.887562
O O9 0.815712 0.818976 0.101328
O O10 0.863352 0.920215 0.320314
O O11 0.745849 0.939910 0.970907
O O12 0.930232 0.252653 0.726269
O O13 0.556615 0.299699 0.837001
O O14 0.439839 0.374311 0.659846
O O15 0.500000 0.332692 0.000000
O O16 0.000000 0.895024 0.500000
O O17 0.041350 0.000000 0.412181
#
# Coordination Sequence:
#
# PCOD9220760 Si02
#       8
#     8   8   8   8   8   8   8   4
#     4  12  24  43  70  95 127 169 216 269 313 380
#     4  11  22  38  62  96 129 160 202 264 328 377
#     4  12  22  40  67  94 125 169 214 267 311 379
#     4  11  23  38  64  98 128 161 205 271 326 369
#     4  12  23  39  64  96 130 160 209 272 328 378
#     4  12  22  39  69  98 119 161 221 269 315 370
#     4  11  23  40  62  89 126 171 213 257 315 389
#     4  12  27  42  63  99 133 170 219 257 321 387
#
# _framework density 18.162901999999999
#
# number of rings (size 3 to 8) (size 9 to 14) (size 15 to 20)
#    0.000    0.400    8.667    1.400    0.000    0.267 
#    0.000    0.667    2.933    0.800    0.000    0.000 
#    0.000    0.000    0.000    0.000    0.000    0.000 
#
# Total GULP energy -167027.288547 kJ/mol
# GULP energy per Si atom -5567.576285 kJ/mol
# Density = 1.812156 g / cm^3
# Si number density = 18.162902 Si / 1000 Ang^3
#
#
#
# Elastic Constant Matrix: (Units=GPa)
#
#
# Indices 1 2 3 4 5 6 
#
# 1 101.7557 38.0567 33.6058 0.0000 -5.5141 0.0000
# 2 38.0567 97.6366 33.2997 0.0000 -7.6817 0.0000
# 3 33.6058 33.2997 88.5763 0.0000 8.0972 0.0000
# 4 0.0000 0.0000 0.0000 23.8070 0.0000 8.5881
# 5 -5.5141 -7.6817 8.0972 0.0000 31.7586 0.0000
# 6 0.0000 0.0000 0.0000 8.5881 0.0000 10.9445
#
#
#
# Elastic Compliance Matrix: (Units=1/GPa)
#
#
# Indices 1 2 3 4 5 6 
#
# 1 0.012432 -0.003429 -0.003634 0.000000 0.002256 0.000000
# 2 -0.003429 0.013229 -0.004004 0.000000 0.003625 0.000000
# 3 -0.003634 -0.004004 0.014662 0.000000 -0.005338 0.000000
# 4 0.000000 0.000000 0.000000 0.058589 0.000000 -0.045975
# 5 0.002256 0.003625 -0.005338 0.000000 0.034117 0.000000
# 6 0.000000 0.000000 0.000000 -0.045975 0.000000 0.127447
#
#
# Mechanical properties :
#
#
# Convention : Reuss Voigt Hill
#
# Bulk Modulus (GPa) = 54.97656 55.32144 55.14900
# Shear Modulus (GPa) = 17.32064 25.50244 21.41154
#
# Velocity S-wave (km/s) = 3.09144 3.75119 3.43718
# Velocity P-wave (km/s) = 6.56330 7.02044 6.79571
#
# Compressibility (1/GPa) = 0.01818957
#
# Stress axis : x y z
#
# Youngs Moduli (GPa) = 80.43587 75.58903 68.20548
#
# Poissons Ratio (x) = 0.25920 0.24785
# Poissons Ratio (y) = 0.27582 0.27309
# Poissons Ratio (z) = 0.29229 0.30266
#
# Static dielectric constant tensor:
#      x y z
#    x 1.633620 0.000000 0.010160 
#    y 0.000000 1.607730 0.000000 
#    z 0.010160 0.000000 1.644400 
# 
# From -- ./inp_files/89856.got.cif
#   From: 2010.05.17/outbox.cif.g08.bks.cpg/sg12_45_cif.got.tgz:89856.got - 2010.06.03 13:09:07.
