data_PCOD9220508
_publ_section_title
;
Structure prediction by ZEFSAII (Michael W. Deem and Ramdas Pophale) SiO2 
 PCOD9220508
Probable space group: C 2/M
;
_chemical_formula_sum "Si O2"
_cell_formula_units_Z 32
_cell_length_a 15.802650
_cell_length_b 16.925013
_cell_length_c 12.216998
_cell_angle_alpha 90.000000
_cell_angle_beta 25.740841
_cell_angle_gamma 90.000000
_cell_volume 1419.105017
_symmetry_space_group_name_H-M "C 2/M"
_symmetry_group_IT_number 12
_symmetry_cell_setting 'monoclinic'
loop_
_space_group_symop_operation_xyz
x,y,z
-x,y,-z
-x,-y,-z
x,-y,z
1/2+x,1/2+y,z
1/2-x,1/2+y,-z
1/2-x,1/2-y,-z
1/2+x,1/2-y,z
loop_
_atom_site_type_symbol
_atom_site_label
_atom_site_fract_x
_atom_site_fract_y
_atom_site_fract_z
Si Si1 0.896504 0.087963 0.737583
Si Si2 0.296988 0.135653 0.688658
Si Si3 0.113198 0.293571 0.972220
Si Si4 0.576445 0.639564 0.740421
O O1 0.720002 0.149279 0.931306
O O2 0.000000 0.088650 0.500000
O O3 0.055981 0.111061 0.642064
O O4 0.824207 0.000000 0.845277
O O5 0.500000 0.109200 0.500000
O O6 0.269097 0.230645 0.740066
O O7 0.256043 0.118996 0.609171
O O8 0.114630 0.105162 0.972974
O O9 0.000000 0.330398 0.000000
O O10 0.964414 0.233709 0.205296
#
# Coordination Sequence:
#
# PCOD9220508 Si02
#       4
#     8   8   8   8
#     4  11  22  36  53  78 119 159 181 212 276 346
#     4   8  15  33  62  87 105 131 184 248 285 306
#     4   8  17  35  56  82 108 137 189 238 271 315
#     4   8  18  35  57  86 110 135 193 235 273 322
#
# _framework density 22.549423000000001
#
# number of rings (size 3 to 8) (size 9 to 14) (size 15 to 20)
#    1.500    1.750    0.000    1.500    0.000    0.500 
#    4.500    6.250    0.000    1.500    0.000    0.000 
#    0.000    0.000    0.000    0.000    0.000    0.000 
#
# Total GULP energy -89176.043396 kJ/mol
# GULP energy per Si atom -5573.502712 kJ/mol
# Density = 2.249810 g / cm^3
# Si number density = 22.549423 Si / 1000 Ang^3
#
#
#
# Elastic Constant Matrix: (Units=GPa)
#
#
# Indices 1 2 3 4 5 6 
#
# 1 229.6613 38.8042 39.6821 -0.0087 -11.7640 0.0044
# 2 38.8042 41.5810 -2.5339 -0.0175 5.3089 0.0072
# 3 39.6821 -2.5339 48.3561 -0.0106 -17.2750 0.0054
# 4 -0.0087 -0.0175 -0.0106 10.3240 0.0096 11.5162
# 5 -11.7640 5.3089 -17.2750 0.0096 34.3487 -0.0050
# 6 0.0044 0.0072 0.0054 11.5162 -0.0050 -2.8629
#
#
#
# Elastic Compliance Matrix: (Units=1/GPa)
#
#
# Indices 1 2 3 4 5 6 
#
# 1 0.006384 -0.006345 -0.005413 0.000001 0.000445 -0.000011
# 2 -0.006345 0.030839 0.005295 -0.000007 -0.004276 0.000057
# 3 -0.005413 0.005295 0.029798 -0.000004 0.012314 0.000025
# 4 0.000001 -0.000007 -0.000004 0.017653 0.000005 0.071009
# 5 0.000445 -0.004276 0.012314 0.000005 0.036120 -0.000030
# 6 -0.000011 0.000057 0.000025 0.071009 -0.000030 -0.063657
#
#
# Mechanical properties :
#
#
# Convention : Reuss Voigt Hill
#
# Bulk Modulus (GPa) = 18.48544 52.38926 35.43735
# Shear Modulus (GPa) = 56.75801 24.60504 40.68153
#
# Velocity S-wave (km/s) = 5.02246 3.30686 4.25208
# Velocity P-wave (km/s) = 6.46908 6.15337 6.31320
#
# Compressibility (1/GPa) = 0.05409664
#
# Stress axis : x y z
#
# Youngs Moduli (GPa) = 156.63609 32.42658 33.55899
#
# Poissons Ratio (x) = 0.20573 0.18164
# Poissons Ratio (y) = 0.99378 -0.17768
# Poissons Ratio (z) = 0.84780 -0.17169
#
# Static dielectric constant tensor:
#      x y z
#    x 1.821030 0.000000 0.017820 
#    y 0.000000 1.858340 0.000000 
#    z 0.017820 0.000000 1.901620 
# 
# From -- ./inp_files/148218.got.cif
#   From: 2010.05.17/outbox.cif.g08.bks.cpg/sg12_75_cif.got.tgz:148218.got - 2010.06.03 13:09:07.
