data_PCOD9220301
_publ_section_title
;
Structure prediction by ZEFSAII (Michael W. Deem and Ramdas Pophale) SiO2 
 PCOD9220301
Probable space group: C 2/M
;
_chemical_formula_sum "Si O2"
_cell_formula_units_Z 32
_cell_length_a 24.546778
_cell_length_b 11.113371
_cell_length_c 19.843422
_cell_angle_alpha 90.000000
_cell_angle_beta 162.293002
_cell_angle_gamma 90.000000
_cell_volume 1646.432239
_symmetry_space_group_name_H-M "C 2/M"
_symmetry_group_IT_number 12
_symmetry_cell_setting 'monoclinic'
loop_
_space_group_symop_operation_xyz
x,y,z
-x,y,-z
-x,-y,-z
x,-y,z
1/2+x,1/2+y,z
1/2-x,1/2+y,-z
1/2-x,1/2-y,-z
1/2+x,1/2-y,z
loop_
_atom_site_type_symbol
_atom_site_label
_atom_site_fract_x
_atom_site_fract_y
_atom_site_fract_z
Si Si1 0.725795 0.233996 0.648598
Si Si2 0.797597 0.500000 0.778292
Si Si3 0.436589 0.357396 0.028415
Si Si4 0.152508 0.000000 0.739402
Si Si5 0.818963 0.744930 0.157100
O O1 0.718983 0.377238 0.655300
O O2 0.810866 0.176646 0.816422
O O3 0.521368 0.191167 0.397701
O O4 0.870508 0.204458 0.760508
O O5 0.814255 0.500000 0.878611
O O6 0.000000 0.500000 0.000000
O O7 0.465534 0.500000 0.063920
O O8 0.325650 0.317368 0.963741
O O9 0.159609 0.119616 0.790237
O O10 0.000000 0.000000 0.500000
O O11 0.750000 0.750000 0.000000
#
# Coordination Sequence:
#
# PCOD9220301 Si02
#       5
#     8   4   8   4   8
#     4  11  21  41  69  96 124 167 221 275 320 389
#     4  12  18  36  74  98 118 158 227 287 318 362
#     4  11  24  42  65  95 127 171 222 265 322 396
#     4  12  20  44  68  96 125 170 230 274 309 391
#     4  12  26  41  66  98 137 172 211 272 341 392
#
# _framework density 19.435963999999998
#
# number of rings (size 3 to 8) (size 9 to 14) (size 15 to 20)
#    0.000    0.500    7.500    2.250    1.750    4.000 
#    0.000    0.000    0.000    0.000    0.000    0.000 
#    0.000    0.000    0.000    0.000    0.000    0.000 
#
# Total GULP energy -89214.551424 kJ/mol
# GULP energy per Si atom -5575.909464 kJ/mol
# Density = 1.939173 g / cm^3
# Si number density = 19.435964 Si / 1000 Ang^3
#
#
#
# Elastic Constant Matrix: (Units=GPa)
#
#
# Indices 1 2 3 4 5 6 
#
# 1 179.1146 45.7532 95.3007 -0.0013 22.1544 -0.0056
# 2 45.7532 132.7752 24.8643 -0.0025 1.4970 -0.0084
# 3 95.3007 24.8643 88.6638 -0.0010 15.0195 -0.0043
# 4 -0.0013 -0.0025 -0.0010 8.4856 -0.0007 -1.6931
# 5 22.1544 1.4970 15.0195 -0.0007 35.0431 -0.0032
# 6 -0.0056 -0.0084 -0.0043 -1.6931 -0.0032 97.7035
#
#
#
# Elastic Compliance Matrix: (Units=1/GPa)
#
#
# Indices 1 2 3 4 5 6 
#
# 1 0.013787 -0.002144 -0.013756 0.000000 -0.002729 0.000000
# 2 -0.002144 0.008297 -0.000207 0.000002 0.001090 0.000001
# 3 -0.013756 -0.000207 0.026577 0.000001 -0.002686 0.000000
# 4 0.000000 0.000002 0.000001 0.118256 0.000002 0.002049
# 5 -0.002729 0.001090 -0.002686 0.000002 0.031366 0.000001
# 6 0.000000 0.000001 0.000000 0.002049 0.000001 0.010271
#
#
# Mechanical properties :
#
#
# Convention : Reuss Voigt Hill
#
# Bulk Modulus (GPa) = 60.79800 81.37666 71.08733
# Shear Modulus (GPa) = 20.30465 43.88879 32.09672
#
# Velocity S-wave (km/s) = 3.23568 4.75713 4.06816
# Velocity P-wave (km/s) = 6.73117 8.49315 7.66297
#
# Compressibility (1/GPa) = 0.01644791
#
# Stress axis : x y z
#
# Youngs Moduli (GPa) = 72.53109 120.52829 37.62689
#
# Poissons Ratio (x) = 0.25844 0.51758
# Poissons Ratio (y) = 0.15552 0.00777
# Poissons Ratio (z) = 0.99771 0.02490
#
# Static dielectric constant tensor:
#      x y z
#    x 1.478890 0.000000 0.009930 
#    y 0.000000 1.692820 0.000000 
#    z 0.009930 0.000000 1.695210 
# 
# From -- ./inp_files/289505.got.cif
#   From: 2010.05.17/outbox.cif.g08.bks.cpg/sg12_145_cif.got.tgz:289505.got - 2010.06.03 13:09:07.
