data_PCOD9220758
_publ_section_title
;
Structure prediction by ZEFSAII (Michael W. Deem and Ramdas Pophale) SiO2 
 PCOD9220758
Probable space group: C 2/M
;
_chemical_formula_sum "Si O2"
_cell_formula_units_Z 48
_cell_length_a 21.937028
_cell_length_b 15.440614
_cell_length_c 12.486645
_cell_angle_alpha 90.000000
_cell_angle_beta 36.821914
_cell_angle_gamma 90.000000
_cell_volume 2534.860134
_symmetry_space_group_name_H-M "C 2/M"
_symmetry_group_IT_number 12
_symmetry_cell_setting 'monoclinic'
loop_
_space_group_symop_operation_xyz
x,y,z
-x,y,-z
-x,-y,-z
x,-y,z
1/2+x,1/2+y,z
1/2-x,1/2+y,-z
1/2-x,1/2-y,-z
1/2+x,1/2-y,z
loop_
_atom_site_type_symbol
_atom_site_label
_atom_site_fract_x
_atom_site_fract_y
_atom_site_fract_z
Si Si1 0.396271 0.605074 0.980505
Si Si2 0.734734 0.157171 0.389907
Si Si3 0.730101 0.349153 0.049641
Si Si4 0.888900 0.500000 0.517492
Si Si5 0.372397 0.000000 0.788851
Si Si6 0.881735 0.165950 0.378904
Si Si7 0.102110 0.100119 0.411104
O O1 0.407094 0.500000 0.986496
O O2 0.352188 0.616572 0.921796
O O3 0.504582 0.655822 0.831390
O O4 0.315061 0.648699 0.177247
O O5 0.653249 0.083391 0.481921
O O6 0.802581 0.137928 0.399191
O O7 0.668309 0.243987 0.506345
O O8 0.692964 0.354078 0.223131
O O9 0.750000 0.250000 0.000000
O O10 0.823933 0.413412 0.904030
O O11 0.848330 0.500000 0.696337
O O12 0.008870 0.500000 0.358620
O O13 0.891941 0.108896 0.471165
O O14 0.000000 0.136556 0.500000
O O15 0.107994 0.000000 0.371460
#
# Coordination Sequence:
#
# PCOD9220758 Si02
#       7
#     8   8   8   4   4   8   8
#     4  12  22  43  72 100 127 172 227 279 329 386
#     4  11  24  46  64  99 132 173 220 273 324 400
#     4  12  23  40  64  92 134 168 213 272 333 396
#     4  11  24  42  69  86 136 170 224 271 328 386
#     4  11  24  44  63  99 124 173 224 275 324 401
#     4  11  26  40  67 100 135 169 218 274 333 388
#     4  11  22  38  62  94 130 163 204 266 334 391
#
# _framework density 18.935955
#
# number of rings (size 3 to 8) (size 9 to 14) (size 15 to 20)
#    0.000    0.667    5.833    2.000    4.667    0.667 
#    0.000    0.000    0.000    1.000    0.000    0.000 
#    0.000    0.000    0.000    0.000    0.000    0.000 
#
# Total GULP energy -133868.371350 kJ/mol
# GULP energy per Si atom -5577.848806 kJ/mol
# Density = 1.889286 g / cm^3
# Si number density = 18.935955 Si / 1000 Ang^3
#
#
#
# Elastic Constant Matrix: (Units=GPa)
#
#
# Indices 1 2 3 4 5 6 
#
# 1 75.7455 14.8106 20.8839 0.0000 -1.6877 0.0000
# 2 14.8106 97.7654 51.5267 0.0000 -9.1150 0.0000
# 3 20.8839 51.5267 94.9629 0.0000 -4.4723 0.0000
# 4 0.0000 0.0000 0.0000 -5.3062 0.0000 -3.4565
# 5 -1.6877 -9.1150 -4.4723 0.0000 30.8208 0.0000
# 6 0.0000 0.0000 0.0000 -3.4565 0.0000 21.3578
#
#
#
# Elastic Compliance Matrix: (Units=1/GPa)
#
#
# Indices 1 2 3 4 5 6 
#
# 1 0.014089 -0.000685 -0.002718 0.000000 0.000174 0.000000
# 2 -0.000685 0.014665 -0.007656 0.000000 0.003188 0.000000
# 3 -0.002718 -0.007656 0.015273 0.000000 -0.000197 0.000000
# 4 0.000000 0.000000 0.000000 -0.170487 0.000000 -0.027591
# 5 0.000174 0.003188 -0.000197 0.000000 0.033370 0.000000
# 6 0.000000 0.000000 0.000000 -0.027591 0.000000 0.042356
#
#
# Mechanical properties :
#
#
# Convention : Reuss Voigt Hill
#
# Bulk Modulus (GPa) = 45.64655 49.21289 47.42972
# Shear Modulus (GPa) = -234.61670 21.45801 -106.57935
#
# Velocity S-wave (km/s) = -11.14312 3.36994 -7.51041
# Velocity P-wave (km/s) = 11.89120 6.41775 7.07860
#
# Compressibility (1/GPa) = 0.02190746
#
# Stress axis : x y z
#
# Youngs Moduli (GPa) = 70.97487 68.19024 65.47409
#
# Poissons Ratio (x) = 0.04674 0.17798
# Poissons Ratio (y) = 0.04865 0.50128
# Poissons Ratio (z) = 0.19293 0.52208
#
# Static dielectric constant tensor:
#      x y z
#    x 1.641360 0.000000 -0.008200 
#    y 0.000000 1.639420 0.000000 
#    z -0.008200 0.000000 1.699610 
# 
# From -- ./inp_files/167580.got.cif
#   From: 2010.05.17/outbox.cif.g08.bks.cpg/sg12_84_cif.got.tgz:167580.got - 2010.06.03 13:09:07.
