data_PCOD9220632
_publ_section_title
;
Structure prediction by ZEFSAII (Michael W. Deem and Ramdas Pophale) SiO2 
 PCOD9220632
Probable space group: C 2/M
;
_chemical_formula_sum "Si O2"
_cell_formula_units_Z 56
_cell_length_a 19.168405
_cell_length_b 7.949945
_cell_length_c 24.069158
_cell_angle_alpha 90.000000
_cell_angle_beta 41.710174
_cell_angle_gamma 90.000000
_cell_volume 2440.448212
_symmetry_space_group_name_H-M "C 2/M"
_symmetry_group_IT_number 12
_symmetry_cell_setting 'monoclinic'
loop_
_space_group_symop_operation_xyz
x,y,z
-x,y,-z
-x,-y,-z
x,-y,z
1/2+x,1/2+y,z
1/2-x,1/2+y,-z
1/2-x,1/2-y,-z
1/2+x,1/2-y,z
loop_
_atom_site_type_symbol
_atom_site_label
_atom_site_fract_x
_atom_site_fract_y
_atom_site_fract_z
Si Si1 0.730682 0.804783 0.251997
Si Si2 0.956487 0.694446 0.085425
Si Si3 0.951661 0.198264 0.291571
Si Si4 0.864061 0.701083 0.455978
Si Si5 0.338637 0.690339 0.989780
Si Si6 0.176979 0.804563 0.166757
Si Si7 0.228431 0.706306 0.377401
O O1 0.678804 0.709059 0.231864
O O2 0.704823 0.740821 0.328960
O O3 0.856098 0.789750 0.168528
O O4 0.699302 0.000000 0.267048
O O5 0.924883 0.500000 0.095816
O O6 0.055060 0.706016 0.068135
O O7 0.000000 0.758216 0.000000
O O8 0.939421 0.220764 0.365330
O O9 0.845754 0.265589 0.325828
O O10 0.066982 0.264102 0.208354
O O11 0.954269 0.000000 0.277904
O O12 0.877990 0.500000 0.446247
O O13 0.750000 0.750000 0.500000
O O14 0.855156 0.755653 0.525475
O O15 0.368677 0.500000 0.959853
O O16 0.276297 0.705341 0.084858
O O17 0.250000 0.750000 0.000000
O O18 0.189664 0.000000 0.143188
O O19 0.231743 0.500000 0.376113
#
# Coordination Sequence:
#
# PCOD9220632 Si02
#       7
#     8   8   8   8   8   8   8
#     4  11  22  37  60  85 114 153 197 240 287 348
#     4  11  23  41  63  86 117 154 194 240 290 343
#     4   9  19  36  58  82 112 150 190 235 289 342
#     4   9  16  31  55  82 113 146 185 233 285 341
#     4  12  26  43  64  89 118 152 194 240 290 346
#     4  11  23  40  59  83 119 156 189 238 295 343
#     4   8  17  34  56  84 111 144 188 235 284 339
#
# _framework density 22.946604000000001
#
# number of rings (size 3 to 8) (size 9 to 14) (size 15 to 20)
#    0.000    1.857    1.429    3.857    2.000    1.714 
#    0.000    7.857    0.000    4.286    0.000    0.000 
#    0.000    0.000    0.000    0.000    0.000    0.000 
#
# Total GULP energy -156395.926321 kJ/mol
# GULP energy per Si atom -5585.568797 kJ/mol
# Density = 2.289438 g / cm^3
# Si number density = 22.946604 Si / 1000 Ang^3
#
#
#
# Elastic Constant Matrix: (Units=GPa)
#
#
# Indices 1 2 3 4 5 6 
#
# 1 64.0080 -6.1364 3.6611 0.0000 11.0764 -0.0001
# 2 -6.1364 35.3842 -10.4290 -0.0001 1.1695 0.0002
# 3 3.6611 -10.4290 27.8590 0.0000 10.8228 0.0000
# 4 0.0000 -0.0001 0.0000 21.1775 0.0000 3.6726
# 5 11.0764 1.1695 10.8228 0.0000 47.4134 0.0000
# 6 -0.0001 0.0002 0.0000 3.6726 0.0000 18.2902
#
#
#
# Elastic Compliance Matrix: (Units=1/GPa)
#
#
# Indices 1 2 3 4 5 6 
#
# 1 0.016603 0.003193 0.000604 0.000000 -0.004095 0.000000
# 2 0.003193 0.033030 0.013773 0.000000 -0.004704 0.000000
# 3 0.000604 0.013773 0.045163 0.000000 -0.010790 0.000000
# 4 0.000000 0.000000 0.000000 0.048923 0.000000 -0.009824
# 5 -0.004095 -0.004704 -0.010790 0.000000 0.024627 0.000000
# 6 0.000000 0.000000 0.000000 -0.009824 0.000000 0.056646
#
#
# Mechanical properties :
#
#
# Convention : Reuss Voigt Hill
#
# Bulk Modulus (GPa) = 7.69611 11.27140 9.48375
# Shear Modulus (GPa) = 21.44403 26.71994 24.08198
#
# Velocity S-wave (km/s) = 3.06031 3.41609 3.24308
# Velocity P-wave (km/s) = 3.98102 4.52573 4.26209
#
# Compressibility (1/GPa) = 0.12993577
#
# Stress axis : x y z
#
# Youngs Moduli (GPa) = 60.22904 30.27584 22.14191
#
# Poissons Ratio (x) = -0.09667 -0.01338
# Poissons Ratio (y) = -0.19230 -0.30495
# Poissons Ratio (z) = -0.03640 -0.41698
#
# Static dielectric constant tensor:
#      x y z
#    x 1.874450 0.000000 0.045610 
#    y 0.000000 1.832130 0.000000 
#    z 0.045610 0.000000 1.897730 
# 
# From -- ./inp_files/342341.got.cif
#   From: 2010.05.17/outbox.cif.g08.bks.cpg/sg12_172_cif.got.tgz:342341.got - 2010.06.03 13:09:07.
