data_PCOD9220612
_publ_section_title
;
Structure prediction by ZEFSAII (Michael W. Deem and Ramdas Pophale) SiO2 
 PCOD9220612
Probable space group: C 2/M
;
_chemical_formula_sum "Si O2"
_cell_formula_units_Z 34
_cell_length_a 19.982030
_cell_length_b 7.203372
_cell_length_c 9.799345
_cell_angle_alpha 90.000000
_cell_angle_beta 59.030831
_cell_angle_gamma 90.000000
_cell_volume 1209.423563
_symmetry_space_group_name_H-M "C 2/M"
_symmetry_group_IT_number 12
_symmetry_cell_setting 'monoclinic'
loop_
_space_group_symop_operation_xyz
x,y,z
-x,y,-z
-x,-y,-z
x,-y,z
1/2+x,1/2+y,z
1/2-x,1/2+y,-z
1/2-x,1/2-y,-z
1/2+x,1/2-y,z
loop_
_atom_site_type_symbol
_atom_site_label
_atom_site_fract_x
_atom_site_fract_y
_atom_site_fract_z
Si Si1 0.469815 0.785159 0.189427
Si Si2 0.865785 0.724839 0.913754
Si Si3 0.000000 0.000000 0.500000
Si Si4 0.807456 0.275969 0.269784
Si Si5 0.859747 0.714760 0.622543
O O1 0.544706 0.704386 0.186313
O O2 0.382495 0.708762 0.277036
O O3 0.463246 0.000000 0.239320
O O4 0.500000 0.785454 0.000000
O O5 0.867145 0.500000 0.921300
O O6 0.830683 0.776537 0.805510
O O7 0.828348 0.788872 0.093449
O O8 0.934895 0.839422 0.519958
O O9 0.810695 0.500000 0.269347
O O10 0.718014 0.223636 0.388462
O O11 0.882965 0.500000 0.606029
#
# Coordination Sequence:
#
# PCOD9220612 Si02
#       5
#     8   8   2   8   8
#     4   7  11  22  46  80 115 148 172 202 264 334
#     4   8  15  28  52  87 117 143 176 217 272 327
#     4  12  26  44  56  74 104 148 198 224 276 318
#     4   9  15  29  54  86 119 144 171 216 276 329
#     4  11  22  37  58  81 105 145 186 232 267 318
#
# _framework density 28.112570000000002
#
# number of rings (size 3 to 8) (size 9 to 14) (size 15 to 20)
#    0.000    3.059    1.176    3.882    0.000    0.000 
#    2.118    0.000    2.588    3.529    0.000    0.000 
#    0.000    0.000    0.000    0.000    0.000    0.000 
#
# Total GULP energy -94877.311796 kJ/mol
# GULP energy per Si atom -5581.018341 kJ/mol
# Density = 2.804858 g / cm^3
# Si number density = 28.112570 Si / 1000 Ang^3
#
#
#
# Elastic Constant Matrix: (Units=GPa)
#
#
# Indices 1 2 3 4 5 6 
#
# 1 233.9438 22.2289 41.2390 0.0000 -70.2162 0.0000
# 2 22.2289 201.2095 -5.9202 0.0000 -31.6861 0.0000
# 3 41.2390 -5.9202 147.1516 0.0000 -32.0312 0.0000
# 4 0.0000 0.0000 0.0000 -9.5517 0.0000 -17.9482
# 5 -70.2162 -31.6861 -32.0312 0.0000 61.8505 0.0000
# 6 0.0000 0.0000 0.0000 -17.9482 0.0000 15.2006
#
#
#
# Elastic Compliance Matrix: (Units=1/GPa)
#
#
# Indices 1 2 3 4 5 6 
#
# 1 0.006530 0.000465 -0.000164 0.000000 0.007567 0.000000
# 2 0.000465 0.005553 0.000932 0.000000 0.003856 0.000000
# 3 -0.000164 0.000932 0.007825 0.000000 0.004343 0.000000
# 4 0.000000 0.000000 0.000000 -0.032527 0.000000 -0.038406
# 5 0.007567 0.003856 0.004343 0.000000 0.028983 0.000000
# 6 0.000000 0.000000 0.000000 -0.038406 0.000000 0.020439
#
#
# Mechanical properties :
#
#
# Convention : Reuss Voigt Hill
#
# Bulk Modulus (GPa) = 44.69207 77.48892 61.09050
# Shear Modulus (GPa) = 119.62927 48.48369 84.05648
#
# Velocity S-wave (km/s) = 6.53039 4.15737 5.47402
# Velocity P-wave (km/s) = 8.53191 7.11819 7.85691
#
# Compressibility (1/GPa) = 0.02237533
#
# Stress axis : x y z
#
# Youngs Moduli (GPa) = 153.12843 180.07585 127.80010
#
# Poissons Ratio (x) = -0.08380 0.02099
# Poissons Ratio (y) = -0.07126 -0.11916
# Poissons Ratio (z) = 0.02515 -0.16790
#
# Static dielectric constant tensor:
#      x y z
#    x 2.146040 0.000000 0.059660 
#    y 0.000000 2.168050 0.000000 
#    z 0.059660 0.000000 2.275320 
# 
# From -- ./inp_files/220487.got.cif
#   From: 2010.05.17/outbox.cif.g08.bks.cpg/sg12_111_cif.got.tgz:220487.got - 2010.06.03 13:09:07.
