data_PCOD9220336
_publ_section_title
;
Structure prediction by ZEFSAII (Michael W. Deem and Ramdas Pophale) SiO2 
 PCOD9220336
Probable space group: C 2/M
;
_chemical_formula_sum "Si O2"
_cell_formula_units_Z 40
_cell_length_a 26.216908
_cell_length_b 9.876456
_cell_length_c 13.371029
_cell_angle_alpha 90.000000
_cell_angle_beta 34.854537
_cell_angle_gamma 90.000000
_cell_volume 1978.608217
_symmetry_space_group_name_H-M "C 2/M"
_symmetry_group_IT_number 12
_symmetry_cell_setting 'monoclinic'
loop_
_space_group_symop_operation_xyz
x,y,z
-x,y,-z
-x,-y,-z
x,-y,z
1/2+x,1/2+y,z
1/2-x,1/2+y,-z
1/2-x,1/2-y,-z
1/2+x,1/2-y,z
loop_
_atom_site_type_symbol
_atom_site_label
_atom_site_fract_x
_atom_site_fract_y
_atom_site_fract_z
Si Si1 0.867907 0.500000 0.497833
Si Si2 0.833162 0.500000 0.877978
Si Si3 0.599996 0.208101 0.380106
Si Si4 0.949726 0.500000 0.872249
Si Si5 0.167577 0.000000 0.738831
Si Si6 0.097189 0.293031 0.891203
Si Si7 0.176534 0.000000 0.292756
Si Si8 0.254831 0.000000 0.391941
O O1 0.884778 0.629994 0.540534
O O2 0.768286 0.500000 0.618115
O O3 0.943776 0.500000 0.291642
O O4 0.836194 0.630995 0.801838
O O5 0.922500 0.500000 0.801099
O O6 0.755867 0.500000 0.083858
O O7 0.500000 0.190107 0.500000
O O8 0.621649 0.364081 0.361060
O O9 0.909668 0.368008 0.990856
O O10 0.118452 0.134929 0.854984
O O11 0.180647 0.000000 0.597574
O O12 0.179061 0.370705 0.705735
O O13 0.000000 0.317380 0.000000
O O14 0.212770 0.000000 0.348454
#
# Coordination Sequence:
#
# PCOD9220336 Si02
#       8
#     4   4   8   4   4   8   4   4
#     4  11  22  42  69  90 127 176 219 250 312 392
#     4  11  21  44  66  88 131 165 215 260 309 390
#     4  11  23  43  65  97 126 172 213 265 316 379
#     4  11  21  42  68  89 123 175 218 249 311 392
#     4  12  25  42  63 100 134 160 213 274 319 366
#     4  11  23  41  64  90 128 169 215 261 316 374
#     4  12  24  40  66  99 132 159 213 275 323 363
#     4  11  23  43  66  92 129 176 216 249 317 395
#
# _framework density 20.216229999999999
#
# number of rings (size 3 to 8) (size 9 to 14) (size 15 to 20)
#    0.000    0.800    4.000    6.000    0.000    1.600 
#    0.000    1.000    0.000    0.000    0.000    0.000 
#    0.000    0.000    0.000    0.000    0.000    0.000 
#
# Total GULP energy -111800.044655 kJ/mol
# GULP energy per Si atom -5590.002233 kJ/mol
# Density = 2.017022 g / cm^3
# Si number density = 20.216230 Si / 1000 Ang^3
#
#
#
# Elastic Constant Matrix: (Units=GPa)
#
#
# Indices 1 2 3 4 5 6 
#
# 1 65.8948 28.0119 26.1908 0.0000 11.9658 0.0000
# 2 28.0119 171.4164 34.4870 0.0000 25.5326 0.0000
# 3 26.1908 34.4870 83.5501 0.0000 21.1563 0.0000
# 4 0.0000 0.0000 0.0000 9.0322 0.0000 -7.9195
# 5 11.9658 25.5326 21.1563 0.0000 24.3427 0.0000
# 6 0.0000 0.0000 0.0000 -7.9195 0.0000 18.4726
#
#
#
# Elastic Compliance Matrix: (Units=1/GPa)
#
#
# Indices 1 2 3 4 5 6 
#
# 1 0.018152 -0.001592 -0.004098 0.000000 -0.003691 0.000000
# 2 -0.001592 0.007166 -0.000967 0.000000 -0.005894 0.000000
# 3 -0.004098 -0.000967 0.016522 0.000000 -0.011331 0.000000
# 4 0.000000 0.000000 0.000000 0.177399 0.000000 0.076054
# 5 -0.003691 -0.005894 -0.011331 0.000000 0.058924 0.000000
# 6 0.000000 0.000000 0.000000 0.076054 0.000000 0.086740
#
#
# Mechanical properties :
#
#
# Convention : Reuss Voigt Hill
#
# Bulk Modulus (GPa) = 35.05584 55.36008 45.20796
# Shear Modulus (GPa) = 12.89577 25.84760 19.37168
#
# Velocity S-wave (km/s) = 2.52839 3.57957 3.09888
# Velocity P-wave (km/s) = 5.08938 6.67292 5.93421
#
# Compressibility (1/GPa) = 0.02852592
#
# Stress axis : x y z
#
# Youngs Moduli (GPa) = 55.09153 139.54268 60.52661
#
# Poissons Ratio (x) = 0.22214 0.24806
# Poissons Ratio (y) = 0.08770 0.05850
# Poissons Ratio (z) = 0.22578 0.13487
#
# Static dielectric constant tensor:
#      x y z
#    x 1.718010 0.000000 -0.012880 
#    y 0.000000 1.686340 0.000000 
#    z -0.012880 0.000000 1.720100 
# 
# From -- ./inp_files/249568.got.cif
#   From: 2010.05.17/outbox.cif.g08.bks.cpg/sg12_125_cif.got.tgz:249568.got - 2010.06.03 13:09:07.
