data_PCOD9220587
_publ_section_title
;
Structure prediction by ZEFSAII (Michael W. Deem and Ramdas Pophale) SiO2 
 PCOD9220587
Probable space group: C 2/M
;
_chemical_formula_sum "Si O2"
_cell_formula_units_Z 40
_cell_length_a 8.586516
_cell_length_b 19.553022
_cell_length_c 18.639869
_cell_angle_alpha 90.000000
_cell_angle_beta 46.292323
_cell_angle_gamma 90.000000
_cell_volume 2262.229568
_symmetry_space_group_name_H-M "C 2/M"
_symmetry_group_IT_number 12
_symmetry_cell_setting 'monoclinic'
loop_
_space_group_symop_operation_xyz
x,y,z
-x,y,-z
-x,-y,-z
x,-y,z
1/2+x,1/2+y,z
1/2-x,1/2+y,-z
1/2-x,1/2-y,-z
1/2+x,1/2-y,z
loop_
_atom_site_type_symbol
_atom_site_label
_atom_site_fract_x
_atom_site_fract_y
_atom_site_fract_z
Si Si1 0.485318 0.419717 0.717158
Si Si2 0.681379 0.916916 0.500000
Si Si3 0.904069 0.673376 0.106853
Si Si4 0.363207 0.919717 0.717158
Si Si5 0.724629 0.673377 0.893147
O O1 0.427987 0.500000 0.729456
O O2 0.592463 0.396487 0.607343
O O3 0.284994 0.375005 0.804962
O O4 0.673301 0.414924 0.717799
O O5 0.500000 0.895984 0.500000
O O6 0.585508 0.896487 0.607343
O O7 0.682728 0.000000 0.500000
O O8 0.816268 0.750000 0.122488
O O9 0.095679 0.675666 0.102881
O O10 0.000000 0.649590 0.000000
O O11 0.300118 0.875004 0.804963
O O12 0.383646 0.000000 0.729456
O O13 0.500000 0.649591 0.000000
#
# Coordination Sequence:
#
# PCOD9220587 Si02
#       5
#     8   8   8   8   8
#     4   9  17  32  55  81 107 135 169 208 250 298
#     4   7  12  26  50  77 104 135 167 201 246 297
#     4  11  22  37  55  74 100 134 172 212 258 307
#     4   9  17  32  55  81 107 135 169 208 250 298
#     4  11  22  37  55  74 100 134 172 212 258 307
#
# _framework density 17.681671999999999
#
# number of rings (size 3 to 8) (size 9 to 14) (size 15 to 20)
#    0.000    2.600    0.000    7.200    0.000    1.600 
#    0.000    2.000    0.000    3.600    0.000    0.000 
#    0.000    0.000    0.000    0.000    0.000    0.000 
#
# Total GULP energy -111470.401164 kJ/mol
# GULP energy per Si atom -5573.520058 kJ/mol
# Density = 1.764143 g / cm^3
# Si number density = 17.681672 Si / 1000 Ang^3
#
#
#
# Elastic Constant Matrix: (Units=GPa)
#
#
# Indices 1 2 3 4 5 6 
#
# 1 72.0134 36.4662 63.9452 -0.0005 0.2944 0.0000
# 2 36.4662 52.4284 92.1044 -0.0001 0.6251 0.0000
# 3 63.9452 92.1044 233.4436 -0.0002 1.5197 0.0000
# 4 -0.0005 -0.0001 -0.0002 104.1556 0.0003 0.9838
# 5 0.2944 0.6251 1.5197 0.0003 17.1526 0.0000
# 6 0.0000 0.0000 0.0000 0.9838 0.0000 16.5576
#
#
#
# Elastic Compliance Matrix: (Units=1/GPa)
#
#
# Indices 1 2 3 4 5 6 
#
# 1 0.021437 -0.014972 0.000034 0.000000 0.000175 0.000000
# 2 -0.014972 0.072612 -0.024546 0.000000 -0.000215 0.000000
# 3 0.000034 -0.024546 0.013961 0.000000 -0.000343 0.000000
# 4 0.000000 0.000000 0.000000 0.009606 0.000000 -0.000571
# 5 0.000175 -0.000215 -0.000343 0.000000 0.058335 0.000000
# 6 0.000000 0.000000 0.000000 -0.000571 0.000000 0.060429
#
#
# Mechanical properties :
#
#
# Convention : Reuss Voigt Hill
#
# Bulk Modulus (GPa) = 34.43372 82.54632 58.49002
# Shear Modulus (GPa) = 15.38319 38.59782 26.99051
#
# Velocity S-wave (km/s) = 2.95279 4.67725 3.91124
# Velocity P-wave (km/s) = 5.58048 8.71521 7.31767
#
# Compressibility (1/GPa) = 0.02904130
#
# Stress axis : x y z
#
# Youngs Moduli (GPa) = 46.64827 13.77186 71.62727
#
# Poissons Ratio (x) = 0.20620 -0.00244
# Poissons Ratio (y) = 0.69843 1.75817
# Poissons Ratio (z) = -0.00159 0.33805
#
# Static dielectric constant tensor:
#      x y z
#    x 1.593360 0.000000 0.000430 
#    y 0.000000 1.570220 0.000000 
#    z 0.000430 0.000000 1.631940 
# 
# From -- ./inp_files/120048.got.cif
#   From: 2010.05.17/outbox.cif.g08.bks.cpg/sg12_61_cif.got.tgz:120048.got - 2010.06.03 13:09:07.
