data_PCOD9220522
_publ_section_title
;
Structure prediction by ZEFSAII (Michael W. Deem and Ramdas Pophale) SiO2 
 PCOD9220522
Probable space group: C 2/M
;
_chemical_formula_sum "Si O2"
_cell_formula_units_Z 56
_cell_length_a 18.958733
_cell_length_b 8.388761
_cell_length_c 19.295619
_cell_angle_alpha 90.000000
_cell_angle_beta 104.316911
_cell_angle_gamma 90.000000
_cell_volume 2973.472874
_symmetry_space_group_name_H-M "C 2/M"
_symmetry_group_IT_number 12
_symmetry_cell_setting 'monoclinic'
loop_
_space_group_symop_operation_xyz
x,y,z
-x,y,-z
-x,-y,-z
x,-y,z
1/2+x,1/2+y,z
1/2-x,1/2+y,-z
1/2-x,1/2-y,-z
1/2+x,1/2-y,z
loop_
_atom_site_type_symbol
_atom_site_label
_atom_site_fract_x
_atom_site_fract_y
_atom_site_fract_z
Si Si1 0.364645 0.190442 0.137817
Si Si2 0.418416 0.805144 0.999672
Si Si3 0.704775 0.809542 0.138510
Si Si4 0.986358 0.807456 0.272404
Si Si5 0.349004 0.692593 0.726870
Si Si6 0.973196 0.805602 0.567822
Si Si7 0.810310 0.191758 0.567437
O O1 0.283719 0.250275 0.134125
O O2 0.421403 0.242948 0.210355
O O3 0.362687 0.000000 0.135210
O O4 0.393854 0.247680 0.070115
O O5 0.358781 0.752284 0.928962
O O6 0.419044 0.000000 0.999668
O O7 0.500000 0.752960 0.000000
O O8 0.685137 0.756616 0.211274
O O9 0.705206 0.000000 0.136070
O O10 0.066059 0.759736 0.262236
O O11 0.983591 0.756274 0.352451
O O12 0.984164 0.000000 0.270507
O O13 0.347761 0.500000 0.728553
O O14 0.306567 0.744848 0.646780
O O15 0.889782 0.758927 0.559800
O O16 0.000000 0.747567 0.500000
O O17 0.975670 0.000000 0.567346
O O18 0.750000 0.250000 0.500000
O O19 0.808784 0.000000 0.567885
#
# Coordination Sequence:
#
# PCOD9220522 Si02
#       7
#     8   8   8   8   8   8   8
#     4  11  22  36  55  79 111 143 170 213 271 317
#     4   9  19  36  57  80 105 136 175 217 260 311
#     4  11  22  36  56  80 106 138 180 222 260 314
#     4   9  18  34  55  78 105 138 178 219 257 311
#     4   9  19  36  54  75 108 144 178 221 270 314
#     4   8  15  30  52  75 100 133 172 212 255 303
#     4   9  18  32  51  76 106 139 174 215 261 310
#
# _framework density 18.833197999999999
#
# number of rings (size 3 to 8) (size 9 to 14) (size 15 to 20)
#    0.000    2.571    0.000    3.857    0.000    3.429 
#    0.000    5.714    0.000    6.000    0.000    0.000 
#    0.000    0.000    0.000    0.000    0.000    0.000 
#
# Total GULP energy -156224.112647 kJ/mol
# GULP energy per Si atom -5579.432595 kJ/mol
# Density = 1.879033 g / cm^3
# Si number density = 18.833198 Si / 1000 Ang^3
#
#
#
# Elastic Constant Matrix: (Units=GPa)
#
#
# Indices 1 2 3 4 5 6 
#
# 1 151.5940 25.5992 134.6745 0.0000 -3.7688 0.0000
# 2 25.5992 16.6621 28.5616 0.0000 0.0207 0.0000
# 3 134.6745 28.5616 226.0699 0.0000 -1.4047 0.0000
# 4 0.0000 0.0000 0.0000 20.0115 0.0000 1.6314
# 5 -3.7688 0.0207 -1.4047 0.0000 41.0058 0.0000
# 6 0.0000 0.0000 0.0000 1.6314 0.0000 7.4839
#
#
#
# Elastic Compliance Matrix: (Units=1/GPa)
#
#
# Indices 1 2 3 4 5 6 
#
# 1 0.015269 -0.010059 -0.007818 0.000000 0.001141 0.000000
# 2 -0.010059 0.083239 -0.004531 0.000000 -0.001122 0.000000
# 3 -0.007818 -0.004531 0.009651 0.000000 -0.000386 0.000000
# 4 0.000000 0.000000 0.000000 0.050875 0.000000 -0.011090
# 5 0.001141 -0.001122 -0.000386 0.000000 0.024479 0.000000
# 6 0.000000 0.000000 0.000000 -0.011090 0.000000 0.136038
#
#
# Mechanical properties :
#
#
# Convention : Reuss Voigt Hill
#
# Bulk Modulus (GPa) = 15.78713 85.77742 50.78227
# Shear Modulus (GPa) = 12.97078 27.39962 20.18520
#
# Velocity S-wave (km/s) = 2.62719 3.81840 3.27737
# Velocity P-wave (km/s) = 4.19567 8.06752 6.42995
#
# Compressibility (1/GPa) = 0.06334273
#
# Stress axis : x y z
#
# Youngs Moduli (GPa) = 65.49150 12.01362 103.61649
#
# Poissons Ratio (x) = 0.12084 0.81010
# Poissons Ratio (y) = 0.65876 0.46950
# Poissons Ratio (z) = 0.51203 0.05444
#
# Static dielectric constant tensor:
#      x y z
#    x 1.626530 0.000000 -0.005840 
#    y 0.000000 1.653340 0.000000 
#    z -0.005840 0.000000 1.654850 
# 
# From -- ./inp_files/275689.got.cif
#   From: 2010.05.17/outbox.cif.g08.bks.cpg/sg12_138_cif.got.tgz:275689.got - 2010.06.03 13:09:07.
