data_PCOD9220900
_publ_section_title
;
Structure prediction by ZEFSAII (Michael W. Deem and Ramdas Pophale) SiO2 
 PCOD9220900
Probable space group: C 2/M
;
_chemical_formula_sum "Si O2"
_cell_formula_units_Z 32
_cell_length_a 28.826420
_cell_length_b 8.725883
_cell_length_c 11.067965
_cell_angle_alpha 90.000000
_cell_angle_beta 30.622021
_cell_angle_gamma 90.000000
_cell_volume 1418.087755
_symmetry_space_group_name_H-M "C 2/M"
_symmetry_group_IT_number 12
_symmetry_cell_setting 'monoclinic'
loop_
_space_group_symop_operation_xyz
x,y,z
-x,y,-z
-x,-y,-z
x,-y,z
1/2+x,1/2+y,z
1/2-x,1/2+y,-z
1/2-x,1/2-y,-z
1/2+x,1/2-y,z
loop_
_atom_site_type_symbol
_atom_site_label
_atom_site_fract_x
_atom_site_fract_y
_atom_site_fract_z
Si Si1 0.539993 0.676478 0.044641
Si Si2 0.200974 0.318629 0.804223
Si Si3 0.109452 0.820148 0.246405
Si Si4 0.369712 0.819270 0.544512
O O1 0.536853 0.500000 0.094505
O O2 0.471981 0.777750 0.276865
O O3 0.500000 0.681704 0.000000
O O4 0.641527 0.739465 0.833081
O O5 0.204171 0.500000 0.780876
O O6 0.301209 0.251836 0.600188
O O7 0.148487 0.272796 0.045900
O O8 0.147780 0.757967 0.286830
O O9 0.000000 0.805279 0.500000
O O10 0.131518 0.000000 0.181971
O O11 0.357207 0.000000 0.580434
#
# Coordination Sequence:
#
# PCOD9220900 Si02
#       4
#     8   8   8   8
#     4  11  25  46  69  94 127 167 215 269 322 377
#     4  12  25  42  67  97 132 170 214 262 318 382
#     4  11  22  39  66  96 133 171 209 259 320 382
#     4  12  25  42  67  97 132 170 214 262 318 382
#
# _framework density 22.565598999999999
#
# number of rings (size 3 to 8) (size 9 to 14) (size 15 to 20)
#    0.000    0.500    2.500    6.750    0.000    4.000 
#    0.000    0.000    0.000    0.000    0.000    0.000 
#    0.000    0.000    0.000    0.000    0.000    0.000 
#
# Total GULP energy -89684.319657 kJ/mol
# GULP energy per Si atom -5605.269979 kJ/mol
# Density = 2.251424 g / cm^3
# Si number density = 22.565599 Si / 1000 Ang^3
#
#
#
# Elastic Constant Matrix: (Units=GPa)
#
#
# Indices 1 2 3 4 5 6 
#
# 1 137.8699 44.4279 8.3962 0.0000 -32.7378 0.0000
# 2 44.4279 112.0722 0.0035 0.0000 -24.4144 0.0000
# 3 8.3962 0.0035 38.2866 0.0000 -19.1307 0.0000
# 4 0.0000 0.0000 0.0000 29.5105 0.0000 -6.7419
# 5 -32.7378 -24.4144 -19.1307 0.0000 43.2683 0.0000
# 6 0.0000 0.0000 0.0000 -6.7419 0.0000 35.1843
#
#
#
# Elastic Compliance Matrix: (Units=1/GPa)
#
#
# Indices 1 2 3 4 5 6 
#
# 1 0.009444 -0.002377 0.001065 0.000000 0.006275 0.000000
# 2 -0.002377 0.011192 0.003565 0.000000 0.006093 0.000000
# 3 0.001065 0.003565 0.035032 0.000000 0.018306 0.000000
# 4 0.000000 0.000000 0.000000 0.035438 0.000000 0.006790
# 5 0.006275 0.006093 0.018306 0.000000 0.039392 0.000000
# 6 0.000000 0.000000 0.000000 0.006790 0.000000 0.029723
#
#
# Mechanical properties :
#
#
# Convention : Reuss Voigt Hill
#
# Bulk Modulus (GPa) = 16.61856 43.76485 30.19170
# Shear Modulus (GPa) = 28.44567 37.28604 32.86586
#
# Velocity S-wave (km/s) = 3.55431 4.06931 3.82050
# Velocity P-wave (km/s) = 4.92186 6.44326 5.73325
#
# Compressibility (1/GPa) = 0.06017370
#
# Stress axis : x y z
#
# Youngs Moduli (GPa) = 105.88213 89.34701 28.54537
#
# Poissons Ratio (x) = 0.21237 -0.03039
# Poissons Ratio (y) = 0.25168 -0.10176
# Poissons Ratio (z) = -0.11273 -0.31850
#
# Static dielectric constant tensor:
#      x y z
#    x 1.847680 0.000000 -0.005170 
#    y 0.000000 1.743300 0.000000 
#    z -0.005170 0.000000 1.826910 
# 
# From -- ./inp_files/138342.got.cif
#   From: 2010.05.17/outbox.cif.g08.bks.cpg/sg12_70_cif.got.tgz:138342.got - 2010.06.03 13:09:07.
