data_PCOD9220357
_publ_section_title
;
Structure prediction by ZEFSAII (Michael W. Deem and Ramdas Pophale) SiO2 
 PCOD9220357
Probable space group: C 2/M
;
_chemical_formula_sum "Si O2"
_cell_formula_units_Z 40
_cell_length_a 9.021274
_cell_length_b 14.873839
_cell_length_c 15.994339
_cell_angle_alpha 90.000000
_cell_angle_beta 62.940049
_cell_angle_gamma 90.000000
_cell_volume 1911.200684
_symmetry_space_group_name_H-M "C 2/M"
_symmetry_group_IT_number 12
_symmetry_cell_setting 'monoclinic'
loop_
_space_group_symop_operation_xyz
x,y,z
-x,y,-z
-x,-y,-z
x,-y,z
1/2+x,1/2+y,z
1/2-x,1/2+y,-z
1/2-x,1/2-y,-z
1/2+x,1/2-y,z
loop_
_atom_site_type_symbol
_atom_site_label
_atom_site_fract_x
_atom_site_fract_y
_atom_site_fract_z
Si Si1 0.198890 0.677353 0.444854
Si Si2 0.328443 0.000000 0.994011
Si Si3 0.323912 0.500000 0.497538
Si Si4 0.428881 0.500000 0.789020
Si Si5 0.372903 0.318283 0.228351
Si Si6 0.654275 0.000000 0.715505
Si Si7 0.400148 0.850872 0.842177
O O1 0.250000 0.750000 0.500000
O O2 0.290914 0.586421 0.449319
O O3 0.263370 0.708925 0.337600
O O4 0.000000 0.664134 0.500000
O O5 0.329923 0.910034 0.936990
O O6 0.500000 0.000000 0.000000
O O7 0.187011 0.000000 0.099299
O O8 0.500000 0.500000 0.500000
O O9 0.195969 0.500000 0.607620
O O10 0.536521 0.410053 0.768481
O O11 0.314971 0.500000 0.734972
O O12 0.507692 0.243634 0.166609
O O13 0.247063 0.335749 0.185305
O O14 0.542676 0.914159 0.766240
#
# Coordination Sequence:
#
# PCOD9220357 Si02
#       7
#     8   4   4   4   8   4   8
#     4  12  25  43  66  98 142 181 231 279 319 397
#     4  11  25  51  71 102 131 171 221 280 350 403
#     4  12  24  38  63  97 131 180 228 274 334 391
#     4  12  25  45  73  96 140 170 228 282 334 416
#     4  12  25  44  68 105 133 185 223 272 342 389
#     4  11  21  43  65  93 133 181 219 284 335 389
#     4  11  25  44  71  96 137 172 224 279 335 408
#
# _framework density 20.929251000000001
#
# number of rings (size 3 to 8) (size 9 to 14) (size 15 to 20)
#    0.000    0.400    2.000    8.700    0.000    2.400 
#    0.000    0.000    0.000    0.000    0.000    0.000 
#    0.000    0.000    0.000    0.000    0.000    0.000 
#
# Total GULP energy -111963.189814 kJ/mol
# GULP energy per Si atom -5598.159491 kJ/mol
# Density = 2.088161 g / cm^3
# Si number density = 20.929251 Si / 1000 Ang^3
#
#
#
# Elastic Constant Matrix: (Units=GPa)
#
#
# Indices 1 2 3 4 5 6 
#
# 1 154.3456 54.2648 36.2901 0.0000 20.5497 0.0000
# 2 54.2648 136.8352 11.7192 0.0000 15.6793 0.0000
# 3 36.2901 11.7192 113.7898 0.0000 19.0147 0.0000
# 4 0.0000 0.0000 0.0000 96.8801 0.0000 30.3280
# 5 20.5497 15.6793 19.0147 0.0000 38.4180 0.0000
# 6 0.0000 0.0000 0.0000 30.3280 0.0000 50.4595
#
#
#
# Elastic Compliance Matrix: (Units=1/GPa)
#
#
# Indices 1 2 3 4 5 6 
#
# 1 0.008240 -0.002839 -0.001954 0.000000 -0.002282 0.000000
# 2 -0.002839 0.008654 0.000382 0.000000 -0.002202 0.000000
# 3 -0.001954 0.000382 0.010055 0.000000 -0.004087 0.000000
# 4 0.000000 0.000000 0.000000 0.012714 0.000000 -0.007642
# 5 -0.002282 -0.002202 -0.004087 0.000000 0.030172 0.000000
# 6 0.000000 0.000000 0.000000 -0.007642 0.000000 0.024411
#
#
# Mechanical properties :
#
#
# Convention : Reuss Voigt Hill
#
# Bulk Modulus (GPa) = 55.16742 67.72431 61.44586
# Shear Modulus (GPa) = 45.82505 57.33128 51.57817
#
# Velocity S-wave (km/s) = 4.68431 5.23950 4.96966
# Velocity P-wave (km/s) = 7.46145 8.30856 7.89637
#
# Compressibility (1/GPa) = 0.01812664
#
# Stress axis : x y z
#
# Youngs Moduli (GPa) = 121.35264 115.55925 99.45246
#
# Poissons Ratio (x) = 0.32808 0.19437
# Poissons Ratio (y) = 0.34453 -0.03801
# Poissons Ratio (z) = 0.23717 -0.04417
#
# Static dielectric constant tensor:
#      x y z
#    x 1.687150 0.000000 0.000300 
#    y 0.000000 1.708850 0.000000 
#    z 0.000300 0.000000 1.687950 
# 
# From -- ./inp_files/194516.got.cif
#   From: 2010.05.17/outbox.cif.g08.bks.cpg/sg12_98_cif.got.tgz:194516.got - 2010.06.03 13:09:07.
