data_PCOD9220214
_publ_section_title
;
Structure prediction by ZEFSAII (Michael W. Deem and Ramdas Pophale) SiO2 
 PCOD9220214
Probable space group: C 2/M
;
_chemical_formula_sum "Si O2"
_cell_formula_units_Z 48
_cell_length_a 8.619948
_cell_length_b 17.178382
_cell_length_c 19.066370
_cell_angle_alpha 90.000000
_cell_angle_beta 126.579698
_cell_angle_gamma 90.000000
_cell_volume 2267.179886
_symmetry_space_group_name_H-M "C 2/M"
_symmetry_group_IT_number 12
_symmetry_cell_setting 'monoclinic'
loop_
_space_group_symop_operation_xyz
x,y,z
-x,y,-z
-x,-y,-z
x,-y,z
1/2+x,1/2+y,z
1/2-x,1/2+y,-z
1/2-x,1/2-y,-z
1/2+x,1/2-y,z
loop_
_atom_site_type_symbol
_atom_site_label
_atom_site_fract_x
_atom_site_fract_y
_atom_site_fract_z
Si Si1 0.960505 0.297530 0.155608
Si Si2 0.169287 0.090484 0.730637
Si Si3 0.672776 0.086371 0.989322
Si Si4 0.913039 0.675557 0.299196
Si Si5 0.645714 0.694552 0.602370
Si Si6 0.468519 0.619692 0.823735
O O1 0.822648 0.344462 0.066056
O O2 0.008765 0.210245 0.147349
O O3 0.139726 0.357315 0.207886
O O4 0.898277 0.284707 0.218954
O O5 0.071420 0.128141 0.635730
O O6 0.047476 0.101584 0.767801
O O7 0.212914 0.000000 0.732074
O O8 0.628681 0.000000 0.947523
O O9 0.500000 0.102486 0.000000
O O10 0.879126 0.081191 0.083042
O O11 0.143894 0.667470 0.369134
O O12 0.840415 0.728480 0.344403
O O13 0.761638 0.605486 0.245471
O O14 0.500000 0.708324 0.500000
#
# Coordination Sequence:
#
# PCOD9220214 Si02
#       6
#     8   8   8   8   8   8
#     4  11  21  40  64  95 131 176 227 271 315 382
#     4  11  22  41  68  94 134 177 215 267 338 400
#     4  11  24  40  64  97 135 181 225 266 325 387
#     4  11  22  39  65  99 130 168 220 276 334 382
#     4  11  22  41  68  98 133 167 217 276 336 404
#     4  12  21  40  63  97 132 174 226 273 315 387
#
# _framework density 21.171676999999999
#
# number of rings (size 3 to 8) (size 9 to 14) (size 15 to 20)
#    0.000    0.833    6.667    2.000    0.000    1.000 
#    0.000    9.167    0.000    1.000    0.000    0.000 
#    0.000    0.000    0.000    0.000    0.000    0.000 
#
# Total GULP energy -133733.187410 kJ/mol
# GULP energy per Si atom -5572.216142 kJ/mol
# Density = 2.112349 g / cm^3
# Si number density = 21.171677 Si / 1000 Ang^3
#
#
#
# Elastic Constant Matrix: (Units=GPa)
#
#
# Indices 1 2 3 4 5 6 
#
# 1 34.3629 -8.5175 41.7879 0.0000 13.2381 0.0000
# 2 -8.5175 100.0729 25.1828 0.0000 -8.4305 0.0000
# 3 41.7879 25.1828 141.4896 0.0000 4.1890 0.0000
# 4 0.0000 0.0000 0.0000 10.9081 0.0000 17.9678
# 5 13.2381 -8.4305 4.1890 0.0000 23.5593 0.0000
# 6 0.0000 0.0000 0.0000 17.9678 0.0000 -54.3969
#
#
#
# Elastic Compliance Matrix: (Units=1/GPa)
#
#
# Indices 1 2 3 4 5 6 
#
# 1 0.068973 0.008439 -0.020925 0.000000 -0.032016 0.000000
# 2 0.008439 0.011902 -0.004621 0.000000 0.000339 0.000000
# 3 -0.020925 -0.004621 0.013844 0.000000 0.007643 0.000000
# 4 0.000000 0.000000 0.000000 0.059372 0.000000 0.019611
# 5 -0.032016 0.000339 0.007643 0.000000 0.059198 0.000000
# 6 0.000000 0.000000 0.000000 0.019611 0.000000 -0.011906
#
#
# Mechanical properties :
#
#
# Convention : Reuss Voigt Hill
#
# Bulk Modulus (GPa) = 16.52735 43.64800 30.08768
# Shear Modulus (GPa) = 19.54915 10.51224 15.03069
#
# Velocity S-wave (km/s) = 3.04199 2.23070 2.66737
# Velocity P-wave (km/s) = 4.49016 5.22453 4.87120
#
# Compressibility (1/GPa) = 0.06050578
#
# Stress axis : x y z
#
# Youngs Moduli (GPa) = 14.49842 84.01716 72.23448
#
# Poissons Ratio (x) = -0.70902 1.51149
# Poissons Ratio (y) = -0.12235 0.33378
# Poissons Ratio (z) = 0.30338 0.38823
#
# Static dielectric constant tensor:
#      x y z
#    x 1.840360 0.000000 0.039730 
#    y 0.000000 1.773400 0.000000 
#    z 0.039730 0.000000 1.821190 
# 
# From -- ./inp_files/300938.got.cif
#   From: 2010.05.17/outbox.cif.g08.bks.cpg/sg12_151_cif.got.tgz:300938.got - 2010.06.03 13:09:07.
