data_PCOD9220219
_publ_section_title
;
Structure prediction by ZEFSAII (Michael W. Deem and Ramdas Pophale) SiO2 
 PCOD9220219
Probable space group: C 2/M
;
_chemical_formula_sum "Si O2"
_cell_formula_units_Z 36
_cell_length_a 15.189562
_cell_length_b 18.040885
_cell_length_c 14.531189
_cell_angle_alpha 90.000000
_cell_angle_beta 150.990923
_cell_angle_gamma 90.000000
_cell_volume 1931.076903
_symmetry_space_group_name_H-M "C 2/M"
_symmetry_group_IT_number 12
_symmetry_cell_setting 'monoclinic'
loop_
_space_group_symop_operation_xyz
x,y,z
-x,y,-z
-x,-y,-z
x,-y,z
1/2+x,1/2+y,z
1/2-x,1/2+y,-z
1/2-x,1/2-y,-z
1/2+x,1/2-y,z
loop_
_atom_site_type_symbol
_atom_site_label
_atom_site_fract_x
_atom_site_fract_y
_atom_site_fract_z
Si Si1 0.604094 0.085933 0.346894
Si Si2 0.207465 0.317649 0.029736
Si Si3 0.334360 0.183221 0.417706
Si Si4 0.934348 0.146232 0.542959
Si Si5 0.000000 0.769537 0.000000
O O1 0.429444 0.126257 0.144133
O O2 0.658212 0.129487 0.488952
O O3 0.770564 0.096582 0.428524
O O4 0.569956 0.000000 0.333449
O O5 0.250000 0.250000 0.000000
O O6 0.393453 0.355355 0.232245
O O7 0.112810 0.281817 0.032992
O O8 0.500000 0.166504 0.500000
O O9 0.364493 0.268310 0.477798
O O10 0.144740 0.183061 0.190039
O O11 0.000000 0.128544 0.500000
#
# Coordination Sequence:
#
# PCOD9220219 Si02
#       5
#     8   8   8   8   4
#     4  12  26  41  60  94 135 164 193 254 324 371
#     4  12  21  37  66  92 118 161 215 254 295 365
#     4  11  21  40  65  95 118 160 213 262 297 358
#     4  11  21  40  65  91 119 163 217 252 297 361
#     4  12  20  36  68  96 112 154 224 260 292 348
#
# _framework density 18.642447000000001
#
# number of rings (size 3 to 8) (size 9 to 14) (size 15 to 20)
#    0.000    0.444    8.889    2.000    0.000    1.778 
#    0.000    4.444    0.000    0.000    0.000    0.000 
#    0.000    0.000    0.000    0.000    0.000    0.000 
#
# Total GULP energy -100689.358667 kJ/mol
# GULP energy per Si atom -5593.853259 kJ/mol
# Density = 1.860002 g / cm^3
# Si number density = 18.642447 Si / 1000 Ang^3
#
#
#
# Elastic Constant Matrix: (Units=GPa)
#
#
# Indices 1 2 3 4 5 6 
#
# 1 54.6913 33.9528 11.7947 -0.0001 -5.7090 0.0000
# 2 33.9528 60.8542 40.9301 0.0000 -11.5646 0.0000
# 3 11.7947 40.9301 194.0858 -0.0001 -11.7896 0.0000
# 4 -0.0001 0.0000 -0.0001 12.0316 -0.0001 1.7984
# 5 -5.7090 -11.5646 -11.7896 -0.0001 31.4588 0.0000
# 6 0.0000 0.0000 0.0000 1.7984 0.0000 1.3470
#
#
#
# Elastic Compliance Matrix: (Units=1/GPa)
#
#
# Indices 1 2 3 4 5 6 
#
# 1 0.028565 -0.017292 0.001882 0.000000 -0.000468 0.000000
# 2 -0.017292 0.030653 -0.005034 0.000000 0.006244 0.000000
# 3 0.001882 -0.005034 0.006148 0.000000 0.000795 0.000000
# 4 0.000000 0.000000 0.000000 0.103837 0.000000 -0.138635
# 5 -0.000468 0.006244 0.000795 0.000000 0.034296 0.000000
# 6 0.000000 0.000000 0.000000 -0.138635 0.000000 0.927488
#
#
# Mechanical properties :
#
#
# Convention : Reuss Voigt Hill
#
# Bulk Modulus (GPa) = 40.85344 53.66518 47.25931
# Shear Modulus (GPa) = 4.23716 23.83106 14.03411
#
# Velocity S-wave (km/s) = 1.50924 3.57924 2.74670
# Velocity P-wave (km/s) = 4.99988 6.77719 5.95522
#
# Compressibility (1/GPa) = 0.02447774
#
# Stress axis : x y z
#
# Youngs Moduli (GPa) = 35.00794 32.62284 162.65692
#
# Poissons Ratio (x) = 0.56413 -0.30619
# Poissons Ratio (y) = 0.60537 0.81885
# Poissons Ratio (z) = -0.06590 0.16423
#
# Static dielectric constant tensor:
#      x y z
#    x 1.650210 0.000000 0.007010 
#    y 0.000000 1.600650 0.000000 
#    z 0.007010 0.000000 1.649290 
# 
# From -- ./inp_files/216171.got.cif
#   From: 2010.05.17/outbox.cif.g08.bks.cpg/sg12_109_cif.got.tgz:216171.got - 2010.06.03 13:09:07.
