data_PCOD9220802
_publ_section_title
;
Structure prediction by ZEFSAII (Michael W. Deem and Ramdas Pophale) SiO2 
 PCOD9220802
Probable space group: C 2/M
;
_chemical_formula_sum "Si O2"
_cell_formula_units_Z 38
_cell_length_a 12.981019
_cell_length_b 25.700811
_cell_length_c 8.123115
_cell_angle_alpha 90.000000
_cell_angle_beta 136.350302
_cell_angle_gamma 90.000000
_cell_volume 1870.608964
_symmetry_space_group_name_H-M "C 2/M"
_symmetry_group_IT_number 12
_symmetry_cell_setting 'monoclinic'
loop_
_space_group_symop_operation_xyz
x,y,z
-x,y,-z
-x,-y,-z
x,-y,z
1/2+x,1/2+y,z
1/2-x,1/2+y,-z
1/2-x,1/2-y,-z
1/2+x,1/2-y,z
loop_
_atom_site_type_symbol
_atom_site_label
_atom_site_fract_x
_atom_site_fract_y
_atom_site_fract_z
Si Si1 0.000000 0.500000 0.000000
Si Si2 0.580360 0.806309 0.254383
Si Si3 0.951721 0.582251 0.187792
Si Si4 0.258629 0.941557 0.283168
Si Si5 0.574022 0.300932 0.410342
Si Si6 0.000000 0.859487 0.000000
O O1 0.903887 0.546568 0.981545
O O2 0.489698 0.858002 0.196666
O O3 0.576067 0.761656 0.387091
O O4 0.752389 0.817555 0.406768
O O5 0.500000 0.784334 0.000000
O O6 0.838673 0.574442 0.206158
O O7 0.109716 0.557929 0.429796
O O8 0.139883 0.897633 0.183677
O O9 0.197004 0.000000 0.199549
O O10 0.500000 0.314160 0.500000
O O11 0.489833 0.326117 0.156063
#
# Coordination Sequence:
#
# PCOD9220802 Si02
#       6
#     2   8   8   8   8   4
#     4  12  20  36  64  98 130 154 224 282 316 376
#     4  11  24  43  67  99 131 174 224 273 325 393
#     4  11  22  38  67  96 127 168 223 272 321 383
#     4  11  23  43  64  94 128 177 218 270 330 388
#     4  11  27  45  65 100 138 174 220 273 336 401
#     4  12  25  45  66  96 141 177 216 272 338 402
#
# _framework density 20.314240999999999
#
# number of rings (size 3 to 8) (size 9 to 14) (size 15 to 20)
#    0.000    0.842    6.316    0.947    5.895    0.842 
#    0.000    0.000    0.000    2.526    0.000    0.000 
#    0.000    0.000    0.000    0.000    0.000    0.000 
#
# Total GULP energy -105833.757253 kJ/mol
# GULP energy per Si atom -5570.197750 kJ/mol
# Density = 2.026800 g / cm^3
# Si number density = 20.314241 Si / 1000 Ang^3
#
#
#
# Elastic Constant Matrix: (Units=GPa)
#
#
# Indices 1 2 3 4 5 6 
#
# 1 85.1869 46.6166 17.8643 0.0000 -23.8814 0.0000
# 2 46.6166 135.9111 2.5343 0.0000 -7.6230 0.0000
# 3 17.8643 2.5343 29.8840 0.0000 -7.7122 0.0000
# 4 0.0000 0.0000 0.0000 31.5792 0.0000 -16.4561
# 5 -23.8814 -7.6230 -7.7122 0.0000 27.7409 0.0000
# 6 0.0000 0.0000 0.0000 -16.4561 0.0000 22.4654
#
#
#
# Elastic Compliance Matrix: (Units=1/GPa)
#
#
# Indices 1 2 3 4 5 6 
#
# 1 0.020748 -0.006185 -0.008303 0.000000 0.013854 0.000000
# 2 -0.006185 0.009317 0.002363 0.000000 -0.002107 0.000000
# 3 -0.008303 0.002363 0.039374 0.000000 0.004448 0.000000
# 4 0.000000 0.000000 0.000000 0.051217 0.000000 0.037517
# 5 0.013854 -0.002107 0.004448 0.000000 0.048632 0.000000
# 6 0.000000 0.000000 0.000000 0.037517 0.000000 0.071995
#
#
# Mechanical properties :
#
#
# Convention : Reuss Voigt Hill
#
# Bulk Modulus (GPa) = 22.12909 42.77915 32.45412
# Shear Modulus (GPa) = 17.81929 28.62154 23.22042
#
# Velocity S-wave (km/s) = 2.96494 3.75766 3.38459
# Velocity P-wave (km/s) = 4.75796 6.31910 5.59327
#
# Compressibility (1/GPa) = 0.04518938
#
# Stress axis : x y z
#
# Youngs Moduli (GPa) = 48.19647 107.33283 25.39762
#
# Poissons Ratio (x) = 0.66382 0.21089
# Poissons Ratio (y) = 0.29808 -0.06002
# Poissons Ratio (z) = 0.40019 -0.25365
#
# Static dielectric constant tensor:
#      x y z
#    x 1.842800 0.000000 0.040030 
#    y 0.000000 1.818130 0.000000 
#    z 0.040030 0.000000 1.841480 
# 
# From -- ./inp_files/51087.got.cif
#   From: 2010.05.17/outbox.cif.g08.bks.cpg/sg12_26_cif.got.tgz:51087.got - 2010.06.03 13:09:07.
