data_PCOD9220215
_publ_section_title
;
Structure prediction by ZEFSAII (Michael W. Deem and Ramdas Pophale) SiO2 
 PCOD9220215
Probable space group: C 2/M
;
_chemical_formula_sum "Si O2"
_cell_formula_units_Z 56
_cell_length_a 9.770281
_cell_length_b 28.647404
_cell_length_c 11.582786
_cell_angle_alpha 90.000000
_cell_angle_beta 114.442772
_cell_angle_gamma 90.000000
_cell_volume 2951.383820
_symmetry_space_group_name_H-M "C 2/M"
_symmetry_group_IT_number 12
_symmetry_cell_setting 'monoclinic'
loop_
_space_group_symop_operation_xyz
x,y,z
-x,y,-z
-x,-y,-z
x,-y,z
1/2+x,1/2+y,z
1/2-x,1/2+y,-z
1/2-x,1/2-y,-z
1/2+x,1/2-y,z
loop_
_atom_site_type_symbol
_atom_site_label
_atom_site_fract_x
_atom_site_fract_y
_atom_site_fract_z
Si Si1 0.301204 0.101393 0.662696
Si Si2 0.192640 0.500000 0.652403
Si Si3 0.437827 0.341082 0.274953
Si Si4 0.424813 0.755928 0.589742
Si Si5 0.378817 0.000000 0.647944
Si Si6 0.256763 0.395228 0.632249
Si Si7 0.665154 0.701561 0.998246
Si Si8 0.574819 0.159546 0.756085
O O1 0.168338 0.129750 0.676818
O O2 0.287446 0.107291 0.518678
O O3 0.456984 0.122446 0.763969
O O4 0.308171 0.045861 0.679395
O O5 0.150419 0.500000 0.500688
O O6 0.263809 0.448305 0.682599
O O7 0.059831 0.500000 0.701648
O O8 0.500498 0.293403 0.353170
O O9 0.581857 0.372131 0.297791
O O10 0.357593 0.325845 0.129197
O O11 0.500000 0.773744 0.500000
O O12 0.250000 0.750000 0.500000
O O13 0.472611 0.794268 0.700029
O O14 0.138354 0.364908 0.663085
O O15 0.500000 0.708263 0.000000
O O16 0.750000 0.750000 0.000000
O O17 0.779484 0.673593 0.120353
#
# Coordination Sequence:
#
# PCOD9220215 Si02
#       8
#     8   4   8   8   4   8   8   8
#     4  11  23  38  67 100 131 165 209 265 334 383
#     4   9  18  35  65  94 130 167 206 257 323 397
#     4  12  25  42  61  91 134 168 216 264 314 384
#     4  12  24  37  58  92 129 161 198 255 324 379
#     4   9  18  37  61  98 131 162 206 261 322 399
#     4  11  21  40  64  99 130 167 209 261 326 387
#     4  12  28  47  65  87 126 178 231 261 309 375
#     4  12  23  40  67  91 128 174 216 262 309 386
#
# _framework density 18.974150999999999
#
# number of rings (size 3 to 8) (size 9 to 14) (size 15 to 20)
#    0.000    0.714    4.286    5.143    2.000    0.571 
#    0.000    2.143    0.000    5.143    0.000    0.000 
#    0.000    0.000    0.000    0.000    0.000    0.000 
#
# Total GULP energy -156303.367780 kJ/mol
# GULP energy per Si atom -5582.263135 kJ/mol
# Density = 1.893097 g / cm^3
# Si number density = 18.974151 Si / 1000 Ang^3
#
#
#
# Elastic Constant Matrix: (Units=GPa)
#
#
# Indices 1 2 3 4 5 6 
#
# 1 90.2674 52.3339 19.5016 0.0000 15.6479 0.0000
# 2 52.3339 170.3348 44.4014 0.0000 8.6838 0.0000
# 3 19.5016 44.4014 77.5901 0.0000 16.9748 0.0000
# 4 0.0000 0.0000 0.0000 21.7783 0.0000 42.2726
# 5 15.6479 8.6838 16.9748 0.0000 29.3066 0.0000
# 6 0.0000 0.0000 0.0000 42.2726 0.0000 166.3850
#
#
#
# Elastic Compliance Matrix: (Units=1/GPa)
#
#
# Indices 1 2 3 4 5 6 
#
# 1 0.014632 -0.004205 0.000189 0.000000 -0.006676 0.000000
# 2 -0.004205 0.008110 -0.004065 0.000000 0.002196 0.000000
# 3 0.000189 -0.004065 0.017091 0.000000 -0.008796 0.000000
# 4 0.000000 0.000000 0.000000 0.090593 0.000000 -0.023017
# 5 -0.006676 0.002196 -0.008796 0.000000 0.042131 0.000000
# 6 0.000000 0.000000 0.000000 -0.023017 0.000000 0.011858
#
#
# Mechanical properties :
#
#
# Convention : Reuss Voigt Hill
#
# Bulk Modulus (GPa) = 42.24223 63.40734 52.82479
# Shear Modulus (GPa) = 23.98457 58.29103 41.13780
#
# Velocity S-wave (km/s) = 3.55923 5.54869 4.66133
# Velocity P-wave (km/s) = 6.26116 8.63371 7.54132
#
# Compressibility (1/GPa) = 0.02367299
#
# Stress axis : x y z
#
# Youngs Moduli (GPa) = 68.34159 123.30119 58.50969
#
# Poissons Ratio (x) = 0.51843 -0.01106
# Poissons Ratio (y) = 0.28735 0.23783
# Poissons Ratio (z) = -0.01292 0.50120
#
# Static dielectric constant tensor:
#      x y z
#    x 1.691420 0.000000 0.006680 
#    y 0.000000 1.664200 0.000000 
#    z 0.006680 0.000000 1.657890 
# 
# From -- ./inp_files/125886.got.cif
#   From: 2010.05.17/outbox.cif.g08.bks.cpg/sg12_63_cif.got.tgz:125886.got - 2010.06.03 13:09:07.
