data_PCOD9220464
_publ_section_title
;
Structure prediction by ZEFSAII (Michael W. Deem and Ramdas Pophale) SiO2 
 PCOD9220464
Probable space group: C 2/M
;
_chemical_formula_sum "Si O2"
_cell_formula_units_Z 40
_cell_length_a 18.657818
_cell_length_b 8.645714
_cell_length_c 19.514241
_cell_angle_alpha 90.000000
_cell_angle_beta 136.191207
_cell_angle_gamma 90.000000
_cell_volume 2179.108289
_symmetry_space_group_name_H-M "C 2/M"
_symmetry_group_IT_number 12
_symmetry_cell_setting 'monoclinic'
loop_
_space_group_symop_operation_xyz
x,y,z
-x,y,-z
-x,-y,-z
x,-y,z
1/2+x,1/2+y,z
1/2-x,1/2+y,-z
1/2-x,1/2-y,-z
1/2+x,1/2-y,z
loop_
_atom_site_type_symbol
_atom_site_label
_atom_site_fract_x
_atom_site_fract_y
_atom_site_fract_z
Si Si1 0.279577 0.185123 0.594505
Si Si2 0.496115 0.313642 0.216682
Si Si3 0.883359 0.811178 0.402654
Si Si4 0.829893 0.185095 0.998617
Si Si5 0.179208 0.813643 0.792530
O O1 0.250000 0.250000 0.500000
O O2 0.393696 0.238519 0.694732
O O3 0.196162 0.238202 0.593488
O O4 0.275938 0.000000 0.589212
O O5 0.506593 0.500000 0.226278
O O6 0.441688 0.271401 0.106763
O O7 0.415021 0.269909 0.221184
O O8 0.846636 0.761622 0.301965
O O9 0.000000 0.760646 0.500000
O O10 0.884279 0.000000 0.402577
O O11 0.824145 0.000000 0.994166
O O12 0.750000 0.250000 0.000000
O O13 0.786077 0.249155 0.897299
O O14 0.184942 0.000000 0.797705
#
# Coordination Sequence:
#
# PCOD9220464 Si02
#       5
#     8   8   8   8   8
#     4  11  22  35  54  77 101 132 168 209 256 304
#     4   9  18  33  53  76 103 135 168 205 250 298
#     4   9  18  34  54  74  98 131 170 209 252 302
#     4   9  17  30  50  76 105 137 171 207 249 296
#     4   9  17  32  55  78 101 133 173 214 251 292
#
# _framework density 18.356131999999999
#
# number of rings (size 3 to 8) (size 9 to 14) (size 15 to 20)
#    0.000    2.600    0.000    3.600    0.000    7.200 
#    0.000    3.000    0.000   10.200    0.000    0.000 
#    0.000    0.000    0.000    0.000    0.000    0.000 
#
# Total GULP energy -111519.382713 kJ/mol
# GULP energy per Si atom -5575.969136 kJ/mol
# Density = 1.831435 g / cm^3
# Si number density = 18.356132 Si / 1000 Ang^3
#
#
#
# Elastic Constant Matrix: (Units=GPa)
#
#
# Indices 1 2 3 4 5 6 
#
# 1 109.0277 26.9009 99.6020 0.0000 -8.0402 0.0000
# 2 26.9009 20.1380 43.5770 0.0000 0.8492 0.0000
# 3 99.6020 43.5770 230.2306 0.0000 -11.2242 0.0000
# 4 0.0000 0.0000 0.0000 37.0102 0.0000 1.1076
# 5 -8.0402 0.8492 -11.2242 0.0000 32.6795 0.0000
# 6 0.0000 0.0000 0.0000 1.1076 0.0000 19.5509
#
#
#
# Elastic Compliance Matrix: (Units=1/GPa)
#
#
# Indices 1 2 3 4 5 6 
#
# 1 0.016770 -0.012047 -0.004840 0.000000 0.002777 0.000000
# 2 -0.012047 0.094751 -0.013208 0.000000 -0.009963 0.000000
# 3 -0.004840 -0.013208 0.009047 0.000000 0.002260 0.000000
# 4 0.000000 0.000000 0.000000 0.027065 0.000000 -0.001533
# 5 0.002777 -0.009963 0.002260 0.000000 0.032319 0.000000
# 6 0.000000 0.000000 0.000000 -0.001533 0.000000 0.051235
#
#
# Mechanical properties :
#
#
# Convention : Reuss Voigt Hill
#
# Bulk Modulus (GPa) = 16.56191 77.72845 47.14518
# Shear Modulus (GPa) = 16.05120 30.46922 23.26021
#
# Velocity S-wave (km/s) = 2.96029 4.07860 3.56359
# Velocity P-wave (km/s) = 4.55264 8.03844 6.53235
#
# Compressibility (1/GPa) = 0.06037951
#
# Stress axis : x y z
#
# Youngs Moduli (GPa) = 59.62903 10.55400 110.53034
#
# Poissons Ratio (x) = 0.12714 0.53492
# Poissons Ratio (y) = 0.71834 1.45988
# Poissons Ratio (z) = 0.28858 0.13940
#
# Static dielectric constant tensor:
#      x y z
#    x 1.605870 0.000000 -0.009830 
#    y 0.000000 1.628630 0.000000 
#    z -0.009830 0.000000 1.643020 
# 
# From -- ./inp_files/151948.got.cif
#   From: 2010.05.17/outbox.cif.g08.bks.cpg/sg12_76_cif.got.tgz:151948.got - 2010.06.03 13:09:07.
