data_PCOD9220160
_publ_section_title
;
Structure prediction by ZEFSAII (Michael W. Deem and Ramdas Pophale) SiO2 
 PCOD9220160
Probable space group: C 2/M
;
_chemical_formula_sum "Si O2"
_cell_formula_units_Z 36
_cell_length_a 15.034626
_cell_length_b 13.782703
_cell_length_c 8.181113
_cell_angle_alpha 90.000000
_cell_angle_beta 100.284930
_cell_angle_gamma 90.000000
_cell_volume 1668.032537
_symmetry_space_group_name_H-M "C 2/M"
_symmetry_group_IT_number 12
_symmetry_cell_setting 'monoclinic'
loop_
_space_group_symop_operation_xyz
x,y,z
-x,y,-z
-x,-y,-z
x,-y,z
1/2+x,1/2+y,z
1/2-x,1/2+y,-z
1/2-x,1/2-y,-z
1/2+x,1/2-y,z
loop_
_atom_site_type_symbol
_atom_site_label
_atom_site_fract_x
_atom_site_fract_y
_atom_site_fract_z
Si Si1 0.089197 0.500000 0.419563
Si Si2 0.794015 0.207399 0.851179
Si Si3 0.270090 0.500000 0.699912
Si Si4 0.051856 0.710209 0.279771
Si Si5 0.125544 0.213474 0.645356
Si Si6 0.604407 0.500000 0.579462
O O1 0.173893 0.500000 0.572036
O O2 0.082161 0.598653 0.312717
O O3 0.000000 0.500000 0.500000
O O4 0.784754 0.093478 0.817833
O O5 0.895537 0.243676 0.854288
O O6 0.727314 0.251308 0.692182
O O7 0.750000 0.250000 0.000000
O O8 0.339866 0.500000 0.571253
O O9 0.089785 0.767751 0.451037
O O10 0.944327 0.727159 0.262039
O O11 0.123558 0.099314 0.680548
O O12 0.500000 0.500000 0.500000
#
# Coordination Sequence:
#
# PCOD9220160 Si02
#       6
#     4   8   4   8   8   4
#     4  12  20  35  67  95 117 149 204 258 304 344
#     4  12  26  41  59  88 130 163 198 242 299 369
#     4  12  22  38  64  86 118 164 198 246 304 352
#     4  11  21  39  64  93 118 154 205 254 298 346
#     4  11  21  39  64  93 118 154 205 254 298 346
#     4  12  20  35  67  95 117 149 204 258 304 344
#
# _framework density 21.582311000000001
#
# number of rings (size 3 to 8) (size 9 to 14) (size 15 to 20)
#    0.000    0.444    8.889    2.000    0.000    2.667 
#    0.000    0.000    0.000    8.000    0.000    0.000 
#    0.000    0.000    0.000    0.000    0.000    0.000 
#
# Total GULP energy -100604.724073 kJ/mol
# GULP energy per Si atom -5589.151337 kJ/mol
# Density = 2.153319 g / cm^3
# Si number density = 21.582311 Si / 1000 Ang^3
#
#
#
# Elastic Constant Matrix: (Units=GPa)
#
#
# Indices 1 2 3 4 5 6 
#
# 1 118.2676 17.7382 21.5580 0.0000 -31.0748 0.0000
# 2 17.7382 202.0639 9.7813 0.0000 -11.8937 0.0000
# 3 21.5580 9.7813 60.1330 0.0000 -24.8306 0.0000
# 4 0.0000 0.0000 0.0000 6.0087 0.0000 -8.8539
# 5 -31.0748 -11.8937 -24.8306 0.0000 34.2545 0.0000
# 6 0.0000 0.0000 0.0000 -8.8539 0.0000 25.7820
#
#
#
# Elastic Compliance Matrix: (Units=1/GPa)
#
#
# Indices 1 2 3 4 5 6 
#
# 1 0.011135 -0.000392 0.000267 0.000000 0.010158 0.000000
# 2 -0.000392 0.005067 -0.000148 0.000000 0.001296 0.000000
# 3 0.000267 -0.000148 0.023744 0.000000 0.017402 0.000000
# 4 0.000000 0.000000 0.000000 0.336906 0.000000 0.115698
# 5 0.010158 0.001296 0.017402 0.000000 0.051473 0.000000
# 6 0.000000 0.000000 0.000000 0.115698 0.000000 0.078519
#
#
# Mechanical properties :
#
#
# Convention : Reuss Voigt Hill
#
# Bulk Modulus (GPa) = 25.38275 53.17998 39.28136
# Shear Modulus (GPa) = 9.60569 35.30152 22.45361
#
# Velocity S-wave (km/s) = 2.11196 4.04873 3.22898
# Velocity P-wave (km/s) = 4.21113 6.82278 5.66939
#
# Compressibility (1/GPa) = 0.03939683
#
# Stress axis : x y z
#
# Youngs Moduli (GPa) = 89.80939 197.36205 42.11563
#
# Poissons Ratio (x) = 0.07745 -0.01122
# Poissons Ratio (y) = 0.03525 0.00625
# Poissons Ratio (z) = -0.02393 0.02930
#
# Static dielectric constant tensor:
#      x y z
#    x 1.744890 0.000000 -0.022040 
#    y 0.000000 3.676820 0.000000 
#    z -0.022040 0.000000 1.798180 
# 
# From -- ./inp_files/58556.got.cif
#   From: 2010.05.17/outbox.cif.g08.bks.cpg/sg12_30_cif.got.tgz:58556.got - 2010.06.03 13:09:07.
