data_PCOD9220183
_publ_section_title
;
Structure prediction by ZEFSAII (Michael W. Deem and Ramdas Pophale) SiO2 
 PCOD9220183
Probable space group: C 2/M
;
_chemical_formula_sum "Si O2"
_cell_formula_units_Z 40
_cell_length_a 13.969749
_cell_length_b 19.148376
_cell_length_c 12.325540
_cell_angle_alpha 90.000000
_cell_angle_beta 141.223374
_cell_angle_gamma 90.000000
_cell_volume 2064.900303
_symmetry_space_group_name_H-M "C 2/M"
_symmetry_group_IT_number 12
_symmetry_cell_setting 'monoclinic'
loop_
_space_group_symop_operation_xyz
x,y,z
-x,y,-z
-x,-y,-z
x,-y,z
1/2+x,1/2+y,z
1/2-x,1/2+y,-z
1/2-x,1/2-y,-z
1/2+x,1/2-y,z
loop_
_atom_site_type_symbol
_atom_site_label
_atom_site_fract_x
_atom_site_fract_y
_atom_site_fract_z
Si Si1 0.635806 0.240714 0.293155
Si Si2 0.453463 0.500000 0.830027
Si Si3 0.606830 0.639274 0.888935
Si Si4 0.050467 0.357796 0.739756
Si Si5 0.907459 0.500000 0.528308
Si Si6 0.373112 0.718363 0.315141
O O1 0.750000 0.250000 0.500000
O O2 0.515623 0.303900 0.177020
O O3 0.532609 0.173493 0.228106
O O4 0.731490 0.233274 0.268014
O O5 0.521239 0.566794 0.828164
O O6 0.271383 0.500000 0.655633
O O7 0.500000 0.500000 0.000000
O O8 0.653076 0.670901 0.812777
O O9 0.768918 0.630012 0.090687
O O10 0.050886 0.291310 0.658313
O O11 0.961042 0.427896 0.631258
O O12 0.000000 0.500000 0.500000
O O13 0.500000 0.680938 0.500000
#
# Coordination Sequence:
#
# PCOD9220183 Si02
#       6
#     8   4   8   8   4   8
#     4  11  21  39  67  96 131 173 221 267 326 383
#     4  12  28  46  70  96 130 171 214 275 329 392
#     4  11  25  42  63 100 132 169 225 268 328 393
#     4  11  24  41  63  98 134 171 216 268 325 393
#     4  12  26  42  67  91 131 171 212 264 331 389
#     4  11  22  39  68  95 133 172 219 276 323 382
#
# _framework density 19.371395
#
# number of rings (size 3 to 8) (size 9 to 14) (size 15 to 20)
#    0.000    0.800    4.000    6.000    5.600    2.400 
#    0.000    1.500    0.000    2.400    0.000    0.000 
#    0.000    0.000    0.000    0.000    0.000    0.000 
#
# Total GULP energy -111590.581799 kJ/mol
# GULP energy per Si atom -5579.529090 kJ/mol
# Density = 1.932730 g / cm^3
# Si number density = 19.371395 Si / 1000 Ang^3
#
#
#
# Elastic Constant Matrix: (Units=GPa)
#
#
# Indices 1 2 3 4 5 6 
#
# 1 158.1389 60.7686 31.6450 0.0000 27.9752 0.0000
# 2 60.7686 157.7141 50.6311 0.0000 9.4597 0.0000
# 3 31.6450 50.6311 133.4426 0.0000 29.3783 0.0000
# 4 0.0000 0.0000 0.0000 33.6934 0.0000 11.1312
# 5 27.9752 9.4597 29.3783 0.0000 36.9562 0.0000
# 6 0.0000 0.0000 0.0000 11.1312 0.0000 -1.3058
#
#
#
# Elastic Compliance Matrix: (Units=1/GPa)
#
#
# Indices 1 2 3 4 5 6 
#
# 1 0.008464 -0.003053 0.000472 0.000000 -0.006001 0.000000
# 2 -0.003053 0.008326 -0.003000 0.000000 0.002564 0.000000
# 3 0.000472 -0.003000 0.010218 0.000000 -0.007712 0.000000
# 4 0.000000 0.000000 0.000000 0.007777 0.000000 0.066297
# 5 -0.006001 0.002564 -0.007712 0.000000 0.037076 0.000000
# 6 0.000000 0.000000 0.000000 0.066297 0.000000 -0.200675
#
#
# Mechanical properties :
#
#
# Convention : Reuss Voigt Hill
#
# Bulk Modulus (GPa) = 63.10187 81.70944 72.40566
# Shear Modulus (GPa) = -44.49541 34.28549 -5.10496
#
# Velocity S-wave (km/s) = -4.79787 4.21159 -1.62512
# Velocity P-wave (km/s) = 1.39743 8.11923 5.82558
#
# Compressibility (1/GPa) = 0.01584739
#
# Stress axis : x y z
#
# Youngs Moduli (GPa) = 118.15099 120.10480 97.86694
#
# Poissons Ratio (x) = 0.36666 -0.04623
# Poissons Ratio (y) = 0.36070 0.29357
# Poissons Ratio (z) = -0.05581 0.36028
#
# Static dielectric constant tensor:
#      x y z
#    x 1.655020 0.000000 0.004700 
#    y 0.000000 1.402740 0.000000 
#    z 0.004700 0.000000 1.759370 
# 
# From -- ./inp_files/75551.got.cif
#   From: 2010.05.17/outbox.cif.g08.bks.cpg/sg12_38_cif.got.tgz:75551.got - 2010.06.03 13:09:07.
