data_PCOD9220264
_publ_section_title
;
Structure prediction by ZEFSAII (Michael W. Deem and Ramdas Pophale) SiO2 
 PCOD9220264
Probable space group: C 2/M
;
_chemical_formula_sum "Si O2"
_cell_formula_units_Z 64
_cell_length_a 16.213380
_cell_length_b 17.335640
_cell_length_c 17.877422
_cell_angle_alpha 90.000000
_cell_angle_beta 138.908225
_cell_angle_gamma 90.000000
_cell_volume 3302.632134
_symmetry_space_group_name_H-M "C 2/M"
_symmetry_group_IT_number 12
_symmetry_cell_setting 'monoclinic'
loop_
_space_group_symop_operation_xyz
x,y,z
-x,y,-z
-x,-y,-z
x,-y,z
1/2+x,1/2+y,z
1/2-x,1/2+y,-z
1/2-x,1/2-y,-z
1/2+x,1/2-y,z
loop_
_atom_site_type_symbol
_atom_site_label
_atom_site_fract_x
_atom_site_fract_y
_atom_site_fract_z
Si Si1 0.472193 0.667255 0.609411
Si Si2 0.379547 0.191758 0.271850
Si Si3 0.075673 0.313028 0.172897
Si Si4 0.480770 0.914810 0.727837
Si Si5 0.738155 0.592756 0.806154
Si Si6 0.195453 0.724589 0.043573
Si Si7 0.185330 0.274329 0.605690
Si Si8 0.249472 0.587891 0.538221
O O1 0.517969 0.744259 0.683863
O O2 0.602158 0.621929 0.681560
O O3 0.389182 0.704046 0.485542
O O4 0.384133 0.614261 0.599595
O O5 0.423352 0.111067 0.270613
O O6 0.253039 0.219608 0.146359
O O7 0.376738 0.199565 0.358860
O O8 0.015046 0.359470 0.199624
O O9 0.152954 0.371784 0.172519
O O10 0.178237 0.255806 0.277188
O O11 0.954551 0.273085 0.054978
O O12 0.344469 0.911422 0.596507
O O13 0.507022 0.000000 0.772015
O O14 0.742824 0.500000 0.814022
O O15 0.759173 0.638959 0.898685
O O16 0.250000 0.750000 0.000000
O O17 0.199575 0.347128 0.560748
O O18 0.251204 0.500000 0.568914
#
# Coordination Sequence:
#
# PCOD9220264 Si02
#       8
#     8   8   8   8   8   8   8   8
#     4  11  21  41  62  94 129 170 210 250 322 388
#     4  11  23  41  63  92 122 164 217 260 322 380
#     4  12  23  41  66  94 124 169 216 261 318 382
#     4  11  23  38  60  93 130 165 209 264 321 379
#     4  11  26  43  66  99 134 168 208 268 326 380
#     4  11  24  43  66  89 123 165 220 261 309 381
#     4  12  23  38  69  92 129 172 213 266 313 389
#     4  11  24  38  60  95 134 174 212 259 319 383
#
# _framework density 19.378482999999999
#
# number of rings (size 3 to 8) (size 9 to 14) (size 15 to 20)
#    0.000    0.750    6.250    2.625    1.750    2.000 
#    0.000    1.875    0.000    0.750    0.000    1.750 
#    0.000    0.000    0.000    0.000    0.000    0.000 
#
# Total GULP energy -178635.070693 kJ/mol
# GULP energy per Si atom -5582.345959 kJ/mol
# Density = 1.933438 g / cm^3
# Si number density = 19.378483 Si / 1000 Ang^3
#
#
#
# Elastic Constant Matrix: (Units=GPa)
#
#
# Indices 1 2 3 4 5 6 
#
# 1 81.7405 29.4203 28.5492 0.0000 -0.6028 0.0000
# 2 29.4203 57.3565 20.5262 0.0000 0.0293 0.0000
# 3 28.5492 20.5262 110.3078 0.0000 16.0609 0.0000
# 4 0.0000 0.0000 0.0000 16.2076 0.0000 -2.6409
# 5 -0.6028 0.0293 16.0609 0.0000 36.5636 0.0000
# 6 0.0000 0.0000 0.0000 -2.6409 0.0000 22.0425
#
#
#
# Elastic Compliance Matrix: (Units=1/GPa)
#
#
# Indices 1 2 3 4 5 6 
#
# 1 0.015835 -0.007043 -0.003020 0.000000 0.001593 0.000000
# 2 -0.007043 0.021901 -0.002386 0.000000 0.000914 0.000000
# 3 -0.003020 -0.002386 0.011002 0.000000 -0.004880 0.000000
# 4 0.000000 0.000000 0.000000 0.062928 0.000000 0.007539
# 5 0.001593 0.000914 -0.004880 0.000000 0.029519 0.000000
# 6 0.000000 0.000000 0.000000 0.007539 0.000000 0.046270
#
#
# Mechanical properties :
#
#
# Convention : Reuss Voigt Hill
#
# Bulk Modulus (GPa) = 41.94428 45.15512 43.54970
# Shear Modulus (GPa) = 22.69659 26.35668 24.52663
#
# Velocity S-wave (km/s) = 3.42603 3.69195 3.56148
# Velocity P-wave (km/s) = 6.11081 6.44409 6.27966
#
# Compressibility (1/GPa) = 0.02384115
#
# Stress axis : x y z
#
# Youngs Moduli (GPa) = 63.15091 45.66102 90.89554
#
# Poissons Ratio (x) = 0.32157 0.27449
# Poissons Ratio (y) = 0.44474 0.21685
# Poissons Ratio (z) = 0.19070 0.10893
#
# Static dielectric constant tensor:
#      x y z
#    x 1.705580 0.000000 0.008590 
#    y 0.000000 1.674060 0.000000 
#    z 0.008590 0.000000 1.706590 
# 
# From -- ./inp_files/271753.got.cif
#   From: 2010.05.17/outbox.cif.g08.bks.cpg/sg12_136_cif.got.tgz:271753.got - 2010.06.03 13:09:07.
