data_PCOD9220369
_publ_section_title
;
Structure prediction by ZEFSAII (Michael W. Deem and Ramdas Pophale) SiO2 
 PCOD9220369
Probable space group: C 2/M
;
_chemical_formula_sum "Si O2"
_cell_formula_units_Z 28
_cell_length_a 9.595093
_cell_length_b 14.670786
_cell_length_c 7.374793
_cell_angle_alpha 90.000000
_cell_angle_beta 87.209912
_cell_angle_gamma 90.000000
_cell_volume 1036.900958
_symmetry_space_group_name_H-M "C 2/M"
_symmetry_group_IT_number 12
_symmetry_cell_setting 'monoclinic'
loop_
_space_group_symop_operation_xyz
x,y,z
-x,y,-z
-x,-y,-z
x,-y,z
1/2+x,1/2+y,z
1/2-x,1/2+y,-z
1/2-x,1/2-y,-z
1/2+x,1/2-y,z
loop_
_atom_site_type_symbol
_atom_site_label
_atom_site_fract_x
_atom_site_fract_y
_atom_site_fract_z
Si Si1 0.478391 0.397340 0.216417
Si Si2 0.500000 0.250603 0.500000
Si Si3 0.203661 0.651503 0.080650
Si Si4 0.404152 0.897746 0.275433
O O1 0.514332 0.500000 0.268529
O O2 0.543252 0.320083 0.337977
O O3 0.311458 0.382955 0.224184
O O4 0.500000 0.384539 0.000000
O O5 0.614894 0.181502 0.575939
O O6 0.051776 0.634995 0.177024
O O7 0.250000 0.750000 0.000000
O O8 0.199428 0.599137 0.888677
O O9 0.411703 0.000000 0.347249
#
# Coordination Sequence:
#
# PCOD9220369 Si02
#       4
#     8   4   8   8
#     4  11  24  45  69  99 138 179 224 282 344 404
#     4  12  24  42  68 100 136 176 232 276 334 410
#     4  11  21  43  71  96 134 180 229 276 338 400
#     4  11  24  43  68 101 138 180 227 280 339 403
#
# _framework density 27.003544000000002
#
# number of rings (size 3 to 8) (size 9 to 14) (size 15 to 20)
#    0.000    0.857    2.857    6.000    0.000    1.143 
#    5.143    0.000    0.000    0.000    0.000    0.000 
#    0.000    0.000    0.000    0.000    0.000    0.000 
#
# Total GULP energy -78316.251666 kJ/mol
# GULP energy per Si atom -5594.017976 kJ/mol
# Density = 2.694208 g / cm^3
# Si number density = 27.003544 Si / 1000 Ang^3
#
#
#
# Elastic Constant Matrix: (Units=GPa)
#
#
# Indices 1 2 3 4 5 6 
#
# 1 72.8969 15.0280 11.6592 0.0000 1.3949 0.0000
# 2 15.0280 292.6729 82.1955 0.0000 7.4190 0.0000
# 3 11.6592 82.1955 145.3746 0.0000 11.4789 0.0000
# 4 0.0000 0.0000 0.0000 37.3287 0.0000 10.6813
# 5 1.3949 7.4190 11.4789 0.0000 37.0096 0.0000
# 6 0.0000 0.0000 0.0000 10.6813 0.0000 23.6587
#
#
#
# Elastic Compliance Matrix: (Units=1/GPa)
#
#
# Indices 1 2 3 4 5 6 
#
# 1 0.013953 -0.000477 -0.000836 0.000000 -0.000171 0.000000
# 2 -0.000477 0.004078 -0.002260 0.000000 -0.000099 0.000000
# 3 -0.000836 -0.002260 0.008391 0.000000 -0.002118 0.000000
# 4 0.000000 0.000000 0.000000 0.030763 0.000000 -0.013889
# 5 -0.000171 -0.000099 -0.002118 0.000000 0.027703 0.000000
# 6 0.000000 0.000000 0.000000 -0.013889 0.000000 0.048538
#
#
# Mechanical properties :
#
#
# Convention : Reuss Voigt Hill
#
# Bulk Modulus (GPa) = 51.87619 80.96777 66.42198
# Shear Modulus (GPa) = 34.01390 46.40350 40.20870
#
# Velocity S-wave (km/s) = 3.55295 4.14988 3.86296
# Velocity P-wave (km/s) = 6.00698 7.28088 6.67439
#
# Compressibility (1/GPa) = 0.01927667
#
# Stress axis : x y z
#
# Youngs Moduli (GPa) = 71.66735 245.18908 119.17810
#
# Poissons Ratio (x) = 0.11707 0.09959
# Poissons Ratio (y) = 0.03422 0.26933
# Poissons Ratio (z) = 0.05989 0.55411
#
# Static dielectric constant tensor:
#      x y z
#    x 2.228090 0.000000 -0.040730 
#    y 0.000000 2.044320 0.000000 
#    z -0.040730 0.000000 2.137670 
# 
# From -- ./inp_files/44583.got.cif
#   From: 2010.05.17/outbox.cif.g08.bks.cpg/sg12_23_cif.got.tgz:44583.got - 2010.06.03 13:09:07.
