data_PCOD9220943
_publ_section_title
;
Structure prediction by ZEFSAII (Michael W. Deem and Ramdas Pophale) SiO2 
 PCOD9220943
Probable space group: C 2/M
;
_chemical_formula_sum "Si O2"
_cell_formula_units_Z 42
_cell_length_a 12.703252
_cell_length_b 13.189174
_cell_length_c 10.164960
_cell_angle_alpha 90.000000
_cell_angle_beta 95.218760
_cell_angle_gamma 90.000000
_cell_volume 1696.032420
_symmetry_space_group_name_H-M "C 2/M"
_symmetry_group_IT_number 12
_symmetry_cell_setting 'monoclinic'
loop_
_space_group_symop_operation_xyz
x,y,z
-x,y,-z
-x,-y,-z
x,-y,z
1/2+x,1/2+y,z
1/2-x,1/2+y,-z
1/2-x,1/2-y,-z
1/2+x,1/2-y,z
loop_
_atom_site_type_symbol
_atom_site_label
_atom_site_fract_x
_atom_site_fract_y
_atom_site_fract_z
Si Si1 0.608302 0.199910 0.846166
Si Si2 0.112922 0.663881 0.565171
Si Si3 0.265169 0.617194 0.041353
Si Si4 0.841253 0.114277 0.509953
Si Si5 0.579192 0.340353 0.186299
Si Si6 0.000000 0.000000 0.000000
O O1 0.627662 0.135333 0.718133
O O2 0.687931 0.298390 0.856099
O O3 0.486825 0.236528 0.823438
O O4 0.646457 0.142395 0.980828
O O5 0.114944 0.787867 0.561520
O O6 0.213965 0.626054 0.496078
O O7 0.000000 0.630059 0.500000
O O8 0.274829 0.500000 0.079539
O O9 0.330336 0.635192 0.911504
O O10 0.880295 0.131883 0.665050
O O11 0.870374 0.000000 0.471030
O O12 0.492832 0.414527 0.114720
#
# Coordination Sequence:
#
# PCOD9220943 Si02
#       6
#     8   8   8   8   8   2
#     4  11  23  36  63  95 122 155 203 254 299 355
#     4  11  24  42  61  88 124 161 200 251 303 358
#     4  11  22  40  63  92 122 161 201 247 302 361
#     4  11  24  41  62  87 122 160 203 251 301 358
#     4  12  19  36  61  91 120 150 199 251 297 349
#     4  12  20  32  64  98 112 154 200 256 302 344
#
# _framework density 24.763677000000001
#
# number of rings (size 3 to 8) (size 9 to 14) (size 15 to 20)
#    0.000    0.762    7.619    0.000    0.000    1.524 
#    0.000    0.000    0.000    9.143    0.000    0.000 
#    0.000    0.000    0.000    0.000    0.000    0.000 
#
# Total GULP energy -117017.233077 kJ/mol
# GULP energy per Si atom -5572.249194 kJ/mol
# Density = 2.470731 g / cm^3
# Si number density = 24.763677 Si / 1000 Ang^3
#
#
#
# Elastic Constant Matrix: (Units=GPa)
#
#
# Indices 1 2 3 4 5 6 
#
# 1 81.6094 1.6378 2.7563 0.0000 31.2787 0.0000
# 2 1.6378 91.4751 -8.0203 0.0000 10.4699 0.0000
# 3 2.7563 -8.0203 97.9056 0.0000 30.0682 0.0000
# 4 0.0000 0.0000 0.0000 43.8229 0.0000 39.9081
# 5 31.2787 10.4699 30.0682 0.0000 39.9572 0.0000
# 6 0.0000 0.0000 0.0000 39.9081 0.0000 52.2663
#
#
#
# Elastic Compliance Matrix: (Units=1/GPa)
#
#
# Indices 1 2 3 4 5 6 
#
# 1 0.020006 0.002565 0.006065 0.000000 -0.020897 0.000000
# 2 0.002565 0.012042 0.003251 0.000000 -0.007610 0.000000
# 3 0.006065 0.003251 0.015645 0.000000 -0.017372 0.000000
# 4 0.000000 0.000000 0.000000 0.074901 0.000000 -0.057191
# 5 -0.020897 -0.007610 -0.017372 0.000000 0.056452 0.000000
# 6 0.000000 0.000000 0.000000 -0.057191 0.000000 0.062801
#
#
# Mechanical properties :
#
#
# Convention : Reuss Voigt Hill
#
# Bulk Modulus (GPa) = 13.99452 29.30420 21.64936
# Shear Modulus (GPa) = 20.66936 45.51702 33.09319
#
# Velocity S-wave (km/s) = 2.89219 4.29191 3.65959
# Velocity P-wave (km/s) = 4.10079 6.03489 5.15928
#
# Compressibility (1/GPa) = 0.07145656
#
# Stress axis : x y z
#
# Youngs Moduli (GPa) = 49.98381 83.04173 63.91882
#
# Poissons Ratio (x) = -0.21303 -0.38765
# Poissons Ratio (y) = -0.12823 -0.20783
# Poissons Ratio (z) = -0.30314 -0.27001
#
# Static dielectric constant tensor:
#      x y z
#    x 2.227320 0.000000 0.081200 
#    y 0.000000 2.100620 0.000000 
#    z 0.081200 0.000000 1.915940 
# 
# From -- ./inp_files/142163.got.cif
#   From: 2010.05.17/outbox.cif.g08.bks.cpg/sg12_72_cif.got.tgz:142163.got - 2010.06.03 13:09:07.
