data_PCOD9220765
_publ_section_title
;
Structure prediction by ZEFSAII (Michael W. Deem and Ramdas Pophale) SiO2 
 PCOD9220765
Probable space group: C 2/M
;
_chemical_formula_sum "Si O2"
_cell_formula_units_Z 48
_cell_length_a 14.761772
_cell_length_b 8.710116
_cell_length_c 27.097368
_cell_angle_alpha 90.000000
_cell_angle_beta 42.728224
_cell_angle_gamma 90.000000
_cell_volume 2364.031309
_symmetry_space_group_name_H-M "C 2/M"
_symmetry_group_IT_number 12
_symmetry_cell_setting 'monoclinic'
loop_
_space_group_symop_operation_xyz
x,y,z
-x,y,-z
-x,-y,-z
x,-y,z
1/2+x,1/2+y,z
1/2-x,1/2+y,-z
1/2-x,1/2-y,-z
1/2+x,1/2-y,z
loop_
_atom_site_type_symbol
_atom_site_label
_atom_site_fract_x
_atom_site_fract_y
_atom_site_fract_z
Si Si1 0.920025 0.321330 0.138917
Si Si2 0.817913 0.317867 0.021809
Si Si3 0.139760 0.184308 0.507308
Si Si4 0.693596 0.819329 0.170237
Si Si5 0.339660 0.314807 0.616857
Si Si6 0.433121 0.320229 0.236985
O O1 0.924675 0.500000 0.151673
O O2 0.774572 0.272359 0.179220
O O3 0.962899 0.220476 0.168216
O O4 0.024453 0.301150 0.052368
O O5 0.789845 0.500000 0.038674
O O6 0.762695 0.228637 0.090914
O O7 0.750000 0.250000 0.000000
O O8 0.250000 0.250000 0.500000
O O9 0.166673 0.222634 0.439071
O O10 0.985833 0.232389 0.578320
O O11 0.142789 0.000000 0.509693
O O12 0.540089 0.770220 0.227165
O O13 0.706574 0.000000 0.173100
O O14 0.329320 0.500000 0.625694
O O15 0.216132 0.235624 0.692599
O O16 0.447686 0.500000 0.239799
#
# Coordination Sequence:
#
# PCOD9220765 Si02
#       6
#     8   8   8   8   8   8
#     4  11  24  42  63  88 119 158 203 254 308 364
#     4  11  22  38  63  89 118 156 203 254 309 364
#     4   9  19  37  64  92 120 157 196 240 290 349
#     4  12  25  41  62  88 120 160 204 255 308 362
#     4   9  20  40  61  86 123 162 197 237 295 356
#     4  12  25  41  62  89 123 162 204 250 303 362
#
# _framework density 20.304300000000001
#
# number of rings (size 3 to 8) (size 9 to 14) (size 15 to 20)
#    0.000    1.333    1.667    5.500    0.000    6.667 
#    0.000    5.000    0.000    0.000    0.000    0.000 
#    0.000    0.000    0.000    0.000    0.000    0.000 
#
# Total GULP energy -134199.979409 kJ/mol
# GULP energy per Si atom -5591.665809 kJ/mol
# Density = 2.025809 g / cm^3
# Si number density = 20.304300 Si / 1000 Ang^3
#
#
#
# Elastic Constant Matrix: (Units=GPa)
#
#
# Indices 1 2 3 4 5 6 
#
# 1 95.7910 -4.5362 4.8810 0.0000 -23.5090 0.0000
# 2 -4.5362 47.9766 21.3088 0.0000 -7.8590 0.0002
# 3 4.8810 21.3088 69.3374 0.0000 -24.8548 0.0000
# 4 0.0000 0.0000 0.0000 29.5967 0.0000 0.0725
# 5 -23.5090 -7.8590 -24.8548 0.0000 22.5812 0.0000
# 6 0.0000 0.0002 0.0000 0.0725 0.0000 34.3598
#
#
#
# Elastic Compliance Matrix: (Units=1/GPa)
#
#
# Indices 1 2 3 4 5 6 
#
# 1 0.016714 0.002577 0.007582 0.000000 0.026642 0.000000
# 2 0.002577 0.024538 -0.006110 0.000000 0.004498 0.000000
# 3 0.007582 -0.006110 0.029455 0.000000 0.038187 0.000000
# 4 0.000000 0.000000 0.000000 0.033788 0.000000 -0.000071
# 5 0.026642 0.004498 0.038187 0.000000 0.115619 0.000000
# 6 0.000000 0.000000 0.000000 -0.000071 0.000000 0.029104
#
#
# Mechanical properties :
#
#
# Convention : Reuss Voigt Hill
#
# Bulk Modulus (GPa) = 12.68978 28.49026 20.59002
# Shear Modulus (GPa) = 18.69945 30.07096 24.38521
#
# Velocity S-wave (km/s) = 3.03803 3.85257 3.46929
# Velocity P-wave (km/s) = 4.30923 5.81823 5.11963
#
# Compressibility (1/GPa) = 0.07880356
#
# Stress axis : x y z
#
# Youngs Moduli (GPa) = 59.83138 40.75352 33.95014
#
# Poissons Ratio (x) = -0.10503 -0.25740
# Poissons Ratio (y) = -0.15419 0.20744
# Poissons Ratio (z) = -0.45362 0.24901
#
# Static dielectric constant tensor:
#      x y z
#    x 1.729810 0.000000 -0.014090 
#    y 0.000000 1.675370 0.000000 
#    z -0.014090 0.000000 1.744530 
# 
# From -- ./inp_files/360225.got.cif
#   From: 2010.05.17/outbox.cif.g08.bks.cpg/sg12_181_cif.got.tgz:360225.got - 2010.06.03 13:09:07.
