data_PCOD9220980
_publ_section_title
;
Structure prediction by ZEFSAII (Michael W. Deem and Ramdas Pophale) SiO2 
 PCOD9220980
Probable space group: C 2/M
;
_chemical_formula_sum "Si O2"
_cell_formula_units_Z 48
_cell_length_a 27.931195
_cell_length_b 8.414867
_cell_length_c 17.243884
_cell_angle_alpha 90.000000
_cell_angle_beta 35.978730
_cell_angle_gamma 90.000000
_cell_volume 2381.050238
_symmetry_space_group_name_H-M "C 2/M"
_symmetry_group_IT_number 12
_symmetry_cell_setting 'monoclinic'
loop_
_space_group_symop_operation_xyz
x,y,z
-x,y,-z
-x,-y,-z
x,-y,z
1/2+x,1/2+y,z
1/2-x,1/2+y,-z
1/2-x,1/2-y,-z
1/2+x,1/2-y,z
loop_
_atom_site_type_symbol
_atom_site_label
_atom_site_fract_x
_atom_site_fract_y
_atom_site_fract_z
Si Si1 0.639898 0.812406 0.791140
Si Si2 0.900059 0.690425 0.982647
Si Si3 0.909107 0.306479 0.601200
Si Si4 0.821578 0.687771 0.557309
Si Si5 0.757417 0.309093 0.902775
Si Si6 0.427161 0.685000 0.280739
O O1 0.736464 0.780045 0.666997
O O2 0.602623 0.721884 0.767167
O O3 0.623989 0.000000 0.801766
O O4 0.603741 0.762704 0.921686
O O5 0.906410 0.500000 0.970929
O O6 0.978615 0.765283 0.839188
O O7 0.817310 0.744137 0.049941
O O8 0.911828 0.500000 0.598617
O O9 0.875073 0.261300 0.561371
O O10 0.842374 0.257108 0.752144
O O11 0.000000 0.248584 0.500000
O O12 0.803430 0.500000 0.589032
O O13 0.872500 0.718056 0.412894
O O14 0.754823 0.500000 0.904618
O O15 0.750000 0.250000 0.000000
O O16 0.417167 0.500000 0.311133
#
# Coordination Sequence:
#
# PCOD9220980 Si02
#       6
#     8   8   8   8   8   8
#     4  11  23  42  66  92 126 166 214 264 318 376
#     4  11  24  43  66  92 127 168 212 264 320 375
#     4   9  20  39  64  93 124 163 208 254 308 372
#     4  11  22  40  66  93 128 169 212 260 316 375
#     4  11  23  41  66  96 129 166 211 259 316 376
#     4  12  26  41  62  94 130 166 212 263 316 380
#
# _framework density 20.159171000000001
#
# number of rings (size 3 to 8) (size 9 to 14) (size 15 to 20)
#    0.000    1.167    1.667    4.500    2.333    4.000 
#    0.000    0.000    0.000    4.000    0.000    0.000 
#    0.000    0.000    0.000    0.000    0.000    0.000 
#
# Total GULP energy -134282.952594 kJ/mol
# GULP energy per Si atom -5595.123025 kJ/mol
# Density = 2.011329 g / cm^3
# Si number density = 20.159171 Si / 1000 Ang^3
#
#
#
# Elastic Constant Matrix: (Units=GPa)
#
#
# Indices 1 2 3 4 5 6 
#
# 1 77.5885 1.7402 1.0946 -0.0028 -0.5035 0.0004
# 2 1.7402 27.5205 -11.1225 -0.0116 2.9739 0.0083
# 3 1.0946 -11.1225 45.6268 0.0014 -1.8356 0.0013
# 4 -0.0028 -0.0116 0.0014 22.7939 0.0037 0.7435
# 5 -0.5035 2.9739 -1.8356 0.0037 42.2755 -0.0012
# 6 0.0004 0.0083 0.0013 0.7435 -0.0012 25.0229
#
#
#
# Elastic Compliance Matrix: (Units=1/GPa)
#
#
# Indices 1 2 3 4 5 6 
#
# 1 0.012922 -0.001066 -0.000562 0.000001 0.000205 0.000000
# 2 -0.001066 0.040643 0.009835 0.000021 -0.002445 -0.000015
# 3 -0.000562 0.009835 0.024342 0.000004 0.000358 -0.000005
# 4 0.000001 0.000021 0.000004 0.043914 -0.000005 -0.001305
# 5 0.000205 -0.002445 0.000358 -0.000005 0.023844 0.000002
# 6 0.000000 -0.000015 -0.000005 -0.001305 0.000002 0.040002
#
#
# Mechanical properties :
#
#
# Convention : Reuss Voigt Hill
#
# Bulk Modulus (GPa) = 10.60214 14.90673 12.75443
# Shear Modulus (GPa) = 24.91359 28.62002 26.76681
#
# Velocity S-wave (km/s) = 3.51927 3.77198 3.64782
# Velocity P-wave (km/s) = 4.66737 5.13625 4.90741
#
# Compressibility (1/GPa) = 0.09432061
#
# Stress axis : x y z
#
# Youngs Moduli (GPa) = 77.38934 24.60455 41.08078
#
# Poissons Ratio (x) = 0.02623 0.02307
# Poissons Ratio (y) = 0.08251 -0.40402
# Poissons Ratio (z) = 0.04347 -0.24198
#
# Static dielectric constant tensor:
#      x y z
#    x 1.679230 0.000000 -0.000310 
#    y 0.000000 1.684290 0.000000 
#    z -0.000310 0.000000 1.687330 
# 
# From -- ./inp_files/274573.got.cif
#   From: 2010.05.17/outbox.cif.g08.bks.cpg/sg12_138_cif.got.tgz:274573.got - 2010.06.03 13:09:07.
