data_PCOD9220196
_publ_section_title
;
Structure prediction by ZEFSAII (Michael W. Deem and Ramdas Pophale) SiO2 
 PCOD9220196
Probable space group: C 2/M
;
_chemical_formula_sum "Si O2"
_cell_formula_units_Z 48
_cell_length_a 19.013338
_cell_length_b 17.093386
_cell_length_c 22.434298
_cell_angle_alpha 90.000000
_cell_angle_beta 18.154209
_cell_angle_gamma 90.000000
_cell_volume 2271.759693
_symmetry_space_group_name_H-M "C 2/M"
_symmetry_group_IT_number 12
_symmetry_cell_setting 'monoclinic'
loop_
_space_group_symop_operation_xyz
x,y,z
-x,y,-z
-x,-y,-z
x,-y,z
1/2+x,1/2+y,z
1/2-x,1/2+y,-z
1/2-x,1/2-y,-z
1/2+x,1/2-y,z
loop_
_atom_site_type_symbol
_atom_site_label
_atom_site_fract_x
_atom_site_fract_y
_atom_site_fract_z
Si Si1 0.151176 0.339526 0.518348
Si Si2 0.838068 0.814310 0.575179
Si Si3 0.744886 0.912398 0.328483
Si Si4 0.433483 0.858016 0.986364
Si Si5 0.869891 0.173840 0.045307
Si Si6 0.454433 0.589098 0.370483
O O1 0.186416 0.261727 0.448563
O O2 0.214038 0.409586 0.423602
O O3 0.309860 0.350413 0.447280
O O4 0.890231 0.349198 0.746668
O O5 0.622750 0.850895 0.782801
O O6 0.941012 0.880099 0.449161
O O7 0.000000 0.792472 0.500000
O O8 0.500000 0.886328 0.500000
O O9 0.785302 0.000000 0.273187
O O10 0.959911 0.858939 0.140830
O O11 0.500000 0.885255 0.000000
O O12 0.363580 0.767423 0.050977
O O13 0.214956 0.904914 0.141828
O O14 0.000000 0.147295 0.000000
O O15 0.372980 0.500000 0.431304
#
# Coordination Sequence:
#
# PCOD9220196 Si02
#       6
#     8   8   8   8   8   8
#     4  12  24  44  71 102 144 183 229 295 353 418
#     4  12  23  46  80 107 132 182 249 292 344 421
#     4  11  23  38  62  99 141 188 234 285 346 412
#     4  11  23  44  75 106 131 179 240 297 351 413
#     4  11  21  39  70 101 134 181 241 290 342 417
#     4  12  29  47  67 106 151 186 227 294 366 419
#
# _framework density 21.128996000000001
#
# number of rings (size 3 to 8) (size 9 to 14) (size 15 to 20)
#    0.000    0.500    6.667    2.500    0.000    5.000 
#    0.000    0.000    0.000    0.000    0.000    0.000 
#    0.000    0.000    0.000    0.000    0.000    0.000 
#
# Total GULP energy -133937.303644 kJ/mol
# GULP energy per Si atom -5580.720985 kJ/mol
# Density = 2.108091 g / cm^3
# Si number density = 21.128996 Si / 1000 Ang^3
#
#
#
# Elastic Constant Matrix: (Units=GPa)
#
#
# Indices 1 2 3 4 5 6 
#
# 1 100.1287 28.3402 37.2304 0.0278 -3.0440 -0.0113
# 2 28.3402 64.7667 21.0840 -0.1599 7.5235 0.1673
# 3 37.2304 21.0840 147.7480 -0.0954 1.9749 0.1033
# 4 0.0278 -0.1599 -0.0954 18.6387 0.0725 -9.3018
# 5 -3.0440 7.5235 1.9749 0.0725 24.9220 -0.1252
# 6 -0.0113 0.1673 0.1033 -9.3018 -0.1252 -27.4631
#
#
#
# Elastic Compliance Matrix: (Units=1/GPa)
#
#
# Indices 1 2 3 4 5 6 
#
# 1 0.012416 -0.005008 -0.002457 -0.000099 0.003223 -0.000026
# 2 -0.005008 0.018784 -0.001336 0.000219 -0.006177 0.000066
# 3 -0.002457 -0.001336 0.007585 0.000038 -0.000498 0.000011
# 4 -0.000099 0.000219 0.000038 0.045898 -0.000293 -0.015543
# 5 0.003223 -0.006177 -0.000498 -0.000293 0.042423 -0.000135
# 6 -0.000026 0.000066 0.000011 -0.015543 -0.000135 -0.031147
#
#
# Mechanical properties :
#
#
# Convention : Reuss Voigt Hill
#
# Bulk Modulus (GPa) = 47.20717 53.99472 50.60095
# Shear Modulus (GPa) = 41.45172 18.28544 29.86858
#
# Velocity S-wave (km/s) = 4.43407 2.94499 3.76391
# Velocity P-wave (km/s) = 6.97177 6.09707 6.54904
#
# Compressibility (1/GPa) = 0.02118322
#
# Stress axis : x y z
#
# Youngs Moduli (GPa) = 80.54011 53.23666 131.84277
#
# Poissons Ratio (x) = 0.26659 0.32397
# Poissons Ratio (y) = 0.40332 0.17614
# Poissons Ratio (z) = 0.19791 0.07112
#
# Static dielectric constant tensor:
#      x y z
#    x 2.003780 0.000310 0.051140 
#    y 0.000310 1.771560 0.000120 
#    z 0.051140 0.000120 1.835350 
# 
# From -- ./inp_files/317455.got.cif
#   From: 2010.05.17/outbox.cif.g08.bks.cpg/sg12_159_cif.got.tgz:317455.got - 2010.06.03 13:09:07.
