data_PCOD9220216
_publ_section_title
;
Structure prediction by ZEFSAII (Michael W. Deem and Ramdas Pophale) SiO2 
 PCOD9220216
Probable space group: C 2/M
;
_chemical_formula_sum "Si O2"
_cell_formula_units_Z 56
_cell_length_a 9.828157
_cell_length_b 28.247591
_cell_length_c 11.657842
_cell_angle_alpha 90.000000
_cell_angle_beta 63.585230
_cell_angle_gamma 90.000000
_cell_volume 2898.573721
_symmetry_space_group_name_H-M "C 2/M"
_symmetry_group_IT_number 12
_symmetry_cell_setting 'monoclinic'
loop_
_space_group_symop_operation_xyz
x,y,z
-x,y,-z
-x,-y,-z
x,-y,z
1/2+x,1/2+y,z
1/2-x,1/2+y,-z
1/2-x,1/2-y,-z
1/2+x,1/2-y,z
loop_
_atom_site_type_symbol
_atom_site_label
_atom_site_fract_x
_atom_site_fract_y
_atom_site_fract_z
Si Si1 0.933292 0.339349 0.233610
Si Si2 0.755889 0.397335 0.898030
Si Si3 0.302584 0.000000 0.179441
Si Si4 0.090787 0.846101 0.752779
Si Si5 0.143154 0.500000 0.116779
Si Si6 0.679647 0.398165 0.197617
Si Si7 0.573819 0.741240 0.091916
Si Si8 0.661166 0.796889 0.494385
O O1 0.800872 0.362291 0.207428
O O2 0.872754 0.329720 0.383561
O O3 0.079006 0.373255 0.173030
O O4 0.993315 0.288815 0.165581
O O5 0.647011 0.370305 0.849888
O O6 0.780474 0.452792 0.862674
O O7 0.702423 0.395021 0.050504
O O8 0.459826 0.000000 0.191857
O O9 0.216662 0.950596 0.228789
O O10 0.334313 0.000000 0.029942
O O11 0.236936 0.824816 0.635358
O O12 0.993911 0.883587 0.716623
O O13 0.971984 0.802592 0.811787
O O14 0.500000 0.728104 0.000000
O O15 0.750000 0.750000 0.000000
O O16 0.500000 0.783276 0.500000
O O17 0.750000 0.750000 0.500000
#
# Coordination Sequence:
#
# PCOD9220216 Si02
#       8
#     8   8   4   8   4   8   8   8
#     4  12  23  40  66  90 127 172 220 259 308 383
#     4  11  21  40  64  99 132 167 210 262 327 387
#     4   9  18  37  61  98 131 160 210 263 312 401
#     4  12  25  42  62  92 135 170 214 266 313 384
#     4   9  18  35  65  94 130 169 204 255 327 391
#     4  11  23  38  67 100 129 165 209 264 332 381
#     4  12  24  37  58  92 129 161 198 255 323 376
#     4  12  28  47  65  87 126 178 231 262 308 371
#
# _framework density 19.319846999999999
#
# number of rings (size 3 to 8) (size 9 to 14) (size 15 to 20)
#    0.000    0.714    4.286    5.143    2.000    0.571 
#    0.000    2.143    0.000    5.143    0.000    0.000 
#    0.000    0.000    0.000    0.000    0.000    0.000 
#
# Total GULP energy -156485.033369 kJ/mol
# GULP energy per Si atom -5588.751192 kJ/mol
# Density = 1.927587 g / cm^3
# Si number density = 19.319847 Si / 1000 Ang^3
#
#
#
# Elastic Constant Matrix: (Units=GPa)
#
#
# Indices 1 2 3 4 5 6 
#
# 1 144.0482 53.8770 24.3720 0.0000 -17.2614 0.0000
# 2 53.8770 138.5557 27.8938 0.0000 -1.2999 0.0000
# 3 24.3720 27.8938 55.3893 0.0000 -8.1502 0.0000
# 4 0.0000 0.0000 0.0000 -49.9903 0.0000 21.5496
# 5 -17.2614 -1.2999 -8.1502 0.0000 23.7368 0.0000
# 6 0.0000 0.0000 0.0000 21.5496 0.0000 20.7411
#
#
#
# Elastic Compliance Matrix: (Units=1/GPa)
#
#
# Indices 1 2 3 4 5 6 
#
# 1 0.009097 -0.003173 -0.001535 0.000000 0.005915 0.000000
# 2 -0.003173 0.009161 -0.003668 0.000000 -0.003065 0.000000
# 3 -0.001535 -0.003668 0.021467 0.000000 0.006054 0.000000
# 4 0.000000 0.000000 0.000000 -0.013816 0.000000 0.014355
# 5 0.005915 -0.003065 0.006054 0.000000 0.048341 0.000000
# 6 0.000000 0.000000 0.000000 0.014355 0.000000 0.033299
#
#
# Mechanical properties :
#
#
# Convention : Reuss Voigt Hill
#
# Bulk Modulus (GPa) = 43.52797 61.14211 52.33504
# Shear Modulus (GPa) = 37.89041 14.35423 26.12232
#
# Velocity S-wave (km/s) = 4.43337 2.72872 3.68108
# Velocity P-wave (km/s) = 6.98466 6.45321 6.72418
#
# Compressibility (1/GPa) = 0.02297373
#
# Stress axis : x y z
#
# Youngs Moduli (GPa) = 109.92227 109.15997 46.58220
#
# Poissons Ratio (x) = 0.34637 0.07149
# Poissons Ratio (y) = 0.34879 0.17087
# Poissons Ratio (z) = 0.16870 0.40042
#
# Static dielectric constant tensor:
#      x y z
#    x 1.667820 0.000000 -0.006390 
#    y 0.000000 0.839980 0.000000 
#    z -0.006390 0.000000 1.666540 
# 
# From -- ./inp_files/125665.got.cif
#   From: 2010.05.17/outbox.cif.g08.bks.cpg/sg12_63_cif.got.tgz:125665.got - 2010.06.03 13:09:07.
