data_PCOD9220923
_publ_section_title
;
Structure prediction by ZEFSAII (Michael W. Deem and Ramdas Pophale) SiO2 
 PCOD9220923
Probable space group: C 2/M
;
_chemical_formula_sum "Si O2"
_cell_formula_units_Z 38
_cell_length_a 8.632585
_cell_length_b 26.824557
_cell_length_c 7.222189
_cell_angle_alpha 90.000000
_cell_angle_beta 76.965113
_cell_angle_gamma 90.000000
_cell_volume 1629.315048
_symmetry_space_group_name_H-M "C 2/M"
_symmetry_group_IT_number 12
_symmetry_cell_setting 'monoclinic'
loop_
_space_group_symop_operation_xyz
x,y,z
-x,y,-z
-x,-y,-z
x,-y,z
1/2+x,1/2+y,z
1/2-x,1/2+y,-z
1/2-x,1/2-y,-z
1/2+x,1/2-y,z
loop_
_atom_site_type_symbol
_atom_site_label
_atom_site_fract_x
_atom_site_fract_y
_atom_site_fract_z
Si Si1 0.399387 0.073020 0.761009
Si Si2 0.500000 0.639809 0.500000
Si Si3 0.739413 0.553945 0.441090
Si Si4 0.546893 0.812855 0.200904
Si Si5 0.000000 0.500000 0.000000
Si Si6 0.106442 0.217821 0.783418
O O1 0.260689 0.059247 0.656941
O O2 0.575058 0.052011 0.665583
O O3 0.430265 0.131586 0.734106
O O4 0.376168 0.044632 0.959043
O O5 0.641666 0.601910 0.402381
O O6 0.556140 0.675077 0.653024
O O7 0.671840 0.500000 0.407507
O O8 0.714985 0.787478 0.194925
O O9 0.418801 0.772356 0.303044
O O10 0.500000 0.820130 0.000000
O O11 0.000000 0.214954 0.000000
#
# Coordination Sequence:
#
# PCOD9220923 Si02
#       6
#     8   4   8   8   2   8
#     4  11  22  39  70  97 126 169 227 270 321 401
#     4  12  27  42  70  96 138 181 222 270 344 402
#     4  11  23  44  62  95 133 175 215 279 329 390
#     4  11  23  42  69  98 135 172 218 282 337 390
#     4  12  20  38  72 102 120 170 228 274 316 396
#     4  11  26  45  66 100 135 177 223 276 334 404
#
# _framework density 23.322683000000001
#
# number of rings (size 3 to 8) (size 9 to 14) (size 15 to 20)
#    0.000    0.842    5.263    3.474    5.895    2.526 
#    0.000    0.000    0.000    2.526    0.000    0.000 
#    0.000    0.000    0.000    0.000    0.000    0.000 
#
# Total GULP energy -105804.427494 kJ/mol
# GULP energy per Si atom -5568.654079 kJ/mol
# Density = 2.326960 g / cm^3
# Si number density = 23.322683 Si / 1000 Ang^3
#
#
#
# Elastic Constant Matrix: (Units=GPa)
#
#
# Indices 1 2 3 4 5 6 
#
# 1 70.3688 17.6965 -6.5174 0.0000 14.8336 0.0000
# 2 17.6965 206.4743 1.3332 0.0000 2.4515 0.0000
# 3 -6.5174 1.3332 60.2714 0.0000 21.9866 0.0000
# 4 0.0000 0.0000 0.0000 -13.3700 0.0000 -19.2556
# 5 14.8336 2.4515 21.9866 0.0000 26.2576 0.0000
# 6 0.0000 0.0000 0.0000 -19.2556 0.0000 -4.0736
#
#
#
# Elastic Compliance Matrix: (Units=1/GPa)
#
#
# Indices 1 2 3 4 5 6 
#
# 1 0.019164 -0.001485 0.008644 0.000000 -0.017926 0.000000
# 2 -0.001485 0.004964 -0.000587 0.000000 0.000867 0.000000
# 3 0.008644 -0.000587 0.027789 0.000000 -0.028098 0.000000
# 4 0.000000 0.000000 0.000000 0.012878 0.000000 -0.060875
# 5 -0.017926 0.000867 -0.028098 0.000000 0.071657 0.000000
# 6 0.000000 0.000000 0.000000 -0.060875 0.000000 0.042268
#
#
# Mechanical properties :
#
#
# Convention : Reuss Voigt Hill
#
# Bulk Modulus (GPa) = 15.37016 40.23765 27.80391
# Shear Modulus (GPa) = 26.70033 23.40295 25.05164
#
# Velocity S-wave (km/s) = 3.38719 3.17115 3.28095
# Velocity P-wave (km/s) = 4.67995 5.54060 5.12837
#
# Compressibility (1/GPa) = 0.06506114
#
# Stress axis : x y z
#
# Youngs Moduli (GPa) = 52.18190 201.44929 35.98522
#
# Poissons Ratio (x) = 0.29925 -0.31107
# Poissons Ratio (y) = 0.07751 0.02111
# Poissons Ratio (z) = -0.45107 0.11819
#
# Static dielectric constant tensor:
#      x y z
#    x 1.854080 0.000000 -0.090090 
#    y 0.000000 2.632790 0.000000 
#    z -0.090090 0.000000 2.364930 
# 
# From -- ./inp_files/39465.got.cif
#   From: 2010.05.17/outbox.cif.g08.bks.cpg/sg12_20_cif.got.tgz:39465.got - 2010.06.03 13:09:07.
