data_PCOD9220992
_publ_section_title
;
Structure prediction by ZEFSAII (Michael W. Deem and Ramdas Pophale) SiO2 
 PCOD9220992
Probable space group: C 2/M
;
_chemical_formula_sum "Si O2"
_cell_formula_units_Z 44
_cell_length_a 17.275723
_cell_length_b 14.230095
_cell_length_c 22.768905
_cell_angle_alpha 90.000000
_cell_angle_beta 20.029611
_cell_angle_gamma 90.000000
_cell_volume 1917.140890
_symmetry_space_group_name_H-M "C 2/M"
_symmetry_group_IT_number 12
_symmetry_cell_setting 'monoclinic'
loop_
_space_group_symop_operation_xyz
x,y,z
-x,y,-z
-x,-y,-z
x,-y,z
1/2+x,1/2+y,z
1/2-x,1/2+y,-z
1/2-x,1/2-y,-z
1/2+x,1/2-y,z
loop_
_atom_site_type_symbol
_atom_site_label
_atom_site_fract_x
_atom_site_fract_y
_atom_site_fract_z
Si Si1 0.523622 0.889095 0.855136
Si Si2 0.530876 0.398189 0.394776
Si Si3 0.228569 0.601496 0.208607
Si Si4 0.851858 0.744919 0.323095
Si Si5 0.321136 0.696981 0.815440
Si Si6 0.500000 0.859398 0.500000
O O1 0.791815 0.884475 0.678787
O O2 0.482545 0.832095 0.824478
O O3 0.460653 0.000000 0.900427
O O4 0.404416 0.823049 0.987494
O O5 0.425369 0.500000 0.475295
O O6 0.345917 0.321171 0.512676
O O7 0.679635 0.386735 0.230748
O O8 0.145392 0.500000 0.243458
O O9 0.161777 0.700138 0.226223
O O10 0.124159 0.602526 0.350340
O O11 0.500000 0.600465 0.000000
O O12 0.717138 0.806583 0.372088
O O13 0.977083 0.806926 0.281336
#
# Coordination Sequence:
#
# PCOD9220992 Si02
#       6
#     8   8   8   8   8   4
#     4  11  23  42  69 101 135 176 224 279 347 421
#     4  11  22  40  67  96 131 172 220 275 339 415
#     4  11  25  45  70  98 134 184 237 282 335 412
#     4  12  23  41  65  97 136 175 222 279 346 411
#     4  12  24  42  65 100 134 175 219 285 350 400
#     4  12  23  46  71  94 136 188 229 282 349 416
#
# _framework density 22.950842000000002
#
# number of rings (size 3 to 8) (size 9 to 14) (size 15 to 20)
#    0.000    0.545    3.636    5.182    0.000    4.364 
#    0.000    4.545    0.000    0.000    0.000    0.000 
#    0.000    0.000    0.000    0.000    0.000    0.000 
#
# Total GULP energy -122470.760279 kJ/mol
# GULP energy per Si atom -5566.852740 kJ/mol
# Density = 2.289861 g / cm^3
# Si number density = 22.950842 Si / 1000 Ang^3
#
#
#
# Elastic Constant Matrix: (Units=GPa)
#
#
# Indices 1 2 3 4 5 6 
#
# 1 76.0990 41.0809 13.9893 0.1207 1.4017 0.1119
# 2 41.0809 120.5150 27.1532 -0.1752 3.8605 -0.0790
# 3 13.9893 27.1532 90.9532 0.0249 30.7638 0.1287
# 4 0.1207 -0.1752 0.0249 -53.8462 -0.0416 -48.5228
# 5 1.4017 3.8605 30.7638 -0.0416 50.2027 -0.0172
# 6 0.1119 -0.0790 0.1287 -48.5228 -0.0172 -19.7932
#
#
#
# Elastic Compliance Matrix: (Units=1/GPa)
#
#
# Indices 1 2 3 4 5 6 
#
# 1 0.016189 -0.005284 -0.001132 0.000035 0.000648 0.000020
# 2 -0.005284 0.010678 -0.002708 -0.000028 0.000986 -0.000023
# 3 -0.001132 -0.002708 0.015007 0.000065 -0.008956 -0.000050
# 4 0.000035 -0.000028 0.000065 0.015360 -0.000039 -0.037654
# 5 0.000648 0.000986 -0.008956 -0.000039 0.025313 0.000015
# 6 0.000020 -0.000023 -0.000050 -0.037654 0.000015 0.041785
#
#
# Mechanical properties :
#
#
# Convention : Reuss Voigt Hill
#
# Bulk Modulus (GPa) = 42.32826 50.22377 46.27602
# Shear Modulus (GPa) = 33.23243 9.00223 21.11733
#
# Velocity S-wave (km/s) = 3.80937 1.98265 3.03662
# Velocity P-wave (km/s) = 6.15072 5.21267 5.70102
#
# Compressibility (1/GPa) = 0.02362488
#
# Stress axis : x y z
#
# Youngs Moduli (GPa) = 61.76862 93.65372 66.63726
#
# Poissons Ratio (x) = 0.49490 0.07541
# Poissons Ratio (y) = 0.32641 0.18048
# Poissons Ratio (z) = 0.06990 0.25366
#
# Static dielectric constant tensor:
#      x y z
#    x 1.856670 -0.000020 0.099270 
#    y -0.000020 1.851300 0.000030 
#    z 0.099270 0.000030 1.938030 
# 
# From -- ./inp_files/343926.got.cif
#   From: 2010.05.17/outbox.cif.g08.bks.cpg/sg12_172_cif.got.tgz:343926.got - 2010.06.03 13:09:07.
