data_PCOD9220422
_publ_section_title
;
Structure prediction by ZEFSAII (Michael W. Deem and Ramdas Pophale) SiO2 
 PCOD9220422
Probable space group: C 2/M
;
_chemical_formula_sum "Si O2"
_cell_formula_units_Z 40
_cell_length_a 12.824133
_cell_length_b 19.994320
_cell_length_c 9.009246
_cell_angle_alpha 90.000000
_cell_angle_beta 132.716568
_cell_angle_gamma 90.000000
_cell_volume 1697.243099
_symmetry_space_group_name_H-M "C 2/M"
_symmetry_group_IT_number 12
_symmetry_cell_setting 'monoclinic'
loop_
_space_group_symop_operation_xyz
x,y,z
-x,y,-z
-x,-y,-z
x,-y,z
1/2+x,1/2+y,z
1/2-x,1/2+y,-z
1/2-x,1/2-y,-z
1/2+x,1/2-y,z
loop_
_atom_site_type_symbol
_atom_site_label
_atom_site_fract_x
_atom_site_fract_y
_atom_site_fract_z
Si Si1 0.290608 0.362096 0.111069
Si Si2 0.150615 0.575342 0.230398
Si Si3 0.971073 0.218259 0.796509
Si Si4 0.514635 0.852794 0.339016
Si Si5 0.043928 0.927840 0.214257
O O1 0.143893 0.361988 0.880379
O O2 0.254934 0.373057 0.248862
O O3 0.381960 0.298493 0.148574
O O4 0.397573 0.420792 0.164686
O O5 0.198506 0.500000 0.248343
O O6 0.110614 0.589031 0.361296
O O7 0.000000 0.583169 0.000000
O O8 0.920263 0.284635 0.667202
O O9 0.890272 0.146886 0.704811
O O10 0.000000 0.230606 0.000000
O O11 0.500000 0.851384 0.500000
O O12 0.110751 0.000000 0.312940
O O13 0.000000 0.928753 0.000000
#
# Coordination Sequence:
#
# PCOD9220422 Si02
#       5
#     8   8   8   8   8
#     4   9  17  32  57  77  99 136 179 217 254 309
#     4   9  18  33  53  75 101 138 179 214 253 310
#     4   9  18  34  56  78 105 135 177 218 252 316
#     4  11  22  34  49  78 112 142 174 216 269 311
#     4   8  15  28  54  82  99 124 175 226 258 297
#
# _framework density 23.567632
#
# number of rings (size 3 to 8) (size 9 to 14) (size 15 to 20)
#    1.200    1.600    0.000    3.000    0.000    1.200 
#    0.000    4.000    0.000    0.600    0.000    0.000 
#    0.000    0.000    0.000    0.000    0.000    0.000 
#
# Total GULP energy -111435.212931 kJ/mol
# GULP energy per Si atom -5571.760647 kJ/mol
# Density = 2.351399 g / cm^3
# Si number density = 23.567632 Si / 1000 Ang^3
#
#
#
# Elastic Constant Matrix: (Units=GPa)
#
#
# Indices 1 2 3 4 5 6 
#
# 1 66.2191 28.3748 42.0694 0.0000 -28.6005 0.0000
# 2 28.3748 97.8705 28.4717 0.0000 -26.1870 0.0000
# 3 42.0694 28.4717 98.4190 0.0000 -36.0952 0.0000
# 4 0.0000 0.0000 0.0000 -0.1318 0.0000 -26.9733
# 5 -28.6005 -26.1870 -36.0952 0.0000 51.1353 0.0000
# 6 0.0000 0.0000 0.0000 -26.9733 0.0000 39.2659
#
#
#
# Elastic Compliance Matrix: (Units=1/GPa)
#
#
# Indices 1 2 3 4 5 6 
#
# 1 0.023656 -0.003055 -0.006678 0.000000 0.006952 0.000000
# 2 -0.003055 0.012429 -0.000785 0.000000 0.004102 0.000000
# 3 -0.006678 -0.000785 0.015821 0.000000 0.007030 0.000000
# 4 0.000000 0.000000 0.000000 -0.053588 0.000000 -0.036812
# 5 0.006952 0.004102 0.007030 0.000000 0.030508 0.000000
# 6 0.000000 0.000000 0.000000 -0.036812 0.000000 0.000180
#
#
# Mechanical properties :
#
#
# Convention : Reuss Voigt Hill
#
# Bulk Modulus (GPa) = 32.39536 51.14895 41.77216
# Shear Modulus (GPa) = 82.87405 28.96007 55.91706
#
# Velocity S-wave (km/s) = 5.93639 3.50924 4.87624
# Velocity P-wave (km/s) = 7.79507 6.17817 7.03324
#
# Compressibility (1/GPa) = 0.03086862
#
# Stress axis : x y z
#
# Youngs Moduli (GPa) = 42.27242 80.45416 63.20821
#
# Poissons Ratio (x) = 0.24582 0.42211
# Poissons Ratio (y) = 0.12916 0.04963
# Poissons Ratio (z) = 0.28230 0.06318
#
# Static dielectric constant tensor:
#      x y z
#    x 1.872820 0.000000 0.021750 
#    y 0.000000 1.907070 0.000000 
#    z 0.021750 0.000000 1.933890 
# 
# From -- ./inp_files/62260.got.cif
#   From: 2010.05.17/outbox.cif.g08.bks.cpg/sg12_32_cif.got.tgz:62260.got - 2010.06.03 13:09:07.
