data_PCOD9220083
_publ_section_title
;
Structure prediction by ZEFSAII (Michael W. Deem and Ramdas Pophale) SiO2 
 PCOD9220083
Probable space group: C 2/M
;
_chemical_formula_sum "Si O2"
_cell_formula_units_Z 58
_cell_length_a 9.040701
_cell_length_b 16.668568
_cell_length_c 19.553872
_cell_angle_alpha 90.000000
_cell_angle_beta 119.138541
_cell_angle_gamma 90.000000
_cell_volume 2573.763694
_symmetry_space_group_name_H-M "C 2/M"
_symmetry_group_IT_number 12
_symmetry_cell_setting 'monoclinic'
loop_
_space_group_symop_operation_xyz
x,y,z
-x,y,-z
-x,-y,-z
x,-y,z
1/2+x,1/2+y,z
1/2-x,1/2+y,-z
1/2-x,1/2-y,-z
1/2+x,1/2-y,z
loop_
_atom_site_type_symbol
_atom_site_label
_atom_site_fract_x
_atom_site_fract_y
_atom_site_fract_z
Si Si1 0.276998 0.597955 0.569660
Si Si2 0.067080 0.631874 0.134812
Si Si3 0.923719 0.329645 0.235894
Si Si4 0.072927 0.793320 0.948867
Si Si5 0.898821 0.911301 0.293224
Si Si6 0.026157 0.596716 0.395750
Si Si7 0.500000 0.000000 0.000000
Si Si8 0.451229 0.659073 0.790908
O O1 0.285859 0.500000 0.573293
O O2 0.470728 0.627449 0.623239
O O3 0.186421 0.620256 0.478473
O O4 0.142835 0.621675 0.599209
O O5 0.233560 0.625398 0.220283
O O6 0.042636 0.569372 0.068686
O O7 0.925395 0.626318 0.162684
O O8 0.052252 0.720005 0.098815
O O9 0.736279 0.332632 0.223572
O O10 0.032881 0.368471 0.321193
O O11 0.992004 0.240748 0.234567
O O12 0.073859 0.850272 0.883809
O O13 0.250000 0.750000 0.000000
O O14 0.000000 0.833133 0.000000
O O15 0.024452 0.912301 0.256033
O O16 0.850432 0.000000 0.305950
O O17 0.021438 0.500000 0.390884
#
# Coordination Sequence:
#
# PCOD9220083 Si02
#       8
#     8   8   8   8   8   8   2   8
#     4   8  16  33  62  93 127 167 210 255 313 382
#     4  11  24  40  63  91 126 166 203 253 323 374
#     4  11  23  41  63  92 126 170 211 265 319 376
#     4  11  21  38  61  81 111 157 210 246 303 370
#     4  11  21  40  64  93 126 172 206 257 328 385
#     4   9  17  34  63  97 125 163 216 263 309 380
#     4  12  24  44  64  94 134 160 198 270 320 392
#     4  11  23  39  61  91 125 162 215 265 314 391
#
# _framework density 22.535091000000001
#
# number of rings (size 3 to 8) (size 9 to 14) (size 15 to 20)
#    0.000    1.655    2.759    4.966    0.966    0.000 
#    0.000    1.379    0.000    3.724    0.000    0.000 
#    0.000    0.000    0.000    0.000    0.000    0.000 
#
# Total GULP energy -161529.048321 kJ/mol
# GULP energy per Si atom -5569.967183 kJ/mol
# Density = 2.248380 g / cm^3
# Si number density = 22.535091 Si / 1000 Ang^3
#
#
#
# Elastic Constant Matrix: (Units=GPa)
#
#
# Indices 1 2 3 4 5 6 
#
# 1 66.2693 -2.6482 6.6933 0.0000 7.6419 0.0000
# 2 -2.6482 31.1585 11.5412 0.0000 -4.0092 0.0000
# 3 6.6933 11.5412 123.2394 0.0000 0.1720 0.0000
# 4 0.0000 0.0000 0.0000 23.7457 0.0000 -5.4760
# 5 7.6419 -4.0092 0.1720 0.0000 47.4587 0.0000
# 6 0.0000 0.0000 0.0000 -5.4760 0.0000 16.6335
#
#
#
# Elastic Compliance Matrix: (Units=1/GPa)
#
#
# Indices 1 2 3 4 5 6 
#
# 1 0.015517 0.001371 -0.000968 0.000000 -0.002379 0.000000
# 2 0.001371 0.033750 -0.003239 0.000000 0.002642 0.000000
# 3 -0.000968 -0.003239 0.008470 0.000000 -0.000148 0.000000
# 4 0.000000 0.000000 0.000000 0.045573 0.000000 0.015003
# 5 -0.002379 0.002642 -0.000148 0.000000 0.021678 0.000000
# 6 0.000000 0.000000 0.000000 0.015003 0.000000 0.065059
#
#
# Mechanical properties :
#
#
# Convention : Reuss Voigt Hill
#
# Bulk Modulus (GPa) = 19.20625 27.98220 23.59423
# Shear Modulus (GPa) = 23.46613 31.23964 27.35289
#
# Velocity S-wave (km/s) = 3.23044 3.72730 3.48773
# Velocity P-wave (km/s) = 4.73874 5.56487 5.16834
#
# Compressibility (1/GPa) = 0.05206640
#
# Stress axis : x y z
#
# Youngs Moduli (GPa) = 64.44608 29.62948 118.05856
#
# Poissons Ratio (x) = -0.04063 0.11426
# Poissons Ratio (y) = -0.08837 0.38237
# Poissons Ratio (z) = 0.06237 0.09596
#
# Static dielectric constant tensor:
#      x y z
#    x 1.930220 0.000000 0.053310 
#    y 0.000000 1.862340 0.000000 
#    z 0.053310 0.000000 1.908080 
# 
# From -- ./inp_files/258522.got.cif
#   From: 2010.05.17/outbox.cif.g08.bks.cpg/sg12_130_cif.got.tgz:258522.got - 2010.06.03 13:09:07.
