data_PCOD9220762
_publ_section_title
;
Structure prediction by ZEFSAII (Michael W. Deem and Ramdas Pophale) SiO2 
 PCOD9220762
Probable space group: C 2/M
;
_chemical_formula_sum "Si O2"
_cell_formula_units_Z 64
_cell_length_a 15.048169
_cell_length_b 17.830768
_cell_length_c 15.407327
_cell_angle_alpha 90.000000
_cell_angle_beta 133.184676
_cell_angle_gamma 90.000000
_cell_volume 3014.386207
_symmetry_space_group_name_H-M "C 2/M"
_symmetry_group_IT_number 12
_symmetry_cell_setting 'monoclinic'
loop_
_space_group_symop_operation_xyz
x,y,z
-x,y,-z
-x,-y,-z
x,-y,z
1/2+x,1/2+y,z
1/2-x,1/2+y,-z
1/2-x,1/2-y,-z
1/2+x,1/2-y,z
loop_
_atom_site_type_symbol
_atom_site_label
_atom_site_fract_x
_atom_site_fract_y
_atom_site_fract_z
Si Si1 0.104214 0.585992 0.257316
Si Si2 0.807314 0.588299 0.060558
Si Si3 0.547084 0.219962 0.117264
Si Si4 0.396582 0.317910 0.156300
Si Si5 0.277824 0.646513 0.809081
Si Si6 0.117548 0.080593 0.277765
Si Si7 0.451126 0.241833 0.378317
Si Si8 0.305509 0.168460 0.516933
O O1 0.134086 0.500000 0.252036
O O2 0.134891 0.658816 0.219845
O O3 0.169180 0.608846 0.390004
O O4 0.955236 0.590883 0.159698
O O5 0.775549 0.500000 0.023531
O O6 0.762098 0.615740 0.124934
O O7 0.738167 0.648892 0.952190
O O8 0.453195 0.255500 0.126351
O O9 0.619952 0.289230 0.123916
O O10 0.500000 0.178611 0.000000
O O11 0.482848 0.388211 0.194414
O O12 0.419680 0.289725 0.270299
O O13 0.334908 0.582286 0.788430
O O14 0.164818 0.688328 0.688022
O O15 0.207225 0.135083 0.387249
O O16 0.126100 0.000000 0.323684
O O17 0.500000 0.280907 0.500000
O O18 0.561562 0.186684 0.429546
O O19 0.250000 0.250000 0.500000
#
# Coordination Sequence:
#
# PCOD9220762 Si02
#       8
#     8   8   8   8   8   8   8   8
#     4  11  25  42  64  96 135 176 213 268 337 395
#     4  11  23  41  65  97 139 175 211 271 341 396
#     4  11  22  38  64  93 126 171 220 262 310 389
#     4  11  23  42  65  94 132 176 223 267 320 392
#     4  11  22  38  62  99 131 165 215 270 326 389
#     4  11  23  38  62  94 131 172 212 263 332 395
#     4  12  24  40  66  95 125 164 222 277 322 376
#     4  12  21  43  65  93 127 170 224 267 323 384
#
# _framework density 21.23152
#
# number of rings (size 3 to 8) (size 9 to 14) (size 15 to 20)
#    0.000    0.750    6.250    1.875    1.750    1.250 
#    0.000    2.500    0.000    1.500    0.000    0.000 
#    0.000    0.000    0.000    0.000    0.000    0.000 
#
# Total GULP energy -178431.387889 kJ/mol
# GULP energy per Si atom -5575.980872 kJ/mol
# Density = 2.118320 g / cm^3
# Si number density = 21.231520 Si / 1000 Ang^3
#
#
#
# Elastic Constant Matrix: (Units=GPa)
#
#
# Indices 1 2 3 4 5 6 
#
# 1 34.7627 4.9207 8.2011 0.0000 4.0923 0.0000
# 2 4.9207 106.7181 0.3675 0.0000 -3.7068 0.0000
# 3 8.2011 0.3675 70.5750 0.0000 -7.7321 0.0000
# 4 0.0000 0.0000 0.0000 34.2355 0.0000 4.0461
# 5 4.0923 -3.7068 -7.7321 0.0000 41.0909 0.0000
# 6 0.0000 0.0000 0.0000 4.0461 0.0000 5.5127
#
#
#
# Elastic Compliance Matrix: (Units=1/GPa)
#
#
# Indices 1 2 3 4 5 6 
#
# 1 0.030373 -0.001523 -0.003949 0.000000 -0.003905 0.000000
# 2 -0.001523 0.009476 0.000243 0.000000 0.001052 0.000000
# 3 -0.003949 0.000243 0.014981 0.000000 0.003234 0.000000
# 4 0.000000 0.000000 0.000000 0.031984 0.000000 -0.023475
# 5 -0.003905 0.001052 0.003234 0.000000 0.025429 0.000000
# 6 0.000000 0.000000 0.000000 -0.023475 0.000000 0.198628
#
#
# Mechanical properties :
#
#
# Convention : Reuss Voigt Hill
#
# Bulk Modulus (GPa) = 22.53628 26.55937 24.54782
# Shear Modulus (GPa) = 14.87559 29.40560 22.14060
#
# Velocity S-wave (km/s) = 2.64983 3.72559 3.23277
# Velocity P-wave (km/s) = 4.47210 5.57165 5.05188
#
# Compressibility (1/GPa) = 0.04437290
#
# Stress axis : x y z
#
# Youngs Moduli (GPa) = 32.92351 105.52538 66.74971
#
# Poissons Ratio (x) = 0.16067 0.26362
# Poissons Ratio (y) = 0.05013 -0.01621
# Poissons Ratio (z) = 0.13003 -0.02563
#
# Static dielectric constant tensor:
#      x y z
#    x 1.827390 0.000000 -0.024770 
#    y 0.000000 1.788040 0.000000 
#    z -0.024770 0.000000 1.754420 
# 
# From -- ./inp_files/216820.got.cif
#   From: 2010.05.17/outbox.cif.g08.bks.cpg/sg12_109_cif.got.tgz:216820.got - 2010.06.03 13:09:07.
