data_PCOD9220679
_publ_section_title
;
Structure prediction by ZEFSAII (Michael W. Deem and Ramdas Pophale) SiO2 
 PCOD9220679
Probable space group: C 2/M
;
_chemical_formula_sum "Si O2"
_cell_formula_units_Z 34
_cell_length_a 10.006137
_cell_length_b 14.431244
_cell_length_c 21.584652
_cell_angle_alpha 90.000000
_cell_angle_beta 150.985952
_cell_angle_gamma 90.000000
_cell_volume 1511.744989
_symmetry_space_group_name_H-M "C 2/M"
_symmetry_group_IT_number 12
_symmetry_cell_setting 'monoclinic'
loop_
_space_group_symop_operation_xyz
x,y,z
-x,y,-z
-x,-y,-z
x,-y,z
1/2+x,1/2+y,z
1/2-x,1/2+y,-z
1/2-x,1/2-y,-z
1/2+x,1/2-y,z
loop_
_atom_site_type_symbol
_atom_site_label
_atom_site_fract_x
_atom_site_fract_y
_atom_site_fract_z
Si Si1 0.629988 0.652950 0.149077
Si Si2 0.736896 0.136155 0.431324
Si Si3 0.708060 0.361220 0.406649
Si Si4 0.500000 0.500000 0.000000
Si Si5 0.285086 0.338356 0.135291
O O1 0.472597 0.676502 0.149687
O O2 0.690438 0.744164 0.132401
O O3 0.929789 0.608520 0.286668
O O4 0.468667 0.580970 0.041161
O O5 0.719714 0.248390 0.416370
O O6 0.810194 0.109062 0.530509
O O7 0.000000 0.104715 0.500000
O O8 0.471696 0.387172 0.262782
O O9 0.000000 0.392272 0.500000
O O10 0.000000 0.385307 0.000000
#
# Coordination Sequence:
#
# PCOD9220679 Si02
#       5
#     8   8   8   2   8
#     4  11  24  42  64  96 129 173 216 266 327 380
#     4   9  18  31  58  93 124 162 207 264 318 380
#     4   9  16  30  52  90 128 149 196 272 319 348
#     4  12  28  44  64  82 148 176 202 266 344 382
#     4  11  22  37  68  98 126 164 225 270 309 382
#
# _framework density 22.490566000000001
#
# number of rings (size 3 to 8) (size 9 to 14) (size 15 to 20)
#    0.000    1.882    3.529    0.706    9.882    0.000 
#    0.000    1.176    0.000    2.824    0.000    0.000 
#    0.000    0.000    0.000    0.000    0.000    0.000 
#
# Total GULP energy -94638.033357 kJ/mol
# GULP energy per Si atom -5566.943139 kJ/mol
# Density = 2.243938 g / cm^3
# Si number density = 22.490566 Si / 1000 Ang^3
#
#
#
# Elastic Constant Matrix: (Units=GPa)
#
#
# Indices 1 2 3 4 5 6 
#
# 1 196.5712 5.0085 63.6941 -0.0003 -15.8738 0.0001
# 2 5.0085 87.3661 -4.6132 0.0015 -3.8621 0.0005
# 3 63.6941 -4.6132 170.9415 0.0070 -3.2909 -0.0003
# 4 -0.0003 0.0015 0.0070 -0.3152 0.0026 -13.2379
# 5 -15.8738 -3.8621 -3.2909 0.0026 45.6169 -0.0004
# 6 0.0001 0.0005 -0.0003 -13.2379 -0.0004 -9.1819
#
#
#
# Elastic Compliance Matrix: (Units=1/GPa)
#
#
# Indices 1 2 3 4 5 6 
#
# 1 0.005960 -0.000374 -0.002195 0.000001 0.001884 -0.000001
# 2 -0.000374 0.011531 0.000468 -0.000001 0.000880 0.000002
# 3 -0.002195 0.000468 0.006676 -0.000003 -0.000242 0.000004
# 4 0.000001 -0.000001 -0.000003 0.053275 -0.000004 -0.076809
# 5 0.001884 0.000880 -0.000242 -0.000004 0.022634 0.000004
# 6 -0.000001 0.000002 0.000004 -0.076809 0.000004 0.001829
#
#
# Mechanical properties :
#
#
# Convention : Reuss Voigt Hill
#
# Bulk Modulus (GPa) = 50.08960 64.78417 57.43688
# Shear Modulus (GPa) = 44.34106 33.27659 38.80883
#
# Velocity S-wave (km/s) = 4.44502 3.85070 4.15849
# Velocity P-wave (km/s) = 6.97596 6.97410 6.97503
#
# Compressibility (1/GPa) = 0.01996423
#
# Stress axis : x y z
#
# Youngs Moduli (GPa) = 167.78569 86.72177 149.79881
#
# Poissons Ratio (x) = 0.03246 0.32874
# Poissons Ratio (y) = 0.06280 -0.07004
# Poissons Ratio (z) = 0.36822 -0.04055
#
# Static dielectric constant tensor:
#      x y z
#    x 1.733860 0.000000 0.020490 
#    y 0.000000 1.747040 0.000000 
#    z 0.020490 0.000000 1.859150 
# 
# From -- ./inp_files/118633.got.cif
#   From: 2010.05.17/outbox.cif.g08.bks.cpg/sg12_60_cif.got.tgz:118633.got - 2010.06.03 13:09:07.
