data_PCOD9220280
_publ_section_title
;
Structure prediction by ZEFSAII (Michael W. Deem and Ramdas Pophale) SiO2 
 PCOD9220280
Probable space group: C 2/M
;
_chemical_formula_sum "Si O2"
_cell_formula_units_Z 58
_cell_length_a 26.877861
_cell_length_b 19.107968
_cell_length_c 9.747927
_cell_angle_alpha 90.000000
_cell_angle_beta 37.264690
_cell_angle_gamma 90.000000
_cell_volume 3031.337059
_symmetry_space_group_name_H-M "C 2/M"
_symmetry_group_IT_number 12
_symmetry_cell_setting 'monoclinic'
loop_
_space_group_symop_operation_xyz
x,y,z
-x,y,-z
-x,-y,-z
x,-y,z
1/2+x,1/2+y,z
1/2-x,1/2+y,-z
1/2-x,1/2-y,-z
1/2+x,1/2-y,z
loop_
_atom_site_type_symbol
_atom_site_label
_atom_site_fract_x
_atom_site_fract_y
_atom_site_fract_z
Si Si1 0.853063 0.670564 0.471393
Si Si2 0.555850 0.262336 0.243936
Si Si3 0.974521 0.612762 0.800064
Si Si4 0.500000 0.000000 0.500000
Si Si5 0.221595 0.822677 0.997002
Si Si6 0.693220 0.417494 0.326842
Si Si7 0.059021 0.181408 0.739030
Si Si8 0.319702 0.078106 0.295279
O O1 0.879875 0.751093 0.385162
O O2 0.811311 0.635918 0.430708
O O3 0.938327 0.632970 0.324963
O O4 0.791703 0.659936 0.733198
O O5 0.500000 0.252409 0.500000
O O6 0.568930 0.184957 0.154256
O O7 0.636695 0.304829 0.106680
O O8 0.501654 0.303144 0.253199
O O9 0.986368 0.560990 0.647790
O O10 0.914326 0.580034 0.043271
O O11 0.209700 0.877332 0.147430
O O12 0.250000 0.750000 0.000000
O O13 0.683627 0.500000 0.322030
O O14 0.614760 0.384195 0.575396
O O15 0.767462 0.408383 0.272294
O O16 0.000000 0.174497 0.000000
O O17 0.297486 0.000000 0.394072
#
# Coordination Sequence:
#
# PCOD9220280 Si02
#       8
#     8   8   8   2   8   8   8   8
#     4  11  25  41  67  98 128 173 222 268 326 391
#     4  11  21  41  66  95 127 161 224 276 315 382
#     4  11  23  39  61  95 135 172 223 261 321 398
#     4  12  24  32  62  96 124 192 208 254 330 394
#     4  12  23  43  70  98 130 172 213 277 331 390
#     4  11  26  45  67  99 133 171 220 276 337 391
#     4  11  24  44  68  94 127 170 221 272 328 393
#     4  11  25  42  62  94 140 175 213 270 324 393
#
# _framework density 19.133471
#
# number of rings (size 3 to 8) (size 9 to 14) (size 15 to 20)
#    0.000    0.828    4.138    3.724    4.828    1.931 
#    0.000    1.379    0.000    0.000    0.000    0.000 
#    0.000    0.000    0.000    0.000    0.000    0.000 
#
# Total GULP energy -161786.082137 kJ/mol
# GULP energy per Si atom -5578.830419 kJ/mol
# Density = 1.908992 g / cm^3
# Si number density = 19.133471 Si / 1000 Ang^3
#
#
#
# Elastic Constant Matrix: (Units=GPa)
#
#
# Indices 1 2 3 4 5 6 
#
# 1 68.8862 65.9137 -0.0385 0.0000 -15.1397 0.0000
# 2 65.9137 119.2122 43.9238 0.0000 -4.9584 0.0000
# 3 -0.0385 43.9238 69.2722 0.0000 -8.7858 0.0000
# 4 0.0000 0.0000 0.0000 26.5330 0.0000 6.3481
# 5 -15.1397 -4.9584 -8.7858 0.0000 22.2871 0.0000
# 6 0.0000 0.0000 0.0000 6.3481 0.0000 24.5462
#
#
#
# Elastic Compliance Matrix: (Units=1/GPa)
#
#
# Indices 1 2 3 4 5 6 
#
# 1 0.101829 -0.073996 0.056485 0.000000 0.074977 0.000000
# 2 -0.073996 0.064718 -0.048027 0.000000 -0.054800 0.000000
# 3 0.056485 -0.048027 0.050980 0.000000 0.047782 0.000000
# 4 0.000000 0.000000 0.000000 0.040175 0.000000 -0.010390
# 5 0.074977 -0.054800 0.047782 0.000000 0.102445 0.000000
# 6 0.000000 0.000000 0.000000 -0.010390 0.000000 0.043426
#
#
# Mechanical properties :
#
#
# Convention : Reuss Voigt Hill
#
# Bulk Modulus (GPa) = 11.56727 52.99650 32.28189
# Shear Modulus (GPa) = 8.87362 24.51138 16.69250
#
# Velocity S-wave (km/s) = 2.15588 3.58309 2.95689
# Velocity P-wave (km/s) = 3.50083 6.69899 5.34473
#
# Compressibility (1/GPa) = 0.08645080
#
# Stress axis : x y z
#
# Youngs Moduli (GPa) = 9.82035 15.45168 19.61540
#
# Poissons Ratio (x) = 1.14336 -1.10797
# Poissons Ratio (y) = 0.72667 0.94208
# Poissons Ratio (z) = -0.55470 0.74210
#
# Static dielectric constant tensor:
#      x y z
#    x 1.682560 0.000000 -0.023750 
#    y 0.000000 1.663630 0.000000 
#    z -0.023750 0.000000 1.659820 
# 
# From -- ./inp_files/99260.got.cif
#   From: 2010.05.17/outbox.cif.g08.bks.cpg/sg12_50_cif.got.tgz:99260.got - 2010.06.03 13:09:07.
