data_PCOD9220416
_publ_section_title
;
Structure prediction by ZEFSAII (Michael W. Deem and Ramdas Pophale) SiO2 
 PCOD9220416
Probable space group: C 2/M
;
_chemical_formula_sum "Si O2"
_cell_formula_units_Z 40
_cell_length_a 28.689708
_cell_length_b 7.576786
_cell_length_c 19.569153
_cell_angle_alpha 90.000000
_cell_angle_beta 27.245184
_cell_angle_gamma 90.000000
_cell_volume 1947.413584
_symmetry_space_group_name_H-M "C 2/M"
_symmetry_group_IT_number 12
_symmetry_cell_setting 'monoclinic'
loop_
_space_group_symop_operation_xyz
x,y,z
-x,y,-z
-x,-y,-z
x,-y,z
1/2+x,1/2+y,z
1/2-x,1/2+y,-z
1/2-x,1/2-y,-z
1/2+x,1/2-y,z
loop_
_atom_site_type_symbol
_atom_site_label
_atom_site_fract_x
_atom_site_fract_y
_atom_site_fract_z
Si Si1 0.526271 0.283713 0.542692
Si Si2 0.918937 0.289884 0.949997
Si Si3 0.585630 0.795665 0.828160
Si Si4 0.755462 0.283331 0.274284
Si Si5 0.867227 0.791118 0.862246
O O1 0.500000 0.228419 0.500000
O O2 0.525743 0.500000 0.543190
O O3 0.639462 0.228122 0.416865
O O4 0.442114 0.219993 0.706153
O O5 0.923287 0.500000 0.956349
O O6 0.899564 0.263451 0.895942
O O7 0.025170 0.217376 0.842475
O O8 0.824432 0.226542 0.119654
O O9 0.686000 0.720921 0.733641
O O10 0.610059 0.000000 0.780425
O O11 0.500000 0.794767 0.000000
O O12 0.756440 0.500000 0.273986
O O13 0.877516 0.000000 0.846439
O O14 0.750000 0.750000 0.000000
#
# Coordination Sequence:
#
# PCOD9220416 Si02
#       5
#     8   8   8   8   8
#     4   9  17  29  46  68  91 118 156 198 233 267
#     4   9  16  29  51  75  97 121 152 191 231 271
#     4   7  11  21  42  72  97 119 152 190 223 259
#     4   8  13  25  48  74  96 121 159 198 223 256
#     4  11  22  34  49  69  93 121 154 193 237 282
#
# _framework density 20.540064999999998
#
# number of rings (size 3 to 8) (size 9 to 14) (size 15 to 20)
#    0.000    3.200    0.000    4.200    0.000    3.200 
#    0.000    1.000    0.000   16.200    0.000    0.000 
#    0.000    0.000    0.000    0.000    0.000    0.000 
#
# Total GULP energy -111479.313195 kJ/mol
# GULP energy per Si atom -5573.965660 kJ/mol
# Density = 2.049331 g / cm^3
# Si number density = 20.540065 Si / 1000 Ang^3
#
#
#
# Elastic Constant Matrix: (Units=GPa)
#
#
# Indices 1 2 3 4 5 6 
#
# 1 236.9626 0.0096 122.2394 0.0006 -20.9603 -0.0011
# 2 0.0096 42.5710 3.7449 -0.0100 -1.9852 0.0111
# 3 122.2394 3.7449 149.0100 -0.0080 -19.7861 0.0003
# 4 0.0006 -0.0100 -0.0080 5.4117 0.0009 16.7090
# 5 -20.9603 -1.9852 -19.7861 0.0009 36.7606 0.0012
# 6 -0.0011 0.0111 0.0003 16.7090 0.0012 -24.6871
#
#
#
# Elastic Compliance Matrix: (Units=1/GPa)
#
#
# Indices 1 2 3 4 5 6 
#
# 1 0.007365 0.000568 -0.005917 -0.000003 0.001045 -0.000002
# 2 0.000568 0.023622 -0.000912 0.000003 0.001108 0.000013
# 3 -0.005917 -0.000912 0.011991 0.000005 0.003031 0.000004
# 4 -0.000003 0.000003 0.000005 0.059805 -0.000001 0.040478
# 5 0.001045 0.001108 0.003031 -0.000001 0.029490 0.000001
# 6 -0.000002 0.000013 0.000004 0.040478 0.000001 -0.013110
#
#
# Mechanical properties :
#
#
# Convention : Reuss Voigt Hill
#
# Bulk Modulus (GPa) = 32.83659 75.61462 54.22561
# Shear Modulus (GPa) = 35.25148 23.66701 29.45925
#
# Velocity S-wave (km/s) = 4.14724 3.39814 3.79124
# Velocity P-wave (km/s) = 6.24132 7.23116 6.75440
#
# Compressibility (1/GPa) = 0.03045383
#
# Stress axis : x y z
#
# Youngs Moduli (GPa) = 135.77719 42.33348 83.39907
#
# Poissons Ratio (x) = -0.02403 0.49350
# Poissons Ratio (y) = -0.07707 0.07607
# Poissons Ratio (z) = 0.80344 0.03861
#
# Static dielectric constant tensor:
#      x y z
#    x 1.718920 0.000000 -0.007810 
#    y 0.000000 1.800120 0.000000 
#    z -0.007810 0.000000 1.707540 
# 
# From -- ./inp_files/220585.got.cif
#   From: 2010.05.17/outbox.cif.g08.bks.cpg/sg12_111_cif.got.tgz:220585.got - 2010.06.03 13:09:07.
