data_PCOD9220669
_publ_section_title
;
Structure prediction by ZEFSAII (Michael W. Deem and Ramdas Pophale) SiO2 
 PCOD9220669
Probable space group: C 2/M
;
_chemical_formula_sum "Si O2"
_cell_formula_units_Z 34
_cell_length_a 18.083435
_cell_length_b 20.530636
_cell_length_c 12.054270
_cell_angle_alpha 90.000000
_cell_angle_beta 161.043921
_cell_angle_gamma 90.000000
_cell_volume 1453.778035
_symmetry_space_group_name_H-M "C 2/M"
_symmetry_group_IT_number 12
_symmetry_cell_setting 'monoclinic'
loop_
_space_group_symop_operation_xyz
x,y,z
-x,y,-z
-x,-y,-z
x,-y,z
1/2+x,1/2+y,z
1/2-x,1/2+y,-z
1/2-x,1/2-y,-z
1/2+x,1/2-y,z
loop_
_atom_site_type_symbol
_atom_site_label
_atom_site_fract_x
_atom_site_fract_y
_atom_site_fract_z
Si Si1 0.692152 0.423511 0.369446
Si Si2 0.609122 0.167576 0.908240
Si Si3 0.763902 0.757978 0.733052
Si Si4 0.672219 0.374751 0.006369
Si Si5 0.000000 0.500000 0.500000
O O1 0.727033 0.500000 0.432488
O O2 0.927109 0.389330 0.671493
O O3 0.500000 0.414892 0.000000
O O4 0.587438 0.389648 0.329197
O O5 0.449706 0.229522 0.649228
O O6 0.765823 0.146551 0.029205
O O7 0.738749 0.192364 0.200014
O O8 0.747141 0.818465 0.794832
O O9 0.000000 0.761203 0.000000
O O10 0.804391 0.442122 0.219108
#
# Coordination Sequence:
#
# PCOD9220669 Si02
#       5
#     8   8   8   8   2
#     4  11  22  37  63  97 129 162 212 275 325 367
#     4  12  25  42  64  99 132 169 212 265 322 387
#     4  12  24  42  64  94 136 169 214 261 321 384
#     4  12  22  38  63  98 132 161 211 271 327 365
#     4  12  20  36  66 100 132 152 218 282 316 358
#
# _framework density 23.387339000000001
#
# number of rings (size 3 to 8) (size 9 to 14) (size 15 to 20)
#    0.000    0.235    8.235    1.412    4.941    0.000 
#    0.000    0.000    0.000    0.706    3.059    3.294 
#    0.000    0.000    0.000    0.000    0.000    0.000 
#
# Total GULP energy -95040.450124 kJ/mol
# GULP energy per Si atom -5590.614713 kJ/mol
# Density = 2.333411 g / cm^3
# Si number density = 23.387339 Si / 1000 Ang^3
#
#
#
# Elastic Constant Matrix: (Units=GPa)
#
#
# Indices 1 2 3 4 5 6 
#
# 1 155.5836 46.3906 53.3171 0.0001 46.1262 0.0000
# 2 46.3906 85.7068 32.7186 -0.0001 3.4443 0.0000
# 3 53.3171 32.7186 82.3433 0.0008 17.7316 0.0003
# 4 0.0001 -0.0001 0.0008 24.2796 0.0002 8.5811
# 5 46.1262 3.4443 17.7316 0.0002 40.1145 0.0000
# 6 0.0000 0.0000 0.0003 8.5811 0.0000 19.4954
#
#
#
# Elastic Compliance Matrix: (Units=1/GPa)
#
#
# Indices 1 2 3 4 5 6 
#
# 1 0.013046 -0.005165 -0.003603 0.000000 -0.012965 0.000000
# 2 -0.005165 0.015867 -0.004361 0.000000 0.006504 0.000000
# 3 -0.003603 -0.004361 0.016840 -0.000001 -0.002926 0.000000
# 4 0.000000 0.000000 -0.000001 0.048774 0.000000 -0.021469
# 5 -0.012965 0.006504 -0.002926 0.000000 0.040571 0.000000
# 6 0.000000 0.000000 0.000000 -0.021469 0.000000 0.060744
#
#
# Mechanical properties :
#
#
# Convention : Reuss Voigt Hill
#
# Bulk Modulus (GPa) = 51.29521 65.38738 58.34129
# Shear Modulus (GPa) = 21.87240 29.52507 25.69874
#
# Velocity S-wave (km/s) = 3.06146 3.55694 3.31846
# Velocity P-wave (km/s) = 5.87173 6.69987 6.29942
#
# Compressibility (1/GPa) = 0.01949500
#
# Stress axis : x y z
#
# Youngs Moduli (GPa) = 76.65236 63.02529 59.38174
#
# Poissons Ratio (x) = 0.32552 0.21396
# Poissons Ratio (y) = 0.39590 0.25896
# Poissons Ratio (z) = 0.27619 0.27485
#
# Static dielectric constant tensor:
#      x y z
#    x 1.942050 0.000000 -0.013070 
#    y 0.000000 1.844410 0.000000 
#    z -0.013070 0.000000 1.893560 
# 
# From -- ./inp_files/234543.got.cif
#   From: 2010.05.17/outbox.cif.g08.bks.cpg/sg12_118_cif.got.tgz:234543.got - 2010.06.03 13:09:07.
