data_PCOD9220953
_publ_section_title
;
Structure prediction by ZEFSAII (Michael W. Deem and Ramdas Pophale) SiO2 
 PCOD9220953
Probable space group: C 2/M
;
_chemical_formula_sum "Si O2"
_cell_formula_units_Z 32
_cell_length_a 7.227533
_cell_length_b 15.344803
_cell_length_c 15.562593
_cell_angle_alpha 90.000000
_cell_angle_beta 63.841376
_cell_angle_gamma 90.000000
_cell_volume 1549.191339
_symmetry_space_group_name_H-M "C 2/M"
_symmetry_group_IT_number 12
_symmetry_cell_setting 'monoclinic'
loop_
_space_group_symop_operation_xyz
x,y,z
-x,y,-z
-x,-y,-z
x,-y,z
1/2+x,1/2+y,z
1/2-x,1/2+y,-z
1/2-x,1/2-y,-z
1/2+x,1/2-y,z
loop_
_atom_site_type_symbol
_atom_site_label
_atom_site_fract_x
_atom_site_fract_y
_atom_site_fract_z
Si Si1 0.045104 0.856442 0.266452
Si Si2 0.050246 0.500000 0.627963
Si Si3 0.989433 0.398135 0.100003
Si Si4 0.348432 0.500000 0.416908
Si Si5 0.139618 0.340578 0.240682
O O1 0.862574 0.861571 0.233628
O O2 0.255903 0.889376 0.181361
O O3 0.076004 0.755459 0.283533
O O4 0.975275 0.915706 0.360430
O O5 0.259833 0.500000 0.530916
O O6 0.858068 0.500000 0.600601
O O7 0.015828 0.414088 0.691881
O O8 0.051108 0.500000 0.089206
O O9 0.127123 0.346094 0.140343
O O10 0.000000 0.366901 0.000000
#
# Coordination Sequence:
#
# PCOD9220953 Si02
#       5
#     8   4   8   4   8
#     4  11  22  40  64  89 127 164 200 253 304 359
#     4   9  20  39  63  90 123 161 204 252 304 362
#     4  11  24  42  64  91 122 159 209 254 303 365
#     4   9  20  39  63  90 123 161 204 252 304 362
#     4  11  22  40  64  89 127 164 200 253 304 359
#
# _framework density 20.655937999999999
#
# number of rings (size 3 to 8) (size 9 to 14) (size 15 to 20)
#    0.000    1.500    5.000    0.000    0.000    3.000 
#    0.000    5.000    0.000    0.000    0.000    0.000 
#    0.000    0.000    0.000    0.000    0.000    0.000 
#
# Total GULP energy -89443.192738 kJ/mol
# GULP energy per Si atom -5590.199546 kJ/mol
# Density = 2.060892 g / cm^3
# Si number density = 20.655938 Si / 1000 Ang^3
#
#
#
# Elastic Constant Matrix: (Units=GPa)
#
#
# Indices 1 2 3 4 5 6 
#
# 1 90.0679 -18.9989 9.0985 0.0000 6.2913 0.0000
# 2 -18.9989 102.5314 9.4652 0.0000 9.2322 0.0000
# 3 9.0985 9.4652 75.0680 0.0000 7.2564 0.0000
# 4 0.0000 0.0000 0.0000 4.3281 0.0000 -2.6920
# 5 6.2913 9.2322 7.2564 0.0000 28.9490 0.0000
# 6 0.0000 0.0000 0.0000 -2.6920 0.0000 21.3672
#
#
#
# Elastic Compliance Matrix: (Units=1/GPa)
#
#
# Indices 1 2 3 4 5 6 
#
# 1 0.012027 0.002644 -0.001493 0.000000 -0.003083 0.000000
# 2 0.002644 0.010694 -0.001315 0.000000 -0.003655 0.000000
# 3 -0.001493 -0.001315 0.013934 0.000000 -0.002749 0.000000
# 4 0.000000 0.000000 0.000000 0.250691 0.000000 0.031584
# 5 -0.003083 -0.003655 -0.002749 0.000000 0.037068 0.000000
# 6 0.000000 0.000000 0.000000 0.031584 0.000000 0.050780
#
#
# Mechanical properties :
#
#
# Convention : Reuss Voigt Hill
#
# Bulk Modulus (GPa) = 27.52947 29.64410 28.58678
# Shear Modulus (GPa) = 12.89890 28.80237 20.85063
#
# Velocity S-wave (km/s) = 2.50164 3.73820 3.18059
# Velocity P-wave (km/s) = 4.65841 5.74584 5.23047
#
# Compressibility (1/GPa) = 0.03632471
#
# Stress axis : x y z
#
# Youngs Moduli (GPa) = 83.14913 93.51404 71.76805
#
# Poissons Ratio (x) = -0.24724 0.10715
# Poissons Ratio (y) = -0.21984 0.09441
# Poissons Ratio (z) = 0.12415 0.12301
#
# Static dielectric constant tensor:
#      x y z
#    x 1.760390 0.000000 0.020210 
#    y 0.000000 1.725130 0.000000 
#    z 0.020210 0.000000 1.708730 
# 
# From -- ./inp_files/193903.got.cif
#   From: 2010.05.17/outbox.cif.g08.bks.cpg/sg12_97_cif.got.tgz:193903.got - 2010.06.03 13:09:07.
