data_PCOD9220421
_publ_section_title
;
Structure prediction by ZEFSAII (Michael W. Deem and Ramdas Pophale) SiO2 
 PCOD9220421
Probable space group: C 2/M
;
_chemical_formula_sum "Si O2"
_cell_formula_units_Z 56
_cell_length_a 7.501715
_cell_length_b 19.114192
_cell_length_c 20.726212
_cell_angle_alpha 90.000000
_cell_angle_beta 116.682017
_cell_angle_gamma 90.000000
_cell_volume 2655.443159
_symmetry_space_group_name_H-M "C 2/M"
_symmetry_group_IT_number 12
_symmetry_cell_setting 'monoclinic'
loop_
_space_group_symop_operation_xyz
x,y,z
-x,y,-z
-x,-y,-z
x,-y,z
1/2+x,1/2+y,z
1/2-x,1/2+y,-z
1/2-x,1/2-y,-z
1/2+x,1/2-y,z
loop_
_atom_site_type_symbol
_atom_site_label
_atom_site_fract_x
_atom_site_fract_y
_atom_site_fract_z
Si Si1 0.156421 0.580906 0.829094
Si Si2 0.330676 0.079745 0.561047
Si Si3 0.574444 0.169366 0.698875
Si Si4 0.628507 0.418164 0.862686
Si Si5 0.454992 0.577952 0.595445
Si Si6 0.525816 0.669501 0.728731
Si Si7 0.274848 0.414994 0.983179
O O1 0.095949 0.500000 0.816771
O O2 0.035540 0.623493 0.756364
O O3 0.393897 0.582747 0.847950
O O4 0.142262 0.607355 0.900635
O O5 0.458669 0.138022 0.618509
O O6 0.133327 0.074691 0.573159
O O7 0.246051 0.098259 0.476277
O O8 0.417081 0.000000 0.573689
O O9 0.550850 0.249502 0.715604
O O10 0.803014 0.160403 0.718088
O O11 0.672371 0.500000 0.854329
O O12 0.653981 0.367197 0.805972
O O13 0.752918 0.395870 0.946613
O O14 0.421914 0.500000 0.616591
O O15 0.529156 0.628073 0.662812
O O16 0.269437 0.500000 0.981678
O O17 0.500000 0.394059 0.000000
#
# Coordination Sequence:
#
# PCOD9220421 Si02
#       7
#     8   8   8   8   8   8   8
#     4   8  14  26  46  71  96 124 162 207 251 295
#     4   9  19  37  59  80 101 126 159 201 250 303
#     4  11  22  34  49  72 104 138 172 208 246 292
#     4   8  14  26  46  71  96 124 162 207 251 295
#     4   9  19  37  59  80 101 126 159 201 250 303
#     4  11  22  34  49  72 104 138 172 208 246 292
#     4   7  10  20  41  68  95 121 154 201 252 295
#
# _framework density 21.088757999999999
#
# number of rings (size 3 to 8) (size 9 to 14) (size 15 to 20)
#    0.000    3.000    0.000    4.286    0.000    2.857 
#    0.000    2.143    0.000    0.000    0.000    3.000 
#    0.000   16.000    0.000    0.000    0.000    0.000 
#
# Total GULP energy -156103.264880 kJ/mol
# GULP energy per Si atom -5575.116603 kJ/mol
# Density = 2.104076 g / cm^3
# Si number density = 21.088758 Si / 1000 Ang^3
#
#
#
# Elastic Constant Matrix: (Units=GPa)
#
#
# Indices 1 2 3 4 5 6 
#
# 1 29.0990 -2.8953 3.0611 0.0000 -0.2623 0.0000
# 2 -2.8953 78.3290 67.7387 0.0000 -8.0975 0.0000
# 3 3.0611 67.7387 130.8392 0.0000 -13.9168 0.0000
# 4 0.0000 0.0000 0.0000 3.0521 0.0000 -0.0328
# 5 -0.2623 -8.0975 -13.9168 0.0000 24.8215 0.0000
# 6 0.0000 0.0000 0.0000 -0.0328 0.0000 -38.5160
#
#
#
# Elastic Compliance Matrix: (Units=1/GPa)
#
#
# Indices 1 2 3 4 5 6 
#
# 1 0.035010 0.003627 -0.002692 0.000000 0.000044 0.000000
# 2 0.003627 0.023511 -0.012162 0.000000 0.000889 0.000000
# 3 -0.002692 -0.012162 0.014439 0.000000 0.004099 0.000000
# 4 0.000000 0.000000 0.000000 0.327637 0.000000 -0.000279
# 5 0.000044 0.000889 0.004099 0.000000 0.042877 0.000000
# 6 0.000000 0.000000 0.000000 -0.000279 0.000000 -0.025963
#
#
# Mechanical properties :
#
#
# Convention : Reuss Voigt Hill
#
# Bulk Modulus (GPa) = 19.80047 41.56400 30.68224
# Shear Modulus (GPa) = 10.94572 9.22903 10.08738
#
# Velocity S-wave (km/s) = 2.28070 2.09423 2.18945
# Velocity P-wave (km/s) = 4.04289 5.05960 4.57955
#
# Compressibility (1/GPa) = 0.05050386
#
# Stress axis : x y z
#
# Youngs Moduli (GPa) = 28.56333 42.53416 69.25843
#
# Poissons Ratio (x) = -0.15426 0.18645
# Poissons Ratio (y) = -0.10359 0.84234
# Poissons Ratio (z) = 0.07689 0.51731
#
# Static dielectric constant tensor:
#      x y z
#    x 1.817770 0.000000 -0.009300 
#    y 0.000000 1.674380 0.000000 
#    z -0.009300 0.000000 1.828290 
# 
# From -- ./inp_files/300913.got.cif
#   From: 2010.05.17/outbox.cif.g08.bks.cpg/sg12_151_cif.got.tgz:300913.got - 2010.06.03 13:09:07.
