data_PCOD9220894
_publ_section_title
;
Structure prediction by ZEFSAII (Michael W. Deem and Ramdas Pophale) SiO2 
 PCOD9220894
Probable space group: C 2/M
;
_chemical_formula_sum "Si O2"
_cell_formula_units_Z 28
_cell_length_a 13.063163
_cell_length_b 19.731695
_cell_length_c 12.332264
_cell_angle_alpha 90.000000
_cell_angle_beta 21.451065
_cell_angle_gamma 90.000000
_cell_volume 1162.487167
_symmetry_space_group_name_H-M "C 2/M"
_symmetry_group_IT_number 12
_symmetry_cell_setting 'monoclinic'
loop_
_space_group_symop_operation_xyz
x,y,z
-x,y,-z
-x,-y,-z
x,-y,z
1/2+x,1/2+y,z
1/2-x,1/2+y,-z
1/2-x,1/2-y,-z
1/2+x,1/2-y,z
loop_
_atom_site_type_symbol
_atom_site_label
_atom_site_fract_x
_atom_site_fract_y
_atom_site_fract_z
Si Si1 0.745972 0.000000 0.168919
Si Si2 0.251913 0.210346 0.670395
Si Si3 0.580074 0.383276 0.166258
Si Si4 0.128063 0.358518 0.755567
O O1 0.500000 0.000000 0.500000
O O2 0.783032 0.063161 0.051274
O O3 0.000000 0.000000 0.000000
O O4 0.500000 0.181790 0.500000
O O5 0.303188 0.287744 0.584988
O O6 0.126165 0.163700 0.701597
O O7 0.000000 0.219450 0.000000
O O8 0.359302 0.408963 0.475727
O O9 0.851398 0.349638 0.954306
O O10 0.000000 0.375690 0.000000
#
# Coordination Sequence:
#
# PCOD9220894 Si02
#       4
#     4   8   8   8
#     4  12  28  50  71 100 133 172 232 290 335 404
#     4  11  22  39  66 104 140 177 222 279 344 410
#     4  12  24  43  69  97 135 185 227 280 343 396
#     4  11  23  42  66 100 140 180 227 280 333 406
#
# _framework density 24.086286000000001
#
# number of rings (size 3 to 8) (size 9 to 14) (size 15 to 20)
#    0.000    0.571    0.000   10.286    0.000    2.286 
#    0.000    4.286    0.000    0.000    0.000    0.000 
#    0.000    0.000    0.000    0.000    0.000    0.000 
#
# Total GULP energy -78175.517658 kJ/mol
# GULP energy per Si atom -5583.965547 kJ/mol
# Density = 2.403146 g / cm^3
# Si number density = 24.086286 Si / 1000 Ang^3
#
#
#
# Elastic Constant Matrix: (Units=GPa)
#
#
# Indices 1 2 3 4 5 6 
#
# 1 154.7616 50.7257 42.6695 -0.2924 -13.8389 -0.1264
# 2 50.7257 46.6651 47.8561 -0.1346 19.7453 0.0681
# 3 42.6695 47.8561 185.8742 -0.5406 15.1742 0.0759
# 4 -0.2924 -0.1346 -0.5406 24.2204 0.2942 10.2935
# 5 -13.8389 19.7453 15.1742 0.2942 70.4211 -0.0437
# 6 -0.1264 0.0681 0.0759 10.2935 -0.0437 25.8546
#
#
#
# Elastic Compliance Matrix: (Units=1/GPa)
#
#
# Indices 1 2 3 4 5 6 
#
# 1 0.012748 -0.018139 0.001144 -0.000074 0.007345 0.000148
# 2 -0.018139 0.058364 -0.009400 0.000261 -0.017905 -0.000349
# 3 0.001144 -0.009400 0.007435 0.000130 0.001258 -0.000041
# 4 -0.000074 0.000261 0.000130 0.049706 -0.000336 -0.019792
# 5 0.007345 -0.017905 0.001258 -0.000336 0.020395 0.000247
# 6 0.000148 -0.000349 -0.000041 -0.019792 0.000247 0.046560
#
#
# Mechanical properties :
#
#
# Convention : Reuss Voigt Hill
#
# Bulk Modulus (GPa) = 38.82431 74.42262 56.62347
# Shear Modulus (GPa) = 19.48674 40.50251 29.99463
#
# Velocity S-wave (km/s) = 2.84745 4.10513 3.53271
# Velocity P-wave (km/s) = 5.19273 7.30992 6.34032
#
# Compressibility (1/GPa) = 0.02575706
#
# Stress axis : x y z
#
# Youngs Moduli (GPa) = 78.44150 17.13386 134.49279
#
# Poissons Ratio (x) = 0.31079 -0.15382
# Poissons Ratio (y) = 1.42285 1.26424
# Poissons Ratio (z) = -0.08971 0.16106
#
# Static dielectric constant tensor:
#      x y z
#    x 1.898460 0.000590 0.069630 
#    y 0.000590 2.046570 0.000810 
#    z 0.069630 0.000810 1.915980 
# 
# From -- ./inp_files/132875.got.cif
#   From: 2010.05.17/outbox.cif.g08.bks.cpg/sg12_67_cif.got.tgz:132875.got - 2010.06.03 13:09:07.
