data_PCOD9220780
_publ_section_title
;
Structure prediction by ZEFSAII (Michael W. Deem and Ramdas Pophale) SiO2 
 PCOD9220780
Probable space group: C 2/M
;
_chemical_formula_sum "Si O2"
_cell_formula_units_Z 48
_cell_length_a 9.275059
_cell_length_b 15.968088
_cell_length_c 26.539207
_cell_angle_alpha 90.000000
_cell_angle_beta 142.393881
_cell_angle_gamma 90.000000
_cell_volume 2398.561918
_symmetry_space_group_name_H-M "C 2/M"
_symmetry_group_IT_number 12
_symmetry_cell_setting 'monoclinic'
loop_
_space_group_symop_operation_xyz
x,y,z
-x,y,-z
-x,-y,-z
x,-y,z
1/2+x,1/2+y,z
1/2-x,1/2+y,-z
1/2-x,1/2-y,-z
1/2+x,1/2-y,z
loop_
_atom_site_type_symbol
_atom_site_label
_atom_site_fract_x
_atom_site_fract_y
_atom_site_fract_z
Si Si1 0.075037 0.156341 0.185194
Si Si2 0.683954 0.906165 0.004261
Si Si3 0.688282 0.169223 0.167176
Si Si4 0.861058 0.907115 0.312474
Si Si5 0.914898 0.594005 0.660634
Si Si6 0.759981 0.763523 0.561772
O O1 0.175148 0.244208 0.193375
O O2 0.301724 0.102330 0.263114
O O3 0.928509 0.119518 0.097546
O O4 0.893767 0.167418 0.181691
O O5 0.699580 0.000000 0.987930
O O6 0.500000 0.907245 0.000000
O O7 0.562086 0.847116 0.929478
O O8 0.741872 0.101368 0.224881
O O9 0.673747 0.898270 0.306135
O O10 0.047111 0.831912 0.369284
O O11 0.968698 0.000000 0.347310
O O12 0.844890 0.500000 0.623582
O O13 0.807284 0.673641 0.601384
O O14 0.500000 0.797000 0.500000
O O15 0.750000 0.750000 0.500000
#
# Coordination Sequence:
#
# PCOD9220780 Si02
#       6
#     8   8   8   8   8   8
#     4  11  22  38  64  93 129 175 220 264 320 380
#     4   9  19  36  57  89 128 168 219 270 313 371
#     4  11  22  38  64  93 130 174 219 266 320 377
#     4  11  25  45  68  99 134 170 214 270 327 386
#     4  11  25  45  69  98 133 173 215 265 328 391
#     4  12  26  46  71  96 128 167 213 267 328 392
#
# _framework density 20.011990000000001
#
# number of rings (size 3 to 8) (size 9 to 14) (size 15 to 20)
#    0.000    1.167    3.333    2.500    2.333    3.333 
#    0.000    2.500    0.000    6.000    0.000    0.000 
#    0.000    0.000    0.000    0.000    0.000    0.000 
#
# Total GULP energy -133990.354847 kJ/mol
# GULP energy per Si atom -5582.931452 kJ/mol
# Density = 1.996644 g / cm^3
# Si number density = 20.011990 Si / 1000 Ang^3
#
#
#
# Elastic Constant Matrix: (Units=GPa)
#
#
# Indices 1 2 3 4 5 6 
#
# 1 79.2978 16.2592 18.6626 0.0000 -10.1320 0.0000
# 2 16.2592 110.7643 15.4333 0.0001 -8.8365 0.0000
# 3 18.6626 15.4333 81.3210 0.0000 -5.1654 0.0000
# 4 0.0000 0.0001 0.0000 13.1826 0.0000 -5.0948
# 5 -10.1320 -8.8365 -5.1654 0.0000 35.9571 0.0000
# 6 0.0000 0.0000 0.0000 -5.0948 0.0000 15.6585
#
#
#
# Elastic Compliance Matrix: (Units=1/GPa)
#
#
# Indices 1 2 3 4 5 6 
#
# 1 0.013951 -0.001413 -0.002731 0.000000 0.003192 0.000000
# 2 -0.001413 0.009568 -0.001380 0.000000 0.001755 0.000000
# 3 -0.002731 -0.001380 0.013236 0.000000 0.000793 0.000000
# 4 0.000000 0.000000 0.000000 0.086769 0.000000 0.028232
# 5 0.003192 0.001755 0.000793 0.000000 0.029255 0.000000
# 6 0.000000 0.000000 0.000000 0.028232 0.000000 0.073049
#
#
# Mechanical properties :
#
#
# Convention : Reuss Voigt Hill
#
# Bulk Modulus (GPa) = 38.89940 41.34367 40.12153
# Shear Modulus (GPa) = 20.37125 27.69483 24.03304
#
# Velocity S-wave (km/s) = 3.19400 3.72413 3.46921
# Velocity P-wave (km/s) = 5.75173 6.26071 6.01161
#
# Compressibility (1/GPa) = 0.02570734
#
# Stress axis : x y z
#
# Youngs Moduli (GPa) = 71.68027 104.51647 75.55198
#
# Poissons Ratio (x) = 0.14765 0.20632
# Poissons Ratio (y) = 0.10127 0.10427
# Poissons Ratio (z) = 0.19574 0.14425
#
# Static dielectric constant tensor:
#      x y z
#    x 1.662470 0.000000 0.003950 
#    y 0.000000 1.746840 0.000000 
#    z 0.003950 0.000000 1.712530 
# 
# From -- ./inp_files/356360.got.cif
#   From: 2010.05.17/outbox.cif.g08.bks.cpg/sg12_179_cif.got.tgz:356360.got - 2010.06.03 13:09:07.
