data_PCOD9220833
_publ_section_title
;
Structure prediction by ZEFSAII (Michael W. Deem and Ramdas Pophale) SiO2 
 PCOD9220833
Probable space group: C 2/M
;
_chemical_formula_sum "Si O2"
_cell_formula_units_Z 48
_cell_length_a 10.089718
_cell_length_b 29.059114
_cell_length_c 16.019194
_cell_angle_alpha 90.000000
_cell_angle_beta 32.083632
_cell_angle_gamma 90.000000
_cell_volume 2494.736057
_symmetry_space_group_name_H-M "C 2/M"
_symmetry_group_IT_number 12
_symmetry_cell_setting 'monoclinic'
loop_
_space_group_symop_operation_xyz
x,y,z
-x,y,-z
-x,-y,-z
x,-y,z
1/2+x,1/2+y,z
1/2-x,1/2+y,-z
1/2-x,1/2-y,-z
1/2+x,1/2-y,z
loop_
_atom_site_type_symbol
_atom_site_label
_atom_site_fract_x
_atom_site_fract_y
_atom_site_fract_z
Si Si1 0.850466 0.380601 0.503645
Si Si2 0.770553 0.780928 0.351518
Si Si3 0.585324 0.448141 0.250657
Si Si4 0.899988 0.447894 0.921695
Si Si5 0.252625 0.228650 0.833770
Si Si6 0.290567 0.126234 0.846904
O O1 0.767609 0.330377 0.582930
O O2 0.609138 0.410799 0.614202
O O3 0.000000 0.403504 0.500000
O O4 0.043344 0.377346 0.324943
O O5 0.500000 0.756076 0.500000
O O6 0.800519 0.783646 0.235116
O O7 0.997368 0.756487 0.278113
O O8 0.481833 0.500000 0.310872
O O9 0.840078 0.447487 0.167252
O O10 0.676903 0.439487 0.106942
O O11 0.867941 0.500000 0.904505
O O12 0.908199 0.407364 0.851457
O O13 0.282702 0.180802 0.868264
O O14 0.000000 0.252984 0.000000
O O15 0.000000 0.111973 0.000000
#
# Coordination Sequence:
#
# PCOD9220833 Si02
#       6
#     8   8   8   8   8   8
#     4  11  22  39  61  88 124 161 203 254 309 362
#     4  11  23  43  65  92 127 168 208 262 314 369
#     4   9  20  40  64  90 123 161 201 251 309 370
#     4   9  20  40  63  90 124 160 202 252 306 369
#     4  11  24  43  65  92 129 166 212 257 313 376
#     4  11  23  39  62  89 122 162 204 255 307 367
#
# _framework density 19.240511000000001
#
# number of rings (size 3 to 8) (size 9 to 14) (size 15 to 20)
#    0.000    1.667    3.333    3.000    2.333    3.333 
#    3.000    1.667    0.000    0.000    0.000    0.000 
#    0.000    0.000    0.000    0.000    0.000    0.000 
#
# Total GULP energy -133762.374977 kJ/mol
# GULP energy per Si atom -5573.432291 kJ/mol
# Density = 1.919672 g / cm^3
# Si number density = 19.240511 Si / 1000 Ang^3
#
#
#
# Elastic Constant Matrix: (Units=GPa)
#
#
# Indices 1 2 3 4 5 6 
#
# 1 72.2040 46.9256 43.6982 0.0000 4.9928 0.0000
# 2 46.9256 70.9848 47.3497 0.0000 1.6982 0.0000
# 3 43.6982 47.3497 129.9231 0.0000 -11.5402 0.0000
# 4 0.0000 0.0000 0.0000 24.5220 0.0000 -11.5811
# 5 4.9928 1.6982 -11.5402 0.0000 31.0903 0.0000
# 6 0.0000 0.0000 0.0000 -11.5811 0.0000 39.6806
#
#
#
# Elastic Compliance Matrix: (Units=1/GPa)
#
#
# Indices 1 2 3 4 5 6 
#
# 1 0.025904 -0.014417 -0.003886 0.000000 -0.004815 0.000000
# 2 -0.014417 0.027046 -0.005102 0.000000 -0.001056 0.000000
# 3 -0.003886 -0.005102 0.011316 0.000000 0.005103 0.000000
# 4 0.000000 0.000000 0.000000 0.047299 0.000000 0.013805
# 5 -0.004815 -0.001056 0.005103 0.000000 0.034889 0.000000
# 6 0.000000 0.000000 0.000000 0.013805 0.000000 0.029230
#
#
# Mechanical properties :
#
#
# Convention : Reuss Voigt Hill
#
# Bulk Modulus (GPa) = 57.28191 61.00656 59.14424
# Shear Modulus (GPa) = 21.89963 28.06780 24.98372
#
# Velocity S-wave (km/s) = 3.37739 3.82355 3.60737
# Velocity P-wave (km/s) = 6.71157 7.16023 6.93953
#
# Compressibility (1/GPa) = 0.01745752
#
# Stress axis : x y z
#
# Youngs Moduli (GPa) = 38.60399 36.97355 88.36693
#
# Poissons Ratio (x) = 0.53305 0.34340
# Poissons Ratio (y) = 0.55655 0.45082
# Poissons Ratio (z) = 0.15002 0.18863
#
# Static dielectric constant tensor:
#      x y z
#    x 1.689750 0.000000 0.007360 
#    y 0.000000 1.665630 0.000000 
#    z 0.007360 0.000000 1.726530 
# 
# From -- ./inp_files/200155.got.cif
#   From: 2010.05.17/outbox.cif.g08.bks.cpg/sg12_101_cif.got.tgz:200155.got - 2010.06.03 13:09:07.
