data_PCOD9220524
_publ_section_title
;
Structure prediction by ZEFSAII (Michael W. Deem and Ramdas Pophale) SiO2 
 PCOD9220524
Probable space group: C 2/M
;
_chemical_formula_sum "Si O2"
_cell_formula_units_Z 48
_cell_length_a 24.356666
_cell_length_b 8.952641
_cell_length_c 10.114034
_cell_angle_alpha 90.000000
_cell_angle_beta 82.778600
_cell_angle_gamma 90.000000
_cell_volume 2187.936847
_symmetry_space_group_name_H-M "C 2/M"
_symmetry_group_IT_number 12
_symmetry_cell_setting 'monoclinic'
loop_
_space_group_symop_operation_xyz
x,y,z
-x,y,-z
-x,-y,-z
x,-y,z
1/2+x,1/2+y,z
1/2-x,1/2+y,-z
1/2-x,1/2-y,-z
1/2+x,1/2-y,z
loop_
_atom_site_type_symbol
_atom_site_label
_atom_site_fract_x
_atom_site_fract_y
_atom_site_fract_z
Si Si1 0.585884 0.172946 0.958489
Si Si2 0.794243 0.321247 0.176770
Si Si3 0.041080 0.674315 0.671166
Si Si4 0.341449 0.818661 0.445514
Si Si5 0.183995 0.678279 0.257497
Si Si6 0.067443 0.175114 0.222034
O O1 0.651609 0.206501 0.928396
O O2 0.562217 0.181521 0.817459
O O3 0.578640 0.000000 0.004459
O O4 0.557807 0.281064 0.071411
O O5 0.786142 0.500000 0.180757
O O6 0.813005 0.269770 0.318443
O O7 0.736494 0.242909 0.164318
O O8 0.030943 0.500000 0.643424
O O9 0.094247 0.730222 0.573399
O O10 0.984388 0.763212 0.679908
O O11 0.311072 0.776827 0.588919
O O12 0.343444 0.000000 0.438724
O O13 0.183611 0.500000 0.246409
O O14 0.124593 0.741545 0.235925
O O15 0.073637 0.000000 0.237487
#
# Coordination Sequence:
#
# PCOD9220524 Si02
#       6
#     8   8   8   8   8   8
#     4   9  19  37  61  83 105 139 179 219 267 324
#     4   9  18  36  60  85 110 135 173 224 272 316
#     4   9  18  37  62  83 105 137 179 222 266 320
#     4   8  17  35  60  85 107 138 178 219 264 320
#     4  11  22  36  55  80 111 147 183 215 260 322
#     4  12  25  37  51  77 113 147 180 223 271 314
#
# _framework density 21.938475
#
# number of rings (size 3 to 8) (size 9 to 14) (size 15 to 20)
#    0.000    2.333    0.000    5.000    0.000    4.667 
#    0.000    8.333    0.000    0.000    0.000    0.000 
#    0.000    0.000    0.000    0.000    0.000    0.000 
#
# Total GULP energy -134143.541269 kJ/mol
# GULP energy per Si atom -5589.314220 kJ/mol
# Density = 2.188854 g / cm^3
# Si number density = 21.938475 Si / 1000 Ang^3
#
#
#
# Elastic Constant Matrix: (Units=GPa)
#
#
# Indices 1 2 3 4 5 6 
#
# 1 133.3770 34.7043 16.6940 0.0000 -33.5785 0.0000
# 2 34.7043 43.1751 14.7450 0.0000 -25.1068 0.0000
# 3 16.6940 14.7450 49.0713 0.0000 -16.6359 0.0000
# 4 0.0000 0.0000 0.0000 16.8872 0.0000 -11.1079
# 5 -33.5785 -25.1068 -16.6359 0.0000 38.3704 0.0000
# 6 0.0000 0.0000 0.0000 -11.1079 0.0000 25.9321
#
#
#
# Elastic Compliance Matrix: (Units=1/GPa)
#
#
# Indices 1 2 3 4 5 6 
#
# 1 0.010212 -0.004851 -0.000074 0.000000 0.005730 0.000000
# 2 -0.004851 0.040196 -0.003459 0.000000 0.020557 0.000000
# 3 -0.000074 -0.003459 0.024213 0.000000 0.008170 0.000000
# 4 0.000000 0.000000 0.000000 0.082446 0.000000 0.035315
# 5 0.005730 0.020557 0.008170 0.000000 0.048069 0.000000
# 6 0.000000 0.000000 0.000000 0.035315 0.000000 0.053689
#
#
# Mechanical properties :
#
#
# Convention : Reuss Voigt Hill
#
# Bulk Modulus (GPa) = 17.28510 39.76777 28.52644
# Shear Modulus (GPa) = 16.95632 26.86993 21.91313
#
# Velocity S-wave (km/s) = 2.78313 3.50349 3.16388
# Velocity P-wave (km/s) = 4.26893 5.87641 5.13595
#
# Compressibility (1/GPa) = 0.05785329
#
# Stress axis : x y z
#
# Youngs Moduli (GPa) = 97.92815 24.87839 41.30074
#
# Poissons Ratio (x) = 0.12067 0.00305
# Poissons Ratio (y) = 0.47501 0.14286
# Poissons Ratio (z) = 0.00722 0.08605
#
# Static dielectric constant tensor:
#      x y z
#    x 1.830620 0.000000 0.041880 
#    y 0.000000 1.722790 0.000000 
#    z 0.041880 0.000000 1.854860 
# 
# From -- ./inp_files/172329.got.cif
#   From: 2010.05.17/outbox.cif.g08.bks.cpg/sg12_87_cif.got.tgz:172329.got - 2010.06.03 13:09:07.
