data_PCOD9220918
_publ_section_title
;
Structure prediction by ZEFSAII (Michael W. Deem and Ramdas Pophale) SiO2 
 PCOD9220918
Probable space group: C 2/M
;
_chemical_formula_sum "Si O2"
_cell_formula_units_Z 64
_cell_length_a 19.276393
_cell_length_b 15.400557
_cell_length_c 11.689130
_cell_angle_alpha 90.000000
_cell_angle_beta 77.123429
_cell_angle_gamma 90.000000
_cell_volume 3382.854007
_symmetry_space_group_name_H-M "C 2/M"
_symmetry_group_IT_number 12
_symmetry_cell_setting 'monoclinic'
loop_
_space_group_symop_operation_xyz
x,y,z
-x,y,-z
-x,-y,-z
x,-y,z
1/2+x,1/2+y,z
1/2-x,1/2+y,-z
1/2-x,1/2-y,-z
1/2+x,1/2-y,z
loop_
_atom_site_type_symbol
_atom_site_label
_atom_site_fract_x
_atom_site_fract_y
_atom_site_fract_z
Si Si1 0.726536 0.898214 0.749257
Si Si2 0.159567 0.401730 0.239065
Si Si3 0.895538 0.899811 0.730278
Si Si4 0.427270 0.765633 0.578655
Si Si5 0.679674 0.808389 0.997216
Si Si6 0.323603 0.755976 0.404929
Si Si7 0.826308 0.904837 0.238522
Si Si8 0.918206 0.852744 0.988490
O O1 0.812244 0.884579 0.727471
O O2 0.696610 0.863215 0.879438
O O3 0.687870 0.841875 0.666651
O O4 0.714656 0.000000 0.737584
O O5 0.133548 0.500000 0.261489
O O6 0.112697 0.333290 0.325113
O O7 0.241652 0.399247 0.249335
O O8 0.163136 0.371331 0.107514
O O9 0.936295 0.824627 0.645596
O O10 0.913287 0.000000 0.694704
O O11 0.907183 0.888337 0.863151
O O12 0.500000 0.799988 0.500000
O O13 0.380324 0.753965 0.483699
O O14 0.613321 0.744422 0.003785
O O15 0.750000 0.750000 0.000000
O O16 0.250000 0.750000 0.500000
O O17 0.341485 0.676305 0.314009
O O18 0.868445 0.897472 0.103102
O O19 0.842583 0.000000 0.283083
O O20 0.000000 0.858337 0.000000
#
# Coordination Sequence:
#
# PCOD9220918 Si02
#       8
#     8   8   8   8   8   8   8   8
#     4  11  22  39  69 101 125 162 217 275 321 372
#     4  11  22  41  69  96 120 164 222 271 320 380
#     4  11  23  42  66  97 132 169 212 262 324 393
#     4  12  27  44  65  91 132 177 220 267 326 383
#     4  12  19  39  71  94 127 166 212 263 325 384
#     4  12  23  42  65  93 126 171 222 269 311 373
#     4  11  23  40  66  97 127 165 212 265 319 382
#     4  12  25  40  67  99 135 171 206 261 333 394
#
# _framework density 18.918937
#
# number of rings (size 3 to 8) (size 9 to 14) (size 15 to 20)
#    0.000    0.500    7.500    0.750    1.750    5.000 
#    0.000    0.000    0.000    0.750    0.000    0.000 
#    0.000    0.000    0.000    0.000    0.000    0.000 
#
# Total GULP energy -178737.893175 kJ/mol
# GULP energy per Si atom -5585.559162 kJ/mol
# Density = 1.887588 g / cm^3
# Si number density = 18.918937 Si / 1000 Ang^3
#
#
#
# Elastic Constant Matrix: (Units=GPa)
#
#
# Indices 1 2 3 4 5 6 
#
# 1 60.5084 8.8645 15.0005 0.0000 -6.4575 0.0000
# 2 8.8645 110.9586 43.8565 0.0000 -0.8126 0.0000
# 3 15.0005 43.8565 113.6005 0.0000 -0.7113 0.0000
# 4 0.0000 0.0000 0.0000 -2.2624 0.0000 29.6864
# 5 -6.4575 -0.8126 -0.7113 0.0000 24.6074 0.0000
# 6 0.0000 0.0000 0.0000 29.6864 0.0000 30.8224
#
#
#
# Elastic Compliance Matrix: (Units=1/GPa)
#
#
# Indices 1 2 3 4 5 6 
#
# 1 0.017609 -0.000550 -0.002085 0.000000 0.004542 0.000000
# 2 -0.000550 0.010654 -0.004040 0.000000 0.000091 0.000000
# 3 -0.002085 -0.004040 0.010635 0.000000 -0.000373 0.000000
# 4 0.000000 0.000000 0.000000 -0.032410 0.000000 0.031215
# 5 0.004542 0.000091 -0.000373 0.000000 0.041822 0.000000
# 6 0.000000 0.000000 0.000000 0.031215 0.000000 0.002379
#
#
# Mechanical properties :
#
#
# Convention : Reuss Voigt Hill
#
# Bulk Modulus (GPa) = 39.13923 46.72339 42.93131
# Shear Modulus (GPa) = 68.91466 25.12321 47.01894
#
# Velocity S-wave (km/s) = 6.04197 3.64804 4.99067
# Velocity P-wave (km/s) = 8.33106 6.51878 7.48001
#
# Compressibility (1/GPa) = 0.02554981
#
# Stress axis : x y z
#
# Youngs Moduli (GPa) = 56.79011 93.86429 94.02646
#
# Poissons Ratio (x) = 0.05159 0.19600
# Poissons Ratio (y) = 0.03121 0.37985
# Poissons Ratio (z) = 0.11838 0.37919
#
# Static dielectric constant tensor:
#      x y z
#    x 1.615890 0.000000 -0.035850 
#    y 0.000000 1.665080 0.000000 
#    z -0.035850 0.000000 1.573800 
# 
# From -- ./inp_files/156619.got.cif
#   From: 2010.05.17/outbox.cif.g08.bks.cpg/sg12_79_cif.got.tgz:156619.got - 2010.06.03 13:09:07.
