data_PCOD9220316
_publ_section_title
;
Structure prediction by ZEFSAII (Michael W. Deem and Ramdas Pophale) SiO2 
 PCOD9220316
Probable space group: C 2/M
;
_chemical_formula_sum "Si O2"
_cell_formula_units_Z 60
_cell_length_a 8.869007
_cell_length_b 34.033807
_cell_length_c 10.640535
_cell_angle_alpha 90.000000
_cell_angle_beta 65.421038
_cell_angle_gamma 90.000000
_cell_volume 2920.778629
_symmetry_space_group_name_H-M "C 2/M"
_symmetry_group_IT_number 12
_symmetry_cell_setting 'monoclinic'
loop_
_space_group_symop_operation_xyz
x,y,z
-x,y,-z
-x,-y,-z
x,-y,z
1/2+x,1/2+y,z
1/2-x,1/2+y,-z
1/2-x,1/2-y,-z
1/2+x,1/2-y,z
loop_
_atom_site_type_symbol
_atom_site_label
_atom_site_fract_x
_atom_site_fract_y
_atom_site_fract_z
Si Si1 0.000000 0.712721 0.500000
Si Si2 0.743123 0.147186 0.517982
Si Si3 0.835623 0.542933 0.141344
Si Si4 0.831450 0.094813 0.983037
Si Si5 0.321674 0.259809 0.777626
Si Si6 0.984790 0.698385 0.861024
Si Si7 0.997105 0.389685 0.247720
Si Si8 0.078308 0.153842 0.268004
O O1 0.853494 0.685739 0.495276
O O2 0.922994 0.739991 0.631469
O O3 0.600420 0.114260 0.586174
O O4 0.891659 0.140244 0.367292
O O5 0.828183 0.151451 0.627897
O O6 0.804616 0.500000 0.210037
O O7 0.694249 0.556241 0.093524
O O8 0.878543 0.579345 0.216578
O O9 0.000000 0.540042 0.000000
O O10 0.839606 0.129206 0.873872
O O11 0.679853 0.097794 0.135653
O O12 0.000000 0.095491 0.000000
O O13 0.141418 0.272614 0.792054
O O14 0.328430 0.224972 0.878138
O O15 0.410613 0.300899 0.778683
O O16 0.993217 0.657002 0.788766
O O17 0.000000 0.687230 0.000000
#
# Coordination Sequence:
#
# PCOD9220316 Si02
#       8
#     4   8   8   8   8   8   8   8
#     4  12  24  38  58  84 111 158 217 272 314 348
#     4  11  23  39  61  82 120 159 208 262 305 369
#     4   9  18  37  67  97 125 161 201 241 305 382
#     4  11  24  39  64  95 128 159 203 260 310 366
#     4  12  23  37  56  79 114 157 212 262 305 356
#     4  12  24  38  55  81 119 161 202 258 311 367
#     4  11  21  42  62  88 122 165 203 252 310 371
#     4  11  23  40  58  85 120 168 208 256 308 366
#
# _framework density 20.542466000000001
#
# number of rings (size 3 to 8) (size 9 to 14) (size 15 to 20)
#    0.000    0.933    4.000    4.000    1.867    3.467 
#    0.000    0.000    0.000    1.600    0.000    0.467 
#    0.000    0.000    0.000    0.000    0.000    0.000 
#
# Total GULP energy -167131.595605 kJ/mol
# GULP energy per Si atom -5571.053187 kJ/mol
# Density = 2.049571 g / cm^3
# Si number density = 20.542466 Si / 1000 Ang^3
#
#
#
# Elastic Constant Matrix: (Units=GPa)
#
#
# Indices 1 2 3 4 5 6 
#
# 1 95.4091 32.3668 16.9492 0.0000 -3.9153 0.0000
# 2 32.3668 108.6654 4.6662 0.0000 6.5660 0.0000
# 3 16.9492 4.6662 29.8086 0.0000 -14.8594 0.0000
# 4 0.0000 0.0000 0.0000 17.0109 0.0000 2.2757
# 5 -3.9153 6.5660 -14.8594 0.0000 30.5877 0.0000
# 6 0.0000 0.0000 0.0000 2.2757 0.0000 8.1562
#
#
#
# Elastic Compliance Matrix: (Units=1/GPa)
#
#
# Indices 1 2 3 4 5 6 
#
# 1 0.012920 -0.003458 -0.007404 0.000000 -0.001201 0.000000
# 2 -0.003458 0.010493 -0.001346 0.000000 -0.003349 0.000000
# 3 -0.007404 -0.001346 0.049667 0.000000 0.023469 0.000000
# 4 0.000000 0.000000 0.000000 0.061065 0.000000 -0.017038
# 5 -0.001201 -0.003349 0.023469 0.000000 0.044659 0.000000
# 6 0.000000 0.000000 0.000000 -0.017038 0.000000 0.127359
#
#
# Mechanical properties :
#
#
# Convention : Reuss Voigt Hill
#
# Bulk Modulus (GPa) = 20.54840 37.98304 29.26572
# Shear Modulus (GPa) = 14.41754 23.14436 18.78095
#
# Velocity S-wave (km/s) = 2.65210 3.36022 3.02694
# Velocity P-wave (km/s) = 4.40486 5.79525 5.14722
#
# Compressibility (1/GPa) = 0.04866559
#
# Stress axis : x y z
#
# Youngs Moduli (GPa) = 77.39806 95.30482 20.13406
#
# Poissons Ratio (x) = 0.32956 0.14907
# Poissons Ratio (y) = 0.26764 0.02709
# Poissons Ratio (z) = 0.57303 0.12824
#
# Static dielectric constant tensor:
#      x y z
#    x 1.889890 0.000000 0.260970 
#    y 0.000000 1.723660 0.000000 
#    z 0.260970 0.000000 2.734250 
# 
# From -- ./inp_files/125718.got.cif
#   From: 2010.05.17/outbox.cif.g08.bks.cpg/sg12_63_cif.got.tgz:125718.got - 2010.06.03 13:09:07.
