data_PCOD9220696
_publ_section_title
;
Structure prediction by ZEFSAII (Michael W. Deem and Ramdas Pophale) SiO2 
 PCOD9220696
Probable space group: C 2/M
;
_chemical_formula_sum "Si O2"
_cell_formula_units_Z 48
_cell_length_a 31.585635
_cell_length_b 7.634583
_cell_length_c 31.315638
_cell_angle_alpha 90.000000
_cell_angle_beta 161.549490
_cell_angle_gamma 90.000000
_cell_volume 2389.955928
_symmetry_space_group_name_H-M "C 2/M"
_symmetry_group_IT_number 12
_symmetry_cell_setting 'monoclinic'
loop_
_space_group_symop_operation_xyz
x,y,z
-x,y,-z
-x,-y,-z
x,-y,z
1/2+x,1/2+y,z
1/2-x,1/2+y,-z
1/2-x,1/2-y,-z
1/2+x,1/2-y,z
loop_
_atom_site_type_symbol
_atom_site_label
_atom_site_fract_x
_atom_site_fract_y
_atom_site_fract_z
Si Si1 0.538090 0.711370 0.681597
Si Si2 0.733942 0.785691 0.167526
Si Si3 0.527097 0.798211 0.902372
Si Si4 0.253889 0.298478 0.954358
Si Si5 0.348103 0.286445 0.364567
Si Si6 0.732100 0.285683 0.616736
O O1 0.537664 0.500000 0.681679
O O2 0.635736 0.763734 0.735826
O O3 0.612067 0.769369 0.795336
O O4 0.388312 0.774299 0.529036
O O5 0.754374 0.729603 0.235681
O O6 0.730326 0.000000 0.163904
O O7 0.605387 0.721115 0.018137
O O8 0.382836 0.724503 0.751900
O O9 0.500354 0.000000 0.888591
O O10 0.633231 0.797817 0.965424
O O11 0.289850 0.500000 0.984875
O O12 0.250000 0.250000 0.000000
O O13 0.500000 0.231770 0.500000
O O14 0.348148 0.500000 0.364656
O O15 0.302726 0.233245 0.368074
O O16 0.727837 0.500000 0.610517
#
# Coordination Sequence:
#
# PCOD9220696 Si02
#       6
#     8   8   8   8   8   8
#     4   9  16  30  51  76 104 135 168 206 251 297
#     4   8  13  22  39  65 102 141 174 210 245 281
#     4   9  18  32  49  75 108 138 168 206 254 302
#     4  11  22  38  59  79  96 123 162 206 253 309
#     4   9  13  19  36  68 107 142 177 212 246 283
#     4   9  16  26  45  74 110 143 169 207 255 293
#
# _framework density 20.084053000000001
#
# number of rings (size 3 to 8) (size 9 to 14) (size 15 to 20)
#    0.000    2.833    1.667    2.500    0.000    0.667 
#    0.000    5.000    0.000    0.000    0.000   18.667 
#    0.000    0.000    0.000    0.000    0.000    0.000 
#
# Total GULP energy -133818.024709 kJ/mol
# GULP energy per Si atom -5575.751030 kJ/mol
# Density = 2.003834 g / cm^3
# Si number density = 20.084053 Si / 1000 Ang^3
#
#
#
# Elastic Constant Matrix: (Units=GPa)
#
#
# Indices 1 2 3 4 5 6 
#
# 1 82.8477 -10.3792 68.0186 -0.0026 -28.2640 -0.0004
# 2 -10.3792 39.4508 2.1217 -0.0048 -0.3359 -0.0027
# 3 68.0186 2.1217 187.5107 -0.0110 -12.7251 -0.0055
# 4 -0.0026 -0.0048 -0.0110 1.8646 -0.0011 -4.9860
# 5 -28.2640 -0.3359 -12.7251 -0.0011 29.3906 0.0000
# 6 -0.0004 -0.0027 -0.0055 -4.9860 0.0000 -0.9340
#
#
#
# Elastic Compliance Matrix: (Units=1/GPa)
#
#
# Indices 1 2 3 4 5 6 
#
# 1 0.028307 0.008119 -0.008764 0.000004 0.023520 -0.000007
# 2 0.008119 0.027693 -0.002789 -0.000007 0.006917 -0.000029
# 3 -0.008764 -0.002789 0.008211 -0.000005 -0.004905 -0.000012
# 4 0.000004 -0.000007 -0.000005 0.035113 0.000003 -0.187432
# 5 0.023520 0.006917 -0.004905 0.000003 0.054598 -0.000019
# 6 -0.000007 -0.000029 -0.000012 -0.187432 -0.000019 -0.070094
#
#
# Mechanical properties :
#
#
# Convention : Reuss Voigt Hill
#
# Bulk Modulus (GPa) = 17.43916 47.70348 32.57132
# Shear Modulus (GPa) = 45.53357 22.73411 34.13384
#
# Velocity S-wave (km/s) = 4.76663 3.36809 4.12703
# Velocity P-wave (km/s) = 6.24470 6.23930 6.24200
#
# Compressibility (1/GPa) = 0.05734222
#
# Stress axis : x y z
#
# Youngs Moduli (GPa) = 35.32752 36.11032 121.79160
#
# Poissons Ratio (x) = -0.29317 1.06735
# Poissons Ratio (y) = -0.28682 0.33968
# Poissons Ratio (z) = 0.30960 0.10071
#
# Static dielectric constant tensor:
#      x y z
#    x 1.555610 0.000000 -0.039850 
#    y 0.000000 1.771510 0.000000 
#    z -0.039850 0.000000 1.729840 
# 
# From -- ./inp_files/369304.got.cif
#   From: 2010.05.17/outbox.cif.g08.bks.cpg/sg12_185_cif.got.tgz:369304.got - 2010.06.03 13:09:07.
