data_PCOD9220883
_publ_section_title
;
Structure prediction by ZEFSAII (Michael W. Deem and Ramdas Pophale) SiO2 
 PCOD9220883
Probable space group: C 2/M
;
_chemical_formula_sum "Si O2"
_cell_formula_units_Z 42
_cell_length_a 16.107120
_cell_length_b 15.207634
_cell_length_c 9.406818
_cell_angle_alpha 90.000000
_cell_angle_beta 57.564457
_cell_angle_gamma 90.000000
_cell_volume 1944.743597
_symmetry_space_group_name_H-M "C 2/M"
_symmetry_group_IT_number 12
_symmetry_cell_setting 'monoclinic'
loop_
_space_group_symop_operation_xyz
x,y,z
-x,y,-z
-x,-y,-z
x,-y,z
1/2+x,1/2+y,z
1/2-x,1/2+y,-z
1/2-x,1/2-y,-z
1/2+x,1/2-y,z
loop_
_atom_site_type_symbol
_atom_site_label
_atom_site_fract_x
_atom_site_fract_y
_atom_site_fract_z
Si Si1 0.600767 0.904443 0.820738
Si Si2 0.252373 0.254417 0.667748
Si Si3 0.500000 0.500000 0.500000
Si Si4 0.023015 0.651052 0.313581
Si Si5 0.253248 0.897718 0.883556
Si Si6 0.097161 0.164800 0.260121
O O1 0.669544 0.823417 0.791600
O O2 0.563191 0.894634 0.694364
O O3 0.649021 0.000000 0.800239
O O4 0.500000 0.900872 0.000000
O O5 0.250000 0.250000 0.500000
O O6 0.238875 0.160586 0.755200
O O7 0.351157 0.294917 0.645774
O O8 0.540393 0.577685 0.354692
O O9 0.131395 0.612578 0.181743
O O10 0.030595 0.754375 0.266899
O O11 0.000000 0.640233 0.500000
O O12 0.231184 0.000000 0.883707
O O13 0.182801 0.857121 0.068831
#
# Coordination Sequence:
#
# PCOD9220883 Si02
#       6
#     8   8   2   8   8   8
#     4  11  23  39  63  92 122 161 205 256 319 381
#     4  11  25  42  63  96 135 169 206 267 333 385
#     4  12  24  40  76  94 118 176 238 270 306 388
#     4  11  22  39  65  93 126 163 212 265 314 378
#     4  11  23  43  67  94 129 174 220 270 323 386
#     4  11  23  44  67  93 127 171 225 271 319 383
#
# _framework density 21.596679000000002
#
# number of rings (size 3 to 8) (size 9 to 14) (size 15 to 20)
#    0.000    0.952    1.905    7.429    1.333    5.333 
#    0.000    0.000    0.000    2.857    0.000    0.000 
#    0.000    0.000    0.000    0.000    0.000    0.000 
#
# Total GULP energy -117240.272080 kJ/mol
# GULP energy per Si atom -5582.870099 kJ/mol
# Density = 2.154752 g / cm^3
# Si number density = 21.596679 Si / 1000 Ang^3
#
#
#
# Elastic Constant Matrix: (Units=GPa)
#
#
# Indices 1 2 3 4 5 6 
#
# 1 28.3649 15.0463 1.1132 0.0000 5.6900 0.0000
# 2 15.0463 156.3917 24.8814 0.0000 5.5332 0.0000
# 3 1.1132 24.8814 94.1538 0.0000 1.8613 0.0000
# 4 0.0000 0.0000 0.0000 29.8458 0.0000 -11.2719
# 5 5.6900 5.5332 1.8613 0.0000 35.6657 0.0000
# 6 0.0000 0.0000 0.0000 -11.2719 0.0000 14.1463
#
#
#
# Elastic Compliance Matrix: (Units=1/GPa)
#
#
# Indices 1 2 3 4 5 6 
#
# 1 0.038248 -0.003579 0.000604 0.000000 -0.005578 0.000000
# 2 -0.003579 0.007042 -0.001810 0.000000 -0.000427 0.000000
# 3 0.000604 -0.001810 0.011100 0.000000 -0.000395 0.000000
# 4 0.000000 0.000000 0.000000 0.047929 0.000000 0.038190
# 5 -0.005578 -0.000427 -0.000395 0.000000 0.029015 0.000000
# 6 0.000000 0.000000 0.000000 0.038190 0.000000 0.101121
#
#
# Mechanical properties :
#
#
# Convention : Reuss Voigt Hill
#
# Bulk Modulus (GPa) = 21.35831 40.11025 30.73428
# Shear Modulus (GPa) = 19.25812 31.78952 25.52382
#
# Velocity S-wave (km/s) = 2.98940 3.84078 3.44152
# Velocity P-wave (km/s) = 4.67188 6.18721 5.48215
#
# Compressibility (1/GPa) = 0.04682018
#
# Stress axis : x y z
#
# Youngs Moduli (GPa) = 26.14486 142.01355 90.09067
#
# Poissons Ratio (x) = 0.50820 -0.05439
# Poissons Ratio (y) = 0.09356 0.16307
# Poissons Ratio (z) = -0.01579 0.25706
#
# Static dielectric constant tensor:
#      x y z
#    x 1.815520 0.000000 0.008780 
#    y 0.000000 1.789750 0.000000 
#    z 0.008780 0.000000 1.813280 
# 
# From -- ./inp_files/73523.got.cif
#   From: 2010.05.17/outbox.cif.g08.bks.cpg/sg12_37_cif.got.tgz:73523.got - 2010.06.03 13:09:07.
