data_PCOD9220549
_publ_section_title
;
Structure prediction by ZEFSAII (Michael W. Deem and Ramdas Pophale) SiO2 
 PCOD9220549
Probable space group: C 2/M
;
_chemical_formula_sum "Si O2"
_cell_formula_units_Z 56
_cell_length_a 9.558040
_cell_length_b 16.788771
_cell_length_c 22.087453
_cell_angle_alpha 90.000000
_cell_angle_beta 51.032065
_cell_angle_gamma 90.000000
_cell_volume 2755.704758
_symmetry_space_group_name_H-M "C 2/M"
_symmetry_group_IT_number 12
_symmetry_cell_setting 'monoclinic'
loop_
_space_group_symop_operation_xyz
x,y,z
-x,y,-z
-x,-y,-z
x,-y,z
1/2+x,1/2+y,z
1/2-x,1/2+y,-z
1/2-x,1/2-y,-z
1/2+x,1/2-y,z
loop_
_atom_site_type_symbol
_atom_site_label
_atom_site_fract_x
_atom_site_fract_y
_atom_site_fract_z
Si Si1 0.434040 0.591145 0.927831
Si Si2 0.563772 0.348380 0.660631
Si Si3 0.156529 0.332406 0.506066
Si Si4 0.580998 0.910400 0.100402
Si Si5 0.213565 0.686088 0.168306
Si Si6 0.189853 0.122946 0.171572
Si Si7 0.876857 0.685845 0.671830
O O1 0.482103 0.500000 0.930539
O O2 0.591937 0.651283 0.902278
O O3 0.404653 0.596643 0.864034
O O4 0.245812 0.610816 0.011468
O O5 0.690793 0.381150 0.571987
O O6 0.424561 0.399899 0.737610
O O7 0.705821 0.316897 0.673325
O O8 0.450193 0.275599 0.662630
O O9 0.250000 0.250000 0.500000
O O10 0.000000 0.314656 0.500000
O O11 0.042161 0.361437 0.594990
O O12 0.575790 0.850030 0.157630
O O13 0.391686 0.908370 0.118425
O O14 0.613341 0.000000 0.114188
O O15 0.203565 0.780943 0.168418
O O16 0.173442 0.657743 0.247487
#
# Coordination Sequence:
#
# PCOD9220549 Si02
#       7
#     8   8   8   8   8   8   8
#     4  11  23  41  59  78 107 146 188 227 271 333
#     4   9  17  29  49  78 112 144 176 221 271 320
#     4   8  14  26  44  72 109 144 174 210 266 322
#     4  11  25  41  57  78 109 148 186 225 275 333
#     4  11  22  36  58  86 113 140 181 230 278 321
#     4  11  22  36  58  86 113 140 181 230 278 321
#     4   9  17  29  49  78 112 144 176 221 271 320
#
# _framework density 20.321480999999999
#
# number of rings (size 3 to 8) (size 9 to 14) (size 15 to 20)
#    0.000    2.000    1.429    2.571    6.000    5.714 
#    0.000    0.000    0.000    0.000    0.000    6.000 
#    0.000    0.000    0.000    0.000    0.000    0.000 
#
# Total GULP energy -156146.838690 kJ/mol
# GULP energy per Si atom -5576.672810 kJ/mol
# Density = 2.027523 g / cm^3
# Si number density = 20.321481 Si / 1000 Ang^3
#
#
#
# Elastic Constant Matrix: (Units=GPa)
#
#
# Indices 1 2 3 4 5 6 
#
# 1 44.3318 2.0799 -1.2267 0.0000 -5.3371 0.0001
# 2 2.0799 44.7698 20.2796 0.0001 2.0603 -0.0001
# 3 -1.2267 20.2796 118.6387 0.0002 -2.5589 -0.0004
# 4 0.0000 0.0001 0.0002 5.1494 -0.0001 -25.5094
# 5 -5.3371 2.0603 -2.5589 -0.0001 32.6879 0.0002
# 6 0.0001 -0.0001 -0.0004 -25.5094 0.0002 85.0401
#
#
#
# Elastic Compliance Matrix: (Units=1/GPa)
#
#
# Indices 1 2 3 4 5 6 
#
# 1 0.023116 -0.001518 0.000583 0.000000 0.003916 0.000000
# 2 -0.001518 0.024423 -0.004236 0.000000 -0.002119 0.000000
# 3 0.000583 -0.004236 0.009182 0.000000 0.001081 0.000000
# 4 0.000000 0.000000 0.000000 -0.399584 -0.000001 -0.119863
# 5 0.003916 -0.002119 0.001081 -0.000001 0.031450 0.000000
# 6 0.000000 0.000000 0.000000 -0.119863 0.000000 -0.024196
#
#
# Mechanical properties :
#
#
# Convention : Reuss Voigt Hill
#
# Bulk Modulus (GPa) = 21.56152 27.77843 24.66997
# Shear Modulus (GPa) = -16.13915 37.01598 10.43841
#
# Velocity S-wave (km/s) = -2.82120 4.27256 2.26887
# Velocity P-wave (km/s) = 0.14502 6.16756 4.36233
#
# Compressibility (1/GPa) = 0.04637893
#
# Stress axis : x y z
#
# Youngs Moduli (GPa) = 43.26024 40.94427 108.90372
#
# Poissons Ratio (x) = 0.06216 -0.06349
# Poissons Ratio (y) = 0.06568 0.46134
# Poissons Ratio (z) = -0.02522 0.17345
#
# Static dielectric constant tensor:
#      x y z
#    x 1.706840 0.000000 0.001110 
#    y 0.000000 1.720490 0.000000 
#    z 0.001110 0.000000 1.802440 
# 
# From -- ./inp_files/300686.got.cif
#   From: 2010.05.17/outbox.cif.g08.bks.cpg/sg12_151_cif.got.tgz:300686.got - 2010.06.03 13:09:07.
