data_PCOD9220867
_publ_section_title
;
Structure prediction by ZEFSAII (Michael W. Deem and Ramdas Pophale) SiO2 
 PCOD9220867
Probable space group: C 2/M
;
_chemical_formula_sum "Si O2"
_cell_formula_units_Z 48
_cell_length_a 15.181578
_cell_length_b 8.616494
_cell_length_c 18.839311
_cell_angle_alpha 90.000000
_cell_angle_beta 105.358675
_cell_angle_gamma 90.000000
_cell_volume 2376.395339
_symmetry_space_group_name_H-M "C 2/M"
_symmetry_group_IT_number 12
_symmetry_cell_setting 'monoclinic'
loop_
_space_group_symop_operation_xyz
x,y,z
-x,y,-z
-x,-y,-z
x,-y,z
1/2+x,1/2+y,z
1/2-x,1/2+y,-z
1/2-x,1/2-y,-z
1/2+x,1/2-y,z
loop_
_atom_site_type_symbol
_atom_site_label
_atom_site_fract_x
_atom_site_fract_y
_atom_site_fract_z
Si Si1 0.634439 0.315594 0.057821
Si Si2 0.005130 0.681524 0.586225
Si Si3 0.316756 0.685324 0.160255
Si Si4 0.469279 0.815691 0.101061
Si Si5 0.810568 0.183339 0.577618
Si Si6 0.193160 0.817864 0.676599
O O1 0.631041 0.500000 0.046111
O O2 0.735748 0.259817 0.096983
O O3 0.565813 0.266613 0.106648
O O4 0.593607 0.231175 0.979911
O O5 0.020844 0.500000 0.605116
O O6 0.089412 0.779846 0.632975
O O7 0.000000 0.699271 0.500000
O O8 0.909071 0.736736 0.596779
O O9 0.318106 0.500000 0.149665
O O10 0.413396 0.755287 0.156585
O O11 0.296510 0.717621 0.238199
O O12 0.481921 0.000000 0.105894
O O13 0.750000 0.250000 0.500000
O O14 0.758288 0.220861 0.639139
O O15 0.820522 0.000000 0.569914
O O16 0.211828 0.000000 0.669310
#
# Coordination Sequence:
#
# PCOD9220867 Si02
#       6
#     8   8   8   8   8   8
#     4  11  22  39  64  93 125 164 209 256 305 362
#     4  11  23  40  65  93 121 157 200 251 305 364
#     4  11  24  42  62  89 126 165 207 254 308 367
#     4  11  22  39  64  93 125 164 208 256 307 361
#     4  12  24  40  65  92 122 157 200 251 305 365
#     4  11  25  43  64  91 124 163 206 255 309 367
#
# _framework density 20.198657999999998
#
# number of rings (size 3 to 8) (size 9 to 14) (size 15 to 20)
#    0.000    0.833    1.667    7.500    0.000    4.667 
#    0.000    0.000    0.000    0.000    0.000    0.000 
#    0.000    0.000    0.000    0.000    0.000    0.000 
#
# Total GULP energy -134346.120771 kJ/mol
# GULP energy per Si atom -5597.755032 kJ/mol
# Density = 2.015269 g / cm^3
# Si number density = 20.198658 Si / 1000 Ang^3
#
#
#
# Elastic Constant Matrix: (Units=GPa)
#
#
# Indices 1 2 3 4 5 6 
#
# 1 92.5209 -11.0792 -3.7488 0.0000 -13.4377 0.0000
# 2 -11.0792 54.2906 11.8509 0.0000 -14.0738 0.0000
# 3 -3.7488 11.8509 20.2480 0.0000 -10.6536 0.0000
# 4 0.0000 0.0000 0.0000 25.2996 0.0000 -3.6508
# 5 -13.4377 -14.0738 -10.6536 0.0000 26.0692 0.0000
# 6 0.0000 0.0000 0.0000 -3.6508 0.0000 38.8638
#
#
#
# Elastic Compliance Matrix: (Units=1/GPa)
#
#
# Indices 1 2 3 4 5 6 
#
# 1 0.013282 0.004428 0.006022 0.000000 0.011698 0.000000
# 2 0.004428 0.024023 -0.006645 0.000000 0.012536 0.000000
# 3 0.006022 -0.006645 0.068967 0.000000 0.027701 0.000000
# 4 0.000000 0.000000 0.000000 0.040069 0.000000 0.003764
# 5 0.011698 0.012536 0.027701 0.000000 0.062478 0.000000
# 6 0.000000 0.000000 0.000000 0.003764 0.000000 0.026084
#
#
# Mechanical properties :
#
#
# Convention : Reuss Voigt Hill
#
# Bulk Modulus (GPa) = 8.78092 17.90059 13.34076
# Shear Modulus (GPa) = 18.84996 29.38231 24.11613
#
# Velocity S-wave (km/s) = 3.05819 3.81815 3.45910
# Velocity P-wave (km/s) = 4.10205 5.32158 4.75110
#
# Compressibility (1/GPa) = 0.11388325
#
# Stress axis : x y z
#
# Youngs Moduli (GPa) = 75.29193 41.62620 14.49977
#
# Poissons Ratio (x) = -0.18433 -0.08732
# Poissons Ratio (y) = -0.33342 0.09634
# Poissons Ratio (z) = -0.45341 0.27659
#
# Static dielectric constant tensor:
#      x y z
#    x 1.703020 0.000000 -0.027880 
#    y 0.000000 1.670520 0.000000 
#    z -0.027880 0.000000 1.702560 
# 
# From -- ./inp_files/308595.got.cif
#   From: 2010.05.17/outbox.cif.g08.bks.cpg/sg12_155_cif.got.tgz:308595.got - 2010.06.03 13:09:07.
