data_PCOD9220168
_publ_section_title
;
Structure prediction by ZEFSAII (Michael W. Deem and Ramdas Pophale) SiO2 
 PCOD9220168
Probable space group: C 2/M
;
_chemical_formula_sum "Si O2"
_cell_formula_units_Z 40
_cell_length_a 17.641729
_cell_length_b 17.919165
_cell_length_c 11.350356
_cell_angle_alpha 90.000000
_cell_angle_beta 35.009194
_cell_angle_gamma 90.000000
_cell_volume 2058.539521
_symmetry_space_group_name_H-M "C 2/M"
_symmetry_group_IT_number 12
_symmetry_cell_setting 'monoclinic'
loop_
_space_group_symop_operation_xyz
x,y,z
-x,y,-z
-x,-y,-z
x,-y,z
1/2+x,1/2+y,z
1/2-x,1/2+y,-z
1/2-x,1/2-y,-z
1/2+x,1/2-y,z
loop_
_atom_site_type_symbol
_atom_site_label
_atom_site_fract_x
_atom_site_fract_y
_atom_site_fract_z
Si Si1 0.659451 0.000000 0.810013
Si Si2 0.219330 0.661908 0.634126
Si Si3 0.681497 0.347974 0.051338
Si Si4 0.448476 0.709017 0.192125
Si Si5 0.841661 0.749624 0.699445
Si Si6 0.867051 0.000000 0.754542
O O1 0.705893 0.077585 0.692150
O O2 0.736470 0.000000 0.837425
O O3 0.500000 0.000000 0.000000
O O4 0.314683 0.668647 0.401075
O O5 0.082874 0.702854 0.775494
O O6 0.283197 0.716184 0.653517
O O7 0.553527 0.310141 0.156984
O O8 0.715377 0.305105 0.128382
O O9 0.641441 0.429077 0.148423
O O10 0.791349 0.330913 0.811101
O O11 0.500000 0.684248 0.000000
O O12 0.000000 0.753259 0.500000
O O13 0.000000 0.000000 0.500000
#
# Coordination Sequence:
#
# PCOD9220168 Si02
#       6
#     4   8   8   8   8   4
#     4  12  26  42  70 105 138 171 218 290 349 388
#     4  11  23  41  66  96 137 170 223 275 340 393
#     4  11  23  38  69  96 129 170 230 272 329 390
#     4  11  22  40  65  94 130 178 222 276 318 404
#     4  11  21  39  65  97 128 176 225 273 324 395
#     4  12  24  46  71 101 138 173 230 282 331 396
#
# _framework density 19.431252000000001
#
# number of rings (size 3 to 8) (size 9 to 14) (size 15 to 20)
#    0.000    0.800    6.000    2.400    0.000    0.000 
#    0.000    2.500    0.000    0.000    0.000    0.000 
#    0.000    0.000    0.000    0.000    0.000    0.000 
#
# Total GULP energy -111516.248797 kJ/mol
# GULP energy per Si atom -5575.812440 kJ/mol
# Density = 1.938703 g / cm^3
# Si number density = 19.431252 Si / 1000 Ang^3
#
#
#
# Elastic Constant Matrix: (Units=GPa)
#
#
# Indices 1 2 3 4 5 6 
#
# 1 108.1704 57.4988 38.8686 0.0000 1.8894 0.0000
# 2 57.4988 140.3069 54.1056 0.0000 10.4040 0.0000
# 3 38.8686 54.1056 115.8578 0.0000 16.0326 0.0000
# 4 0.0000 0.0000 0.0000 14.0924 0.0000 3.6652
# 5 1.8894 10.4040 16.0326 0.0000 35.9842 0.0000
# 6 0.0000 0.0000 0.0000 3.6652 0.0000 30.0832
#
#
#
# Elastic Compliance Matrix: (Units=1/GPa)
#
#
# Indices 1 2 3 4 5 6 
#
# 1 0.012334 -0.004260 -0.002376 0.000000 0.001643 0.000000
# 2 -0.004260 0.010183 -0.003144 0.000000 -0.001320 0.000000
# 3 -0.002376 -0.003144 0.011460 0.000000 -0.004072 0.000000
# 4 0.000000 0.000000 0.000000 0.073282 0.000000 -0.008928
# 5 0.001643 -0.001320 -0.004072 0.000000 0.029900 0.000000
# 6 0.000000 0.000000 0.000000 -0.008928 0.000000 0.034329
#
#
# Mechanical properties :
#
#
# Convention : Reuss Voigt Hill
#
# Bulk Modulus (GPa) = 69.35753 73.92012 71.63882
# Shear Modulus (GPa) = 25.52924 30.28944 27.90934
#
# Velocity S-wave (km/s) = 3.62860 3.95245 3.79398
# Velocity P-wave (km/s) = 7.30253 7.67812 7.49268
#
# Compressibility (1/GPa) = 0.01441804
#
# Stress axis : x y z
#
# Youngs Moduli (GPa) = 81.07508 98.19996 87.26082
#
# Poissons Ratio (x) = 0.41837 0.20730
# Poissons Ratio (y) = 0.34541 0.27432
# Poissons Ratio (z) = 0.19261 0.30871
#
# Static dielectric constant tensor:
#      x y z
#    x 1.718080 0.000000 -0.011440 
#    y 0.000000 1.717160 0.000000 
#    z -0.011440 0.000000 1.748140 
# 
# From -- ./inp_files/158458.got.cif
#   From: 2010.05.17/outbox.cif.g08.bks.cpg/sg12_80_cif.got.tgz:158458.got - 2010.06.03 13:09:07.
