data_PCOD9220579
_publ_section_title
;
Structure prediction by ZEFSAII (Michael W. Deem and Ramdas Pophale) SiO2 
 PCOD9220579
Probable space group: C 2/M
;
_chemical_formula_sum "Si O2"
_cell_formula_units_Z 48
_cell_length_a 20.466807
_cell_length_b 14.391036
_cell_length_c 15.394130
_cell_angle_alpha 90.000000
_cell_angle_beta 35.557429
_cell_angle_gamma 90.000000
_cell_volume 2636.701510
_symmetry_space_group_name_H-M "C 2/M"
_symmetry_group_IT_number 12
_symmetry_cell_setting 'monoclinic'
loop_
_space_group_symop_operation_xyz
x,y,z
-x,y,-z
-x,-y,-z
x,-y,z
1/2+x,1/2+y,z
1/2-x,1/2+y,-z
1/2-x,1/2-y,-z
1/2+x,1/2-y,z
loop_
_atom_site_type_symbol
_atom_site_label
_atom_site_fract_x
_atom_site_fract_y
_atom_site_fract_z
Si Si1 0.855260 0.108413 0.330725
Si Si2 0.093741 0.610617 0.643261
Si Si3 0.037796 0.103130 0.278377
Si Si4 0.793582 0.184676 0.030742
Si Si5 0.055142 0.299199 0.347401
Si Si6 0.995039 0.268880 0.103924
O O1 0.724796 0.131095 0.484231
O O2 0.922586 0.119139 0.349073
O O3 0.915787 0.177945 0.199108
O O4 0.865828 0.000000 0.293944
O O5 0.079782 0.500000 0.660859
O O6 0.018464 0.653995 0.648510
O O7 0.054448 0.656660 0.775506
O O8 0.057053 0.188627 0.322595
O O9 0.037056 0.000000 0.318027
O O10 0.133818 0.108605 0.099595
O O11 0.681427 0.160407 0.204243
O O12 0.750000 0.250000 0.000000
O O13 0.882333 0.238919 0.994332
O O14 0.000000 0.314498 0.500000
O O15 0.000000 0.301123 0.000000
#
# Coordination Sequence:
#
# PCOD9220579 Si02
#       6
#     8   8   8   8   8   8
#     4   9  19  37  61  86 113 149 190 232 290 346
#     4  11  23  40  58  82 119 157 194 237 287 346
#     4   9  18  36  62  86 111 149 189 239 291 337
#     4   9  18  39  55  84 117 152 194 226 283 348
#     4  11  23  37  60  84 117 153 195 238 287 350
#     4  11  22  36  64  89 115 151 192 244 293 337
#
# _framework density 18.204564000000001
#
# number of rings (size 3 to 8) (size 9 to 14) (size 15 to 20)
#    0.000    2.000    5.000    0.500    2.333    2.000 
#    0.000    0.000    0.000    0.000    0.000    0.000 
#    0.000    0.000    0.000    0.000    0.000    0.000 
#
# Total GULP energy -133857.069699 kJ/mol
# GULP energy per Si atom -5577.377904 kJ/mol
# Density = 1.816313 g / cm^3
# Si number density = 18.204564 Si / 1000 Ang^3
#
#
#
# Elastic Constant Matrix: (Units=GPa)
#
#
# Indices 1 2 3 4 5 6 
#
# 1 81.7301 34.7597 67.1887 0.0000 -9.0817 0.0000
# 2 34.7597 65.2046 33.7993 0.0000 -5.0157 0.0000
# 3 67.1887 33.7993 139.3944 0.0000 -5.5685 0.0000
# 4 0.0000 0.0000 0.0000 5.3167 0.0000 -6.5382
# 5 -9.0817 -5.0157 -5.5685 0.0000 39.7678 0.0000
# 6 0.0000 0.0000 0.0000 -6.5382 0.0000 7.9327
#
#
#
# Elastic Compliance Matrix: (Units=1/GPa)
#
#
# Indices 1 2 3 4 5 6 
#
# 1 0.023435 -0.007392 -0.009379 0.000000 0.003106 0.000000
# 2 -0.007392 0.019978 -0.001255 0.000000 0.000656 0.000000
# 3 -0.009379 -0.001255 0.011974 0.000000 -0.000624 0.000000
# 4 0.000000 0.000000 0.000000-13.880085 0.000000-11.440030
# 5 0.003106 0.000656 -0.000624 0.000000 0.025851 0.000000
# 6 0.000000 0.000000 0.000000-11.440030 0.000000 -9.302865
#
#
# Mechanical properties :
#
#
# Convention : Reuss Voigt Hill
#
# Bulk Modulus (GPa) = 51.72117 61.98050 56.85083
# Shear Modulus (GPa) = -0.21683 20.64221 10.21269
#
# Velocity S-wave (km/s) = -0.34550 3.37100 2.37111
# Velocity P-wave (km/s) = 5.32105 7.01941 6.22839
#
# Compressibility (1/GPa) = 0.01933444
#
# Stress axis : x y z
#
# Youngs Moduli (GPa) = 42.67145 50.05531 83.51368
#
# Poissons Ratio (x) = 0.37001 0.78330
# Poissons Ratio (y) = 0.31543 0.10480
# Poissons Ratio (z) = 0.40023 0.06281
#
# Static dielectric constant tensor:
#      x y z
#    x 1.605710 0.000000 -0.019860 
#    y 0.000000 1.626540 0.000000 
#    z -0.019860 0.000000 1.635170 
# 
# From -- ./inp_files/233356.got.cif
#   From: 2010.05.17/outbox.cif.g08.bks.cpg/sg12_117_cif.got.tgz:233356.got - 2010.06.03 13:09:07.
