data_PCOD9220032
_publ_section_title
;
Structure prediction by ZEFSAII (Michael W. Deem and Ramdas Pophale) SiO2 
 PCOD9220032
Probable space group: C 2/M
;
_chemical_formula_sum "Si O2"
_cell_formula_units_Z 32
_cell_length_a 8.457063
_cell_length_b 23.344726
_cell_length_c 9.418403
_cell_angle_alpha 90.000000
_cell_angle_beta 46.446966
_cell_angle_gamma 90.000000
_cell_volume 1347.615490
_symmetry_space_group_name_H-M "C 2/M"
_symmetry_group_IT_number 12
_symmetry_cell_setting 'monoclinic'
loop_
_space_group_symop_operation_xyz
x,y,z
-x,y,-z
-x,-y,-z
x,-y,z
1/2+x,1/2+y,z
1/2-x,1/2+y,-z
1/2-x,1/2-y,-z
1/2+x,1/2-y,z
loop_
_atom_site_type_symbol
_atom_site_label
_atom_site_fract_x
_atom_site_fract_y
_atom_site_fract_z
Si Si1 0.000000 0.594576 0.000000
Si Si2 0.126447 0.371083 0.626037
Si Si3 0.185341 0.000000 0.179610
Si Si4 0.708828 0.000000 0.545028
Si Si5 0.752964 0.218315 0.151160
Si Si6 0.000000 0.805412 0.500000
O O1 0.112019 0.627556 0.806332
O O2 0.185397 0.554699 0.954946
O O3 0.109173 0.436796 0.584732
O O4 0.367208 0.342801 0.463857
O O5 0.922940 0.331787 0.713484
O O6 0.231187 0.000000 0.322550
O O7 0.931337 0.000000 0.318059
O O8 0.678976 0.264532 0.314704
O O9 0.750000 0.250000 0.000000
O O10 0.000000 0.196253 0.000000
#
# Coordination Sequence:
#
# PCOD9220032 Si02
#       6
#     4   8   4   4   8   4
#     4   9  16  30  54  90 126 162 212 261 324 382
#     4  11  21  37  64  93 131 170 212 275 329 392
#     4   8  14  28  50  83 128 164 205 265 310 378
#     4   9  18  32  53  92 126 164 211 261 336 388
#     4  12  26  46  68  98 132 178 227 273 328 387
#     4  12  24  43  68  99 132 172 226 280 326 380
#
# _framework density 23.745646000000001
#
# number of rings (size 3 to 8) (size 9 to 14) (size 15 to 20)
#    0.000    1.500    2.500    6.000    0.000    0.000 
#    0.000    0.625    0.000    0.750    0.000    0.000 
#    0.000    0.000    0.000    0.000    0.000    0.000 
#
# Total GULP energy -89289.161565 kJ/mol
# GULP energy per Si atom -5580.572598 kJ/mol
# Density = 2.369160 g / cm^3
# Si number density = 23.745646 Si / 1000 Ang^3
#
#
#
# Elastic Constant Matrix: (Units=GPa)
#
#
# Indices 1 2 3 4 5 6 
#
# 1 51.2467 46.1844 19.2473 0.0000 -32.7265 0.0000
# 2 46.1844 203.7862 50.2657 0.0000 -43.1821 0.0000
# 3 19.2473 50.2657 113.3036 0.0000 -34.2095 0.0000
# 4 0.0000 0.0000 0.0000 8.7976 0.0000 -7.6066
# 5 -32.7265 -43.1821 -34.2095 0.0000 44.5464 0.0000
# 6 0.0000 0.0000 0.0000 -7.6066 0.0000 16.8292
#
#
#
# Elastic Compliance Matrix: (Units=1/GPa)
#
#
# Indices 1 2 3 4 5 6 
#
# 1 0.039576 -0.003898 0.003442 0.000000 0.027940 0.000000
# 2 -0.003898 0.006690 -0.001578 0.000000 0.002410 0.000000
# 3 0.003442 -0.001578 0.012033 0.000000 0.010239 0.000000
# 4 0.000000 0.000000 0.000000 0.186586 0.000000 0.084335
# 5 0.027940 0.002410 0.010239 0.000000 0.053174 0.000000
# 6 0.000000 0.000000 0.000000 0.084335 0.000000 0.097539
#
#
# Mechanical properties :
#
#
# Convention : Reuss Voigt Hill
#
# Bulk Modulus (GPa) = 18.43955 66.63684 42.53820
# Shear Modulus (GPa) = 11.96903 30.87723 21.42313
#
# Velocity S-wave (km/s) = 2.24755 3.60992 3.00691
# Velocity P-wave (km/s) = 3.81019 6.74530 5.47799
#
# Compressibility (1/GPa) = 0.05423125
#
# Stress axis : x y z
#
# Youngs Moduli (GPa) = 25.26786 149.46719 83.10532
#
# Poissons Ratio (x) = 0.58259 -0.28606
# Poissons Ratio (y) = 0.09849 0.13117
# Poissons Ratio (z) = -0.08697 0.23592
#
# Static dielectric constant tensor:
#      x y z
#    x 2.097400 0.000000 -0.067440 
#    y 0.000000 1.957070 0.000000 
#    z -0.067440 0.000000 1.935220 
# 
# From -- ./inp_files/122917.got.cif
#   From: 2010.05.17/outbox.cif.g08.bks.cpg/sg12_62_cif.got.tgz:122917.got - 2010.06.03 13:09:07.
