data_PCOD9220791
_publ_section_title
;
Structure prediction by ZEFSAII (Michael W. Deem and Ramdas Pophale) SiO2 
 PCOD9220791
Probable space group: C 2/M
;
_chemical_formula_sum "Si O2"
_cell_formula_units_Z 64
_cell_length_a 20.528859
_cell_length_b 14.366217
_cell_length_c 14.666077
_cell_angle_alpha 90.000000
_cell_angle_beta 43.123477
_cell_angle_gamma 90.000000
_cell_volume 2956.691633
_symmetry_space_group_name_H-M "C 2/M"
_symmetry_group_IT_number 12
_symmetry_cell_setting 'monoclinic'
loop_
_space_group_symop_operation_xyz
x,y,z
-x,y,-z
-x,-y,-z
x,-y,z
1/2+x,1/2+y,z
1/2-x,1/2+y,-z
1/2-x,1/2-y,-z
1/2+x,1/2-y,z
loop_
_atom_site_type_symbol
_atom_site_label
_atom_site_fract_x
_atom_site_fract_y
_atom_site_fract_z
Si Si1 0.388196 0.109088 0.381063
Si Si2 0.651507 0.290834 0.188503
Si Si3 0.608126 0.360291 0.874363
Si Si4 0.771801 0.110257 0.064820
Si Si5 0.915568 0.356456 0.150117
Si Si6 0.065072 0.215738 0.572027
Si Si7 0.709600 0.395268 0.296274
Si Si8 0.667517 0.603491 0.613099
O O1 0.438518 0.131439 0.233392
O O2 0.422698 0.174227 0.427393
O O3 0.276011 0.131557 0.483167
O O4 0.396449 0.000000 0.392032
O O5 0.682270 0.182266 0.154699
O O6 0.544732 0.303705 0.333647
O O7 0.719836 0.344692 0.188813
O O8 0.662606 0.342560 0.080505
O O9 0.673365 0.381084 0.894841
O O10 0.599971 0.250428 0.862835
O O11 0.652020 0.398927 0.736611
O O12 0.500000 0.393944 0.000000
O O13 0.752595 0.000000 0.067435
O O14 0.812681 0.400447 0.237222
O O15 0.000000 0.392980 0.000000
O O16 0.138639 0.168042 0.428290
O O17 0.094977 0.172661 0.639202
O O18 0.671612 0.500000 0.324495
O O19 0.652681 0.500000 0.589444
#
# Coordination Sequence:
#
# PCOD9220791 Si02
#       8
#     8   8   8   8   8   8   8   8
#     4  11  24  42  66  99 136 178 220 269 342 411
#     4  11  27  45  67  96 132 184 235 282 334 388
#     4  11  22  39  68 100 133 173 220 279 346 410
#     4  11  25  46  68  94 136 180 230 285 337 401
#     4  11  23  41  69 101 137 176 217 276 342 413
#     4  12  24  42  68  97 136 176 223 281 330 401
#     4  12  25  45  70  99 135 176 228 283 340 400
#     4  11  22  38  65  98 133 171 213 274 347 408
#
# _framework density 21.645814999999999
#
# number of rings (size 3 to 8) (size 9 to 14) (size 15 to 20)
#    0.000    0.750    3.750    3.750    1.750    6.000 
#    0.000    0.000    0.000    1.500    0.000    0.000 
#    0.000    0.000    0.000    0.000    0.000    0.000 
#
# Total GULP energy -178923.005976 kJ/mol
# GULP energy per Si atom -5591.343937 kJ/mol
# Density = 2.159655 g / cm^3
# Si number density = 21.645815 Si / 1000 Ang^3
#
#
#
# Elastic Constant Matrix: (Units=GPa)
#
#
# Indices 1 2 3 4 5 6 
#
# 1 46.7588 16.2298 16.7116 0.0000 16.1756 0.0000
# 2 16.2298 141.7595 18.2902 0.0000 9.8465 0.0000
# 3 16.7116 18.2902 117.1802 0.0000 -2.3447 0.0000
# 4 0.0000 0.0000 0.0000 2319.8657 0.0000 -972.3840
# 5 16.1756 9.8465 -2.3447 0.0000 26.9540 0.0000
# 6 0.0000 0.0000 0.0000 -972.3840 0.0000 422.5153
#
#
#
# Elastic Compliance Matrix: (Units=1/GPa)
#
#
# Indices 1 2 3 4 5 6 
#
# 1 0.029547 -0.001609 -0.004313 0.000000 -0.017519 0.000000
# 2 -0.001609 0.007494 -0.000977 0.000000 -0.001857 0.000000
# 3 -0.004313 -0.000977 0.009377 0.000000 0.003761 0.000000
# 4 0.000000 0.000000 0.000000 0.012194 0.000000 0.028065
# 5 -0.017519 -0.001857 0.003761 0.000000 0.048619 0.000000
# 6 0.000000 0.000000 0.000000 0.028065 0.000000 0.066955
#
#
# Mechanical properties :
#
#
# Convention : Reuss Voigt Hill
#
# Bulk Modulus (GPa) = 30.65834 45.35131 38.00483
# Shear Modulus (GPa) = 25.14357 570.83146 297.98751
#
# Velocity S-wave (km/s) = 3.41191 16.25691 11.74581
# Velocity P-wave (km/s) = 5.45123 19.32303 14.19675
#
# Compressibility (1/GPa) = 0.03261755
#
# Stress axis : x y z
#
# Youngs Moduli (GPa) = 33.84445 133.44879 106.64653
#
# Poissons Ratio (x) = 0.21478 0.45998
# Poissons Ratio (y) = 0.05447 0.10422
# Poissons Ratio (z) = 0.14598 0.13041
#
# Static dielectric constant tensor:
#      x y z
#    x 1.770860 0.000000 0.014800 
#    y 0.000000 1.841150 0.000000 
#    z 0.014800 0.000000 1.786600 
# 
# From -- ./inp_files/225675.got.cif
#   From: 2010.05.17/outbox.cif.g08.bks.cpg/sg12_113_cif.got.tgz:225675.got - 2010.06.03 13:09:07.
