data_PCOD9220096
_publ_section_title
;
Structure prediction by ZEFSAII (Michael W. Deem and Ramdas Pophale) SiO2 
 PCOD9220096
Probable space group: C 2/M
;
_chemical_formula_sum "Si O2"
_cell_formula_units_Z 56
_cell_length_a 9.322279
_cell_length_b 23.829099
_cell_length_c 16.689355
_cell_angle_alpha 90.000000
_cell_angle_beta 124.724404
_cell_angle_gamma 90.000000
_cell_volume 3047.116369
_symmetry_space_group_name_H-M "C 2/M"
_symmetry_group_IT_number 12
_symmetry_cell_setting 'monoclinic'
loop_
_space_group_symop_operation_xyz
x,y,z
-x,y,-z
-x,-y,-z
x,-y,z
1/2+x,1/2+y,z
1/2-x,1/2+y,-z
1/2-x,1/2-y,-z
1/2+x,1/2-y,z
loop_
_atom_site_type_symbol
_atom_site_label
_atom_site_fract_x
_atom_site_fract_y
_atom_site_fract_z
Si Si1 0.509254 0.696370 0.092202
Si Si2 0.719814 0.190910 0.687983
Si Si3 0.320407 0.621156 0.284636
Si Si4 0.326264 0.185921 0.910661
Si Si5 0.820057 0.000000 0.332315
Si Si6 0.844606 0.302325 0.634749
Si Si7 0.735994 0.374998 0.448449
Si Si8 0.735322 0.500000 0.502661
O O1 0.631875 0.672425 0.201716
O O2 0.596969 0.757300 0.104534
O O3 0.315703 0.699333 0.066698
O O4 0.500000 0.669838 0.000000
O O5 0.772972 0.244698 0.650475
O O6 0.549228 0.205391 0.684715
O O7 0.683458 0.143238 0.610712
O O8 0.271570 0.650614 0.187147
O O9 0.277430 0.555834 0.271469
O O10 0.208003 0.650998 0.317586
O O11 0.525521 0.626670 0.370165
O O12 0.500000 0.156672 0.000000
O O13 0.734201 0.000000 0.392564
O O14 0.027450 0.000000 0.417653
O O15 0.773661 0.328037 0.528532
O O16 0.792566 0.438505 0.489162
#
# Coordination Sequence:
#
# PCOD9220096 Si02
#       8
#     8   8   8   8   4   8   8   4
#     4  11  22  38  59  83 120 153 193 237 290 349
#     4  12  24  39  56  89 121 158 197 236 297 346
#     4  11  21  38  63  86 116 153 196 244 291 347
#     4  11  22  37  60  89 115 152 193 241 291 349
#     4   9  18  36  60  88 111 150 199 241 291 336
#     4  12  24  37  57  83 126 158 190 237 286 359
#     4  11  22  40  58  87 118 160 197 238 288 345
#     4   9  18  36  62  83 112 156 204 238 281 340
#
# _framework density 18.378032000000001
#
# number of rings (size 3 to 8) (size 9 to 14) (size 15 to 20)
#    0.000    1.000    4.286    4.714    2.000    1.143 
#    0.000    2.500    0.000    0.000    0.000    1.000 
#    0.000    0.000    0.000    0.000    0.000    0.000 
#
# Total GULP energy -156253.842795 kJ/mol
# GULP energy per Si atom -5580.494386 kJ/mol
# Density = 1.833620 g / cm^3
# Si number density = 18.378032 Si / 1000 Ang^3
#
#
#
# Elastic Constant Matrix: (Units=GPa)
#
#
# Indices 1 2 3 4 5 6 
#
# 1 123.2999 18.9652 22.5168 0.0000 -0.0902 0.0000
# 2 18.9652 29.0472 11.8887 0.0000 -5.2503 0.0000
# 3 22.5168 11.8887 106.6797 0.0000 -5.2940 0.0000
# 4 0.0000 0.0000 0.0000 14.6596 0.0000 -4.6246
# 5 -0.0902 -5.2503 -5.2940 0.0000 30.2558 0.0000
# 6 0.0000 0.0000 0.0000 -4.6246 0.0000 19.0073
#
#
#
# Elastic Compliance Matrix: (Units=1/GPa)
#
#
# Indices 1 2 3 4 5 6 
#
# 1 0.009235 -0.005683 -0.001375 0.000000 -0.001199 0.000000
# 2 -0.005683 0.040537 -0.002996 0.000000 0.006493 0.000000
# 3 -0.001375 -0.002996 0.010059 0.000000 0.001236 0.000000
# 4 0.000000 0.000000 0.000000 0.073886 0.000000 0.017977
# 5 -0.001199 0.006493 0.001236 0.000000 0.034391 0.000000
# 6 0.000000 0.000000 0.000000 0.017977 0.000000 0.056985
#
#
# Mechanical properties :
#
#
# Convention : Reuss Voigt Hill
#
# Bulk Modulus (GPa) = 25.17470 40.64092 32.90781
# Shear Modulus (GPa) = 19.34659 26.49493 22.92076
#
# Velocity S-wave (km/s) = 3.24806 3.80104 3.53538
# Velocity P-wave (km/s) = 5.27205 6.43629 5.88304
#
# Compressibility (1/GPa) = 0.03972242
#
# Stress axis : x y z
#
# Youngs Moduli (GPa) = 108.28659 24.66871 99.40999
#
# Poissons Ratio (x) = 0.14020 0.13672
# Poissons Ratio (y) = 0.61543 0.29781
# Poissons Ratio (z) = 0.14893 0.07390
#
# Static dielectric constant tensor:
#      x y z
#    x 1.648540 0.000000 0.020710 
#    y 0.000000 1.632080 0.000000 
#    z 0.020710 0.000000 1.679700 
# 
# From -- ./inp_files/199962.got.cif
#   From: 2010.05.17/outbox.cif.g08.bks.cpg/sg12_100_cif.got.tgz:199962.got - 2010.06.03 13:09:07.
