data_PCOD9220326
_publ_section_title
;
Structure prediction by ZEFSAII (Michael W. Deem and Ramdas Pophale) SiO2 
 PCOD9220326
Probable space group: C 2/M
;
_chemical_formula_sum "Si O2"
_cell_formula_units_Z 48
_cell_length_a 9.840211
_cell_length_b 29.371987
_cell_length_c 8.655582
_cell_angle_alpha 90.000000
_cell_angle_beta 90.425336
_cell_angle_gamma 90.000000
_cell_volume 2501.624068
_symmetry_space_group_name_H-M "C 2/M"
_symmetry_group_IT_number 12
_symmetry_cell_setting 'monoclinic'
loop_
_space_group_symop_operation_xyz
x,y,z
-x,y,-z
-x,-y,-z
x,-y,z
1/2+x,1/2+y,z
1/2-x,1/2+y,-z
1/2-x,1/2-y,-z
1/2+x,1/2-y,z
loop_
_atom_site_type_symbol
_atom_site_label
_atom_site_fract_x
_atom_site_fract_y
_atom_site_fract_z
Si Si1 0.752436 0.153535 0.163726
Si Si2 0.624216 0.253030 0.883216
Si Si3 0.461990 0.168556 0.318931
Si Si4 0.029402 0.097776 0.666623
Si Si5 0.722070 0.500000 0.067214
Si Si6 0.242526 0.397771 0.838372
Si Si7 0.065880 0.000000 0.756052
O O1 0.849506 0.197381 0.185492
O O2 0.603337 0.162786 0.227876
O O3 0.834672 0.116386 0.257813
O O4 0.739958 0.134393 0.989845
O O5 0.608830 0.213672 0.755269
O O6 0.500000 0.251188 0.000000
O O7 0.750000 0.250000 0.000000
O O8 0.500000 0.172815 0.500000
O O9 0.364128 0.125554 0.280168
O O10 0.000000 0.118441 0.500000
O O11 0.895492 0.103910 0.771068
O O12 0.062014 0.044644 0.655064
O O13 0.786630 0.450986 0.116833
O O14 0.575203 0.500000 0.149297
O O15 0.686102 0.500000 0.884508
#
# Coordination Sequence:
#
# PCOD9220326 Si02
#       7
#     8   8   8   8   4   8   4
#     4  12  24  41  67  91 125 166 214 255 310 377
#     4  12  23  44  68  94 121 165 211 253 308 376
#     4  12  27  45  63  91 131 164 202 266 324 369
#     4  11  22  36  61  97 130 163 207 262 315 366
#     4   9  18  34  65  93 118 164 220 256 293 373
#     4  11  21  42  66  92 125 169 215 256 303 376
#     4   9  17  34  57  92 129 163 202 262 316 355
#
# _framework density 19.187536999999999
#
# number of rings (size 3 to 8) (size 9 to 14) (size 15 to 20)
#    0.000    0.833    5.000    3.250    0.000    1.333 
#    0.000    2.917    0.000    0.000    0.000    0.000 
#    0.000    0.000    0.000    0.000    0.000    0.000 
#
# Total GULP energy -133871.909429 kJ/mol
# GULP energy per Si atom -5577.996226 kJ/mol
# Density = 1.914387 g / cm^3
# Si number density = 19.187537 Si / 1000 Ang^3
#
#
#
# Elastic Constant Matrix: (Units=GPa)
#
#
# Indices 1 2 3 4 5 6 
#
# 1 76.0023 39.4071 30.3424 0.0000 16.4858 0.0000
# 2 39.4071 138.2579 46.4007 0.0000 13.5214 0.0000
# 3 30.3424 46.4007 81.3897 0.0000 22.8700 0.0000
# 4 0.0000 0.0000 0.0000 15.4359 0.0000 1.0836
# 5 16.4858 13.5214 22.8700 0.0000 32.0412 0.0000
# 6 0.0000 0.0000 0.0000 1.0836 0.0000 17.4357
#
#
#
# Elastic Compliance Matrix: (Units=1/GPa)
#
#
# Indices 1 2 3 4 5 6 
#
# 1 0.017270 -0.003392 -0.003014 0.000000 -0.005303 0.000000
# 2 -0.003392 0.009611 -0.004460 0.000000 0.000873 0.000000
# 3 -0.003014 -0.004460 0.018749 0.000000 -0.009949 0.000000
# 4 0.000000 0.000000 0.000000 0.065068 0.000000 -0.004044
# 5 -0.005303 0.000873 -0.009949 0.000000 0.040671 0.000000
# 6 0.000000 0.000000 0.000000 -0.004044 0.000000 0.057605
#
#
# Mechanical properties :
#
#
# Convention : Reuss Voigt Hill
#
# Bulk Modulus (GPa) = 41.84696 58.66113 50.25404
# Shear Modulus (GPa) = 20.94921 24.94922 22.94921
#
# Velocity S-wave (km/s) = 3.30784 3.60985 3.46214
# Velocity P-wave (km/s) = 6.03704 6.92919 6.49844
#
# Compressibility (1/GPa) = 0.02389660
#
# Stress axis : x y z
#
# Youngs Moduli (GPa) = 57.90404 104.04559 53.33706
#
# Poissons Ratio (x) = 0.35294 0.16078
# Poissons Ratio (y) = 0.19642 0.23789
# Poissons Ratio (z) = 0.17455 0.46405
#
# Static dielectric constant tensor:
#      x y z
#    x 1.650440 0.000000 0.032860 
#    y 0.000000 1.597660 0.000000 
#    z 0.032860 0.000000 1.688640 
# 
# From -- ./inp_files/42291.got.cif
#   From: 2010.05.17/outbox.cif.g08.bks.cpg/sg12_22_cif.got.tgz:42291.got - 2010.06.03 13:09:07.
