data_PCOD9220701
_publ_section_title
;
Structure prediction by ZEFSAII (Michael W. Deem and Ramdas Pophale) SiO2 
 PCOD9220701
Probable space group: C 2/M
;
_chemical_formula_sum "Si O2"
_cell_formula_units_Z 36
_cell_length_a 7.709791
_cell_length_b 33.089573
_cell_length_c 10.752823
_cell_angle_alpha 90.000000
_cell_angle_beta 135.773445
_cell_angle_gamma 90.000000
_cell_volume 1913.369265
_symmetry_space_group_name_H-M "C 2/M"
_symmetry_group_IT_number 12
_symmetry_cell_setting 'monoclinic'
loop_
_space_group_symop_operation_xyz
x,y,z
-x,y,-z
-x,-y,-z
x,-y,z
1/2+x,1/2+y,z
1/2-x,1/2+y,-z
1/2-x,1/2-y,-z
1/2+x,1/2-y,z
loop_
_atom_site_type_symbol
_atom_site_label
_atom_site_fract_x
_atom_site_fract_y
_atom_site_fract_z
Si Si1 0.215145 0.934037 0.005646
Si Si2 0.236026 0.725699 0.862732
Si Si3 0.420814 0.500000 0.709031
Si Si4 0.008243 0.500000 0.300644
Si Si5 0.500000 0.867293 0.000000
Si Si6 0.251834 0.695896 0.300773
O O1 0.432554 0.961227 0.179812
O O2 0.343065 0.894997 0.013274
O O3 0.000000 0.927120 0.000000
O O4 0.087058 0.961100 0.830835
O O5 0.221073 0.760113 0.750065
O O6 0.990818 0.699172 0.736769
O O7 0.500000 0.702958 0.000000
O O8 0.250000 0.750000 0.000000
O O9 0.197835 0.500000 0.695518
O O10 0.278825 0.500000 0.504009
O O11 0.688276 0.837477 0.166795
O O12 0.500000 0.686243 0.500000
#
# Coordination Sequence:
#
# PCOD9220701 Si02
#       6
#     8   8   4   4   4   8
#     4   9  20  37  56  80 114 151 186 231 284 337
#     4   9  17  37  63  81 104 141 189 245 290 331
#     4   8  15  33  61  84 105 142 198 238 270 326
#     4   8  15  33  61  84 103 144 196 238 271 326
#     4  12  24  37  52  84 126 152 184 230 294 355
#     4  11  22  38  59  84 112 148 195 243 289 343
#
# _framework density 18.814976000000001
#
# number of rings (size 3 to 8) (size 9 to 14) (size 15 to 20)
#    0.000    2.444    3.333    2.000    0.000    4.444 
#    0.000    1.111    0.000    0.000    0.000    0.000 
#    0.000    0.000    0.000    0.000    0.000    0.000 
#
# Total GULP energy -100322.191561 kJ/mol
# GULP energy per Si atom -5573.455087 kJ/mol
# Density = 1.877215 g / cm^3
# Si number density = 18.814976 Si / 1000 Ang^3
#
#
#
# Elastic Constant Matrix: (Units=GPa)
#
#
# Indices 1 2 3 4 5 6 
#
# 1 67.7277 28.5717 36.5453 0.0000 12.6100 0.0000
# 2 28.5717 76.3486 49.9814 0.0000 0.4288 0.0000
# 3 36.5453 49.9814 188.7888 0.0000 17.9174 0.0000
# 4 0.0000 0.0000 0.0000 19.5664 0.0000 -9.6234
# 5 12.6100 0.4288 17.9174 0.0000 18.6102 0.0000
# 6 0.0000 0.0000 0.0000 -9.6234 0.0000 41.9850
#
#
#
# Elastic Compliance Matrix: (Units=1/GPa)
#
#
# Indices 1 2 3 4 5 6 
#
# 1 0.020642 -0.007066 -0.000895 0.000000 -0.012963 0.000000
# 2 -0.007066 0.018544 -0.004353 0.000000 0.008552 0.000000
# 3 -0.000895 -0.004353 0.007215 0.000000 -0.006240 0.000000
# 4 0.000000 0.000000 0.000000 0.057602 0.000000 0.013203
# 5 -0.012963 0.008552 -0.006240 0.000000 0.068328 0.000000
# 6 0.000000 0.000000 0.000000 0.013203 0.000000 0.026844
#
#
# Mechanical properties :
#
#
# Convention : Reuss Voigt Hill
#
# Bulk Modulus (GPa) = 45.92973 62.56242 54.24607
# Shear Modulus (GPa) = 21.63931 30.55008 26.09469
#
# Velocity S-wave (km/s) = 3.39501 4.03390 3.72817
# Velocity P-wave (km/s) = 6.31129 7.41755 6.88667
#
# Compressibility (1/GPa) = 0.02177239
#
# Stress axis : x y z
#
# Youngs Moduli (GPa) = 48.44415 53.92581 138.60308
#
# Poissons Ratio (x) = 0.38105 0.12403
# Poissons Ratio (y) = 0.34232 0.60337
# Poissons Ratio (z) = 0.04335 0.23475
#
# Static dielectric constant tensor:
#      x y z
#    x 1.725930 0.000000 -0.016720 
#    y 0.000000 1.569780 0.000000 
#    z -0.016720 0.000000 1.692380 
# 
# From -- ./inp_files/124943.got.cif
#   From: 2010.05.17/outbox.cif.g08.bks.cpg/sg12_63_cif.got.tgz:124943.got - 2010.06.03 13:09:07.
