data_PCOD9220236
_publ_section_title
;
Structure prediction by ZEFSAII (Michael W. Deem and Ramdas Pophale) SiO2 
 PCOD9220236
Probable space group: C 2/M
;
_chemical_formula_sum "Si O2"
_cell_formula_units_Z 48
_cell_length_a 11.713122
_cell_length_b 17.476414
_cell_length_c 12.111914
_cell_angle_alpha 90.000000
_cell_angle_beta 107.778597
_cell_angle_gamma 90.000000
_cell_volume 2360.944594
_symmetry_space_group_name_H-M "C 2/M"
_symmetry_group_IT_number 12
_symmetry_cell_setting 'monoclinic'
loop_
_space_group_symop_operation_xyz
x,y,z
-x,y,-z
-x,-y,-z
x,-y,z
1/2+x,1/2+y,z
1/2-x,1/2+y,-z
1/2-x,1/2-y,-z
1/2+x,1/2-y,z
loop_
_atom_site_type_symbol
_atom_site_label
_atom_site_fract_x
_atom_site_fract_y
_atom_site_fract_z
Si Si1 0.191989 0.328500 0.302722
Si Si2 0.670578 0.353019 0.273929
Si Si3 0.781432 0.910574 0.951139
Si Si4 0.365334 0.910774 0.490881
Si Si5 0.404320 0.648776 0.201539
Si Si6 0.454543 0.188317 0.107402
O O1 0.195919 0.236280 0.303220
O O2 0.185435 0.362025 0.422763
O O3 0.304698 0.357963 0.266205
O O4 0.067186 0.347960 0.204317
O O5 0.667741 0.369460 0.142695
O O6 0.776684 0.399761 0.361824
O O7 0.538059 0.372147 0.278884
O O8 0.654601 0.869910 0.937165
O O9 0.767282 0.000000 0.924404
O O10 0.864050 0.898015 0.082099
O O11 0.500000 0.885165 0.500000
O O12 0.371535 0.000000 0.523756
O O13 0.411435 0.737253 0.162210
O O14 0.500000 0.212587 0.000000
#
# Coordination Sequence:
#
# PCOD9220236 Si02
#       6
#     8   8   8   8   8   8
#     4  11  23  42  69  97 129 167 220 270 316 381
#     4  11  24  43  67  94 130 175 220 264 315 387
#     4  12  24  40  65  97 137 175 214 264 324 387
#     4  11  26  47  69  95 131 169 214 270 326 385
#     4  11  23  41  66  99 131 169 216 269 319 382
#     4  11  21  40  67  94 132 171 216 268 319 379
#
# _framework density 20.330845
#
# number of rings (size 3 to 8) (size 9 to 14) (size 15 to 20)
#    0.000    0.833    3.333    5.000    2.333    5.667 
#    0.000    0.833    0.000    0.000    0.000    0.000 
#    0.000    0.000    0.000    0.000    0.000    0.000 
#
# Total GULP energy -134281.188871 kJ/mol
# GULP energy per Si atom -5595.049536 kJ/mol
# Density = 2.028457 g / cm^3
# Si number density = 20.330845 Si / 1000 Ang^3
#
#
#
# Elastic Constant Matrix: (Units=GPa)
#
#
# Indices 1 2 3 4 5 6 
#
# 1 114.7179 29.0176 42.0167 0.0000 -3.3344 0.0000
# 2 29.0176 65.6721 5.0923 0.0000 -8.7631 0.0000
# 3 42.0167 5.0923 65.3885 0.0000 -9.6766 0.0000
# 4 0.0000 0.0000 0.0000 17.1135 0.0000 -0.2479
# 5 -3.3344 -8.7631 -9.6766 0.0000 45.0066 0.0000
# 6 0.0000 0.0000 0.0000 -0.2479 0.0000 12.3678
#
#
#
# Elastic Compliance Matrix: (Units=1/GPa)
#
#
# Indices 1 2 3 4 5 6 
#
# 1 0.013037 -0.005369 -0.008232 0.000000 -0.001849 0.000000
# 2 -0.005369 0.017884 0.002596 0.000000 0.003643 0.000000
# 3 -0.008232 0.002596 0.021035 0.000000 0.004418 0.000000
# 4 0.000000 0.000000 0.000000 0.058451 0.000000 0.001172
# 5 -0.001849 0.003643 0.004418 0.000000 0.023741 0.000000
# 6 0.000000 0.000000 0.000000 0.001172 0.000000 0.080879
#
#
# Mechanical properties :
#
#
# Convention : Reuss Voigt Hill
#
# Bulk Modulus (GPa) = 33.39438 44.22575 38.81007
# Shear Modulus (GPa) = 20.24145 26.20769 23.22457
#
# Velocity S-wave (km/s) = 3.15874 3.59424 3.38351
# Velocity P-wave (km/s) = 5.45570 6.24700 5.86471
#
# Compressibility (1/GPa) = 0.02994515
#
# Stress axis : x y z
#
# Youngs Moduli (GPa) = 76.70764 55.91556 47.54030
#
# Poissons Ratio (x) = 0.30019 0.39137
# Poissons Ratio (y) = 0.41182 -0.12342
# Poissons Ratio (z) = 0.63149 -0.14516
#
# Static dielectric constant tensor:
#      x y z
#    x 1.721440 0.000000 0.012260 
#    y 0.000000 1.707710 0.000000 
#    z 0.012260 0.000000 1.716460 
# 
# From -- ./inp_files/131746.got.cif
#   From: 2010.05.17/outbox.cif.g08.bks.cpg/sg12_66_cif.got.tgz:131746.got - 2010.06.03 13:09:07.
