data_PCOD9220200
_publ_section_title
;
Structure prediction by ZEFSAII (Michael W. Deem and Ramdas Pophale) SiO2 
 PCOD9220200
Probable space group: C 2/M
;
_chemical_formula_sum "Si O2"
_cell_formula_units_Z 48
_cell_length_a 13.683630
_cell_length_b 29.422680
_cell_length_c 11.602863
_cell_angle_alpha 90.000000
_cell_angle_beta 148.963702
_cell_angle_gamma 90.000000
_cell_volume 2408.494301
_symmetry_space_group_name_H-M "C 2/M"
_symmetry_group_IT_number 12
_symmetry_cell_setting 'monoclinic'
loop_
_space_group_symop_operation_xyz
x,y,z
-x,y,-z
-x,-y,-z
x,-y,z
1/2+x,1/2+y,z
1/2-x,1/2+y,-z
1/2-x,1/2-y,-z
1/2+x,1/2-y,z
loop_
_atom_site_type_symbol
_atom_site_label
_atom_site_fract_x
_atom_site_fract_y
_atom_site_fract_z
Si Si1 0.216672 0.212088 0.173581
Si Si2 0.703568 0.946984 0.226597
Si Si3 0.699065 0.800760 0.488160
Si Si4 0.411124 0.645394 0.146962
Si Si5 0.476665 0.447521 0.281881
Si Si6 0.864561 0.311753 0.973793
O O1 0.332745 0.201468 0.406533
O O2 0.205307 0.172773 0.067630
O O3 0.239952 0.262536 0.144653
O O4 0.000000 0.214671 0.000000
O O5 0.831987 0.930048 0.461103
O O6 0.823754 0.947858 0.230964
O O7 0.672216 0.000000 0.226647
O O8 0.500000 0.925139 0.000000
O O9 0.750000 0.750000 0.500000
O O10 0.515870 0.812858 0.229959
O O11 0.879530 0.832544 0.643261
O O12 0.421292 0.591514 0.136996
O O13 0.303186 0.654241 0.159292
O O14 0.495353 0.500000 0.261290
O O15 0.000000 0.319054 0.000000
#
# Coordination Sequence:
#
# PCOD9220200 Si02
#       6
#     8   8   8   8   8   8
#     4   9  19  38  56  79 113 148 189 233 280 344
#     4   8  15  31  53  74 108 153 189 237 294 334
#     4  11  21  40  59  81 114 151 186 239 288 343
#     4  11  23  36  57  85 114 156 192 233 290 334
#     4   9  19  34  51  78 113 149 195 240 285 340
#     4  11  22  38  55  86 119 146 191 235 280 349
#
# _framework density 19.929462999999998
#
# number of rings (size 3 to 8) (size 9 to 14) (size 15 to 20)
#    0.000    2.167    5.000    1.500    0.000    6.000 
#    0.000    0.000    0.000    4.500    0.000    1.167 
#    0.000    0.000    0.000    0.000    0.000    0.000 
#
# Total GULP energy -133822.019587 kJ/mol
# GULP energy per Si atom -5575.917483 kJ/mol
# Density = 1.988410 g / cm^3
# Si number density = 19.929463 Si / 1000 Ang^3
#
#
#
# Elastic Constant Matrix: (Units=GPa)
#
#
# Indices 1 2 3 4 5 6 
#
# 1 70.1217 34.9286 35.3782 0.0000 4.5805 0.0000
# 2 34.9286 137.2486 25.8717 0.0000 -9.0683 0.0000
# 3 35.3782 25.8717 96.1344 0.0000 -3.9853 0.0000
# 4 0.0000 0.0000 0.0000 8.3648 0.0000 5.1377
# 5 4.5805 -9.0683 -3.9853 0.0000 25.7723 0.0000
# 6 0.0000 0.0000 0.0000 5.1377 0.0000 10.4017
#
#
#
# Elastic Compliance Matrix: (Units=1/GPa)
#
#
# Indices 1 2 3 4 5 6 
#
# 1 0.020063 -0.004285 -0.006482 0.000000 -0.006076 0.000000
# 2 -0.004285 0.008741 -0.000620 0.000000 0.003741 0.000000
# 3 -0.006482 -0.000620 0.013077 0.000000 0.002956 0.000000
# 4 0.000000 0.000000 0.000000 0.171609 0.000000 -0.084763
# 5 -0.006076 0.003741 0.002956 0.000000 0.041655 0.000000
# 6 0.000000 0.000000 0.000000 -0.084763 0.000000 0.138005
#
#
# Mechanical properties :
#
#
# Convention : Reuss Voigt Hill
#
# Bulk Modulus (GPa) = 52.34069 55.09574 53.71822
# Shear Modulus (GPa) = 11.84014 22.72952 17.28483
#
# Velocity S-wave (km/s) = 2.44007 3.38079 2.94819
# Velocity P-wave (km/s) = 5.85308 6.55325 6.21303
#
# Compressibility (1/GPa) = 0.01910560
#
# Stress axis : x y z
#
# Youngs Moduli (GPa) = 49.84386 114.40694 76.47073
#
# Poissons Ratio (x) = 0.49028 0.49567
# Poissons Ratio (y) = 0.21360 0.04742
# Poissons Ratio (z) = 0.32308 0.07095
#
# Static dielectric constant tensor:
#      x y z
#    x 1.768640 0.000000 0.018760 
#    y 0.000000 1.726090 0.000000 
#    z 0.018760 0.000000 1.786300 
# 
# From -- ./inp_files/150314.got.cif
#   From: 2010.05.17/outbox.cif.g08.bks.cpg/sg12_76_cif.got.tgz:150314.got - 2010.06.03 13:09:07.
