data_PCOD9220029
_publ_section_title
;
Structure prediction by ZEFSAII (Michael W. Deem and Ramdas Pophale) SiO2 
 PCOD9220029
Probable space group: C 2/M
;
_chemical_formula_sum "Si O2"
_cell_formula_units_Z 48
_cell_length_a 29.248252
_cell_length_b 15.468990
_cell_length_c 14.609599
_cell_angle_alpha 90.000000
_cell_angle_beta 159.225837
_cell_angle_gamma 90.000000
_cell_volume 2344.463372
_symmetry_space_group_name_H-M "C 2/M"
_symmetry_group_IT_number 12
_symmetry_cell_setting 'monoclinic'
loop_
_space_group_symop_operation_xyz
x,y,z
-x,y,-z
-x,-y,-z
x,-y,z
1/2+x,1/2+y,z
1/2-x,1/2+y,-z
1/2-x,1/2-y,-z
1/2+x,1/2-y,z
loop_
_atom_site_type_symbol
_atom_site_label
_atom_site_fract_x
_atom_site_fract_y
_atom_site_fract_z
Si Si1 0.561855 0.639118 0.985290
Si Si2 0.010314 0.900864 0.352560
Si Si3 0.088423 0.663744 0.082023
Si Si4 0.819927 0.401578 0.935735
Si Si5 0.201205 0.094711 0.415490
Si Si6 0.393222 0.765453 0.228064
O O1 0.558369 0.612034 0.874139
O O2 0.439032 0.595026 0.801761
O O3 0.546252 0.741563 0.970762
O O4 0.683663 0.612366 0.275219
O O5 0.950176 0.826890 0.302800
O O6 0.165253 0.887081 0.633163
O O7 0.991119 0.000000 0.347857
O O8 0.110514 0.608990 0.032140
O O9 0.224117 0.666572 0.388324
O O10 0.000000 0.631527 0.000000
O O11 0.835948 0.500000 0.998818
O O12 0.875234 0.331427 0.109892
O O13 0.260043 0.000000 0.540495
O O14 0.500000 0.799624 0.500000
O O15 0.250000 0.750000 0.000000
#
# Coordination Sequence:
#
# PCOD9220029 Si02
#       6
#     8   8   8   8   8   8
#     4  11  21  37  64  92 125 177 230 279 330 394
#     4  11  23  44  74 102 134 180 234 287 351 430
#     4  12  24  39  65  95 139 188 236 282 344 406
#     4  11  25  46  72 100 141 190 236 288 354 426
#     4  11  22  37  58  90 128 173 230 280 331 394
#     4  12  26  48  78 108 139 177 230 299 366 428
#
# _framework density 20.473769000000001
#
# number of rings (size 3 to 8) (size 9 to 14) (size 15 to 20)
#    0.000    0.667    6.667    3.000    0.000    2.667 
#    3.000    0.000    0.000    0.000    0.000    0.000 
#    0.000    0.000    0.000    0.000    0.000    0.000 
#
# Total GULP energy -133975.526343 kJ/mol
# GULP energy per Si atom -5582.313598 kJ/mol
# Density = 2.042717 g / cm^3
# Si number density = 20.473769 Si / 1000 Ang^3
#
#
#
# Elastic Constant Matrix: (Units=GPa)
#
#
# Indices 1 2 3 4 5 6 
#
# 1 106.7272 50.3320 38.1507 0.0000 -7.0839 0.0000
# 2 50.3320 125.6065 46.1225 0.0000 -0.0650 0.0000
# 3 38.1507 46.1225 72.4079 0.0000 -17.5374 0.0000
# 4 0.0000 0.0000 0.0000 26.8918 0.0000 11.4476
# 5 -7.0839 -0.0650 -17.5374 0.0000 40.3252 0.0000
# 6 0.0000 0.0000 0.0000 11.4476 0.0000 14.1740
#
#
#
# Elastic Compliance Matrix: (Units=1/GPa)
#
#
# Indices 1 2 3 4 5 6 
#
# 1 0.012569 -0.003435 -0.004360 0.000000 0.000306 0.000000
# 2 -0.003435 0.011714 -0.006475 0.000000 -0.003401 0.000000
# 3 -0.004360 -0.006475 0.022404 0.000000 0.008967 0.000000
# 4 0.000000 0.000000 0.000000 0.056670 0.000000 -0.045770
# 5 0.000306 -0.003401 0.008967 0.000000 0.028747 0.000000
# 6 0.000000 0.000000 0.000000 -0.045770 0.000000 0.107518
#
#
# Mechanical properties :
#
#
# Convention : Reuss Voigt Hill
#
# Bulk Modulus (GPa) = 55.10813 63.77245 59.44029
# Shear Modulus (GPa) = 18.23422 27.62062 22.92742
#
# Velocity S-wave (km/s) = 2.98755 3.67696 3.35004
# Velocity P-wave (km/s) = 6.23502 7.01731 6.63770
#
# Compressibility (1/GPa) = 0.01814614
#
# Stress axis : x y z
#
# Youngs Moduli (GPa) = 79.56378 85.36919 44.63458
#
# Poissons Ratio (x) = 0.29327 0.19460
# Poissons Ratio (y) = 0.27333 0.28901
# Poissons Ratio (z) = 0.34688 0.55278
#
# Static dielectric constant tensor:
#      x y z
#    x 1.747490 0.000000 0.007680 
#    y 0.000000 1.729200 0.000000 
#    z 0.007680 0.000000 1.813410 
# 
# From -- ./inp_files/251393.got.cif
#   From: 2010.05.17/outbox.cif.g08.bks.cpg/sg12_126_cif.got.tgz:251393.got - 2010.06.03 13:09:07.
