data_PCOD9220441
_publ_section_title
;
Structure prediction by ZEFSAII (Michael W. Deem and Ramdas Pophale) SiO2 
 PCOD9220441
Probable space group: C 2/M
;
_chemical_formula_sum "Si O2"
_cell_formula_units_Z 64
_cell_length_a 20.211810
_cell_length_b 31.502619
_cell_length_c 9.592760
_cell_angle_alpha 90.000000
_cell_angle_beta 145.183075
_cell_angle_gamma 90.000000
_cell_volume 3487.371147
_symmetry_space_group_name_H-M "C 2/M"
_symmetry_group_IT_number 12
_symmetry_cell_setting 'monoclinic'
loop_
_space_group_symop_operation_xyz
x,y,z
-x,y,-z
-x,-y,-z
x,-y,z
1/2+x,1/2+y,z
1/2-x,1/2+y,-z
1/2-x,1/2-y,-z
1/2+x,1/2-y,z
loop_
_atom_site_type_symbol
_atom_site_label
_atom_site_fract_x
_atom_site_fract_y
_atom_site_fract_z
Si Si1 0.636556 0.638897 0.786235
Si Si2 0.161646 0.952870 0.875826
Si Si3 0.212683 0.175895 0.206050
Si Si4 0.162606 0.809955 0.557898
Si Si5 0.913663 0.046130 0.578683
Si Si6 0.609948 0.767107 0.091937
Si Si7 0.047042 0.280101 0.427751
Si Si8 0.383127 0.619943 0.725342
O O1 0.500000 0.631229 0.500000
O O2 0.705099 0.595704 0.946976
O O3 0.686532 0.663213 0.738939
O O4 0.651449 0.666442 0.951401
O O5 0.127608 0.955362 0.653122
O O6 0.051796 0.948879 0.791202
O O7 0.214822 0.000000 0.998336
O O8 0.152453 0.218738 0.158958
O O9 0.347325 0.187903 0.418118
O O10 0.196465 0.137480 0.287650
O O11 0.279823 0.795842 0.682635
O O12 0.098328 0.767129 0.490758
O O13 0.092956 0.839489 0.331518
O O14 0.853811 0.082552 0.566104
O O15 0.892577 0.000000 0.606671
O O16 0.500000 0.770761 0.000000
O O17 0.562244 0.783091 0.862214
O O18 0.000000 0.284412 0.500000
O O19 0.500000 0.604968 0.000000
#
# Coordination Sequence:
#
# PCOD9220441 Si02
#       8
#     8   8   8   8   8   8   8   8
#     4  12  19  32  52  76 103 137 171 210 243 295
#     4   9  16  29  49  73 102 138 173 200 238 297
#     4  11  24  34  51  77 103 133 175 213 252 307
#     4  11  22  34  54  76  95 133 185 210 243 307
#     4   9  17  30  47  71 104 141 170 196 243 303
#     4  11  22  38  53  69 101 140 171 213 259 298
#     4  11  22  38  53  72 102 133 169 222 265 290
#     4  12  21  33  49  76 110 140 168 207 251 295
#
# _framework density 18.351932000000001
#
# number of rings (size 3 to 8) (size 9 to 14) (size 15 to 20)
#    0.000    1.250    2.500    7.500    0.000    4.250 
#    0.000    0.625    0.000    0.000    0.000    0.000 
#    0.000   20.000    0.000    0.000    0.000    0.000 
#
# Total GULP energy -178296.604236 kJ/mol
# GULP energy per Si atom -5571.768882 kJ/mol
# Density = 1.831016 g / cm^3
# Si number density = 18.351932 Si / 1000 Ang^3
#
#
#
# Elastic Constant Matrix: (Units=GPa)
#
#
# Indices 1 2 3 4 5 6 
#
# 1 74.1586 10.7858 10.3635 0.0000 -8.0446 0.0000
# 2 10.7858 62.4822 4.1764 0.0000 -0.5001 0.0000
# 3 10.3635 4.1764 37.2638 0.0000 -6.2404 0.0000
# 4 0.0000 0.0000 0.0000 5.5010 0.0000 0.2973
# 5 -8.0446 -0.5001 -6.2404 0.0000 28.4509 0.0000
# 6 0.0000 0.0000 0.0000 0.2973 0.0000 24.5767
#
#
#
# Elastic Compliance Matrix: (Units=1/GPa)
#
#
# Indices 1 2 3 4 5 6 
#
# 1 0.014638 -0.002283 -0.003248 0.000000 0.003386 0.000000
# 2 -0.002283 0.016482 -0.001320 0.000000 -0.000645 0.000000
# 3 -0.003248 -0.001320 0.028787 0.000000 0.005372 0.000000
# 4 0.000000 0.000000 0.000000 0.181905 0.000000 -0.002201
# 5 0.003386 -0.000645 0.005372 0.000000 0.037273 0.000000
# 6 0.000000 0.000000 0.000000 -0.002201 0.000000 0.040715
#
#
# Mechanical properties :
#
#
# Convention : Reuss Voigt Hill
#
# Bulk Modulus (GPa) = 21.64315 24.95068 23.29691
# Shear Modulus (GPa) = 14.33061 21.61098 17.97080
#
# Velocity S-wave (km/s) = 2.79745 3.43532 3.13266
# Velocity P-wave (km/s) = 4.71734 5.41853 5.08005
#
# Compressibility (1/GPa) = 0.04620400
#
# Stress axis : x y z
#
# Youngs Moduli (GPa) = 68.31594 60.67344 34.73824
#
# Poissons Ratio (x) = 0.13849 0.11283
# Poissons Ratio (y) = 0.15594 0.04587
# Poissons Ratio (z) = 0.22189 0.08012
#
# Static dielectric constant tensor:
#      x y z
#    x 1.621510 0.000000 0.012660 
#    y 0.000000 1.689150 0.000000 
#    z 0.012660 0.000000 1.637830 
# 
# From -- ./inp_files/80754.got.cif
#   From: 2010.05.17/outbox.cif.g08.bks.cpg/sg12_41_cif.got.tgz:80754.got - 2010.06.03 13:09:07.
