data_PCOD9220555
_publ_section_title
;
Structure prediction by ZEFSAII (Michael W. Deem and Ramdas Pophale) SiO2 
 PCOD9220555
Probable space group: C 2/M
;
_chemical_formula_sum "Si O2"
_cell_formula_units_Z 64
_cell_length_a 21.838624
_cell_length_b 30.258639
_cell_length_c 9.083509
_cell_angle_alpha 90.000000
_cell_angle_beta 150.899851
_cell_angle_gamma 90.000000
_cell_volume 2919.215836
_symmetry_space_group_name_H-M "C 2/M"
_symmetry_group_IT_number 12
_symmetry_cell_setting 'monoclinic'
loop_
_space_group_symop_operation_xyz
x,y,z
-x,y,-z
-x,-y,-z
x,-y,z
1/2+x,1/2+y,z
1/2-x,1/2+y,-z
1/2-x,1/2-y,-z
1/2+x,1/2-y,z
loop_
_atom_site_type_symbol
_atom_site_label
_atom_site_fract_x
_atom_site_fract_y
_atom_site_fract_z
Si Si1 0.774360 0.252406 0.295554
Si Si2 0.679970 0.093598 0.792159
Si Si3 0.531299 0.705340 0.905248
Si Si4 0.563300 0.949774 0.278309
Si Si5 0.856754 0.308461 0.196003
Si Si6 0.563821 0.611446 0.851727
Si Si7 0.334192 0.449825 0.350878
Si Si8 0.832675 0.950872 0.694545
O O1 0.786767 0.287673 0.189493
O O2 0.916528 0.239696 0.638390
O O3 0.669343 0.272030 0.185222
O O4 0.712612 0.208789 0.094467
O O5 0.576023 0.076298 0.457661
O O6 0.642777 0.139355 0.788477
O O7 0.808943 0.103680 0.972680
O O8 0.717634 0.059353 0.998483
O O9 0.532854 0.663203 0.800756
O O10 0.500000 0.687062 0.000000
O O11 0.705058 0.953218 0.518190
O O12 0.512037 0.000000 0.191519
O O13 0.500000 0.928691 0.000000
O O14 0.000000 0.291340 0.500000
O O15 0.443747 0.584646 0.541930
O O16 0.590378 0.587854 0.065379
O O17 0.378167 0.500000 0.421530
O O18 0.305454 0.444192 0.464523
O O19 0.889142 0.000000 0.834254
#
# Coordination Sequence:
#
# PCOD9220555 Si02
#       8
#     8   8   8   8   8   8   8   8
#     4  11  24  44  68  97 126 172 215 266 337 403
#     4  11  23  38  60  93 127 163 217 274 319 383
#     4  12  24  43  69  99 134 171 219 275 329 398
#     4   9  19  38  61  84 118 169 217 260 318 383
#     4  11  23  43  68  91 128 167 215 269 330 401
#     4  11  22  38  61  92 129 171 214 261 326 395
#     4  11  22  36  58  93 131 169 214 267 325 381
#     4   9  19  36  58  86 126 170 211 258 318 390
#
# _framework density 21.923696
#
# number of rings (size 3 to 8) (size 9 to 14) (size 15 to 20)
#    0.000    1.375    2.500    3.375    0.000    4.000 
#    0.000    1.875    0.000    3.750    0.000    0.000 
#    0.000    0.000    0.000    0.000    0.000    0.000 
#
# Total GULP energy -178657.649264 kJ/mol
# GULP energy per Si atom -5583.051540 kJ/mol
# Density = 2.187380 g / cm^3
# Si number density = 21.923696 Si / 1000 Ang^3
#
#
#
# Elastic Constant Matrix: (Units=GPa)
#
#
# Indices 1 2 3 4 5 6 
#
# 1 78.9045 16.8246 4.7217 0.0000 11.8822 0.0000
# 2 16.8246 91.0019 22.6200 0.0000 -4.8735 0.0000
# 3 4.7217 22.6200 75.8187 0.0000 -3.5428 0.0000
# 4 0.0000 0.0000 0.0000 28.7506 0.0000 4.8151
# 5 11.8822 -4.8735 -3.5428 0.0000 33.4609 0.0000
# 6 0.0000 0.0000 0.0000 4.8151 0.0000 16.1469
#
#
#
# Elastic Compliance Matrix: (Units=1/GPa)
#
#
# Indices 1 2 3 4 5 6 
#
# 1 0.014116 -0.002830 -0.000290 0.000000 -0.005455 0.000000
# 2 -0.002830 0.012498 -0.003438 0.000000 0.002461 0.000000
# 3 -0.000290 -0.003438 0.014285 0.000000 0.001115 0.000000
# 4 0.000000 0.000000 0.000000 0.036610 0.000000 -0.010917
# 5 -0.005455 0.002461 0.001115 0.000000 0.032299 0.000000
# 6 0.000000 0.000000 0.000000 -0.010917 0.000000 0.065187
#
#
# Mechanical properties :
#
#
# Convention : Reuss Voigt Hill
#
# Bulk Modulus (GPa) = 35.99088 37.11755 36.55422
# Shear Modulus (GPa) = 25.33289 29.10892 27.22090
#
# Velocity S-wave (km/s) = 3.40296 3.64777 3.52749
# Velocity P-wave (km/s) = 5.64732 5.89141 5.77065
#
# Compressibility (1/GPa) = 0.02778481
#
# Stress axis : x y z
#
# Youngs Moduli (GPa) = 70.84241 80.01123 70.00329
#
# Poissons Ratio (x) = 0.22642 0.02028
# Poissons Ratio (y) = 0.20048 0.24064
# Poissons Ratio (z) = 0.02052 0.27504
#
# Static dielectric constant tensor:
#      x y z
#    x 1.818490 0.000000 -0.005510 
#    y 0.000000 1.771650 0.000000 
#    z -0.005510 0.000000 1.861850 
# 
# From -- ./inp_files/100231.got.cif
#   From: 2010.05.17/outbox.cif.g08.bks.cpg/sg12_51_cif.got.tgz:100231.got - 2010.06.03 13:09:07.
