data_PCOD9220148
_publ_section_title
;
Structure prediction by ZEFSAII (Michael W. Deem and Ramdas Pophale) SiO2 
 PCOD9220148
Probable space group: C 2/M
;
_chemical_formula_sum "Si O2"
_cell_formula_units_Z 48
_cell_length_a 9.334693
_cell_length_b 24.762185
_cell_length_c 13.275193
_cell_angle_alpha 90.000000
_cell_angle_beta 41.766368
_cell_angle_gamma 90.000000
_cell_volume 2043.929304
_symmetry_space_group_name_H-M "C 2/M"
_symmetry_group_IT_number 12
_symmetry_cell_setting 'monoclinic'
loop_
_space_group_symop_operation_xyz
x,y,z
-x,y,-z
-x,-y,-z
x,-y,z
1/2+x,1/2+y,z
1/2-x,1/2+y,-z
1/2-x,1/2-y,-z
1/2+x,1/2-y,z
loop_
_atom_site_type_symbol
_atom_site_label
_atom_site_fract_x
_atom_site_fract_y
_atom_site_fract_z
Si Si1 0.106077 0.697094 0.055937
Si Si2 0.228324 0.897037 0.914538
Si Si3 0.770767 0.355274 0.673336
Si Si4 0.756796 0.234707 0.613851
Si Si5 0.313192 0.062348 0.307747
Si Si6 0.549416 0.434569 0.642705
O O1 0.260336 0.646707 0.001824
O O2 0.914135 0.696738 0.240534
O O3 0.250000 0.750000 0.000000
O O4 0.000000 0.696752 0.000000
O O5 0.285308 0.864898 0.783253
O O6 0.431888 0.934178 0.829639
O O7 0.000000 0.921887 0.000000
O O8 0.716268 0.292790 0.686409
O O9 0.620473 0.399950 0.700380
O O10 0.000000 0.362779 0.500000
O O11 0.750000 0.250000 0.500000
O O12 0.000000 0.214583 0.500000
O O13 0.211392 0.082031 0.466304
O O14 0.184414 0.082505 0.277498
O O15 0.249770 0.000000 0.342578
O O16 0.562082 0.500000 0.655026
#
# Coordination Sequence:
#
# PCOD9220148 Si02
#       6
#     8   8   8   8   8   8
#     4  12  25  46  69  93 130 184 228 267 332 412
#     4  12  26  42  64  94 133 172 222 271 326 400
#     4  11  21  39  62  96 130 167 215 271 329 393
#     4  11  24  40  61  94 130 162 214 282 327 369
#     4   9  20  40  64  96 131 169 217 272 333 395
#     4   9  19  38  67  97 129 168 217 269 329 406
#
# _framework density 23.484176999999999
#
# number of rings (size 3 to 8) (size 9 to 14) (size 15 to 20)
#    0.000    1.333    1.667    6.500    0.000    5.333 
#    0.000    0.000    0.000    2.500    0.000    0.000 
#    0.000    0.000    0.000    0.000    0.000    0.000 
#
# Total GULP energy -134080.992676 kJ/mol
# GULP energy per Si atom -5586.708028 kJ/mol
# Density = 2.343073 g / cm^3
# Si number density = 23.484177 Si / 1000 Ang^3
#
#
#
# Elastic Constant Matrix: (Units=GPa)
#
#
# Indices 1 2 3 4 5 6 
#
# 1 162.0152 30.4481 38.0521 0.0000 -14.7825 0.0000
# 2 30.4481 57.9477 8.5593 0.0000 -9.6742 0.0000
# 3 38.0521 8.5593 105.2397 0.0000 -23.8201 0.0000
# 4 0.0000 0.0000 0.0000 30.2289 0.0000 -7.4586
# 5 -14.7825 -9.6742 -23.8201 0.0000 54.0532 0.0000
# 6 0.0000 0.0000 0.0000 -7.4586 0.0000 34.3695
#
#
#
# Elastic Compliance Matrix: (Units=1/GPa)
#
#
# Indices 1 2 3 4 5 6 
#
# 1 0.007404 -0.003486 -0.002307 0.000000 0.000385 0.000000
# 2 -0.003486 0.019491 0.000276 0.000000 0.002657 0.000000
# 3 -0.002307 0.000276 0.011310 0.000000 0.004403 0.000000
# 4 0.000000 0.000000 0.000000 0.034952 0.000000 0.007585
# 5 0.000385 0.002657 0.004403 0.000000 0.021021 0.000000
# 6 0.000000 0.000000 0.000000 0.007585 0.000000 0.030742
#
#
# Mechanical properties :
#
#
# Convention : Reuss Voigt Hill
#
# Bulk Modulus (GPa) = 36.79983 53.25796 45.02889
# Shear Modulus (GPa) = 34.48032 40.27319 37.37675
#
# Velocity S-wave (km/s) = 3.83591 4.14564 3.99378
# Velocity P-wave (km/s) = 5.94332 6.75593 6.36261
#
# Compressibility (1/GPa) = 0.02717404
#
# Stress axis : x y z
#
# Youngs Moduli (GPa) = 135.05934 51.30534 88.41580
#
# Poissons Ratio (x) = 0.17883 0.20394
# Poissons Ratio (y) = 0.47075 -0.02444
# Poissons Ratio (z) = 0.31153 -0.01418
#
# Static dielectric constant tensor:
#      x y z
#    x 4.870790 0.000000 0.639790 
#    y 0.000000 1.486280 0.000000 
#    z 0.639790 0.000000 2.097280 
# 
# From -- ./inp_files/200140.got.cif
#   From: 2010.05.17/outbox.cif.g08.bks.cpg/sg12_101_cif.got.tgz:200140.got - 2010.06.03 13:09:07.
