data_PCOD9220511
_publ_section_title
;
Structure prediction by ZEFSAII (Michael W. Deem and Ramdas Pophale) SiO2 
 PCOD9220511
Probable space group: C 2/M
;
_chemical_formula_sum "Si O2"
_cell_formula_units_Z 48
_cell_length_a 20.827695
_cell_length_b 8.111347
_cell_length_c 21.943189
_cell_angle_alpha 90.000000
_cell_angle_beta 44.819105
_cell_angle_gamma 90.000000
_cell_volume 2613.024233
_symmetry_space_group_name_H-M "C 2/M"
_symmetry_group_IT_number 12
_symmetry_cell_setting 'monoclinic'
loop_
_space_group_symop_operation_xyz
x,y,z
-x,y,-z
-x,-y,-z
x,-y,z
1/2+x,1/2+y,z
1/2-x,1/2+y,-z
1/2-x,1/2-y,-z
1/2+x,1/2-y,z
loop_
_atom_site_type_symbol
_atom_site_label
_atom_site_fract_x
_atom_site_fract_y
_atom_site_fract_z
Si Si1 0.247039 0.695295 0.932199
Si Si2 0.252981 0.798215 0.734446
Si Si3 0.603110 0.301842 0.930998
Si Si4 0.395780 0.199254 0.399802
Si Si5 0.750830 0.301018 0.597006
Si Si6 0.397305 0.801141 0.736245
O O1 0.243264 0.500000 0.932176
O O2 0.159970 0.762448 0.953556
O O3 0.336382 0.753363 0.835223
O O4 0.250000 0.750000 0.000000
O O5 0.164811 0.743711 0.832570
O O6 0.253793 0.741234 0.664373
O O7 0.340943 0.746579 0.714507
O O8 0.252333 0.000000 0.734256
O O9 0.598720 0.500000 0.929167
O O10 0.500000 0.237439 0.000000
O O11 0.340364 0.250667 0.377160
O O12 0.335375 0.256573 0.498198
O O13 0.499339 0.260235 0.331110
O O14 0.397688 0.000000 0.400459
O O15 0.754396 0.500000 0.596002
O O16 0.400304 0.000000 0.732347
#
# Coordination Sequence:
#
# PCOD9220511 Si02
#       6
#     8   8   8   8   8   8
#     4  11  22  36  54  76 103 134 169 208 252 302
#     4   8  15  29  49  71  95 126 164 204 242 286
#     4   9  18  34  54  76 104 135 168 208 253 301
#     4   9  18  31  48  71  99 130 164 207 252 293
#     4   9  17  30  48  71  99 131 167 204 247 300
#     4   9  18  34  52  71  97 128 166 210 254 297
#
# _framework density 18.369519
#
# number of rings (size 3 to 8) (size 9 to 14) (size 15 to 20)
#    0.000    2.833    0.000    2.500    0.000    3.000 
#    0.000    8.333    0.000    0.000    0.000    9.333 
#    0.000    0.000    0.000    0.000    0.000    0.000 
#
# Total GULP energy -133820.940311 kJ/mol
# GULP energy per Si atom -5575.872513 kJ/mol
# Density = 1.832771 g / cm^3
# Si number density = 18.369519 Si / 1000 Ang^3
#
#
#
# Elastic Constant Matrix: (Units=GPa)
#
#
# Indices 1 2 3 4 5 6 
#
# 1 164.0218 0.0664 144.8054 -0.0001 -1.5005 0.0002
# 2 0.0664 5.7519 6.3943 -0.0002 -3.6579 0.0005
# 3 144.8054 6.3943 144.0508 0.0000 -1.8690 0.0000
# 4 -0.0001 -0.0002 0.0000 15.4588 0.0000 0.8649
# 5 -1.5005 -3.6579 -1.8690 0.0000 46.4480 -0.0001
# 6 0.0002 0.0005 0.0000 0.8649 -0.0001 25.9608
#
#
#
# Elastic Compliance Matrix: (Units=1/GPa)
#
#
# Indices 1 2 3 4 5 6 
#
# 1 0.093168 0.113611 -0.098596 0.000002 0.007990 -0.000003
# 2 0.113611 0.331114 -0.128585 0.000005 0.024572 -0.000008
# 3 -0.098596 -0.128585 0.111648 -0.000002 -0.008819 0.000003
# 4 0.000002 0.000005 -0.000002 0.064809 0.000000 -0.002159
# 5 0.007990 0.024572 -0.008819 0.000000 0.023368 -0.000001
# 6 -0.000003 -0.000008 0.000003 -0.002159 -0.000001 0.038592
#
#
# Mechanical properties :
#
#
# Convention : Reuss Voigt Hill
#
# Bulk Modulus (GPa) = 3.23845 68.48408 35.86126
# Shear Modulus (GPa) = 5.03642 28.41076 16.72359
#
# Velocity S-wave (km/s) = 1.65761 3.93698 3.02056
# Velocity P-wave (km/s) = 2.33031 7.61766 5.63290
#
# Compressibility (1/GPa) = 0.30879017
#
# Stress axis : x y z
#
# Youngs Moduli (GPa) = 10.73325 3.02011 8.95675
#
# Poissons Ratio (x) = -0.34312 0.88310
# Poissons Ratio (y) = -1.21942 1.15171
# Poissons Ratio (z) = 1.05825 0.38834
#
# Static dielectric constant tensor:
#      x y z
#    x 1.586200 0.000000 -0.038120 
#    y 0.000000 1.652710 0.000000 
#    z -0.038120 0.000000 1.608240 
# 
# From -- ./inp_files/313617.got.cif
#   From: 2010.05.17/outbox.cif.g08.bks.cpg/sg12_157_cif.got.tgz:313617.got - 2010.06.03 13:09:07.
