data_PCOD9220192
_publ_section_title
;
Structure prediction by ZEFSAII (Michael W. Deem and Ramdas Pophale) SiO2 
 PCOD9220192
Probable space group: C 2/M
;
_chemical_formula_sum "Si O2"
_cell_formula_units_Z 56
_cell_length_a 11.753155
_cell_length_b 32.349977
_cell_length_c 13.532743
_cell_angle_alpha 90.000000
_cell_angle_beta 31.800701
_cell_angle_gamma 90.000000
_cell_volume 2711.421460
_symmetry_space_group_name_H-M "C 2/M"
_symmetry_group_IT_number 12
_symmetry_cell_setting 'monoclinic'
loop_
_space_group_symop_operation_xyz
x,y,z
-x,y,-z
-x,-y,-z
x,-y,z
1/2+x,1/2+y,z
1/2-x,1/2+y,-z
1/2-x,1/2-y,-z
1/2+x,1/2-y,z
loop_
_atom_site_type_symbol
_atom_site_label
_atom_site_fract_x
_atom_site_fract_y
_atom_site_fract_z
Si Si1 0.524895 0.200126 0.773755
Si Si2 0.260177 0.932894 0.208700
Si Si3 0.628914 0.126189 0.551342
Si Si4 0.971053 0.794212 0.809502
Si Si5 0.827422 0.857970 0.212036
Si Si6 0.290965 0.454406 0.525618
Si Si7 0.816945 0.164681 0.719057
O O1 0.628283 0.166209 0.623758
O O2 0.556535 0.248189 0.726748
O O3 0.620426 0.188939 0.811141
O O4 0.264034 0.198911 0.965998
O O5 0.228034 0.949832 0.342609
O O6 0.247528 0.882901 0.215419
O O7 0.044572 0.948104 0.311807
O O8 0.500000 0.945489 0.000000
O O9 0.401570 0.132632 0.666197
O O10 0.815599 0.121568 0.329986
O O11 0.647303 0.083520 0.594738
O O12 0.917107 0.815191 0.743479
O O13 0.131344 0.812240 0.775149
O O14 0.000000 0.868307 0.000000
O O15 0.221461 0.500000 0.544971
O O16 0.000000 0.164019 0.500000
#
# Coordination Sequence:
#
# PCOD9220192 Si02
#       7
#     8   8   8   8   8   8   8
#     4  11  23  42  62  97 136 179 232 278 344 399
#     4  11  21  39  68  99 142 183 217 267 348 413
#     4  11  24  44  69  95 130 185 225 278 353 407
#     4  11  25  39  65  96 135 183 234 286 325 396
#     4  11  24  44  68  94 130 182 234 281 333 406
#     4  11  24  43  67 103 138 170 228 287 343 421
#     4  12  23  39  63  98 139 179 223 279 339 406
#
# _framework density 20.653373999999999
#
# number of rings (size 3 to 8) (size 9 to 14) (size 15 to 20)
#    0.000    0.857    4.286    3.857    2.000    4.571 
#    0.000    1.429    0.000    0.857    0.000    0.000 
#    0.000    0.000    0.000    0.000    0.000    0.000 
#
# Total GULP energy -156008.356377 kJ/mol
# GULP energy per Si atom -5571.727013 kJ/mol
# Density = 2.060637 g / cm^3
# Si number density = 20.653374 Si / 1000 Ang^3
#
#
#
# Elastic Constant Matrix: (Units=GPa)
#
#
# Indices 1 2 3 4 5 6 
#
# 1 96.8762 44.5373 35.6678 0.0000 -8.2977 0.0000
# 2 44.5373 124.7675 42.8850 0.0000 -16.6556 0.0000
# 3 35.6678 42.8850 100.0847 0.0000 11.8624 0.0000
# 4 0.0000 0.0000 0.0000 1.6662 0.0000 -11.9998
# 5 -8.2977 -16.6556 11.8624 0.0000 31.5366 0.0000
# 6 0.0000 0.0000 0.0000 -11.9998 0.0000 -4.7583
#
#
#
# Elastic Compliance Matrix: (Units=1/GPa)
#
#
# Indices 1 2 3 4 5 6 
#
# 1 0.013431 -0.002994 -0.003910 0.000000 0.003424 0.000000
# 2 -0.002994 0.011692 -0.004795 0.000000 0.007191 0.000000
# 3 -0.003910 -0.004795 0.014508 0.000000 -0.009018 0.000000
# 4 0.000000 0.000000 0.000000 0.031320 0.000000 -0.078986
# 5 0.003424 0.007191 -0.009018 0.000000 0.039800 0.000000
# 6 0.000000 0.000000 0.000000 -0.078986 0.000000 -0.010967
#
#
# Mechanical properties :
#
#
# Convention : Reuss Voigt Hill
#
# Bulk Modulus (GPa) = 61.59699 63.10095 62.34897
# Shear Modulus (GPa) = 38.88240 18.93145 28.90693
#
# Velocity S-wave (km/s) = 4.34362 3.03087 3.74521
# Velocity P-wave (km/s) = 7.41923 6.54728 6.99685
#
# Compressibility (1/GPa) = 0.01623456
#
# Stress axis : x y z
#
# Youngs Moduli (GPa) = 74.45222 85.53125 68.92570
#
# Poissons Ratio (x) = 0.25605 0.26948
# Poissons Ratio (y) = 0.22289 0.33051
# Poissons Ratio (z) = 0.29108 0.41013
#
# Static dielectric constant tensor:
#      x y z
#    x 1.750170 0.000000 -0.004200 
#    y 0.000000 1.765560 0.000000 
#    z -0.004200 0.000000 1.836270 
# 
# From -- ./inp_files/209974.got.cif
#   From: 2010.05.17/outbox.cif.g08.bks.cpg/sg12_105_cif.got.tgz:209974.got - 2010.06.03 13:09:07.
