data_PCOD9220302
_publ_section_title
;
Structure prediction by ZEFSAII (Michael W. Deem and Ramdas Pophale) SiO2 
 PCOD9220302
Probable space group: C 2/M
;
_chemical_formula_sum "Si O2"
_cell_formula_units_Z 42
_cell_length_a 25.472265
_cell_length_b 7.748111
_cell_length_c 14.569767
_cell_angle_alpha 90.000000
_cell_angle_beta 134.495617
_cell_angle_gamma 90.000000
_cell_volume 2051.118273
_symmetry_space_group_name_H-M "C 2/M"
_symmetry_group_IT_number 12
_symmetry_cell_setting 'monoclinic'
loop_
_space_group_symop_operation_xyz
x,y,z
-x,y,-z
-x,-y,-z
x,-y,z
1/2+x,1/2+y,z
1/2-x,1/2+y,-z
1/2-x,1/2-y,-z
1/2+x,1/2-y,z
loop_
_atom_site_type_symbol
_atom_site_label
_atom_site_fract_x
_atom_site_fract_y
_atom_site_fract_z
Si Si1 0.694931 0.293837 0.349987
Si Si2 0.394065 0.701402 0.096346
Si Si3 0.110758 0.301878 0.703543
Si Si4 0.475390 0.203452 0.868638
Si Si5 0.232686 0.208762 0.194558
Si Si6 0.000000 0.000000 0.500000
O O1 0.690419 0.500000 0.340532
O O2 0.750000 0.250000 0.500000
O O3 0.611007 0.229875 0.255412
O O4 0.726267 0.227738 0.290976
O O5 0.377609 0.500000 0.094004
O O6 0.387973 0.797725 0.184649
O O7 0.473962 0.714304 0.147540
O O8 0.335455 0.769784 0.950386
O O9 0.093265 0.500000 0.652431
O O10 0.190412 0.255029 0.759626
O O11 0.055718 0.153514 0.604899
O O12 0.491072 0.000000 0.886588
O O13 0.500000 0.269910 0.000000
O O14 0.226550 0.000000 0.191165
#
# Coordination Sequence:
#
# PCOD9220302 Si02
#       6
#     8   8   8   8   8   2
#     4  11  23  43  65  95 132 177 227 276 342 409
#     4  11  21  41  70 102 133 172 229 284 347 410
#     4  11  24  46  70 100 139 180 227 284 339 409
#     4  11  23  40  63  98 136 179 227 280 336 404
#     4   9  21  41  69  96 133 176 220 285 348 405
#     4  12  26  48  64 102 138 186 230 266 340 424
#
# _framework density 20.476634000000001
#
# number of rings (size 3 to 8) (size 9 to 14) (size 15 to 20)
#    0.000    1.333    2.857    2.571    0.000    2.286 
#   10.286    3.810    0.000    0.000    0.000    0.000 
#    0.000    0.000    0.000    0.000    0.000    0.000 
#
# Total GULP energy -117087.354008 kJ/mol
# GULP energy per Si atom -5575.588286 kJ/mol
# Density = 2.043003 g / cm^3
# Si number density = 20.476634 Si / 1000 Ang^3
#
#
#
# Elastic Constant Matrix: (Units=GPa)
#
#
# Indices 1 2 3 4 5 6 
#
# 1 28.8783 12.3248 222.9391 0.0000 -225.2022 0.0000
# 2 12.3248 86.7794 23.5510 0.0000 -3.9151 0.0000
# 3 222.9391 23.5510 -5.6643 0.0000 268.3965 0.0000
# 4 0.0000 0.0000 0.0000 18.2689 0.0000 9.7743
# 5 -225.2022 -3.9151 268.3965 0.0000 -399.1661 0.0000
# 6 0.0000 0.0000 0.0000 9.7743 0.0000 -8.5689
#
#
#
# Elastic Compliance Matrix: (Units=1/GPa)
#
#
# Indices 1 2 3 4 5 6 
#
# 1 0.007921 -0.000561 -0.003173 0.000000 -0.006597 0.000000
# 2 -0.000561 0.011900 -0.001194 0.000000 -0.000603 0.000000
# 3 -0.003173 -0.001194 0.007162 0.000000 0.006618 0.000000
# 4 0.000000 0.000000 0.000000 0.033993 0.000000 0.038774
# 5 -0.006597 -0.000603 0.006618 0.000000 0.005672 0.000000
# 6 0.000000 0.000000 0.000000 0.038774 0.000000 -0.072472
#
#
# Mechanical properties :
#
#
# Convention : Reuss Voigt Hill
#
# Bulk Modulus (GPa) = 58.39563 69.73592 64.06578
# Shear Modulus (GPa) = 513.27083 -87.81465 212.72809
#
# Velocity S-wave (km/s) = 15.84948 -6.55579 10.20361
# Velocity P-wave (km/s) = 19.06623 4.81396 13.04506
#
# Compressibility (1/GPa) = 0.01712457
#
# Stress axis : x y z
#
# Youngs Moduli (GPa) = 126.25205 84.03266 139.62827
#
# Poissons Ratio (x) = 0.04717 0.44308
# Poissons Ratio (y) = 0.07087 0.16677
# Poissons Ratio (z) = 0.40063 0.10037
#
# Static dielectric constant tensor:
#      x y z
#    x 1.707900 0.000000 -0.020440 
#    y 0.000000 1.745890 0.000000 
#    z -0.020440 0.000000 1.740760 
# 
# From -- ./inp_files/244446.got.cif
#   From: 2010.05.17/outbox.cif.g08.bks.cpg/sg12_123_cif.got.tgz:244446.got - 2010.06.03 13:09:07.
