data_PCOD9220281
_publ_section_title
;
Structure prediction by ZEFSAII (Michael W. Deem and Ramdas Pophale) SiO2 
 PCOD9220281
Probable space group: C 2/M
;
_chemical_formula_sum "Si O2"
_cell_formula_units_Z 50
_cell_length_a 10.093831
_cell_length_b 26.562802
_cell_length_c 13.123445
_cell_angle_alpha 90.000000
_cell_angle_beta 133.344312
_cell_angle_gamma 90.000000
_cell_volume 2558.920554
_symmetry_space_group_name_H-M "C 2/M"
_symmetry_group_IT_number 12
_symmetry_cell_setting 'monoclinic'
loop_
_space_group_symop_operation_xyz
x,y,z
-x,y,-z
-x,-y,-z
x,-y,z
1/2+x,1/2+y,z
1/2-x,1/2+y,-z
1/2-x,1/2-y,-z
1/2+x,1/2-y,z
loop_
_atom_site_type_symbol
_atom_site_label
_atom_site_fract_x
_atom_site_fract_y
_atom_site_fract_z
Si Si1 0.317282 0.662421 0.332368
Si Si2 0.013381 0.421182 0.189805
Si Si3 0.075164 0.868643 0.299172
Si Si4 0.788432 0.268368 0.403589
Si Si5 0.106701 0.057537 0.951340
Si Si6 0.637761 0.055689 0.477783
Si Si7 0.500000 0.000000 0.000000
O O1 0.500000 0.656414 0.500000
O O2 0.147731 0.626162 0.261726
O O3 0.396981 0.648908 0.264867
O O4 0.255851 0.719667 0.316669
O O5 0.040399 0.444520 0.316938
O O6 0.057622 0.456406 0.116247
O O7 0.797051 0.413915 0.065519
O O8 0.172897 0.817530 0.316535
O O9 0.216729 0.899609 0.443930
O O10 0.019433 0.909725 0.187409
O O11 0.750000 0.250000 0.500000
O O12 0.000000 0.281572 0.500000
O O13 0.149933 0.000000 0.935560
O O14 0.000000 0.052536 0.000000
O O15 0.500000 0.063292 0.500000
O O16 0.722578 0.000000 0.537282
#
# Coordination Sequence:
#
# PCOD9220281 Si02
#       7
#     8   8   8   8   8   8   2
#     4  11  23  42  67 102 136 172 227 290 334 405
#     4  12  23  44  65  96 139 181 226 270 343 414
#     4  12  23  42  69 102 132 181 229 279 348 403
#     4  11  21  41  67 100 137 176 223 290 354 399
#     4  11  25  46  69  99 141 183 226 275 340 421
#     4  11  22  39  65 100 135 173 226 288 333 394
#     4  12  24  40  66  96 132 194 212 250 354 416
#
# _framework density 19.539489
#
# number of rings (size 3 to 8) (size 9 to 14) (size 15 to 20)
#    0.000    0.640    6.400    2.880    0.000    3.840 
#    1.440    2.000    1.760    0.000    0.000    0.000 
#    0.000    0.000    0.000    0.000    0.000    0.000 
#
# Total GULP energy -139259.047117 kJ/mol
# GULP energy per Si atom -5570.361885 kJ/mol
# Density = 1.949502 g / cm^3
# Si number density = 19.539489 Si / 1000 Ang^3
#
#
#
# Elastic Constant Matrix: (Units=GPa)
#
#
# Indices 1 2 3 4 5 6 
#
# 1 81.3999 35.7008 20.2952 0.0000 1.2662 0.0000
# 2 35.7008 124.7429 46.8588 0.0000 4.8806 0.0000
# 3 20.2952 46.8588 99.4762 0.0000 -7.5994 0.0000
# 4 0.0000 0.0000 0.0000 3.5189 0.0000 19.6285
# 5 1.2662 4.8806 -7.5994 0.0000 41.2756 0.0000
# 6 0.0000 0.0000 0.0000 19.6285 0.0000 62.8524
#
#
#
# Elastic Compliance Matrix: (Units=1/GPa)
#
#
# Indices 1 2 3 4 5 6 
#
# 1 0.014166 -0.003587 -0.001218 0.000000 -0.000235 0.000000
# 2 -0.003587 0.010818 -0.004517 0.000000 -0.002001 0.000000
# 3 -0.001218 -0.004517 0.012651 0.000000 0.002901 0.000000
# 4 0.000000 0.000000 0.000000 -0.383001 0.000000 0.119609
# 5 -0.000235 -0.002001 0.002901 0.000000 0.025005 0.000000
# 6 0.000000 0.000000 0.000000 0.119609 0.000000 -0.021443
#
#
# Mechanical properties :
#
#
# Convention : Reuss Voigt Hill
#
# Bulk Modulus (GPa) = 52.66065 56.81428 54.73746
# Shear Modulus (GPa) = -15.78134 35.04700 9.63283
#
# Velocity S-wave (km/s) = -2.84503 4.23974 2.22275
# Velocity P-wave (km/s) = 4.02705 7.28746 5.88745
#
# Compressibility (1/GPa) = 0.01898951
#
# Stress axis : x y z
#
# Youngs Moduli (GPa) = 70.59264 92.43671 79.04824
#
# Poissons Ratio (x) = 0.33161 0.09629
# Poissons Ratio (y) = 0.25324 0.35706
# Poissons Ratio (z) = 0.08599 0.41753
#
# Static dielectric constant tensor:
#      x y z
#    x 1.754160 0.000000 -0.040460 
#    y 0.000000 1.688020 0.000000 
#    z -0.040460 0.000000 1.704870 
# 
# From -- ./inp_files/208685.got.cif
#   From: 2010.05.17/outbox.cif.g08.bks.cpg/sg12_105_cif.got.tgz:208685.got - 2010.06.03 13:09:07.
