data_PCOD9220386
_publ_section_title
;
Structure prediction by ZEFSAII (Michael W. Deem and Ramdas Pophale) SiO2 
 PCOD9220386
Probable space group: C 2/M
;
_chemical_formula_sum "Si O2"
_cell_formula_units_Z 32
_cell_length_a 15.072678
_cell_length_b 14.396874
_cell_length_c 7.659411
_cell_angle_alpha 90.000000
_cell_angle_beta 114.425762
_cell_angle_gamma 90.000000
_cell_volume 1513.327456
_symmetry_space_group_name_H-M "C 2/M"
_symmetry_group_IT_number 12
_symmetry_cell_setting 'monoclinic'
loop_
_space_group_symop_operation_xyz
x,y,z
-x,y,-z
-x,-y,-z
x,-y,z
1/2+x,1/2+y,z
1/2-x,1/2+y,-z
1/2-x,1/2-y,-z
1/2+x,1/2-y,z
loop_
_atom_site_type_symbol
_atom_site_label
_atom_site_fract_x
_atom_site_fract_y
_atom_site_fract_z
Si Si1 0.706356 0.000000 0.276398
Si Si2 0.673433 0.352185 0.075096
Si Si3 0.604500 0.500000 0.734819
Si Si4 0.872424 0.350007 0.054194
Si Si5 0.480016 0.000000 0.685104
Si Si6 0.918629 0.000000 0.776278
O O1 0.822507 0.000000 0.371963
O O2 0.635665 0.000000 0.382120
O O3 0.673296 0.088087 0.135972
O O4 0.790211 0.344200 0.141029
O O5 0.644584 0.409168 0.224971
O O6 0.638028 0.411905 0.879375
O O7 0.620228 0.253650 0.013659
O O8 0.488256 0.500000 0.664376
O O9 0.966737 0.408623 0.190404
O O10 0.500000 0.000000 0.500000
O O11 0.000000 0.000000 0.000000
#
# Coordination Sequence:
#
# PCOD9220386 Si02
#       6
#     4   8   4   8   4   4
#     4   9  18  30  44  66  94 125 162 199 233 275
#     4   8  14  25  47  76  98 115 149 205 244 274
#     4   8  15  25  40  69  98 115 142 192 251 285
#     4   9  16  29  49  72  94 122 160 199 239 279
#     4  11  22  32  45  68 100 133 160 193 242 297
#     4   8  13  21  38  71 101 113 136 190 252 285
#
# _framework density 21.145458000000001
#
# number of rings (size 3 to 8) (size 9 to 14) (size 15 to 20)
#    0.000    3.500    0.000    3.750    0.000    6.000 
#    0.000    0.000    0.000   13.500    0.000    7.000 
#    0.000    0.000    0.000    0.000    0.000    0.000 
#
# Total GULP energy -89084.082565 kJ/mol
# GULP energy per Si atom -5567.755160 kJ/mol
# Density = 2.109733 g / cm^3
# Si number density = 21.145458 Si / 1000 Ang^3
#
#
#
# Elastic Constant Matrix: (Units=GPa)
#
#
# Indices 1 2 3 4 5 6 
#
# 1 179.7903 32.1034 59.2202 0.0000 -35.5166 0.0000
# 2 32.1034 175.0878 15.5569 0.0000 -9.5373 0.0000
# 3 59.2202 15.5569 38.1612 0.0000 -22.7217 0.0000
# 4 0.0000 0.0000 0.0000 0.7353 0.0000 7.8715
# 5 -35.5166 -9.5373 -22.7217 0.0000 51.2278 0.0000
# 6 0.0000 0.0000 0.0000 7.8715 0.0000 13.9860
#
#
#
# Elastic Compliance Matrix: (Units=1/GPa)
#
#
# Indices 1 2 3 4 5 6 
#
# 1 0.011427 -0.000539 -0.017469 0.000000 0.000074 0.000000
# 2 -0.000539 0.005952 -0.001566 0.000000 0.000040 0.000000
# 3 -0.017469 -0.001566 0.063279 0.000000 0.015664 0.000000
# 4 0.000000 0.000000 0.000000 -0.270639 0.000000 0.152320
# 5 0.000074 0.000040 0.015664 0.000000 0.026527 0.000000
# 6 0.000000 0.000000 0.000000 0.152320 0.000000 -0.014228
#
#
# Mechanical properties :
#
#
# Convention : Reuss Voigt Hill
#
# Bulk Modulus (GPa) = 24.09135 67.42224 45.75680
# Shear Modulus (GPa) = -40.09688 32.26706 -3.91491
#
# Velocity S-wave (km/s) = -4.35931 3.91059 -1.36214
# Velocity P-wave (km/s) = 3.73098 7.23495 4.38316
#
# Compressibility (1/GPa) = 0.04150867
#
# Stress axis : x y z
#
# Youngs Moduli (GPa) = 87.51274 168.02295 15.80310
#
# Poissons Ratio (x) = 0.09057 0.27607
# Poissons Ratio (y) = 0.04717 0.02475
# Poissons Ratio (z) = 1.52877 0.26315
#
# Static dielectric constant tensor:
#      x y z
#    x 1.868580 0.000000 -0.022840 
#    y 0.000000 1.817680 0.000000 
#    z -0.022840 0.000000 1.801670 
# 
# From -- ./inp_files/57931.got.cif
#   From: 2010.05.17/outbox.cif.g08.bks.cpg/sg12_29_cif.got.tgz:57931.got - 2010.06.03 13:09:07.
