data_PCOD9220869
_publ_section_title
;
Structure prediction by ZEFSAII (Michael W. Deem and Ramdas Pophale) SiO2 
 PCOD9220869
Probable space group: C 2/M
;
_chemical_formula_sum "Si O2"
_cell_formula_units_Z 56
_cell_length_a 29.521996
_cell_length_b 16.821437
_cell_length_c 9.785217
_cell_angle_alpha 90.000000
_cell_angle_beta 144.501814
_cell_angle_gamma 90.000000
_cell_volume 2821.720744
_symmetry_space_group_name_H-M "C 2/M"
_symmetry_group_IT_number 12
_symmetry_cell_setting 'monoclinic'
loop_
_space_group_symop_operation_xyz
x,y,z
-x,y,-z
-x,-y,-z
x,-y,z
1/2+x,1/2+y,z
1/2-x,1/2+y,-z
1/2-x,1/2-y,-z
1/2+x,1/2-y,z
loop_
_atom_site_type_symbol
_atom_site_label
_atom_site_fract_x
_atom_site_fract_y
_atom_site_fract_z
Si Si1 0.008399 0.333098 0.362801
Si Si2 0.146115 0.595611 0.531273
Si Si3 0.077759 0.906662 0.105092
Si Si4 0.614198 0.907926 0.144699
Si Si5 0.764462 0.823530 0.433390
Si Si6 0.777394 0.218459 0.920050
Si Si7 0.550790 0.661253 0.741500
O O1 0.001396 0.237918 0.345545
O O2 0.000000 0.358582 0.500000
O O3 0.087444 0.369502 0.498787
O O4 0.940175 0.361727 0.094009
O O5 0.153810 0.500000 0.557819
O O6 0.109940 0.615885 0.293380
O O7 0.227036 0.641542 0.751206
O O8 0.148680 0.854524 0.335632
O O9 0.095017 0.000000 0.164080
O O10 0.067113 0.887108 0.918809
O O11 0.000000 0.888579 0.000000
O O12 0.703348 0.891838 0.322384
O O13 0.592995 0.000000 0.083668
O O14 0.750000 0.750000 0.500000
O O15 0.744156 0.789194 0.236238
O O16 0.750000 0.250000 0.000000
O O17 0.867944 0.195167 0.121066
O O18 0.500000 0.618243 0.500000
#
# Coordination Sequence:
#
# PCOD9220869 Si02
#       7
#     8   8   8   8   8   8   8
#     4  11  23  41  62  99 134 171 217 263 329 395
#     4  11  25  42  65  96 132 172 215 272 332 392
#     4  11  26  45  68 101 136 175 227 281 333 391
#     4  11  22  39  64  93 128 171 218 266 327 394
#     4  12  22  44  69  96 124 172 222 276 333 382
#     4  12  25  44  67 101 132 170 226 271 330 401
#     4  11  24  43  70  97 131 181 221 274 330 393
#
# _framework density 19.846046999999999
#
# number of rings (size 3 to 8) (size 9 to 14) (size 15 to 20)
#    0.000    0.714    4.286    3.000    4.000    4.286 
#    0.000    0.714    0.000    0.000    0.000    0.000 
#    0.000    0.000    0.000    0.000    0.000    0.000 
#
# Total GULP energy -156545.906995 kJ/mol
# GULP energy per Si atom -5590.925250 kJ/mol
# Density = 1.980088 g / cm^3
# Si number density = 19.846047 Si / 1000 Ang^3
#
#
#
# Elastic Constant Matrix: (Units=GPa)
#
#
# Indices 1 2 3 4 5 6 
#
# 1 114.8026 23.5875 37.1871 0.0000 -8.9063 0.0000
# 2 23.5875 39.9676 14.0739 0.0000 8.9799 0.0000
# 3 37.1871 14.0739 97.8172 0.0000 6.0231 0.0000
# 4 0.0000 0.0000 0.0000 23.5241 0.0000 -7.8031
# 5 -8.9063 8.9799 6.0231 0.0000 38.4918 0.0000
# 6 0.0000 0.0000 0.0000 -7.8031 0.0000 3.1602
#
#
#
# Elastic Compliance Matrix: (Units=1/GPa)
#
#
# Indices 1 2 3 4 5 6 
#
# 1 0.011677 -0.006649 -0.003781 0.000000 0.004845 0.000000
# 2 -0.006649 0.031398 -0.001458 0.000000 -0.008635 0.000000
# 3 -0.003781 -0.001458 0.012019 0.000000 -0.002415 0.000000
# 4 0.000000 0.000000 0.000000 0.234918 0.000000 0.580058
# 5 0.004845 -0.008635 -0.002415 0.000000 0.029493 0.000000
# 6 0.000000 0.000000 0.000000 0.580058 0.000000 1.748713
#
#
# Mechanical properties :
#
#
# Convention : Reuss Voigt Hill
#
# Bulk Modulus (GPa) = 31.93011 44.69826 38.31419
# Shear Modulus (GPa) = 2.37820 24.88447 13.63133
#
# Velocity S-wave (km/s) = 1.09587 3.54485 2.62363
# Velocity P-wave (km/s) = 4.21011 6.27105 5.34093
#
# Compressibility (1/GPa) = 0.03131840
#
# Stress axis : x y z
#
# Youngs Moduli (GPa) = 85.63675 31.84949 83.20082
#
# Poissons Ratio (x) = 0.21175 0.31458
# Poissons Ratio (y) = 0.56936 0.12132
# Poissons Ratio (z) = 0.32380 0.04644
#
# Static dielectric constant tensor:
#      x y z
#    x 1.654960 0.000000 0.076640 
#    y 0.000000 1.677480 0.000000 
#    z 0.076640 0.000000 1.606940 
# 
# From -- ./inp_files/106050.got.cif
#   From: 2010.05.17/outbox.cif.g08.bks.cpg/sg12_54_cif.got.tgz:106050.got - 2010.06.03 13:09:07.
