data_PCOD9220952
_publ_section_title
;
Structure prediction by ZEFSAII (Michael W. Deem and Ramdas Pophale) SiO2 
 PCOD9220952
Probable space group: C 2/M
;
_chemical_formula_sum "Si O2"
_cell_formula_units_Z 56
_cell_length_a 15.304072
_cell_length_b 8.454288
_cell_length_c 24.758496
_cell_angle_alpha 90.000000
_cell_angle_beta 61.889011
_cell_angle_gamma 90.000000
_cell_volume 2825.497068
_symmetry_space_group_name_H-M "C 2/M"
_symmetry_group_IT_number 12
_symmetry_cell_setting 'monoclinic'
loop_
_space_group_symop_operation_xyz
x,y,z
-x,y,-z
-x,-y,-z
x,-y,z
1/2+x,1/2+y,z
1/2-x,1/2+y,-z
1/2-x,1/2-y,-z
1/2+x,1/2-y,z
loop_
_atom_site_type_symbol
_atom_site_label
_atom_site_fract_x
_atom_site_fract_y
_atom_site_fract_z
Si Si1 0.074273 0.314118 0.931136
Si Si2 0.941779 0.683621 0.806607
Si Si3 0.378641 0.320014 0.195226
Si Si4 0.665706 0.314157 0.265841
Si Si5 0.650384 0.308820 0.499190
Si Si6 0.428652 0.307633 0.593833
Si Si7 0.760897 0.688419 0.936161
O O1 0.055979 0.500000 0.926545
O O2 0.069676 0.221455 0.876738
O O3 0.183168 0.283660 0.922659
O O4 0.000000 0.260624 0.000000
O O5 0.970668 0.500000 0.799920
O O6 0.882179 0.721486 0.769905
O O7 0.867951 0.712798 0.878413
O O8 0.039124 0.788394 0.783827
O O9 0.344617 0.500000 0.204566
O O10 0.283265 0.211188 0.230205
O O11 0.643533 0.500000 0.265871
O O12 0.621684 0.258158 0.335795
O O13 0.654353 0.500000 0.498964
O O14 0.750000 0.250000 0.500000
O O15 0.544583 0.260011 0.556638
O O16 0.633341 0.258154 0.441435
O O17 0.428655 0.500000 0.592429
O O18 0.739859 0.500000 0.939947
O O19 0.750000 0.750000 0.000000
#
# Coordination Sequence:
#
# PCOD9220952 Si02
#       7
#     8   8   8   8   8   8   8
#     4  11  23  39  60  86 116 150 193 247 308 368
#     4  11  24  42  61  86 118 156 200 250 305 365
#     4  12  25  41  61  87 118 158 202 248 305 366
#     4  11  22  40  64  89 121 162 206 253 306 362
#     4   9  17  35  60  88 124 160 200 246 292 348
#     4   8  18  36  59  86 120 163 201 240 297 358
#     4  11  23  38  59  85 116 150 194 247 307 368
#
# _framework density 19.819523
#
# number of rings (size 3 to 8) (size 9 to 14) (size 15 to 20)
#    0.000    1.571    1.429    4.714    0.000    7.429 
#    0.000    7.143    0.000    0.000    0.000    0.000 
#    0.000    0.000    0.000    0.000    0.000    0.000 
#
# Total GULP energy -156410.679093 kJ/mol
# GULP energy per Si atom -5586.095682 kJ/mol
# Density = 1.977441 g / cm^3
# Si number density = 19.819523 Si / 1000 Ang^3
#
#
#
# Elastic Constant Matrix: (Units=GPa)
#
#
# Indices 1 2 3 4 5 6 
#
# 1 111.2047 3.1482 33.8019 0.0000 4.3905 0.0000
# 2 3.1482 20.2708 14.9317 0.0000 1.6362 0.0000
# 3 33.8019 14.9317 114.9925 0.0000 7.3098 0.0000
# 4 0.0000 0.0000 0.0000 9.1839 0.0000 2.9409
# 5 4.3905 1.6362 7.3098 0.0000 15.4983 0.0000
# 6 0.0000 0.0000 0.0000 2.9409 0.0000 29.9855
#
#
#
# Elastic Compliance Matrix: (Units=1/GPa)
#
#
# Indices 1 2 3 4 5 6 
#
# 1 0.009917 0.000728 -0.002914 0.000000 -0.001512 0.000000
# 2 0.000728 0.054697 -0.007151 0.000000 -0.002608 0.000000
# 3 -0.002914 -0.007151 0.010702 0.000000 -0.003467 0.000000
# 4 0.000000 0.000000 0.000000 0.112417 0.000000 -0.011026
# 5 -0.001512 -0.002608 -0.003467 0.000000 0.066862 0.000000
# 6 0.000000 0.000000 0.000000 -0.011026 0.000000 0.034431
#
#
# Mechanical properties :
#
#
# Convention : Reuss Voigt Hill
#
# Bulk Modulus (GPa) = 17.65435 38.91463 28.28449
# Shear Modulus (GPa) = 15.31022 23.90593 19.60808
#
# Velocity S-wave (km/s) = 2.78237 3.47678 3.14878
# Velocity P-wave (km/s) = 4.38737 5.98285 5.24612
#
# Compressibility (1/GPa) = 0.05664326
#
# Stress axis : x y z
#
# Youngs Moduli (GPa) = 100.83580 18.28263 93.44447
#
# Poissons Ratio (x) = -0.01331 0.27225
# Poissons Ratio (y) = -0.07341 0.66818
# Poissons Ratio (z) = 0.29379 0.13073
#
# Static dielectric constant tensor:
#      x y z
#    x 1.692020 0.000000 0.001090 
#    y 0.000000 1.676700 0.000000 
#    z 0.001090 0.000000 1.706940 
# 
# From -- ./inp_files/338501.got.cif
#   From: 2010.05.17/outbox.cif.g08.bks.cpg/sg12_170_cif.got.tgz:338501.got - 2010.06.03 13:09:07.
