data_PCOD9220417
_publ_section_title
;
Structure prediction by ZEFSAII (Michael W. Deem and Ramdas Pophale) SiO2 
 PCOD9220417
Probable space group: C 2/M
;
_chemical_formula_sum "Si O2"
_cell_formula_units_Z 48
_cell_length_a 23.491823
_cell_length_b 8.021461
_cell_length_c 24.945977
_cell_angle_alpha 90.000000
_cell_angle_beta 145.071768
_cell_angle_gamma 90.000000
_cell_volume 2691.436125
_symmetry_space_group_name_H-M "C 2/M"
_symmetry_group_IT_number 12
_symmetry_cell_setting 'monoclinic'
loop_
_space_group_symop_operation_xyz
x,y,z
-x,y,-z
-x,-y,-z
x,-y,z
1/2+x,1/2+y,z
1/2-x,1/2+y,-z
1/2-x,1/2-y,-z
1/2+x,1/2-y,z
loop_
_atom_site_type_symbol
_atom_site_label
_atom_site_fract_x
_atom_site_fract_y
_atom_site_fract_z
Si Si1 0.334160 0.801090 0.021921
Si Si2 0.015286 0.800627 0.778899
Si Si3 0.128221 0.200744 0.548309
Si Si4 0.818903 0.204232 0.178993
Si Si5 0.403474 0.296291 0.356202
Si Si6 0.707031 0.698348 0.409445
O O1 0.435921 0.734669 0.125557
O O2 0.341349 0.000000 0.026119
O O3 0.250000 0.750000 0.000000
O O4 0.285895 0.743665 0.928497
O O5 0.091928 0.740346 0.792032
O O6 0.904312 0.733045 0.685912
O O7 0.012081 0.000000 0.770193
O O8 0.136539 0.257477 0.616549
O O9 0.216744 0.252634 0.578242
O O10 0.019501 0.254764 0.442995
O O11 0.125791 0.000000 0.547314
O O12 0.842834 0.260138 0.257493
O O13 0.819520 0.000000 0.179232
O O14 0.402359 0.500000 0.354925
O O15 0.699374 0.500000 0.403542
O O16 0.750000 0.750000 0.500000
#
# Coordination Sequence:
#
# PCOD9220417 Si02
#       6
#     8   8   8   8   8   8
#     4   9  16  26  43  67  94 122 153 191 233 275
#     4   9  18  31  46  65  92 124 154 189 233 277
#     4   9  17  30  49  71  93 122 158 190 226 276
#     4   8  13  24  44  68  90 114 149 190 227 265
#     4   8  14  27  48  70  93 122 155 190 228 276
#     4  11  22  34  49  69  95 125 155 190 233 282
#
# _framework density 17.834344999999999
#
# number of rings (size 3 to 8) (size 9 to 14) (size 15 to 20)
#    0.000    3.000    0.000    4.000    0.000    4.000 
#    0.000    1.667    0.000    7.000    0.000    7.000 
#    0.000    0.000    0.000    0.000    0.000    0.000 
#
# Total GULP energy -133671.727372 kJ/mol
# GULP energy per Si atom -5569.655307 kJ/mol
# Density = 1.779375 g / cm^3
# Si number density = 17.834345 Si / 1000 Ang^3
#
#
#
# Elastic Constant Matrix: (Units=GPa)
#
#
# Indices 1 2 3 4 5 6 
#
# 1 87.2495 4.3655 77.5245 0.0000 -6.4982 0.0000
# 2 4.3655 7.9380 2.4096 0.0000 1.0951 0.0001
# 3 77.5245 2.4096 184.5732 0.0000 -18.9875 0.0000
# 4 0.0000 0.0000 0.0000 19.6986 0.0000 2.0992
# 5 -6.4982 1.0951 -18.9875 0.0000 29.4617 0.0000
# 6 0.0000 0.0001 0.0000 2.0992 0.0000 19.8476
#
#
#
# Elastic Compliance Matrix: (Units=1/GPa)
#
#
# Indices 1 2 3 4 5 6 
#
# 1 0.018785 -0.007861 -0.007852 0.000000 -0.000625 0.000000
# 2 -0.007861 0.130825 0.000980 0.000000 -0.005965 0.000000
# 3 -0.007852 0.000980 0.009126 0.000000 0.004113 0.000000
# 4 0.000000 0.000000 0.000000 0.051344 0.000000 -0.005430
# 5 -0.000625 -0.005965 0.004113 0.000000 0.036677 0.000000
# 6 0.000000 0.000000 0.000000 -0.005430 0.000000 0.050958
#
#
# Mechanical properties :
#
#
# Convention : Reuss Voigt Hill
#
# Bulk Modulus (GPa) = 7.73569 49.81776 28.77672
# Shear Modulus (GPa) = 13.50366 26.83231 20.16799
#
# Velocity S-wave (km/s) = 2.75466 3.88304 3.36646
# Velocity P-wave (km/s) = 3.80322 6.93529 5.59297
#
# Compressibility (1/GPa) = 0.12927101
#
# Stress axis : x y z
#
# Youngs Moduli (GPa) = 53.23515 7.64380 109.57614
#
# Poissons Ratio (x) = 0.06009 0.86034
# Poissons Ratio (y) = 0.41848 -0.10741
# Poissons Ratio (z) = 0.41798 -0.00749
#
# Static dielectric constant tensor:
#      x y z
#    x 1.568570 0.000000 -0.004060 
#    y 0.000000 1.651590 0.000000 
#    z -0.004060 0.000000 1.647850 
# 
# From -- ./inp_files/345689.got.cif
#   From: 2010.05.17/outbox.cif.g08.bks.cpg/sg12_173_cif.got.tgz:345689.got - 2010.06.03 13:09:07.
