data_PCOD9220785
_publ_section_title
;
Structure prediction by ZEFSAII (Michael W. Deem and Ramdas Pophale) SiO2 
 PCOD9220785
Probable space group: C 2/M
;
_chemical_formula_sum "Si O2"
_cell_formula_units_Z 24
_cell_length_a 14.414643
_cell_length_b 14.988648
_cell_length_c 4.902479
_cell_angle_alpha 90.000000
_cell_angle_beta 86.280162
_cell_angle_gamma 90.000000
_cell_volume 1056.978524
_symmetry_space_group_name_H-M "C 2/M"
_symmetry_group_IT_number 12
_symmetry_cell_setting 'monoclinic'
loop_
_space_group_symop_operation_xyz
x,y,z
-x,y,-z
-x,-y,-z
x,-y,z
1/2+x,1/2+y,z
1/2-x,1/2+y,-z
1/2-x,1/2-y,-z
1/2+x,1/2-y,z
loop_
_atom_site_type_symbol
_atom_site_label
_atom_site_fract_x
_atom_site_fract_y
_atom_site_fract_z
Si Si1 0.700540 0.800831 0.763896
Si Si2 0.872028 0.000000 0.380322
Si Si3 0.760703 0.000000 0.886551
Si Si4 0.500000 0.751362 0.000000
Si Si5 0.000000 0.149437 0.500000
O O1 0.750000 0.750000 0.500000
O O2 0.588580 0.793181 0.823705
O O3 0.717875 0.907262 0.790346
O O4 0.750000 0.750000 0.000000
O O5 0.930569 0.910988 0.333808
O O6 0.858058 0.000000 0.708702
O O7 0.782854 0.000000 0.203562
O O8 0.451214 0.703348 0.750221
#
# Coordination Sequence:
#
# PCOD9220785 Si02
#       5
#     8   4   4   4   4
#     4  12  26  45  70  99 136 180 225 278 335 398
#     4  11  22  38  64  97 131 168 219 285 346 395
#     4  12  24  42  66  96 135 176 225 271 330 401
#     4  12  24  42  66  96 136 178 226 271 330 401
#     4  11  22  38  64  97 132 170 220 285 346 395
#
# _framework density 22.706233000000001
#
# number of rings (size 3 to 8) (size 9 to 14) (size 15 to 20)
#    0.000    0.333    0.000   12.000    0.000    3.333 
#    0.000    1.667    0.000    8.000    0.000    0.000 
#    0.000    0.000    0.000    0.000    0.000    0.000 
#
# Total GULP energy -66853.036917 kJ/mol
# GULP energy per Si atom -5571.086410 kJ/mol
# Density = 2.265455 g / cm^3
# Si number density = 22.706233 Si / 1000 Ang^3
#
#
#
# Elastic Constant Matrix: (Units=GPa)
#
#
# Indices 1 2 3 4 5 6 
#
# 1 121.0643 56.5371 36.0680 0.0000 -16.5864 0.0000
# 2 56.5371 164.1142 62.1753 0.0000 -1.2575 0.0000
# 3 36.0680 62.1753 169.9935 0.0000 2.3943 0.0000
# 4 0.0000 0.0000 0.0000 19.1651 0.0000 -5.4752
# 5 -16.5864 -1.2575 2.3943 0.0000 34.4487 0.0000
# 6 0.0000 0.0000 0.0000 -5.4752 0.0000 25.6641
#
#
#
# Elastic Compliance Matrix: (Units=1/GPa)
#
#
# Indices 1 2 3 4 5 6 
#
# 1 0.010839 -0.003245 -0.001186 0.000000 0.005183 0.000000
# 2 -0.003245 0.008052 -0.002241 0.000000 -0.001113 0.000000
# 3 -0.001186 -0.002241 0.006970 0.000000 -0.001137 0.000000
# 4 0.000000 0.000000 0.000000 0.055565 0.000000 0.011854
# 5 0.005183 -0.001113 -0.001137 0.000000 0.031562 0.000000
# 6 0.000000 0.000000 0.000000 0.011854 0.000000 0.041494
#
#
# Mechanical properties :
#
#
# Convention : Reuss Voigt Hill
#
# Bulk Modulus (GPa) = 79.89084 84.97031 82.43057
# Shear Modulus (GPa) = 29.07034 35.88168 32.47601
#
# Velocity S-wave (km/s) = 3.58198 3.97956 3.78599
# Velocity P-wave (km/s) = 7.23660 7.65628 7.44940
#
# Compressibility (1/GPa) = 0.01251708
#
# Stress axis : x y z
#
# Youngs Moduli (GPa) = 92.26091 124.19921 143.47738
#
# Poissons Ratio (x) = 0.40302 0.17014
# Poissons Ratio (y) = 0.29939 0.32149
# Poissons Ratio (z) = 0.10941 0.27829
#
# Static dielectric constant tensor:
#      x y z
#    x 2.015960 0.000000 0.006160 
#    y 0.000000 2.032450 0.000000 
#    z 0.006160 0.000000 1.811460 
# 
# From -- ./inp_files/9426.got.cif
#   From: 2010.05.17/outbox.cif.g08.bks.cpg/sg12_5_cif.got.tgz:9426.got - 2010.06.03 13:09:07.
