data_PCOD9220130
_publ_section_title
;
Structure prediction by ZEFSAII (Michael W. Deem and Ramdas Pophale) SiO2 
 PCOD9220130
Probable space group: C 2/M
;
_chemical_formula_sum "Si O2"
_cell_formula_units_Z 40
_cell_length_a 14.833088
_cell_length_b 28.773216
_cell_length_c 5.112406
_cell_angle_alpha 90.000000
_cell_angle_beta 120.288612
_cell_angle_gamma 90.000000
_cell_volume 1884.106947
_symmetry_space_group_name_H-M "C 2/M"
_symmetry_group_IT_number 12
_symmetry_cell_setting 'monoclinic'
loop_
_space_group_symop_operation_xyz
x,y,z
-x,y,-z
-x,-y,-z
x,-y,z
1/2+x,1/2+y,z
1/2-x,1/2+y,-z
1/2-x,1/2-y,-z
1/2+x,1/2-y,z
loop_
_atom_site_type_symbol
_atom_site_label
_atom_site_fract_x
_atom_site_fract_y
_atom_site_fract_z
Si Si1 0.565837 0.933678 0.340568
Si Si2 0.101883 0.326651 0.268262
Si Si3 0.734074 0.195113 0.961130
Si Si4 0.309477 0.553313 0.616535
Si Si5 0.117386 0.890059 0.779188
O O1 0.500000 0.945158 0.500000
O O2 0.569654 0.878063 0.309929
O O3 0.686772 0.947706 0.515549
O O4 0.500000 0.951382 0.000000
O O5 0.156280 0.307977 0.603749
O O6 0.181899 0.324612 0.147417
O O7 0.000000 0.302013 0.000000
O O8 0.750000 0.250000 0.000000
O O9 0.831849 0.159966 0.072842
O O10 0.344508 0.500000 0.628707
O O11 0.322736 0.583022 0.369666
O O12 0.370546 0.578400 0.943128
O O13 0.000000 0.884881 0.500000
#
# Coordination Sequence:
#
# PCOD9220130 Si02
#       5
#     8   8   8   8   8
#     4  11  21  38  68  98 133 176 216 270 346 409
#     4  11  22  40  68  98 133 173 218 271 338 416
#     4  12  24  44  69 102 135 176 225 280 348 418
#     4  12  26  45  70 101 138 183 237 288 344 415
#     4  12  26  47  69  97 140 183 233 293 345 399
#
# _framework density 21.230215999999999
#
# number of rings (size 3 to 8) (size 9 to 14) (size 15 to 20)
#    0.000    0.400    4.000    6.000    0.000    4.800 
#    0.000    0.000    0.000    0.000    0.000    0.000 
#    0.000    0.000    0.000    0.000    0.000    0.000 
#
# Total GULP energy -111757.326063 kJ/mol
# GULP energy per Si atom -5587.866303 kJ/mol
# Density = 2.118189 g / cm^3
# Si number density = 21.230216 Si / 1000 Ang^3
#
#
#
# Elastic Constant Matrix: (Units=GPa)
#
#
# Indices 1 2 3 4 5 6 
#
# 1 82.2614 19.2091 33.1863 0.0000 -8.7227 0.0000
# 2 19.2091 176.2547 63.4107 0.0000 -3.7549 0.0000
# 3 33.1863 63.4107 200.9291 0.0000 0.1233 0.0000
# 4 0.0000 0.0000 0.0000 -13.6274 0.0000 -22.1593
# 5 -8.7227 -3.7549 0.1233 0.0000 54.6993 0.0000
# 6 0.0000 0.0000 0.0000 -22.1593 0.0000 14.4126
#
#
#
# Elastic Compliance Matrix: (Units=1/GPa)
#
#
# Indices 1 2 3 4 5 6 
#
# 1 0.013341 -0.000695 -0.001985 0.000000 0.002084 0.000000
# 2 -0.000695 0.006447 -0.001920 0.000000 0.000336 0.000000
# 3 -0.001985 -0.001920 0.005911 0.000000 -0.000462 0.000000
# 4 0.000000 0.000000 0.000000 -0.020966 0.000000 -0.032235
# 5 0.002084 0.000336 -0.000462 0.000000 0.018638 0.000000
# 6 0.000000 0.000000 0.000000 -0.032235 0.000000 0.019823
#
#
# Mechanical properties :
#
#
# Convention : Reuss Voigt Hill
#
# Bulk Modulus (GPa) = 60.61439 76.78415 68.69927
# Shear Modulus (GPa) = 86.36265 34.00617 60.18441
#
# Velocity S-wave (km/s) = 6.38494 4.00657 5.33010
# Velocity P-wave (km/s) = 9.10876 7.59272 8.38507
#
# Compressibility (1/GPa) = 0.01649773
#
# Stress axis : x y z
#
# Youngs Moduli (GPa) = 74.95901 155.10324 169.17606
#
# Poissons Ratio (x) = 0.10784 0.33586
# Poissons Ratio (y) = 0.05212 0.32483
# Poissons Ratio (z) = 0.14881 0.29781
#
# Static dielectric constant tensor:
#      x y z
#    x 1.783990 0.000000 0.030290 
#    y 0.000000 1.774020 0.000000 
#    z 0.030290 0.000000 1.784390 
# 
# From -- ./inp_files/13016.got.cif
#   From: 2010.05.17/outbox.cif.g08.bks.cpg/sg12_7_cif.got.tgz:13016.got - 2010.06.03 13:09:07.
