data_PCOD9220395
_publ_section_title
;
Structure prediction by ZEFSAII (Michael W. Deem and Ramdas Pophale) SiO2 
 PCOD9220395
Probable space group: C 2/M
;
_chemical_formula_sum "Si O2"
_cell_formula_units_Z 64
_cell_length_a 14.164652
_cell_length_b 35.606849
_cell_length_c 7.464123
_cell_angle_alpha 90.000000
_cell_angle_beta 47.023454
_cell_angle_gamma 90.000000
_cell_volume 2754.301104
_symmetry_space_group_name_H-M "C 2/M"
_symmetry_group_IT_number 12
_symmetry_cell_setting 'monoclinic'
loop_
_space_group_symop_operation_xyz
x,y,z
-x,y,-z
-x,-y,-z
x,-y,z
1/2+x,1/2+y,z
1/2-x,1/2+y,-z
1/2-x,1/2-y,-z
1/2+x,1/2-y,z
loop_
_atom_site_type_symbol
_atom_site_label
_atom_site_fract_x
_atom_site_fract_y
_atom_site_fract_z
Si Si1 0.979574 0.900796 0.226193
Si Si2 0.020869 0.817404 0.674658
Si Si3 0.215856 0.684650 0.472201
Si Si4 0.519760 0.762714 0.182323
Si Si5 0.250409 0.092158 0.974779
Si Si6 0.637485 0.168552 0.210878
Si Si7 0.521784 0.042786 0.254671
Si Si8 0.805245 0.600023 0.471291
O O1 0.001295 0.855765 0.189451
O O2 0.828643 0.906945 0.460663
O O3 0.098390 0.913679 0.194087
O O4 0.000000 0.916768 0.000000
O O5 0.164218 0.806725 0.557978
O O6 0.949085 0.777502 0.777166
O O7 0.000000 0.830278 0.500000
O O8 0.116051 0.718527 0.588287
O O9 0.242777 0.677317 0.227885
O O10 0.159858 0.643913 0.606463
O O11 0.617341 0.795636 0.111660
O O12 0.500000 0.756654 0.000000
O O13 0.312572 0.131853 0.955521
O O14 0.335693 0.059526 0.947855
O O15 0.274116 0.095388 0.726300
O O16 0.500000 0.161876 0.500000
O O17 0.500000 0.043742 0.500000
O O18 0.419390 0.070725 0.295712
O O19 0.507613 0.000000 0.214423
#
# Coordination Sequence:
#
# PCOD9220395 Si02
#       8
#     8   8   8   8   8   8   8   8
#     4   9  18  32  50  70  95 130 172 214 255 295
#     4  11  22  36  50  68  99 134 171 211 260 314
#     4   9  18  35  53  66  91 135 176 209 256 310
#     4  11  22  33  48  74 101 126 168 220 265 302
#     4   9  15  27  47  71  97 128 168 210 250 293
#     4   9  17  32  52  69  93 133 175 210 258 311
#     4   9  15  24  43  74 108 137 162 192 241 306
#     4   8  15  29  48  67  94 135 172 202 243 304
#
# _framework density 23.236386
#
# number of rings (size 3 to 8) (size 9 to 14) (size 15 to 20)
#    0.000    2.625    0.000    5.250    0.000    1.000 
#    0.000    2.500    0.000    3.750    0.000    0.000 
#    0.000   40.500    0.000    0.000    0.000    0.000 
#
# Total GULP energy -178541.935557 kJ/mol
# GULP energy per Si atom -5579.435486 kJ/mol
# Density = 2.318350 g / cm^3
# Si number density = 23.236386 Si / 1000 Ang^3
#
#
#
# Elastic Constant Matrix: (Units=GPa)
#
#
# Indices 1 2 3 4 5 6 
#
# 1 123.1125 33.7182 28.9906 0.0000 -28.4565 0.0000
# 2 33.7182 110.3334 22.4190 0.0000 -31.0491 0.0000
# 3 28.9906 22.4190 32.2765 0.0000 -13.1266 0.0000
# 4 0.0000 0.0000 0.0000 15.3127 0.0000 -9.2523
# 5 -28.4565 -31.0491 -13.1266 0.0000 48.4965 0.0000
# 6 0.0000 0.0000 0.0000 -9.2523 0.0000 18.3762
#
#
#
# Elastic Compliance Matrix: (Units=1/GPa)
#
#
# Indices 1 2 3 4 5 6 
#
# 1 0.011071 -0.000677 -0.007875 0.000000 0.003931 0.000000
# 2 -0.000677 0.012001 -0.005354 0.000000 0.005837 0.000000
# 3 -0.007875 -0.005354 0.043264 0.000000 0.003662 0.000000
# 4 0.000000 0.000000 0.000000 0.093860 0.000000 0.047258
# 5 0.003931 0.005837 0.003662 0.000000 0.027655 0.000000
# 6 0.000000 0.000000 0.000000 0.047258 0.000000 0.078213
#
#
# Mechanical properties :
#
#
# Convention : Reuss Voigt Hill
#
# Bulk Modulus (GPa) = 25.95787 48.44200 37.19993
# Shear Modulus (GPa) = 16.30173 28.47671 22.38922
#
# Velocity S-wave (km/s) = 2.65157 3.50454 3.10746
# Velocity P-wave (km/s) = 4.53541 6.10479 5.37766
#
# Compressibility (1/GPa) = 0.03852396
#
# Stress axis : x y z
#
# Youngs Moduli (GPa) = 90.32480 83.32814 23.11417
#
# Poissons Ratio (x) = 0.05640 0.18202
# Poissons Ratio (y) = 0.06114 0.12375
# Poissons Ratio (z) = 0.71131 0.44612
#
# Static dielectric constant tensor:
#      x y z
#    x 1.949600 0.000000 0.101600 
#    y 0.000000 1.856330 0.000000 
#    z 0.101600 0.000000 2.263750 
# 
# From -- ./inp_files/68577.got.cif
#   From: 2010.05.17/outbox.cif.g08.bks.cpg/sg12_35_cif.got.tgz:68577.got - 2010.06.03 13:09:07.
