data_PCOD9220035
_publ_section_title
;
Structure prediction by ZEFSAII (Michael W. Deem and Ramdas Pophale) SiO2 
 PCOD9220035
Probable space group: C 2/M
;
_chemical_formula_sum "Si O2"
_cell_formula_units_Z 48
_cell_length_a 7.959661
_cell_length_b 21.666820
_cell_length_c 18.236976
_cell_angle_alpha 90.000000
_cell_angle_beta 41.017978
_cell_angle_gamma 90.000000
_cell_volume 2064.154508
_symmetry_space_group_name_H-M "C 2/M"
_symmetry_group_IT_number 12
_symmetry_cell_setting 'monoclinic'
loop_
_space_group_symop_operation_xyz
x,y,z
-x,y,-z
-x,-y,-z
x,-y,z
1/2+x,1/2+y,z
1/2-x,1/2+y,-z
1/2-x,1/2-y,-z
1/2+x,1/2-y,z
loop_
_atom_site_type_symbol
_atom_site_label
_atom_site_fract_x
_atom_site_fract_y
_atom_site_fract_z
Si Si1 0.195482 0.828193 0.592362
Si Si2 0.110633 0.927304 0.381553
Si Si3 0.844068 0.632164 0.777474
Si Si4 0.135970 0.307190 0.082756
Si Si5 0.815905 0.741918 0.688183
Si Si6 0.863564 0.931005 0.964241
O O1 0.500000 0.834539 0.500000
O O2 0.140124 0.786638 0.682301
O O3 0.063583 0.893264 0.621306
O O4 0.037730 0.786521 0.585455
O O5 0.404619 0.904455 0.281249
O O6 0.000000 0.915066 0.500000
O O7 0.105689 0.000000 0.371687
O O8 0.743853 0.674883 0.877570
O O9 0.920496 0.679646 0.690014
O O10 0.605904 0.589104 0.834608
O O11 0.861087 0.283223 0.200710
O O12 0.250000 0.250000 0.000000
O O13 0.167646 0.372984 0.030355
O O14 0.764920 0.000000 0.980343
O O15 0.000000 0.935332 0.000000
#
# Coordination Sequence:
#
# PCOD9220035 Si02
#       6
#     8   8   8   8   8   8
#     4  12  25  43  67  97 134 171 216 281 341 407
#     4  11  25  47  71  97 131 176 226 276 339 414
#     4  11  21  40  67 101 131 176 226 279 339 400
#     4  11  21  37  64  98 141 176 225 285 337 399
#     4  12  23  40  66 101 135 172 220 276 350 404
#     4   9  19  34  58  92 125 169 224 273 320 387
#
# _framework density 23.254073000000002
#
# number of rings (size 3 to 8) (size 9 to 14) (size 15 to 20)
#    0.000    1.000    5.000    2.000    0.000    2.333 
#    0.000    1.667    0.000    0.000    0.000    3.500 
#    0.000    0.000    0.000    0.000    0.000    0.000 
#
# Total GULP energy -133790.605907 kJ/mol
# GULP energy per Si atom -5574.608579 kJ/mol
# Density = 2.320115 g / cm^3
# Si number density = 23.254073 Si / 1000 Ang^3
#
#
#
# Elastic Constant Matrix: (Units=GPa)
#
#
# Indices 1 2 3 4 5 6 
#
# 1 74.5978 60.1128 25.5357 0.0000 -19.3277 0.0000
# 2 60.1128 215.3099 65.0753 0.0000 -17.6016 0.0000
# 3 25.5357 65.0753 103.5569 -0.0001 -28.1715 -0.0004
# 4 0.0000 0.0000 -0.0001 27.3562 0.0001 -10.3172
# 5 -19.3277 -17.6016 -28.1715 0.0001 29.0737 0.0002
# 6 0.0000 0.0000 -0.0004 -10.3172 0.0002 32.6630
#
#
#
# Elastic Compliance Matrix: (Units=1/GPa)
#
#
# Indices 1 2 3 4 5 6 
#
# 1 0.020009 -0.005062 0.001401 0.000000 0.011595 0.000000
# 2 -0.005062 0.007014 -0.003965 0.000000 -0.002960 0.000000
# 3 0.001401 -0.003965 0.015485 0.000000 0.013535 0.000000
# 4 0.000000 0.000000 0.000000 0.041498 0.000000 0.013108
# 5 0.011595 -0.002960 0.013535 0.000000 0.053426 0.000000
# 6 0.000000 0.000000 0.000000 0.013108 0.000000 0.034756
#
#
# Mechanical properties :
#
#
# Convention : Reuss Voigt Hill
#
# Bulk Modulus (GPa) = 36.68866 77.21245 56.95055
# Shear Modulus (GPa) = 25.44216 34.00130 29.72173
#
# Velocity S-wave (km/s) = 3.31130 3.82798 3.57897
# Velocity P-wave (km/s) = 5.51644 7.26731 6.45155
#
# Compressibility (1/GPa) = 0.02725638
#
# Stress axis : x y z
#
# Youngs Moduli (GPa) = 49.97836 142.57193 64.58043
#
# Poissons Ratio (x) = 0.72168 -0.09049
# Poissons Ratio (y) = 0.25299 0.25605
# Poissons Ratio (z) = -0.07003 0.56526
#
# Static dielectric constant tensor:
#      x y z
#    x 2.004040 0.000000 0.026400 
#    y 0.000000 1.883730 0.000000 
#    z 0.026400 0.000000 2.030440 
# 
# From -- ./inp_files/301582.got.cif
#   From: 2010.05.17/outbox.cif.g08.bks.cpg/sg12_151_cif.got.tgz:301582.got - 2010.06.03 13:09:07.
