data_PCOD9220550
_publ_section_title
;
Structure prediction by ZEFSAII (Michael W. Deem and Ramdas Pophale) SiO2 
 PCOD9220550
Probable space group: C 2/M
;
_chemical_formula_sum "Si O2"
_cell_formula_units_Z 56
_cell_length_a 9.311305
_cell_length_b 16.825372
_cell_length_c 25.234966
_cell_angle_alpha 90.000000
_cell_angle_beta 137.308353
_cell_angle_gamma 90.000000
_cell_volume 2680.657240
_symmetry_space_group_name_H-M "C 2/M"
_symmetry_group_IT_number 12
_symmetry_cell_setting 'monoclinic'
loop_
_space_group_symop_operation_xyz
x,y,z
-x,y,-z
-x,-y,-z
x,-y,z
1/2+x,1/2+y,z
1/2-x,1/2+y,-z
1/2-x,1/2-y,-z
1/2+x,1/2-y,z
loop_
_atom_site_type_symbol
_atom_site_label
_atom_site_fract_x
_atom_site_fract_y
_atom_site_fract_z
Si Si1 0.242135 0.409370 0.577682
Si Si2 0.321194 0.664995 0.996166
Si Si3 0.017645 0.322783 0.829031
Si Si4 0.835760 0.376922 0.327136
Si Si5 0.374474 0.347577 0.835319
Si Si6 0.640653 0.687279 0.660257
Si Si7 0.775770 0.914067 0.410616
O O1 0.272743 0.500000 0.567410
O O2 0.276840 0.405083 0.650328
O O3 0.408761 0.349675 0.597637
O O4 0.000000 0.386148 0.500000
O O5 0.123936 0.633217 0.908084
O O6 0.500000 0.679292 0.000000
O O7 0.250000 0.750000 0.000000
O O8 0.438827 0.619127 0.075840
O O9 0.974475 0.232229 0.836403
O O10 0.788322 0.349310 0.746440
O O11 0.181432 0.326681 0.823721
O O12 0.720404 0.395746 0.240087
O O13 0.856175 0.281481 0.334884
O O14 0.072603 0.411159 0.392728
O O15 0.747741 0.658823 0.635259
O O16 0.000000 0.908024 0.500000
O O17 0.771855 0.000000 0.381272
#
# Coordination Sequence:
#
# PCOD9220550 Si02
#       7
#     8   8   8   8   8   8   8
#     4  11  25  43  59  78 109 150 190 227 277 341
#     4   8  14  26  44  72 111 148 176 212 268 326
#     4   9  17  29  49  79 114 146 179 223 274 324
#     4  11  22  36  58  86 113 140 182 232 280 325
#     4   9  17  29  49  79 114 146 179 223 274 324
#     4  11  22  36  58  86 113 140 182 232 280 325
#     4  11  23  39  57  78 107 144 184 227 275 333
#
# _framework density 20.890401000000001
#
# number of rings (size 3 to 8) (size 9 to 14) (size 15 to 20)
#    0.000    2.000    1.429    2.571    6.000    5.714 
#    0.000    0.000    0.000    0.000    0.000    6.000 
#    0.000    0.000    0.000    0.000    0.000    0.000 
#
# Total GULP energy -156075.462104 kJ/mol
# GULP energy per Si atom -5574.123647 kJ/mol
# Density = 2.084285 g / cm^3
# Si number density = 20.890401 Si / 1000 Ang^3
#
#
#
# Elastic Constant Matrix: (Units=GPa)
#
#
# Indices 1 2 3 4 5 6 
#
# 1 44.0310 4.7782 -8.5712 0.0000 -9.2991 0.0000
# 2 4.7782 48.4978 24.0212 0.0000 4.6008 0.0000
# 3 -8.5712 24.0212 96.4623 0.0000 -4.1761 0.0000
# 4 0.0000 0.0000 0.0000 -41.9180 0.0000 -54.4805
# 5 -9.2991 4.6008 -4.1761 0.0000 31.3339 0.0000
# 6 0.0000 0.0000 0.0000 -54.4805 0.0000 -62.4717
#
#
#
# Elastic Compliance Matrix: (Units=1/GPa)
#
#
# Indices 1 2 3 4 5 6 
#
# 1 0.026002 -0.005429 0.004054 0.000000 0.009054 0.000000
# 2 -0.005429 0.025233 -0.007037 0.000000 -0.006254 0.000000
# 3 0.004054 -0.007037 0.012649 0.000000 0.003922 0.000000
# 4 0.000000 0.000000 0.000000 0.178777 0.000000 -0.155909
# 5 0.009054 -0.006254 0.003922 0.000000 0.036042 0.000000
# 6 0.000000 0.000000 0.000000 -0.155909 0.000000 0.119958
#
#
# Mechanical properties :
#
#
# Convention : Reuss Voigt Hill
#
# Bulk Modulus (GPa) = 21.24884 25.49416 23.37150
# Shear Modulus (GPa) = 11.59631 -3.36031 4.11800
#
# Velocity S-wave (km/s) = 2.35862 -1.26966 1.40553
# Velocity P-wave (km/s) = 4.19656 3.17504 3.72102
#
# Compressibility (1/GPa) = 0.04706138
#
# Stress axis : x y z
#
# Youngs Moduli (GPa) = 38.45886 39.63073 79.05709
#
# Poissons Ratio (x) = 0.21515 -0.32052
# Poissons Ratio (y) = 0.20879 0.55630
# Poissons Ratio (z) = -0.15592 0.27887
#
# Static dielectric constant tensor:
#      x y z
#    x 1.749990 0.000000 -0.028650 
#    y 0.000000 1.716500 0.000000 
#    z -0.028650 0.000000 1.836880 
# 
# From -- ./inp_files/356724.got.cif
#   From: 2010.05.17/outbox.cif.g08.bks.cpg/sg12_179_cif.got.tgz:356724.got - 2010.06.03 13:09:07.
