data_PCOD9220828
_publ_section_title
;
Structure prediction by ZEFSAII (Michael W. Deem and Ramdas Pophale) SiO2 
 PCOD9220828
Probable space group: C 2/M
;
_chemical_formula_sum "Si O2"
_cell_formula_units_Z 48
_cell_length_a 14.867774
_cell_length_b 8.425283
_cell_length_c 18.852025
_cell_angle_alpha 90.000000
_cell_angle_beta 96.564198
_cell_angle_gamma 90.000000
_cell_volume 2346.021661
_symmetry_space_group_name_H-M "C 2/M"
_symmetry_group_IT_number 12
_symmetry_cell_setting 'monoclinic'
loop_
_space_group_symop_operation_xyz
x,y,z
-x,y,-z
-x,-y,-z
x,-y,z
1/2+x,1/2+y,z
1/2-x,1/2+y,-z
1/2-x,1/2-y,-z
1/2+x,1/2-y,z
loop_
_atom_site_type_symbol
_atom_site_label
_atom_site_fract_x
_atom_site_fract_y
_atom_site_fract_z
Si Si1 0.644087 0.813246 0.364462
Si Si2 0.894997 0.306817 0.485353
Si Si3 0.681306 0.812230 0.673444
Si Si4 0.017334 0.184655 0.732689
Si Si5 0.485239 0.807691 0.885635
Si Si6 0.148846 0.690873 0.004615
O O1 0.651737 0.751903 0.446017
O O2 0.713002 0.726408 0.318435
O O3 0.542739 0.784104 0.328224
O O4 0.663575 0.000000 0.365268
O O5 0.891654 0.500000 0.485685
O O6 0.853167 0.254385 0.407299
O O7 0.000000 0.260372 0.500000
O O8 0.621641 0.726754 0.727021
O O9 0.666605 0.000000 0.677739
O O10 0.988699 0.232732 0.808826
O O11 0.001354 0.000000 0.718603
O O12 0.398914 0.759347 0.925747
O O13 0.483981 0.000000 0.879211
O O14 0.576287 0.763272 0.937298
O O15 0.151105 0.500000 0.005475
O O16 0.250000 0.750000 0.000000
#
# Coordination Sequence:
#
# PCOD9220828 Si02
#       6
#     8   8   8   8   8   8
#     4  11  22  39  61  85 116 153 196 247 300 355
#     4   9  17  34  60  85 110 148 194 243 302 355
#     4  11  22  39  61  85 116 153 196 247 300 355
#     4  12  25  40  58  86 120 158 201 242 290 348
#     4   9  20  40  61  85 119 158 190 229 286 344
#     4   9  19  37  64  92 118 149 189 231 281 340
#
# _framework density 20.460169
#
# number of rings (size 3 to 8) (size 9 to 14) (size 15 to 20)
#    0.000    1.833    1.667    4.000    0.000    2.667 
#    0.000    8.333    0.000    0.000    0.000    0.000 
#    0.000    0.000    0.000    0.000    0.000    0.000 
#
# Total GULP energy -134070.049375 kJ/mol
# GULP energy per Si atom -5586.252057 kJ/mol
# Density = 2.041360 g / cm^3
# Si number density = 20.460169 Si / 1000 Ang^3
#
#
#
# Elastic Constant Matrix: (Units=GPa)
#
#
# Indices 1 2 3 4 5 6 
#
# 1 103.7289 4.7516 14.5679 0.0000 -26.6939 0.0000
# 2 4.7516 32.1543 14.4771 0.0000 -5.1706 0.0000
# 3 14.5679 14.4771 81.2469 0.0000 -24.7450 0.0000
# 4 0.0000 0.0000 0.0000 17.6923 0.0000 -1.7366
# 5 -26.6939 -5.1706 -24.7450 0.0000 22.8208 0.0000
# 6 0.0000 0.0000 0.0000 -1.7366 0.0000 32.9694
#
#
#
# Elastic Compliance Matrix: (Units=1/GPa)
#
#
# Indices 1 2 3 4 5 6 
#
# 1 0.014563 -0.000516 0.003932 0.000000 0.021180 0.000000
# 2 -0.000516 0.033874 -0.005658 0.000000 0.000936 0.000000
# 3 0.003932 -0.005658 0.020338 0.000000 0.025370 0.000000
# 4 0.000000 0.000000 0.000000 0.056815 0.000000 0.002993
# 5 0.021180 0.000936 0.025370 0.000000 0.096315 0.000000
# 6 0.000000 0.000000 0.000000 0.002993 0.000000 0.030489
#
#
# Mechanical properties :
#
#
# Convention : Reuss Voigt Hill
#
# Bulk Modulus (GPa) = 15.55473 31.63592 23.59532
# Shear Modulus (GPa) = 17.96554 26.91874 22.44214
#
# Velocity S-wave (km/s) = 2.96645 3.63115 3.31550
# Velocity P-wave (km/s) = 4.39909 5.75118 5.11996
#
# Compressibility (1/GPa) = 0.06428914
#
# Stress axis : x y z
#
# Youngs Moduli (GPa) = 68.66910 29.52083 49.16846
#
# Poissons Ratio (x) = 0.01524 -0.19331
# Poissons Ratio (y) = 0.03545 0.27822
# Poissons Ratio (z) = -0.26998 0.16704
#
# Static dielectric constant tensor:
#      x y z
#    x 1.729630 0.000000 -0.006280 
#    y 0.000000 1.688430 0.000000 
#    z -0.006280 0.000000 1.721510 
# 
# From -- ./inp_files/267687.got.cif
#   From: 2010.05.17/outbox.cif.g08.bks.cpg/sg12_134_cif.got.tgz:267687.got - 2010.06.03 13:09:07.
