data_PCOD9220677
_publ_section_title
;
Structure prediction by ZEFSAII (Michael W. Deem and Ramdas Pophale) SiO2 
 PCOD9220677
Probable space group: C 2/M
;
_chemical_formula_sum "Si O2"
_cell_formula_units_Z 36
_cell_length_a 13.478817
_cell_length_b 21.098854
_cell_length_c 8.201510
_cell_angle_alpha 90.000000
_cell_angle_beta 42.648890
_cell_angle_gamma 90.000000
_cell_volume 1580.215133
_symmetry_space_group_name_H-M "C 2/M"
_symmetry_group_IT_number 12
_symmetry_cell_setting 'monoclinic'
loop_
_space_group_symop_operation_xyz
x,y,z
-x,y,-z
-x,-y,-z
x,-y,z
1/2+x,1/2+y,z
1/2-x,1/2+y,-z
1/2-x,1/2-y,-z
1/2+x,1/2-y,z
loop_
_atom_site_type_symbol
_atom_site_label
_atom_site_fract_x
_atom_site_fract_y
_atom_site_fract_z
Si Si1 0.612204 0.000000 0.513417
Si Si2 0.039771 0.000000 0.141515
Si Si3 0.360943 0.127396 0.047016
Si Si4 0.739281 0.110208 0.172333
Si Si5 0.178045 0.243278 0.768942
Si Si6 0.768674 0.500000 0.307534
O O1 0.500000 0.000000 0.500000
O O2 0.693968 0.934591 0.376603
O O3 0.596049 0.000000 0.725216
O O4 0.131571 0.065161 0.057792
O O5 0.888172 0.000000 0.417792
O O6 0.000000 0.000000 0.000000
O O7 0.278198 0.193159 0.184985
O O8 0.278927 0.064144 0.196811
O O9 0.500000 0.129726 0.000000
O O10 0.378654 0.120259 0.830627
O O11 0.774126 0.178475 0.202585
O O12 0.250000 0.250000 0.500000
O O13 0.000000 0.240797 0.000000
#
# Coordination Sequence:
#
# PCOD9220677 Si02
#       6
#     4   4   8   8   8   4
#     4  11  22  37  68 100 132 183 235 300 357 425
#     4  11  23  41  68 102 138 181 236 306 357 438
#     4  11  25  44  65 101 141 188 238 298 356 435
#     4  11  23  43  68 101 140 185 241 290 371 428
#     4  11  26  47  73 103 146 190 241 302 366 439
#     4  12  22  41  70  98 142 183 237 294 370 422
#
# _framework density 22.781707000000001
#
# number of rings (size 3 to 8) (size 9 to 14) (size 15 to 20)
#    0.000    0.889    2.222    5.667    3.111    3.556 
#    0.000    4.444    0.000    0.000    0.000    0.000 
#    0.000    0.000    0.000    0.000    0.000    0.000 
#
# Total GULP energy -100419.038764 kJ/mol
# GULP energy per Si atom -5578.835487 kJ/mol
# Density = 2.272986 g / cm^3
# Si number density = 22.781707 Si / 1000 Ang^3
#
#
#
# Elastic Constant Matrix: (Units=GPa)
#
#
# Indices 1 2 3 4 5 6 
#
# 1 128.7559 52.3609 34.5905 0.0000 24.7573 0.0000
# 2 52.3609 250.7485 57.8551 0.0000 15.0096 0.0000
# 3 34.5905 57.8551 104.6095 0.0000 12.1164 0.0000
# 4 0.0000 0.0000 0.0000 -5.2078 0.0000 -44.0957
# 5 24.7573 15.0096 12.1164 0.0000 35.3483 0.0000
# 6 0.0000 0.0000 0.0000 -44.0957 0.0000 -101.8591
#
#
#
# Elastic Compliance Matrix: (Units=1/GPa)
#
#
# Indices 1 2 3 4 5 6 
#
# 1 0.009903 -0.001286 -0.001898 0.000000 -0.005739 0.000000
# 2 -0.001286 0.004781 -0.002175 0.000000 -0.000384 0.000000
# 3 -0.001898 -0.002175 0.011589 0.000000 -0.001719 0.000000
# 4 0.000000 0.000000 0.000000 0.072038 0.000000 -0.031186
# 5 -0.005739 -0.000384 -0.001719 0.000000 0.033062 0.000000
# 6 0.000000 0.000000 0.000000 -0.031186 0.000000 0.003683
#
#
# Mechanical properties :
#
#
# Convention : Reuss Voigt Hill
#
# Bulk Modulus (GPa) = 64.28902 85.96966 75.12934
# Shear Modulus (GPa) = 33.12134 8.27676 20.69905
#
# Velocity S-wave (km/s) = 3.81708 1.90813 3.01754
# Velocity P-wave (km/s) = 6.90707 6.53244 6.72237
#
# Compressibility (1/GPa) = 0.01555476
#
# Stress axis : x y z
#
# Youngs Moduli (GPa) = 100.97610 209.14358 86.28939
#
# Poissons Ratio (x) = 0.26905 0.16382
# Poissons Ratio (y) = 0.12990 0.18764
# Poissons Ratio (z) = 0.19170 0.45479
#
# Static dielectric constant tensor:
#      x y z
#    x 1.920480 0.000000 -0.096430 
#    y 0.000000 1.849080 0.000000 
#    z -0.096430 0.000000 1.911860 
# 
# From -- ./inp_files/64015.got.cif
#   From: 2010.05.17/outbox.cif.g08.bks.cpg/sg12_33_cif.got.tgz:64015.got - 2010.06.03 13:09:07.
