data_PCOD9220628
_publ_section_title
;
Structure prediction by ZEFSAII (Michael W. Deem and Ramdas Pophale) SiO2 
 PCOD9220628
Probable space group: C 2/M
;
_chemical_formula_sum "Si O2"
_cell_formula_units_Z 56
_cell_length_a 16.030894
_cell_length_b 8.499327
_cell_length_c 20.962716
_cell_angle_alpha 90.000000
_cell_angle_beta 78.883043
_cell_angle_gamma 90.000000
_cell_volume 2802.613096
_symmetry_space_group_name_H-M "C 2/M"
_symmetry_group_IT_number 12
_symmetry_cell_setting 'monoclinic'
loop_
_space_group_symop_operation_xyz
x,y,z
-x,y,-z
-x,-y,-z
x,-y,z
1/2+x,1/2+y,z
1/2-x,1/2+y,-z
1/2-x,1/2-y,-z
1/2+x,1/2-y,z
loop_
_atom_site_type_symbol
_atom_site_label
_atom_site_fract_x
_atom_site_fract_y
_atom_site_fract_z
Si Si1 0.375896 0.311984 0.344955
Si Si2 0.026255 0.309397 0.790010
Si Si3 0.506453 0.818105 0.068918
Si Si4 0.199173 0.811986 0.343811
Si Si5 0.792466 0.678737 0.931627
Si Si6 0.330144 0.809334 0.791010
Si Si7 0.482420 0.307836 0.574829
O O1 0.374645 0.500000 0.346063
O O2 0.409344 0.255671 0.271209
O O3 0.281261 0.249296 0.368807
O O4 0.443532 0.256123 0.387848
O O5 0.030292 0.500000 0.790519
O O6 0.038267 0.251468 0.861219
O O7 0.930174 0.266259 0.782473
O O8 0.606070 0.822807 0.071634
O O9 0.475911 0.000000 0.066922
O O10 0.500000 0.742483 0.000000
O O11 0.204137 0.754528 0.270097
O O12 0.109720 0.756058 0.386386
O O13 0.199417 0.000000 0.344400
O O14 0.761792 0.500000 0.932394
O O15 0.782997 0.750279 0.862180
O O16 0.750000 0.750000 0.000000
O O17 0.326065 0.000000 0.791891
O O18 0.500000 0.257387 0.500000
O O19 0.482255 0.500000 0.575481
#
# Coordination Sequence:
#
# PCOD9220628 Si02
#       7
#     8   8   8   8   8   8   8
#     4  11  22  37  59  88 119 152 189 235 290 342
#     4   9  17  32  55  79 107 146 190 237 283 337
#     4   8  15  29  49  72 100 137 181 225 274 328
#     4  11  22  37  60  89 115 149 198 239 281 345
#     4   9  18  31  48  73 105 144 184 229 282 335
#     4   9  18  34  54  76 110 151 192 241 293 338
#     4   9  20  40  63  86 118 156 190 233 288 344
#
# _framework density 19.981352000000001
#
# number of rings (size 3 to 8) (size 9 to 14) (size 15 to 20)
#    0.000    2.571    1.429    2.571    0.000    2.286 
#    0.000    3.571    0.000    6.857    0.000    0.000 
#    0.000    0.000    0.000    0.000    0.000    0.000 
#
# Total GULP energy -156156.451156 kJ/mol
# GULP energy per Si atom -5577.016113 kJ/mol
# Density = 1.993587 g / cm^3
# Si number density = 19.981352 Si / 1000 Ang^3
#
#
#
# Elastic Constant Matrix: (Units=GPa)
#
#
# Indices 1 2 3 4 5 6 
#
# 1 112.3797 16.7568 71.3589 0.0000 1.5638 0.0000
# 2 16.7568 15.2157 18.5714 0.0000 -2.8422 0.0000
# 3 71.3589 18.5714 167.5928 0.0000 0.7780 0.0000
# 4 0.0000 0.0000 0.0000 18.1148 0.0000 1.3648
# 5 1.5638 -2.8422 0.7780 0.0000 20.0372 0.0000
# 6 0.0000 0.0000 0.0000 1.3648 0.0000 18.9944
#
#
#
# Elastic Compliance Matrix: (Units=1/GPa)
#
#
# Indices 1 2 3 4 5 6 
#
# 1 0.013242 -0.009393 -0.004587 0.000000 -0.002188 0.000000
# 2 -0.009393 0.085219 -0.005504 0.000000 0.013035 0.000000
# 3 -0.004587 -0.005504 0.008534 0.000000 -0.000754 0.000000
# 4 0.000000 0.000000 0.000000 0.055504 0.000000 -0.003988
# 5 -0.002188 0.013035 -0.000754 0.000000 0.051956 0.000000
# 6 0.000000 0.000000 0.000000 -0.003988 0.000000 0.052934
#
#
# Mechanical properties :
#
#
# Convention : Reuss Voigt Hill
#
# Bulk Modulus (GPa) = 14.70043 56.50695 35.60369
# Shear Modulus (GPa) = 15.19601 23.99602 19.59602
#
# Velocity S-wave (km/s) = 2.76073 3.46919 3.13503
# Velocity P-wave (km/s) = 4.18750 6.66245 5.56433
#
# Compressibility (1/GPa) = 0.06802522
#
# Stress axis : x y z
#
# Youngs Moduli (GPa) = 75.51526 11.73445 117.18449
#
# Poissons Ratio (x) = 0.11022 0.53757
# Poissons Ratio (y) = 0.70933 0.64503
# Poissons Ratio (z) = 0.34642 0.06459
#
# Static dielectric constant tensor:
#      x y z
#    x 1.712080 0.000000 0.003250 
#    y 0.000000 1.697790 0.000000 
#    z 0.003250 0.000000 1.725920 
# 
# From -- ./inp_files/313280.got.cif
#   From: 2010.05.17/outbox.cif.g08.bks.cpg/sg12_157_cif.got.tgz:313280.got - 2010.06.03 13:09:07.
