data_PCOD9220710
_publ_section_title
;
Structure prediction by ZEFSAII (Michael W. Deem and Ramdas Pophale) SiO2 
 PCOD9220710
Probable space group: C 2/M
;
_chemical_formula_sum "Si O2"
_cell_formula_units_Z 48
_cell_length_a 9.495719
_cell_length_b 19.113851
_cell_length_c 30.143504
_cell_angle_alpha 90.000000
_cell_angle_beta 150.846383
_cell_angle_gamma 90.000000
_cell_volume 2665.232019
_symmetry_space_group_name_H-M "C 2/M"
_symmetry_group_IT_number 12
_symmetry_cell_setting 'monoclinic'
loop_
_space_group_symop_operation_xyz
x,y,z
-x,y,-z
-x,-y,-z
x,-y,z
1/2+x,1/2+y,z
1/2-x,1/2+y,-z
1/2-x,1/2-y,-z
1/2+x,1/2-y,z
loop_
_atom_site_type_symbol
_atom_site_label
_atom_site_fract_x
_atom_site_fract_y
_atom_site_fract_z
Si Si1 0.832715 0.081971 0.575421
Si Si2 0.272359 0.321653 0.476915
Si Si3 0.157998 0.578676 0.908316
Si Si4 0.351436 0.321507 0.733796
Si Si5 0.820337 0.582212 0.907322
Si Si6 0.717760 0.322554 0.745390
O O1 0.500000 0.087860 0.500000
O O2 0.862609 0.117347 0.535557
O O3 0.023369 0.127954 0.661110
O O4 0.910354 0.000000 0.597027
O O5 0.500000 0.310274 0.500000
O O6 0.250000 0.250000 0.500000
O O7 0.964644 0.343102 0.370930
O O8 0.074967 0.500000 0.871081
O O9 0.034581 0.587037 0.924043
O O10 0.005621 0.635466 0.836287
O O11 0.500000 0.584640 0.000000
O O12 0.533777 0.374494 0.815066
O O13 0.544507 0.309864 0.743175
O O14 0.294052 0.249459 0.743124
O O15 0.747254 0.500000 0.893622
O O16 0.000000 0.606265 0.000000
#
# Coordination Sequence:
#
# PCOD9220710 Si02
#       6
#     8   8   8   8   8   8
#     4  11  23  40  63  88 118 158 202 246 299 361
#     4  12  23  40  63  88 125 162 201 247 298 353
#     4   9  19  37  60  84 113 150 192 242 293 347
#     4  11  23  37  62  88 117 158 200 243 300 353
#     4   9  20  40  62  85 116 154 197 244 301 358
#     4  11  22  38  59  89 118 155 197 245 295 357
#
# _framework density 18.009689000000002
#
# number of rings (size 3 to 8) (size 9 to 14) (size 15 to 20)
#    0.000    1.500    3.333    2.000    0.000    3.667 
#    0.000    3.333    0.000    0.000    0.000    0.000 
#    0.000    0.000    0.000    0.000    0.000    0.000 
#
# Total GULP energy -133992.309851 kJ/mol
# GULP energy per Si atom -5583.012910 kJ/mol
# Density = 1.796870 g / cm^3
# Si number density = 18.009689 Si / 1000 Ang^3
#
#
#
# Elastic Constant Matrix: (Units=GPa)
#
#
# Indices 1 2 3 4 5 6 
#
# 1 77.9947 45.0382 32.5053 -0.0019 -6.1343 0.0031
# 2 45.0382 99.8855 50.8301 -0.0035 -13.7562 -0.0052
# 3 32.5053 50.8301 99.7806 -0.0083 -15.7476 -0.0036
# 4 -0.0019 -0.0035 -0.0083 33.9573 -0.0018 -1.1306
# 5 -6.1343 -13.7562 -15.7476 -0.0018 31.8021 0.0027
# 6 0.0031 -0.0052 -0.0036 -1.1306 0.0027 59.8667
#
#
#
# Elastic Compliance Matrix: (Units=1/GPa)
#
#
# Indices 1 2 3 4 5 6 
#
# 1 0.017732 -0.006882 -0.002387 0.000000 -0.000739 -0.000002
# 2 -0.006882 0.016394 -0.005641 0.000000 0.002971 0.000001
# 3 -0.002387 -0.005641 0.014336 0.000003 0.004198 0.000000
# 4 0.000000 0.000000 0.000003 0.029467 0.000003 0.000557
# 5 -0.000739 0.002971 0.004198 0.000003 0.034666 -0.000001
# 6 -0.000002 0.000001 0.000000 0.000557 -0.000001 0.016714
#
#
# Mechanical properties :
#
#
# Convention : Reuss Voigt Hill
#
# Bulk Modulus (GPa) = 53.64261 59.37867 56.51064
# Shear Modulus (GPa) = 30.23989 35.07770 32.65880
#
# Velocity S-wave (km/s) = 4.10212 4.41808 4.26303
# Velocity P-wave (km/s) = 7.23094 7.68556 7.46172
#
# Compressibility (1/GPa) = 0.01864190
#
# Stress axis : x y z
#
# Youngs Moduli (GPa) = 56.39374 60.99671 69.75602
#
# Poissons Ratio (x) = 0.41981 0.16652
# Poissons Ratio (y) = 0.38813 0.39347
# Poissons Ratio (z) = 0.13462 0.34406
#
# Static dielectric constant tensor:
#      x y z
#    x 1.598550 0.000000 -0.015630 
#    y 0.000000 1.601950 0.000000 
#    z -0.015630 0.000000 1.642530 
# 
# From -- ./inp_files/184841.got.cif
#   From: 2010.05.17/outbox.cif.g08.bks.cpg/sg12_93_cif.got.tgz:184841.got - 2010.06.03 13:09:07.
