data_PCOD9220707
_publ_section_title
;
Structure prediction by ZEFSAII (Michael W. Deem and Ramdas Pophale) SiO2 
 PCOD9220707
Probable space group: C 2/M
;
_chemical_formula_sum "Si O2"
_cell_formula_units_Z 56
_cell_length_a 8.699745
_cell_length_b 21.253227
_cell_length_c 25.655210
_cell_angle_alpha 90.000000
_cell_angle_beta 145.049229
_cell_angle_gamma 90.000000
_cell_volume 2717.470755
_symmetry_space_group_name_H-M "C 2/M"
_symmetry_group_IT_number 12
_symmetry_cell_setting 'monoclinic'
loop_
_space_group_symop_operation_xyz
x,y,z
-x,y,-z
-x,-y,-z
x,-y,z
1/2+x,1/2+y,z
1/2-x,1/2+y,-z
1/2-x,1/2-y,-z
1/2+x,1/2-y,z
loop_
_atom_site_type_symbol
_atom_site_label
_atom_site_fract_x
_atom_site_fract_y
_atom_site_fract_z
Si Si1 0.231513 0.187828 0.458576
Si Si2 0.821454 0.346935 0.099515
Si Si3 0.956879 0.570236 0.049003
Si Si4 0.654717 0.431454 0.141116
Si Si5 0.835795 0.655461 0.277028
Si Si6 0.780650 0.571119 0.548066
Si Si7 0.649505 0.774735 0.271965
O O1 0.500000 0.191067 0.500000
O O2 0.250000 0.250000 0.500000
O O3 0.241727 0.122149 0.491990
O O4 0.943450 0.193394 0.350487
O O5 0.994260 0.371232 0.098224
O O6 0.834925 0.403743 0.145332
O O7 0.963680 0.291318 0.170647
O O8 0.500000 0.333929 0.000000
O O9 0.076518 0.500000 0.093623
O O10 0.636753 0.563088 0.964754
O O11 0.000000 0.583146 0.000000
O O12 0.744942 0.500000 0.184128
O O13 0.641612 0.382333 0.184474
O O14 0.701253 0.700478 0.282036
O O15 0.011396 0.603311 0.354570
O O16 0.013457 0.698930 0.286973
O O17 0.500000 0.567413 0.500000
O O18 0.858094 0.500000 0.553795
#
# Coordination Sequence:
#
# PCOD9220707 Si02
#       7
#     8   8   8   8   8   8   8
#     4  12  23  41  67  93 128 169 213 258 307 375
#     4   9  19  37  58  84 119 156 204 252 305 364
#     4   9  17  32  54  81 114 152 196 247 311 372
#     4   9  18  34  57  82 111 152 199 247 302 369
#     4  11  22  38  59  88 120 158 207 256 304 373
#     4  11  23  41  65  92 126 162 205 260 318 372
#     4  11  23  38  61  92 120 162 213 249 311 372
#
# _framework density 20.607396999999999
#
# number of rings (size 3 to 8) (size 9 to 14) (size 15 to 20)
#    0.000    1.714    2.857    2.143    0.000    3.143 
#    0.000    7.857    0.000    0.000    0.000    0.000 
#    0.000    0.000    0.000    0.000    0.000    0.000 
#
# Total GULP energy -156071.234913 kJ/mol
# GULP energy per Si atom -5573.972675 kJ/mol
# Density = 2.056049 g / cm^3
# Si number density = 20.607397 Si / 1000 Ang^3
#
#
#
# Elastic Constant Matrix: (Units=GPa)
#
#
# Indices 1 2 3 4 5 6 
#
# 1 50.1824 24.4615 -5.7113 -0.0007 -1.0073 -0.0012
# 2 24.4615 131.0409 28.8760 -0.0015 -5.1026 0.0011
# 3 -5.7113 28.8760 76.8209 -0.0032 -1.8001 0.0037
# 4 -0.0007 -0.0015 -0.0032 -27.6268 0.0005 35.4537
# 5 -1.0073 -5.1026 -1.8001 0.0005 20.4915 -0.0017
# 6 -0.0012 0.0011 0.0037 35.4537 -0.0017 -5.7018
#
#
#
# Elastic Compliance Matrix: (Units=1/GPa)
#
#
# Indices 1 2 3 4 5 6 
#
# 1 0.022797 -0.005040 0.003594 0.000001 0.000181 0.000001
# 2 -0.005040 0.009502 -0.003905 0.000000 0.001775 0.000000
# 3 0.003594 -0.003905 0.014764 -0.000001 0.000501 0.000000
# 4 0.000001 0.000000 -0.000001 0.005186 0.000002 0.032247
# 5 0.000181 0.001775 0.000501 0.000002 0.049296 0.000001
# 6 0.000001 0.000000 0.000000 0.032247 0.000001 0.025128
#
#
# Mechanical properties :
#
#
# Convention : Reuss Voigt Hill
#
# Bulk Modulus (GPa) = 27.50289 39.25516 33.37902
# Shear Modulus (GPa) = 33.44598 11.46045 22.45322
#
# Velocity S-wave (km/s) = 4.03303 2.36081 3.30445
# Velocity P-wave (km/s) = 5.92133 5.14991 5.54905
#
# Compressibility (1/GPa) = 0.03635982
#
# Stress axis : x y z
#
# Youngs Moduli (GPa) = 43.86563 105.24493 67.73259
#
# Poissons Ratio (x) = 0.53047 -0.24341
# Poissons Ratio (y) = 0.22110 0.26447
# Poissons Ratio (z) = -0.15764 0.41095
#
# Static dielectric constant tensor:
#      x y z
#    x 1.763660 0.000000 -0.028140 
#    y 0.000000 1.791140 0.000000 
#    z -0.028140 0.000000 1.768360 
# 
# From -- ./inp_files/356717.got.cif
#   From: 2010.05.17/outbox.cif.g08.bks.cpg/sg12_179_cif.got.tgz:356717.got - 2010.06.03 13:09:07.
