data_PCOD9220382
_publ_section_title
;
Structure prediction by ZEFSAII (Michael W. Deem and Ramdas Pophale) SiO2 
 PCOD9220382
Probable space group: C 2/M
;
_chemical_formula_sum "Si O2"
_cell_formula_units_Z 32
_cell_length_a 22.608629
_cell_length_b 14.719684
_cell_length_c 8.045453
_cell_angle_alpha 90.000000
_cell_angle_beta 149.189873
_cell_angle_gamma 90.000000
_cell_volume 1371.381471
_symmetry_space_group_name_H-M "C 2/M"
_symmetry_group_IT_number 12
_symmetry_cell_setting 'monoclinic'
loop_
_space_group_symop_operation_xyz
x,y,z
-x,y,-z
-x,-y,-z
x,-y,z
1/2+x,1/2+y,z
1/2-x,1/2+y,-z
1/2-x,1/2-y,-z
1/2+x,1/2-y,z
loop_
_atom_site_type_symbol
_atom_site_label
_atom_site_fract_x
_atom_site_fract_y
_atom_site_fract_z
Si Si1 0.681203 0.352133 0.505616
Si Si2 0.763554 0.813669 0.874661
Si Si3 0.134377 0.500000 0.116359
Si Si4 0.538559 0.395352 0.826320
Si Si5 0.365013 0.000000 0.478529
O O1 0.708053 0.246068 0.591347
O O2 0.796575 0.412428 0.784779
O O3 0.592866 0.377642 0.440514
O O4 0.612610 0.378471 0.173552
O O5 0.697833 0.908778 0.732899
O O6 0.750000 0.750000 0.000000
O O7 0.895329 0.834115 0.146046
O O8 0.142816 0.500000 0.338322
O O9 0.999084 0.500000 0.750533
O O10 0.551620 0.500000 0.809752
#
# Coordination Sequence:
#
# PCOD9220382 Si02
#       5
#     8   8   4   8   4
#     4  11  22  41  74 106 129 184 233 290 353 403
#     4  12  27  45  67  99 148 190 228 284 352 434
#     4  11  22  43  78 107 142 172 234 304 347 413
#     4  11  21  45  73  99 141 175 245 298 332 413
#     4  11  26  46  69 108 144 183 231 293 362 406
#
# _framework density 23.334133000000001
#
# number of rings (size 3 to 8) (size 9 to 14) (size 15 to 20)
#    0.000    0.750    6.250    1.500    3.500    4.000 
#    0.000    2.500    0.000    0.000    0.000    0.000 
#    0.000    0.000    0.000    0.000    0.000    0.000 
#
# Total GULP energy -89640.784878 kJ/mol
# GULP energy per Si atom -5602.549055 kJ/mol
# Density = 2.328102 g / cm^3
# Si number density = 23.334133 Si / 1000 Ang^3
#
#
#
# Elastic Constant Matrix: (Units=GPa)
#
#
# Indices 1 2 3 4 5 6 
#
# 1 165.5125 58.4818 58.0818 0.0000 39.2595 0.0000
# 2 58.4818 185.5729 59.9400 0.0000 23.5668 0.0000
# 3 58.0818 59.9400 112.2566 0.0000 35.1233 0.0000
# 4 0.0000 0.0000 0.0000 15.5272 0.0000 8.9695
# 5 39.2595 23.5668 35.1233 0.0000 55.5047 0.0000
# 6 0.0000 0.0000 0.0000 8.9695 0.0000 45.2120
#
#
#
# Elastic Compliance Matrix: (Units=1/GPa)
#
#
# Indices 1 2 3 4 5 6 
#
# 1 0.008242 -0.001357 -0.002365 0.000000 -0.003758 0.000000
# 2 -0.001357 0.006757 -0.002879 0.000000 -0.000088 0.000000
# 3 -0.002365 -0.002879 0.013420 0.000000 -0.005597 0.000000
# 4 0.000000 0.000000 0.000000 0.072739 0.000000 -0.014430
# 5 -0.003758 -0.000088 -0.005597 0.000000 0.024254 0.000000
# 6 0.000000 0.000000 0.000000 -0.014430 0.000000 0.024981
#
#
# Mechanical properties :
#
#
# Convention : Reuss Voigt Hill
#
# Bulk Modulus (GPa) = 65.70299 90.70548 78.20424
# Shear Modulus (GPa) = 29.64443 42.37134 36.00788
#
# Velocity S-wave (km/s) = 3.56818 4.26590 3.93255
# Velocity P-wave (km/s) = 6.72268 7.95115 7.36258
#
# Compressibility (1/GPa) = 0.01522001
#
# Stress axis : x y z
#
# Youngs Moduli (GPa) = 121.32656 147.99050 74.51573
#
# Poissons Ratio (x) = 0.20075 0.17619
# Poissons Ratio (y) = 0.16458 0.21450
# Poissons Ratio (z) = 0.28688 0.42601
#
# Static dielectric constant tensor:
#      x y z
#    x 1.932320 0.000000 -0.082010 
#    y 0.000000 1.815040 0.000000 
#    z -0.082010 0.000000 1.924780 
# 
# From -- ./inp_files/96046.got.cif
#   From: 2010.05.17/outbox.cif.g08.bks.cpg/sg12_49_cif.got.tgz:96046.got - 2010.06.03 13:09:07.
