data_PCOD9220533
_publ_section_title
;
Structure prediction by ZEFSAII (Michael W. Deem and Ramdas Pophale) SiO2 
 PCOD9220533
Probable space group: C 2/M
;
_chemical_formula_sum "Si O2"
_cell_formula_units_Z 56
_cell_length_a 29.666344
_cell_length_b 8.629547
_cell_length_c 22.312650
_cell_angle_alpha 90.000000
_cell_angle_beta 149.471354
_cell_angle_gamma 90.000000
_cell_volume 2901.619508
_symmetry_space_group_name_H-M "C 2/M"
_symmetry_group_IT_number 12
_symmetry_cell_setting 'monoclinic'
loop_
_space_group_symop_operation_xyz
x,y,z
-x,y,-z
-x,-y,-z
x,-y,z
1/2+x,1/2+y,z
1/2-x,1/2+y,-z
1/2-x,1/2-y,-z
1/2+x,1/2-y,z
loop_
_atom_site_type_symbol
_atom_site_label
_atom_site_fract_x
_atom_site_fract_y
_atom_site_fract_z
Si Si1 0.614106 0.816077 0.262469
Si Si2 0.450996 0.317478 0.007981
Si Si3 0.231214 0.186646 0.884766
Si Si4 0.783542 0.683610 0.390915
Si Si5 0.253410 0.814736 0.777426
Si Si6 0.092984 0.185446 0.365496
Si Si7 0.387619 0.686677 0.139946
O O1 0.517368 0.755031 0.132526
O O2 0.686618 0.735415 0.303313
O O3 0.631585 0.767673 0.350851
O O4 0.619472 0.000000 0.261276
O O5 0.437858 0.500000 0.005145
O O6 0.500000 0.302350 0.000000
O O7 0.356866 0.233322 0.897487
O O8 0.214451 0.234001 0.797283
O O9 0.158354 0.237196 0.850198
O O10 0.234364 0.000000 0.889369
O O11 0.325664 0.248129 0.016451
O O12 0.790708 0.735801 0.330419
O O13 0.853598 0.765894 0.514561
O O14 0.901907 0.000000 0.636673
O O15 0.246645 0.000000 0.763524
O O16 0.989843 0.232339 0.252926
O O17 0.884060 0.000000 0.133293
O O18 0.291819 0.000000 0.405580
#
# Coordination Sequence:
#
# PCOD9220533 Si02
#       7
#     8   8   8   8   8   8   8
#     4  12  24  39  60  85 115 151 193 238 287 339
#     4  11  22  36  56  83 117 152 187 232 281 334
#     4   9  19  36  60  90 119 147 183 230 284 339
#     4  12  25  41  58  80 114 153 195 239 284 339
#     4  11  22  37  59  86 117 153 192 235 287 341
#     4  11  23  40  61  84 113 151 195 237 284 338
#     4   9  19  37  61  88 117 148 185 231 282 337
#
# _framework density 19.299567
#
# number of rings (size 3 to 8) (size 9 to 14) (size 15 to 20)
#    0.000    1.286    1.429    5.143    0.000    5.143 
#    0.000    0.714    0.000    4.286    0.000    0.000 
#    0.000    0.000    0.000    0.000    0.000    0.000 
#
# Total GULP energy -156595.617518 kJ/mol
# GULP energy per Si atom -5592.700626 kJ/mol
# Density = 1.925564 g / cm^3
# Si number density = 19.299567 Si / 1000 Ang^3
#
#
#
# Elastic Constant Matrix: (Units=GPa)
#
#
# Indices 1 2 3 4 5 6 
#
# 1 63.8274 -0.4008 9.9917 0.0000 -23.2198 0.0000
# 2 -0.4008 29.0323 -15.4300 0.0000 2.3534 0.0000
# 3 9.9917 -15.4300 51.1093 0.0000 -19.7975 0.0000
# 4 0.0000 0.0000 0.0000 31.7801 0.0000 -5.9756
# 5 -23.2198 2.3534 -19.7975 0.0000 29.4880 0.0000
# 6 0.0000 0.0000 0.0000 -5.9756 0.0000 23.1217
#
#
#
# Elastic Compliance Matrix: (Units=1/GPa)
#
#
# Indices 1 2 3 4 5 6 
#
# 1 0.022371 0.000562 0.003517 0.000000 0.019933 0.000000
# 2 0.000562 0.042080 0.015494 0.000000 0.007487 0.000000
# 3 0.003517 0.015494 0.032638 0.000000 0.023445 0.000000
# 4 0.000000 0.000000 0.000000 0.033073 0.000000 0.008548
# 5 0.019933 0.007487 0.023445 0.000000 0.064751 0.000000
# 6 0.000000 0.000000 0.000000 0.008548 0.000000 0.045458
#
#
# Mechanical properties :
#
#
# Convention : Reuss Voigt Hill
#
# Bulk Modulus (GPa) = 7.34015 14.69898 11.01957
# Shear Modulus (GPa) = 20.27277 26.86516 23.56897
#
# Velocity S-wave (km/s) = 3.24454 3.73501 3.49838
# Velocity P-wave (km/s) = 4.22464 5.12183 4.69472
#
# Compressibility (1/GPa) = 0.13623705
#
# Stress axis : x y z
#
# Youngs Moduli (GPa) = 44.69987 23.76424 30.63939
#
# Poissons Ratio (x) = -0.01337 -0.10777
# Poissons Ratio (y) = -0.02514 -0.47473
# Poissons Ratio (z) = -0.15722 -0.36821
#
# Static dielectric constant tensor:
#      x y z
#    x 1.692320 0.000000 -0.011390 
#    y 0.000000 1.644690 0.000000 
#    z -0.011390 0.000000 1.650100 
# 
# From -- ./inp_files/237906.got.cif
#   From: 2010.05.17/outbox.cif.g08.bks.cpg/sg12_119_cif.got.tgz:237906.got - 2010.06.03 13:09:07.
