data_PCOD9220473
_publ_section_title
;
Structure prediction by ZEFSAII (Michael W. Deem and Ramdas Pophale) SiO2 
 PCOD9220473
Probable space group: C 2/M
;
_chemical_formula_sum "Si O2"
_cell_formula_units_Z 56
_cell_length_a 15.711346
_cell_length_b 27.868988
_cell_length_c 18.504153
_cell_angle_alpha 90.000000
_cell_angle_beta 156.591914
_cell_angle_gamma 90.000000
_cell_volume 3218.827253
_symmetry_space_group_name_H-M "C 2/M"
_symmetry_group_IT_number 12
_symmetry_cell_setting 'monoclinic'
loop_
_space_group_symop_operation_xyz
x,y,z
-x,y,-z
-x,-y,-z
x,-y,z
1/2+x,1/2+y,z
1/2-x,1/2+y,-z
1/2-x,1/2-y,-z
1/2+x,1/2-y,z
loop_
_atom_site_type_symbol
_atom_site_label
_atom_site_fract_x
_atom_site_fract_y
_atom_site_fract_z
Si Si1 0.957111 0.209765 0.391349
Si Si2 0.925532 0.870966 0.756126
Si Si3 0.993147 0.370891 0.335332
Si Si4 0.283078 0.306088 0.108254
Si Si5 0.703585 0.692707 0.211169
Si Si6 0.945454 0.713747 0.732816
Si Si7 0.626110 0.443490 0.022352
O O1 0.814826 0.186140 0.217847
O O2 0.832673 0.258228 0.314979
O O3 0.000000 0.182492 0.500000
O O4 0.192114 0.221170 0.541854
O O5 0.724864 0.881429 0.548616
O O6 0.867437 0.828295 0.767421
O O7 0.117113 0.850304 0.857433
O O8 0.994159 0.915895 0.857830
O O9 0.857590 0.345618 0.293148
O O10 0.012315 0.331861 0.286127
O O11 0.854532 0.416799 0.204818
O O12 0.427413 0.259023 0.201303
O O13 0.051396 0.295394 0.893988
O O14 0.500000 0.698677 0.000000
O O15 0.645263 0.500000 0.024390
O O16 0.500000 0.436521 0.000000
#
# Coordination Sequence:
#
# PCOD9220473 Si02
#       7
#     8   8   8   8   8   8   8
#     4  12  25  35  50  79 116 150 193 237 275 331
#     4  12  22  38  59  82 111 159 198 229 280 339
#     4  12  20  37  60  79 112 151 198 232 279 337
#     4  11  22  35  55  78 111 153 193 234 276 331
#     4  12  22  35  52  78 114 160 200 226 268 334
#     4  11  22  37  53  80 113 150 196 236 273 331
#     4  11  24  41  58  85 118 148 194 246 286 332
#
# _framework density 17.397639999999999
#
# number of rings (size 3 to 8) (size 9 to 14) (size 15 to 20)
#    0.000    0.429    7.143    3.429    4.000    0.571 
#    0.000    1.429    0.000    0.000    0.000    0.000 
#    0.000    3.429    0.000    0.000    0.000    0.000 
#
# Total GULP energy -156595.334997 kJ/mol
# GULP energy per Si atom -5592.690536 kJ/mol
# Density = 1.735804 g / cm^3
# Si number density = 17.397640 Si / 1000 Ang^3
#
#
#
# Elastic Constant Matrix: (Units=GPa)
#
#
# Indices 1 2 3 4 5 6 
#
# 1 50.5630 21.5181 -0.8621 0.0007 -24.4431 0.0001
# 2 21.5181 86.5423 16.7030 0.0003 -5.1293 -0.0002
# 3 -0.8621 16.7030 104.2725 -0.0005 -22.2992 -0.0013
# 4 0.0007 0.0003 -0.0005 9.1922 0.0002 6.2095
# 5 -24.4431 -5.1293 -22.2992 0.0002 35.9178 0.0000
# 6 0.0001 -0.0002 -0.0013 6.2095 0.0000 10.8347
#
#
#
# Elastic Compliance Matrix: (Units=1/GPa)
#
#
# Indices 1 2 3 4 5 6 
#
# 1 0.038306 -0.009338 0.008189 -0.000005 0.029819 0.000003
# 2 -0.009338 0.014211 -0.003781 0.000001 -0.006672 0.000000
# 3 0.008189 -0.003781 0.013076 -0.000002 0.013151 0.000002
# 4 -0.000005 0.000001 -0.000002 0.177510 -0.000005 -0.101733
# 5 0.029819 -0.006672 0.013151 -0.000005 0.055346 0.000004
# 6 0.000003 0.000000 0.000002 -0.101733 0.000004 0.150601
#
#
# Mechanical properties :
#
#
# Convention : Reuss Voigt Hill
#
# Bulk Modulus (GPa) = 17.94187 35.12174 26.53181
# Shear Modulus (GPa) = 10.47151 24.79019 17.63085
#
# Velocity S-wave (km/s) = 2.45601 3.77890 3.18686
# Velocity P-wave (km/s) = 4.28694 6.26671 5.36887
#
# Compressibility (1/GPa) = 0.05573554
#
# Stress axis : x y z
#
# Youngs Moduli (GPa) = 26.10555 70.36807 76.47570
#
# Poissons Ratio (x) = 0.65708 -0.62630
# Poissons Ratio (y) = 0.24377 0.28912
# Poissons Ratio (z) = -0.21379 0.26603
#
# Static dielectric constant tensor:
#      x y z
#    x 1.629340 0.000000 -0.027570 
#    y 0.000000 1.553660 0.000000 
#    z -0.027570 0.000000 1.639960 
# 
# From -- ./inp_files/219343.got.cif
#   From: 2010.05.17/outbox.cif.g08.bks.cpg/sg12_110_cif.got.tgz:219343.got - 2010.06.03 13:09:07.
