data_PCOD9220547
_publ_section_title
;
Structure prediction by ZEFSAII (Michael W. Deem and Ramdas Pophale) SiO2 
 PCOD9220547
Probable space group: C 2/M
;
_chemical_formula_sum "Si O2"
_cell_formula_units_Z 58
_cell_length_a 31.719587
_cell_length_b 13.422108
_cell_length_c 21.363970
_cell_angle_alpha 90.000000
_cell_angle_beta 19.275171
_cell_angle_gamma 90.000000
_cell_volume 3002.498497
_symmetry_space_group_name_H-M "C 2/M"
_symmetry_group_IT_number 12
_symmetry_cell_setting 'monoclinic'
loop_
_space_group_symop_operation_xyz
x,y,z
-x,y,-z
-x,-y,-z
x,-y,z
1/2+x,1/2+y,z
1/2-x,1/2+y,-z
1/2-x,1/2-y,-z
1/2+x,1/2-y,z
loop_
_atom_site_type_symbol
_atom_site_label
_atom_site_fract_x
_atom_site_fract_y
_atom_site_fract_z
Si Si1 0.963549 0.117441 0.232505
Si Si2 0.500000 0.500000 0.500000
Si Si3 0.184365 0.619914 0.584906
Si Si4 0.394180 0.322841 0.092425
Si Si5 0.307014 0.389240 0.860618
Si Si6 0.554840 0.889202 0.993096
Si Si7 0.631769 0.113575 0.513915
Si Si8 0.584013 0.737716 0.177691
O O1 0.028316 0.176312 0.197858
O O2 0.819520 0.156507 0.421599
O O3 0.958287 0.000000 0.254862
O O4 0.041154 0.132623 0.059705
O O5 0.413572 0.414193 0.658903
O O6 0.194626 0.500000 0.574631
O O7 0.161081 0.640281 0.545127
O O8 0.061818 0.643020 0.798757
O O9 0.266469 0.378531 0.290550
O O10 0.500000 0.326162 0.000000
O O11 0.355923 0.206860 0.134001
O O12 0.253483 0.500000 0.951059
O O13 0.367048 0.338056 0.837998
O O14 0.195213 0.312815 0.998386
O O15 0.603196 0.000000 0.943834
O O16 0.500000 0.898595 0.000000
O O17 0.526409 0.191578 0.639461
O O18 0.584941 0.000000 0.577132
#
# Coordination Sequence:
#
# PCOD9220547 Si02
#       8
#     8   2   8   8   8   8   8   8
#     4  11  23  37  59  89 128 171 217 269 312 372
#     4   8  20  44  84  88 130 164 192 264 348 416
#     4   9  19  36  56  78 120 175 217 259 312 361
#     4  11  22  36  58  82 122 181 224 254 307 369
#     4   9  21  46  71  97 127 161 203 264 341 416
#     4   9  19  34  52  74 108 154 215 277 317 353
#     4  11  23  38  59  88 127 172 221 261 304 374
#     4  11  23  38  69 100 125 162 212 266 329 399
#
# _framework density 19.317246000000001
#
# number of rings (size 3 to 8) (size 9 to 14) (size 15 to 20)
#    0.414    1.517    1.379    2.069    3.862    2.759 
#    0.000    1.379    0.000    0.000    0.000    7.724 
#    0.000    0.000    0.000    0.000    0.000    0.000 
#
# Total GULP energy -161543.277023 kJ/mol
# GULP energy per Si atom -5570.457828 kJ/mol
# Density = 1.927328 g / cm^3
# Si number density = 19.317246 Si / 1000 Ang^3
#
#
#
# Elastic Constant Matrix: (Units=GPa)
#
#
# Indices 1 2 3 4 5 6 
#
# 1 30.9086 24.7426 14.5551 0.0000 -2.5495 0.0000
# 2 24.7426 123.1675 24.8648 0.0000 -6.2199 0.0000
# 3 14.5551 24.8648 60.9621 0.0000 9.4280 0.0000
# 4 0.0000 0.0000 0.0000 39.4447 0.0000 -3.5388
# 5 -2.5495 -6.2199 9.4280 0.0000 23.2283 0.0000
# 6 0.0000 0.0000 0.0000 -3.5388 0.0000 21.7014
#
#
#
# Elastic Compliance Matrix: (Units=1/GPa)
#
#
# Indices 1 2 3 4 5 6 
#
# 1 0.041953 -0.006421 -0.008369 0.000000 0.006282 0.000000
# 2 -0.006421 0.010210 -0.003143 0.000000 0.003305 0.000000
# 3 -0.008369 -0.003143 0.021292 0.000000 -0.010402 0.000000
# 4 0.000000 0.000000 0.000000 0.025728 0.000000 0.004196
# 5 0.006282 0.003305 -0.010402 0.000000 0.048847 0.000000
# 6 0.000000 0.000000 0.000000 0.004196 0.000000 0.046764
#
#
# Mechanical properties :
#
#
# Convention : Reuss Voigt Hill
#
# Bulk Modulus (GPa) = 26.60272 38.15145 32.37708
# Shear Modulus (GPa) = 20.56002 26.93325 23.74663
#
# Velocity S-wave (km/s) = 3.26595 3.73803 3.50994
# Velocity P-wave (km/s) = 5.29371 6.19865 5.76397
#
# Compressibility (1/GPa) = 0.03759015
#
# Stress axis : x y z
#
# Youngs Moduli (GPa) = 23.83633 97.94141 46.96532
#
# Poissons Ratio (x) = 0.62887 0.39306
# Poissons Ratio (y) = 0.15305 0.14759
# Poissons Ratio (z) = 0.19949 0.30778
#
# Static dielectric constant tensor:
#      x y z
#    x 1.641670 0.000000 -0.002080 
#    y 0.000000 1.736500 0.000000 
#    z -0.002080 0.000000 1.689360 
# 
# From -- ./inp_files/330268.got.cif
#   From: 2010.05.17/outbox.cif.g08.bks.cpg/sg12_166_cif.got.tgz:330268.got - 2010.06.03 13:09:07.
