data_PCOD9220071
_publ_section_title
;
Structure prediction by ZEFSAII (Michael W. Deem and Ramdas Pophale) SiO2 
 PCOD9220071
Probable space group: C 2/M
;
_chemical_formula_sum "Si O2"
_cell_formula_units_Z 56
_cell_length_a 8.910928
_cell_length_b 25.075785
_cell_length_c 18.630648
_cell_angle_alpha 90.000000
_cell_angle_beta 142.833671
_cell_angle_gamma 90.000000
_cell_volume 2514.991330
_symmetry_space_group_name_H-M "C 2/M"
_symmetry_group_IT_number 12
_symmetry_cell_setting 'monoclinic'
loop_
_space_group_symop_operation_xyz
x,y,z
-x,y,-z
-x,-y,-z
x,-y,z
1/2+x,1/2+y,z
1/2-x,1/2+y,-z
1/2-x,1/2-y,-z
1/2+x,1/2-y,z
loop_
_atom_site_type_symbol
_atom_site_label
_atom_site_fract_x
_atom_site_fract_y
_atom_site_fract_z
Si Si1 0.466348 0.217402 0.848271
Si Si2 0.967094 0.755409 0.412189
Si Si3 0.845422 0.435734 0.564666
Si Si4 0.652319 0.679161 0.120499
Si Si5 0.285266 0.563836 0.321799
Si Si6 0.728537 0.639714 0.303021
Si Si7 0.843436 0.385267 0.874703
O O1 0.504453 0.273139 0.902731
O O2 0.627210 0.207647 0.838567
O O3 0.480785 0.170326 0.910295
O O4 0.187313 0.217066 0.709339
O O5 0.250000 0.750000 0.500000
O O6 0.000000 0.785368 0.500000
O O7 0.827946 0.697699 0.368097
O O8 0.871399 0.500000 0.568697
O O9 0.828769 0.422302 0.643860
O O10 0.574870 0.419298 0.431676
O O11 0.064747 0.405480 0.607149
O O12 0.726362 0.644895 0.215673
O O13 0.500000 0.650450 0.000000
O O14 0.286145 0.500000 0.319467
O O15 0.151220 0.585371 0.200090
O O16 0.447314 0.625298 0.217948
O O17 0.000000 0.410588 0.000000
#
# Coordination Sequence:
#
# PCOD9220071 Si02
#       7
#     8   8   8   8   8   8   8
#     4  11  22  38  57  85 114 165 210 251 308 361
#     4  11  23  38  55  83 124 157 195 251 306 363
#     4   9  20  42  69  95 124 159 207 257 313 385
#     4  11  21  38  59  82 119 161 212 256 300 364
#     4   9  21  42  67  94 124 163 205 255 319 376
#     4  11  24  38  60  94 123 164 208 256 315 372
#     4  12  25  41  62  90 128 168 214 259 308 370
#
# _framework density 22.266480000000001
#
# number of rings (size 3 to 8) (size 9 to 14) (size 15 to 20)
#    0.000    1.429    0.000    7.714    4.000    0.857 
#    0.000    1.429    0.000    2.143    0.000    0.000 
#    0.000    0.000    0.000    0.000    0.000    0.000 
#
# Total GULP energy -156425.875559 kJ/mol
# GULP energy per Si atom -5586.638413 kJ/mol
# Density = 2.221580 g / cm^3
# Si number density = 22.266480 Si / 1000 Ang^3
#
#
#
# Elastic Constant Matrix: (Units=GPa)
#
#
# Indices 1 2 3 4 5 6 
#
# 1 98.3764 14.5593 25.0232 -0.0001 10.6054 0.0000
# 2 14.5593 35.2577 12.5568 -0.0001 2.5952 0.0000
# 3 25.0232 12.5568 115.6011 0.0004 -26.8175 -0.0004
# 4 -0.0001 -0.0001 0.0004 20.3995 0.0000 -0.3132
# 5 10.6054 2.5952 -26.8175 0.0000 53.3176 -0.0002
# 6 0.0000 0.0000 -0.0004 -0.3132 -0.0002 20.3458
#
#
#
# Elastic Compliance Matrix: (Units=1/GPa)
#
#
# Indices 1 2 3 4 5 6 
#
# 1 0.011865 -0.003541 -0.003047 0.000000 -0.003720 0.000000
# 2 -0.003541 0.031132 -0.003174 0.000000 -0.002407 0.000000
# 3 -0.003047 -0.003174 0.011130 0.000000 0.006359 0.000000
# 4 0.000000 0.000000 0.000000 0.049032 0.000000 0.000755
# 5 -0.003720 -0.002407 0.006359 0.000000 0.022811 0.000000
# 6 0.000000 0.000000 0.000000 0.000755 0.000000 0.049162
#
#
# Mechanical properties :
#
#
# Convention : Reuss Voigt Hill
#
# Bulk Modulus (GPa) = 28.89770 39.27928 34.08849
# Shear Modulus (GPa) = 24.24959 31.95232 28.10096
#
# Velocity S-wave (km/s) = 3.30368 3.79224 3.55636
# Velocity P-wave (km/s) = 5.24963 6.07072 5.67505
#
# Compressibility (1/GPa) = 0.03460484
#
# Stress axis : x y z
#
# Youngs Moduli (GPa) = 84.28092 32.12110 89.84935
#
# Poissons Ratio (x) = 0.11373 0.27375
# Poissons Ratio (y) = 0.29841 0.28515
# Poissons Ratio (z) = 0.25678 0.10194
#
# Static dielectric constant tensor:
#      x y z
#    x 1.813350 0.000000 0.034160 
#    y 0.000000 1.811820 0.000000 
#    z 0.034160 0.000000 1.875620 
# 
# From -- ./inp_files/259879.got.cif
#   From: 2010.05.17/outbox.cif.g08.bks.cpg/sg12_130_cif.got.tgz:259879.got - 2010.06.03 13:09:07.
