data_PCOD9220565
_publ_section_title
;
Structure prediction by ZEFSAII (Michael W. Deem and Ramdas Pophale) SiO2 
 PCOD9220565
Probable space group: C 2/M
;
_chemical_formula_sum "Si O2"
_cell_formula_units_Z 48
_cell_length_a 10.397438
_cell_length_b 16.796835
_cell_length_c 15.911147
_cell_angle_alpha 90.000000
_cell_angle_beta 128.516402
_cell_angle_gamma 90.000000
_cell_volume 2174.206211
_symmetry_space_group_name_H-M "C 2/M"
_symmetry_group_IT_number 12
_symmetry_cell_setting 'monoclinic'
loop_
_space_group_symop_operation_xyz
x,y,z
-x,y,-z
-x,-y,-z
x,-y,z
1/2+x,1/2+y,z
1/2-x,1/2+y,-z
1/2-x,1/2-y,-z
1/2+x,1/2-y,z
loop_
_atom_site_type_symbol
_atom_site_label
_atom_site_fract_x
_atom_site_fract_y
_atom_site_fract_z
Si Si1 0.439926 0.367035 0.059545
Si Si2 0.476585 0.091715 0.645412
Si Si3 0.654878 0.632827 0.618263
Si Si4 0.959760 0.137144 0.248216
Si Si5 0.808181 0.301564 0.443229
Si Si6 0.770141 0.696996 0.154584
O O1 0.435048 0.404798 0.148689
O O2 0.587085 0.300398 0.121126
O O3 0.500000 0.413709 0.000000
O O4 0.269756 0.330744 0.956810
O O5 0.321541 0.102211 0.644935
O O6 0.432941 0.140640 0.543908
O O7 0.630848 0.130648 0.754288
O O8 0.503544 0.000000 0.637138
O O9 0.500000 0.605554 0.500000
O O10 0.624719 0.606566 0.701236
O O11 0.652662 0.730401 0.607643
O O12 0.874208 0.223259 0.199933
O O13 0.152480 0.149201 0.346395
O O14 0.750000 0.250000 0.500000
#
# Coordination Sequence:
#
# PCOD9220565 Si02
#       6
#     8   8   8   8   8   8
#     4   8  21  36  60  93 122 150 206 263 304 358
#     4  12  24  41  60  86 128 167 206 251 306 371
#     4  11  22  36  60  90 121 164 202 245 308 371
#     4  12  18  37  63  90 125 157 200 259 310 359
#     4  11  23  37  62  91 121 156 209 252 306 363
#     4   9  20  37  59  90 124 152 207 253 306 357
#
# _framework density 22.077023000000001
#
# number of rings (size 3 to 8) (size 9 to 14) (size 15 to 20)
#    1.000    0.333    3.333    5.000    0.000    0.667 
#    0.000    1.667    0.000    4.000    0.000    0.000 
#    0.000    0.000    0.000    0.000    0.000    0.000 
#
# Total GULP energy -133777.436645 kJ/mol
# GULP energy per Si atom -5574.059860 kJ/mol
# Density = 2.202677 g / cm^3
# Si number density = 22.077023 Si / 1000 Ang^3
#
#
#
# Elastic Constant Matrix: (Units=GPa)
#
#
# Indices 1 2 3 4 5 6 
#
# 1 86.7168 -9.1745 43.2627 0.0000 -43.8735 0.0000
# 2 -9.1745 89.9883 28.0135 0.0000 -0.7440 0.0000
# 3 43.2627 28.0135 172.2309 0.0000 -16.1999 0.0000
# 4 0.0000 0.0000 0.0000 -5.2281 0.0000 0.6513
# 5 -43.8735 -0.7440 -16.1999 0.0000 60.7875 0.0000
# 6 0.0000 0.0000 0.0000 0.6513 0.0000 -2.7951
#
#
#
# Elastic Compliance Matrix: (Units=1/GPa)
#
#
# Indices 1 2 3 4 5 6 
#
# 1 0.021505 0.003764 -0.004667 0.000000 0.014324 0.000000
# 2 0.003764 0.012372 -0.002757 0.000000 0.002133 0.000000
# 3 -0.004667 -0.002757 0.007290 0.000000 -0.001459 0.000000
# 4 0.000000 0.000000 0.000000 -0.196992 0.000000 -0.045902
# 5 0.014324 0.002133 -0.001459 0.000000 0.026426 0.000000
# 6 0.000000 0.000000 0.000000 -0.045902 0.000000 -0.368465
#
#
# Mechanical properties :
#
#
# Convention : Reuss Voigt Hill
#
# Bulk Modulus (GPa) = 29.54510 52.57106 41.05808
# Shear Modulus (GPa) = -10.43274 29.67514 9.62120
#
# Velocity S-wave (km/s) = -2.17620 3.67026 2.08985
# Velocity P-wave (km/s) = 2.66408 6.46725 4.94584
#
# Compressibility (1/GPa) = 0.03384656
#
# Stress axis : x y z
#
# Youngs Moduli (GPa) = 46.50047 80.82634 137.18190
#
# Poissons Ratio (x) = -0.30421 0.64020
# Poissons Ratio (y) = -0.17501 0.37823
# Poissons Ratio (z) = 0.21701 0.22285
#
# Static dielectric constant tensor:
#      x y z
#    x 1.977250 0.000000 0.009240 
#    y 0.000000 1.814950 0.000000 
#    z 0.009240 0.000000 1.845200 
# 
# From -- ./inp_files/264891.got.cif
#   From: 2010.05.17/outbox.cif.g08.bks.cpg/sg12_133_cif.got.tgz:264891.got - 2010.06.03 13:09:07.
