data_PCOD9220328
_publ_section_title
;
Structure prediction by ZEFSAII (Michael W. Deem and Ramdas Pophale) SiO2 
 PCOD9220328
Probable space group: C 2/M
;
_chemical_formula_sum "Si O2"
_cell_formula_units_Z 40
_cell_length_a 16.024449
_cell_length_b 23.059401
_cell_length_c 9.564358
_cell_angle_alpha 90.000000
_cell_angle_beta 144.049442
_cell_angle_gamma 90.000000
_cell_volume 2074.862633
_symmetry_space_group_name_H-M "C 2/M"
_symmetry_group_IT_number 12
_symmetry_cell_setting 'monoclinic'
loop_
_space_group_symop_operation_xyz
x,y,z
-x,y,-z
-x,-y,-z
x,-y,z
1/2+x,1/2+y,z
1/2-x,1/2+y,-z
1/2-x,1/2-y,-z
1/2+x,1/2-y,z
loop_
_atom_site_type_symbol
_atom_site_label
_atom_site_fract_x
_atom_site_fract_y
_atom_site_fract_z
Si Si1 0.100087 0.276597 0.254918
Si Si2 0.639469 0.402754 0.774318
Si Si3 0.350154 0.500000 0.985921
Si Si4 0.813107 0.000000 0.614637
Si Si5 0.911586 0.769490 0.239476
Si Si6 0.159528 0.595055 0.222112
O O1 0.250000 0.250000 0.500000
O O2 0.138139 0.340728 0.254735
O O3 0.999617 0.268281 0.249795
O O4 0.000000 0.248159 0.000000
O O5 0.500000 0.424647 0.500000
O O6 0.680420 0.444796 0.956719
O O7 0.596279 0.339828 0.777818
O O8 0.762744 0.400009 0.823128
O O9 0.518438 0.500000 0.182239
O O10 0.281168 0.500000 0.737770
O O11 0.750525 0.055776 0.449996
O O12 0.000000 0.758855 0.500000
O O13 0.750000 0.750000 0.000000
O O14 0.000000 0.570146 0.000000
#
# Coordination Sequence:
#
# PCOD9220328 Si02
#       6
#     8   8   4   4   8   8
#     4  11  23  40  62  93 128 168 212 260 316 374
#     4  11  21  42  67  91 123 173 217 251 307 387
#     4  11  24  40  66 100 124 154 215 278 313 367
#     4  11  24  41  64  99 126 157 210 270 331 361
#     4  11  23  40  63  93 126 169 212 259 312 378
#     4  11  23  43  65  91 129 172 211 254 316 393
#
# _framework density 19.278385
#
# number of rings (size 3 to 8) (size 9 to 14) (size 15 to 20)
#    0.000    1.000    2.000    7.200    0.000    3.200 
#    0.000    2.000    0.000    0.000    0.000    0.000 
#    0.000    0.000    0.000    0.000    0.000    0.000 
#
# Total GULP energy -111536.394771 kJ/mol
# GULP energy per Si atom -5576.819739 kJ/mol
# Density = 1.923451 g / cm^3
# Si number density = 19.278385 Si / 1000 Ang^3
#
#
#
# Elastic Constant Matrix: (Units=GPa)
#
#
# Indices 1 2 3 4 5 6 
#
# 1 155.3033 51.8123 36.2342 0.0000 -1.9142 0.0000
# 2 51.8123 68.5995 36.0311 0.0000 -14.7681 0.0000
# 3 36.2342 36.0311 117.6728 0.0000 4.5467 0.0000
# 4 0.0000 0.0000 0.0000 -8.7647 0.0000 -0.1675
# 5 -1.9142 -14.7681 4.5467 0.0000 46.3955 0.0000
# 6 0.0000 0.0000 0.0000 -0.1675 0.0000 28.8221
#
#
#
# Elastic Compliance Matrix: (Units=1/GPa)
#
#
# Indices 1 2 3 4 5 6 
#
# 1 0.008790 -0.006698 -0.000590 0.000000 -0.001711 0.000000
# 2 -0.006698 0.024365 -0.005709 0.000000 0.008039 0.000000
# 3 -0.000590 -0.005709 0.010539 0.000000 -0.002874 0.000000
# 4 0.000000 0.000000 0.000000 -0.114081 0.000000 -0.000663
# 5 -0.001711 0.008039 -0.002874 0.000000 0.024324 0.000000
# 6 0.000000 0.000000 0.000000 -0.000663 0.000000 0.034692
#
#
# Mechanical properties :
#
#
# Convention : Reuss Voigt Hill
#
# Bulk Modulus (GPa) = 56.49209 65.52561 61.00885
# Shear Modulus (GPa) = 243.65562 27.79045 135.72303
#
# Velocity S-wave (km/s) = 11.25444 3.80087 8.39967
# Velocity P-wave (km/s) = 14.08013 7.30241 11.21551
#
# Compressibility (1/GPa) = 0.01770159
#
# Stress axis : x y z
#
# Youngs Moduli (GPa) = 113.76589 41.04233 94.88758
#
# Poissons Ratio (x) = 0.27489 0.05596
# Poissons Ratio (y) = 0.76197 0.54169
# Poissons Ratio (z) = 0.06709 0.23430
#
# Static dielectric constant tensor:
#      x y z
#    x 1.743830 0.000000 -0.086390 
#    y 0.000000 1.688480 0.000000 
#    z -0.086390 0.000000 1.776270 
# 
# From -- ./inp_files/65619.got.cif
#   From: 2010.05.17/outbox.cif.g08.bks.cpg/sg12_33_cif.got.tgz:65619.got - 2010.06.03 13:09:07.
