data_PCOD9220792
_publ_section_title
;
Structure prediction by ZEFSAII (Michael W. Deem and Ramdas Pophale) SiO2 
 PCOD9220792
Probable space group: C 2/M
;
_chemical_formula_sum "Si O2"
_cell_formula_units_Z 64
_cell_length_a 14.266045
_cell_length_b 18.343839
_cell_length_c 11.737646
_cell_angle_alpha 90.000000
_cell_angle_beta 94.220048
_cell_angle_gamma 90.000000
_cell_volume 3063.343967
_symmetry_space_group_name_H-M "C 2/M"
_symmetry_group_IT_number 12
_symmetry_cell_setting 'monoclinic'
loop_
_space_group_symop_operation_xyz
x,y,z
-x,y,-z
-x,-y,-z
x,-y,z
1/2+x,1/2+y,z
1/2-x,1/2+y,-z
1/2-x,1/2-y,-z
1/2+x,1/2-y,z
loop_
_atom_site_type_symbol
_atom_site_label
_atom_site_fract_x
_atom_site_fract_y
_atom_site_fract_z
Si Si1 0.303909 0.668094 0.066603
Si Si2 0.424581 0.348012 0.394490
Si Si3 0.136199 0.315603 0.222495
Si Si4 0.421759 0.216344 0.212949
Si Si5 0.221155 0.413096 0.423433
Si Si6 0.530144 0.419670 0.824603
Si Si7 0.341042 0.656384 0.811982
Si Si8 0.315938 0.082217 0.317045
O O1 0.206036 0.664590 0.125294
O O2 0.363865 0.738845 0.112661
O O3 0.370967 0.602084 0.111912
O O4 0.294801 0.665490 0.931143
O O5 0.500000 0.340020 0.500000
O O6 0.423184 0.274550 0.317971
O O7 0.321560 0.371901 0.426399
O O8 0.457178 0.410328 0.309267
O O9 0.156265 0.372165 0.325313
O O10 0.165977 0.232449 0.256177
O O11 0.026398 0.306867 0.185232
O O12 0.371708 0.144113 0.254676
O O13 0.231510 0.500000 0.400175
O O14 0.180657 0.406344 0.547162
O O15 0.501507 0.500000 0.855464
O O16 0.448399 0.363485 0.847960
O O17 0.291200 0.594233 0.734559
O O18 0.346843 0.000000 0.294096
#
# Coordination Sequence:
#
# PCOD9220792 Si02
#       8
#     8   8   8   8   8   8   8   8
#     4  11  24  44  67  98 133 173 214 276 331 388
#     4  11  22  38  65  99 131 171 216 272 331 396
#     4  12  24  43  69  97 128 175 227 272 325 398
#     4  11  25  43  67  99 129 173 226 276 326 393
#     4  11  25  44  67  95 136 177 216 274 335 394
#     4  11  23  40  63 101 136 166 212 265 336 400
#     4  12  23  42  71  99 131 173 220 271 332 393
#     4  11  26  45  65  96 136 177 221 273 330 392
#
# _framework density 20.892201
#
# number of rings (size 3 to 8) (size 9 to 14) (size 15 to 20)
#    0.000    0.750    6.250    2.250    1.750    5.000 
#    0.000    1.250    0.000    0.750    0.000    0.000 
#    0.000    0.000    0.000    0.000    0.000    0.000 
#
# Total GULP energy -178863.335668 kJ/mol
# GULP energy per Si atom -5589.479240 kJ/mol
# Density = 2.084465 g / cm^3
# Si number density = 20.892201 Si / 1000 Ang^3
#
#
#
# Elastic Constant Matrix: (Units=GPa)
#
#
# Indices 1 2 3 4 5 6 
#
# 1 76.7424 13.3123 1.4794 0.0000 -16.3036 0.0000
# 2 13.3123 105.5205 28.4414 0.0000 -8.5167 0.0000
# 3 1.4794 28.4414 75.0876 0.0000 3.3931 0.0000
# 4 0.0000 0.0000 0.0000 4.8849 0.0000 -5.3281
# 5 -16.3036 -8.5167 3.3931 0.0000 16.0220 0.0000
# 6 0.0000 0.0000 0.0000 -5.3281 0.0000 25.3727
#
#
#
# Elastic Compliance Matrix: (Units=1/GPa)
#
#
# Indices 1 2 3 4 5 6 
#
# 1 0.016737 -0.000498 -0.000907 0.000000 0.016959 0.000000
# 2 -0.000498 0.011290 -0.004558 0.000000 0.006460 0.000000
# 3 -0.000907 -0.004558 0.015360 0.000000 -0.006599 0.000000
# 4 0.000000 0.000000 0.000000 0.265535 0.000000 0.055761
# 5 0.016959 0.006460 -0.006599 0.000000 0.084502 0.000000
# 6 0.000000 0.000000 0.000000 0.055761 0.000000 0.051122
#
#
# Mechanical properties :
#
#
# Convention : Reuss Voigt Hill
#
# Bulk Modulus (GPa) = 31.78679 38.20185 34.99432
# Shear Modulus (GPa) = 10.70752 23.53041 17.11897
#
# Velocity S-wave (km/s) = 2.26633 3.35965 2.86561
# Velocity P-wave (km/s) = 4.70064 5.77707 5.26643
#
# Compressibility (1/GPa) = 0.03145960
#
# Stress axis : x y z
#
# Youngs Moduli (GPa) = 59.74651 88.57658 65.10218
#
# Poissons Ratio (x) = 0.04413 0.05907
# Poissons Ratio (y) = 0.02977 0.29676
# Poissons Ratio (z) = 0.05421 0.40376
#
# Static dielectric constant tensor:
#      x y z
#    x 1.796100 0.000000 -0.013100 
#    y 0.000000 1.731950 0.000000 
#    z -0.013100 0.000000 1.734230 
# 
# From -- ./inp_files/146156.got.cif
#   From: 2010.05.17/outbox.cif.g08.bks.cpg/sg12_74_cif.got.tgz:146156.got - 2010.06.03 13:09:07.
