data_PCOD9220546
_publ_section_title
;
Structure prediction by ZEFSAII (Michael W. Deem and Ramdas Pophale) SiO2 
 PCOD9220546
Probable space group: C 2/M
;
_chemical_formula_sum "Si O2"
_cell_formula_units_Z 44
_cell_length_a 14.119064
_cell_length_b 23.993156
_cell_length_c 11.361843
_cell_angle_alpha 90.000000
_cell_angle_beta 40.341211
_cell_angle_gamma 90.000000
_cell_volume 2491.571115
_symmetry_space_group_name_H-M "C 2/M"
_symmetry_group_IT_number 12
_symmetry_cell_setting 'monoclinic'
loop_
_space_group_symop_operation_xyz
x,y,z
-x,y,-z
-x,-y,-z
x,-y,z
1/2+x,1/2+y,z
1/2-x,1/2+y,-z
1/2-x,1/2-y,-z
1/2+x,1/2-y,z
loop_
_atom_site_type_symbol
_atom_site_label
_atom_site_fract_x
_atom_site_fract_y
_atom_site_fract_z
Si Si1 0.520606 0.937055 0.676173
Si Si2 0.611800 0.178482 0.672254
Si Si3 0.362896 0.256639 0.000286
Si Si4 0.239012 0.436976 0.247249
Si Si5 0.500000 0.647665 0.000000
Si Si6 0.351280 0.740646 0.578181
O O1 0.575728 0.886450 0.702564
O O2 0.629834 0.937775 0.461216
O O3 0.360960 0.924301 0.772209
O O4 0.519084 0.000000 0.727253
O O5 0.611741 0.207058 0.542142
O O6 0.768487 0.194786 0.578004
O O7 0.483962 0.209114 0.866615
O O8 0.263945 0.255023 0.210712
O O9 0.250000 0.250000 0.000000
O O10 0.456538 0.313023 0.930691
O O11 0.297695 0.500000 0.177889
O O12 0.362352 0.391876 0.151913
O O13 0.500000 0.722053 0.500000
#
# Coordination Sequence:
#
# PCOD9220546 Si02
#       6
#     8   8   8   8   4   8
#     4   9  19  35  55  79 106 145 190 228 273 332
#     4  11  22  36  58  82 116 150 181 229 284 335
#     4  12  23  36  53  85 115 150 186 229 277 337
#     4   9  19  33  53  80 112 145 180 227 283 339
#     4  12  21  34  52  82 119 146 178 224 288 338
#     4  11  23  37  56  83 117 148 186 227 281 335
#
# _framework density 17.659538999999999
#
# number of rings (size 3 to 8) (size 9 to 14) (size 15 to 20)
#    0.000    1.455    3.636    3.545    5.091    0.000 
#    0.000    0.000    0.000    2.727    0.000    0.000 
#    0.000    0.000    0.000    0.000    0.000    0.000 
#
# Total GULP energy -122719.287116 kJ/mol
# GULP energy per Si atom -5578.149414 kJ/mol
# Density = 1.761935 g / cm^3
# Si number density = 17.659539 Si / 1000 Ang^3
#
#
#
# Elastic Constant Matrix: (Units=GPa)
#
#
# Indices 1 2 3 4 5 6 
#
# 1 120.6776 61.8610 17.9623 0.0000 -25.8683 0.0000
# 2 61.8610 130.8989 28.6002 0.0000 -22.4252 0.0000
# 3 17.9623 28.6002 75.4399 0.0000 -6.4647 0.0000
# 4 0.0000 0.0000 0.0000 23.7336 0.0000 -3.1618
# 5 -25.8683 -22.4252 -6.4647 0.0000 28.5925 0.0000
# 6 0.0000 0.0000 0.0000 -3.1618 0.0000 29.4234
#
#
#
# Elastic Compliance Matrix: (Units=1/GPa)
#
#
# Indices 1 2 3 4 5 6 
#
# 1 0.012218 -0.004355 -0.000616 0.000000 0.007499 0.000000
# 2 -0.004355 0.011002 -0.002786 0.000000 0.004059 0.000000
# 3 -0.000616 -0.002786 0.014504 0.000000 0.000537 0.000000
# 4 0.000000 0.000000 0.000000 0.042746 0.000000 0.004593
# 5 0.007499 0.004059 0.000537 0.000000 0.045064 0.000000
# 6 0.000000 0.000000 0.000000 0.004593 0.000000 0.034480
#
#
# Mechanical properties :
#
#
# Convention : Reuss Voigt Hill
#
# Bulk Modulus (GPa) = 45.02257 60.42927 52.72592
# Shear Modulus (GPa) = 27.33273 30.92278 29.12776
#
# Velocity S-wave (km/s) = 3.93843 4.18910 4.06569
# Velocity P-wave (km/s) = 6.79939 7.59548 7.20844
#
# Compressibility (1/GPa) = 0.02221108
#
# Stress axis : x y z
#
# Youngs Moduli (GPa) = 81.84614 90.89580 68.94436
#
# Poissons Ratio (x) = 0.39584 0.04244
# Poissons Ratio (y) = 0.35643 0.19209
# Poissons Ratio (z) = 0.05038 0.25325
#
# Static dielectric constant tensor:
#      x y z
#    x 1.629400 0.000000 -0.004850 
#    y 0.000000 1.612990 0.000000 
#    z -0.004850 0.000000 1.620180 
# 
# From -- ./inp_files/148548.got.cif
#   From: 2010.05.17/outbox.cif.g08.bks.cpg/sg12_75_cif.got.tgz:148548.got - 2010.06.03 13:09:07.
