data_PCOD9220159
_publ_section_title
;
Structure prediction by ZEFSAII (Michael W. Deem and Ramdas Pophale) SiO2 
 PCOD9220159
Probable space group: C 2/M
;
_chemical_formula_sum "Si O2"
_cell_formula_units_Z 56
_cell_length_a 9.405521
_cell_length_b 24.964913
_cell_length_c 20.352832
_cell_angle_alpha 90.000000
_cell_angle_beta 37.627420
_cell_angle_gamma 90.000000
_cell_volume 2917.700351
_symmetry_space_group_name_H-M "C 2/M"
_symmetry_group_IT_number 12
_symmetry_cell_setting 'monoclinic'
loop_
_space_group_symop_operation_xyz
x,y,z
-x,y,-z
-x,-y,-z
x,-y,z
1/2+x,1/2+y,z
1/2-x,1/2+y,-z
1/2-x,1/2-y,-z
1/2+x,1/2-y,z
loop_
_atom_site_type_symbol
_atom_site_label
_atom_site_fract_x
_atom_site_fract_y
_atom_site_fract_z
Si Si1 0.127217 0.593376 0.246920
Si Si2 0.269020 0.691157 0.883958
Si Si3 0.018411 0.000000 0.915931
Si Si4 0.111834 0.560612 0.391849
Si Si5 0.609553 0.409850 0.249260
Si Si6 0.388770 0.301541 0.112989
Si Si7 0.477703 0.000000 0.085245
Si Si8 0.374070 0.562931 0.614632
O O1 0.339493 0.551476 0.161419
O O2 0.059400 0.595571 0.348068
O O3 0.212553 0.650408 0.191344
O O4 0.902191 0.570484 0.292962
O O5 0.362232 0.643504 0.804065
O O6 0.423592 0.699181 0.894587
O O7 0.244129 0.745438 0.850218
O O8 0.000000 0.677837 0.000000
O O9 0.000000 0.000000 0.000000
O O10 0.747621 0.000000 0.001432
O O11 0.025113 0.500000 0.411230
O O12 0.387823 0.559896 0.300746
O O13 0.000000 0.580138 0.500000
O O14 0.835283 0.447900 0.160823
O O15 0.558801 0.403626 0.345425
O O16 0.500000 0.311830 0.000000
O O17 0.500000 0.000000 0.000000
O O18 0.500000 0.577211 0.500000
O O19 0.425669 0.500000 0.608595
#
# Coordination Sequence:
#
# PCOD9220159 Si02
#       8
#     8   8   4   8   8   8   4   8
#     4  12  23  40  63  92 129 166 212 256 324 379
#     4  11  25  43  67  94 127 169 218 260 311 383
#     4  12  24  38  55  92 131 168 198 252 318 381
#     4  11  21  39  64  92 125 163 213 263 313 381
#     4  12  23  40  63  93 128 171 210 260 320 378
#     4  11  25  44  67  95 126 169 217 260 313 381
#     4  12  24  36  57  90 135 164 204 250 318 387
#     4  11  23  41  64  95 131 169 217 266 316 380
#
# _framework density 19.193197999999999
#
# number of rings (size 3 to 8) (size 9 to 14) (size 15 to 20)
#    0.000    0.571    4.286    5.143    6.000    2.286 
#    0.000    0.000    0.000    5.143    0.000    0.000 
#    0.000    0.000    0.000    0.000    0.000    0.000 
#
# Total GULP energy -156366.966679 kJ/mol
# GULP energy per Si atom -5584.534524 kJ/mol
# Density = 1.914951 g / cm^3
# Si number density = 19.193198 Si / 1000 Ang^3
#
#
#
# Elastic Constant Matrix: (Units=GPa)
#
#
# Indices 1 2 3 4 5 6 
#
# 1 137.1451 34.8908 41.3299 0.0003 12.1264 -0.0002
# 2 34.8908 107.2011 61.5413 -0.0002 21.8030 -0.0002
# 3 41.3299 61.5413 89.3640 0.0002 22.2950 -0.0012
# 4 0.0003 -0.0002 0.0002 37.0041 -0.0001 6.8975
# 5 12.1264 21.8030 22.2950 -0.0001 46.7438 0.0005
# 6 -0.0002 -0.0002 -0.0012 6.8975 0.0005 17.3978
#
#
#
# Elastic Compliance Matrix: (Units=1/GPa)
#
#
# Indices 1 2 3 4 5 6 
#
# 1 0.008521 -0.000820 -0.003314 0.000000 -0.000247 0.000000
# 2 -0.000820 0.015751 -0.009861 0.000000 -0.002430 -0.000001
# 3 -0.003314 -0.009861 0.020603 0.000000 -0.004368 0.000002
# 4 0.000000 0.000000 0.000000 0.029180 0.000000 -0.011569
# 5 -0.000247 -0.002430 -0.004368 0.000000 0.024674 -0.000001
# 6 0.000000 -0.000001 0.000002 -0.011569 -0.000001 0.062065
#
#
# Mechanical properties :
#
#
# Convention : Reuss Voigt Hill
#
# Bulk Modulus (GPa) = 59.22839 67.69270 63.46055
# Shear Modulus (GPa) = 25.71837 33.29235 29.50536
#
# Velocity S-wave (km/s) = 3.66454 4.16936 3.92507
# Velocity P-wave (km/s) = 6.98793 7.65008 7.32649
#
# Compressibility (1/GPa) = 0.01688380
#
# Stress axis : x y z
#
# Youngs Moduli (GPa) = 117.35879 63.48994 48.53554
#
# Poissons Ratio (x) = 0.05209 0.16085
# Poissons Ratio (y) = 0.09629 0.47860
# Poissons Ratio (z) = 0.38894 0.62607
#
# Static dielectric constant tensor:
#      x y z
#    x 1.704400 0.000000 0.007550 
#    y 0.000000 1.631950 0.000000 
#    z 0.007550 0.000000 1.686560 
# 
# From -- ./inp_files/259829.got.cif
#   From: 2010.05.17/outbox.cif.g08.bks.cpg/sg12_130_cif.got.tgz:259829.got - 2010.06.03 13:09:07.
