data_PCOD9220030
_publ_section_title
;
Structure prediction by ZEFSAII (Michael W. Deem and Ramdas Pophale) SiO2 
 PCOD9220030
Probable space group: C 2/M
;
_chemical_formula_sum "Si O2"
_cell_formula_units_Z 40
_cell_length_a 29.460347
_cell_length_b 10.625300
_cell_length_c 9.282522
_cell_angle_alpha 90.000000
_cell_angle_beta 39.149541
_cell_angle_gamma 90.000000
_cell_volume 1834.479573
_symmetry_space_group_name_H-M "C 2/M"
_symmetry_group_IT_number 12
_symmetry_cell_setting 'monoclinic'
loop_
_space_group_symop_operation_xyz
x,y,z
-x,y,-z
-x,-y,-z
x,-y,z
1/2+x,1/2+y,z
1/2-x,1/2+y,-z
1/2-x,1/2-y,-z
1/2+x,1/2-y,z
loop_
_atom_site_type_symbol
_atom_site_label
_atom_site_fract_x
_atom_site_fract_y
_atom_site_fract_z
Si Si1 0.615460 0.256224 0.550582
Si Si2 0.404943 0.349107 0.091844
Si Si3 0.802068 0.866456 0.892490
Si Si4 0.764201 0.140875 0.295261
Si Si5 0.991282 0.643047 0.693991
O O1 0.632661 0.351241 0.377491
O O2 0.692616 0.206980 0.415823
O O3 0.567035 0.151241 0.593072
O O4 0.579782 0.318361 0.778114
O O5 0.414412 0.500000 0.042880
O O6 0.447164 0.254020 0.882385
O O7 0.319969 0.315545 0.277830
O O8 0.764927 0.000000 0.952688
O O9 0.750000 0.750000 0.000000
O O10 0.816926 0.864893 0.025058
O O11 0.741774 0.000000 0.390798
O O12 0.961630 0.500000 0.784346
O O13 0.000000 0.664321 0.500000
#
# Coordination Sequence:
#
# PCOD9220030 Si02
#       5
#     8   8   8   8   8
#     4  11  21  37  64  93 125 162 206 257 308 365
#     4  11  24  41  63  94 130 164 204 255 312 374
#     4   9  18  33  55  84 119 159 203 248 297 354
#     4   9  19  37  60  89 124 164 206 250 304 363
#     4  11  26  46  66  90 122 164 212 260 313 373
#
# _framework density 21.804549999999999
#
# number of rings (size 3 to 8) (size 9 to 14) (size 15 to 20)
#    0.000    1.800    0.000    3.600    0.000    6.000 
#    0.000    9.000    0.000    0.000    0.000    0.000 
#    0.000    0.000    0.000    0.000    0.000    0.000 
#
# Total GULP energy -111351.045508 kJ/mol
# GULP energy per Si atom -5567.552275 kJ/mol
# Density = 2.175492 g / cm^3
# Si number density = 21.804550 Si / 1000 Ang^3
#
#
#
# Elastic Constant Matrix: (Units=GPa)
#
#
# Indices 1 2 3 4 5 6 
#
# 1 110.2190 36.7889 45.7644 0.0000 13.0104 0.0000
# 2 36.7889 126.5640 51.0132 0.0000 4.0433 0.0000
# 3 45.7644 51.0132 98.5096 0.0000 5.5363 0.0000
# 4 0.0000 0.0000 0.0000 13.1097 0.0000 -6.2384
# 5 13.0104 4.0433 5.5363 0.0000 19.4293 0.0000
# 6 0.0000 0.0000 0.0000 -6.2384 0.0000 24.1259
#
#
#
# Elastic Compliance Matrix: (Units=1/GPa)
#
#
# Indices 1 2 3 4 5 6 
#
# 1 0.012238 -0.001522 -0.004527 0.000000 -0.006588 0.000000
# 2 -0.001522 0.010182 -0.004577 0.000000 0.000205 0.000000
# 3 -0.004527 -0.004577 0.014635 0.000000 -0.000186 0.000000
# 4 0.000000 0.000000 0.000000 0.086982 0.000000 0.022492
# 5 -0.006588 0.000205 -0.000186 0.000000 0.055891 0.000000
# 6 0.000000 0.000000 0.000000 0.022492 0.000000 0.047265
#
#
# Mechanical properties :
#
#
# Convention : Reuss Voigt Hill
#
# Bulk Modulus (GPa) = 63.27986 66.93620 65.10803
# Shear Modulus (GPa) = 19.70727 24.78139 22.24433
#
# Velocity S-wave (km/s) = 3.00961 3.37489 3.19747
# Velocity P-wave (km/s) = 6.41572 6.77875 6.59973
#
# Compressibility (1/GPa) = 0.01580282
#
# Stress axis : x y z
#
# Youngs Moduli (GPa) = 81.71078 98.21347 68.32906
#
# Poissons Ratio (x) = 0.14950 0.30932
# Poissons Ratio (y) = 0.12438 0.31274
# Poissons Ratio (z) = 0.36990 0.44953
#
# Static dielectric constant tensor:
#      x y z
#    x 1.840100 0.000000 0.012130 
#    y 0.000000 1.808840 0.000000 
#    z 0.012130 0.000000 1.887650 
# 
# From -- ./inp_files/109678.got.cif
#   From: 2010.05.17/outbox.cif.g08.bks.cpg/sg12_55_cif.got.tgz:109678.got - 2010.06.03 13:09:07.
