data_PCOD9220804
_publ_section_title
;
Structure prediction by ZEFSAII (Michael W. Deem and Ramdas Pophale) SiO2 
 PCOD9220804
Probable space group: C 2/M
;
_chemical_formula_sum "Si O2"
_cell_formula_units_Z 64
_cell_length_a 20.816838
_cell_length_b 23.657282
_cell_length_c 17.049735
_cell_angle_alpha 90.000000
_cell_angle_beta 160.201626
_cell_angle_gamma 90.000000
_cell_volume 2843.981874
_symmetry_space_group_name_H-M "C 2/M"
_symmetry_group_IT_number 12
_symmetry_cell_setting 'monoclinic'
loop_
_space_group_symop_operation_xyz
x,y,z
-x,y,-z
-x,-y,-z
x,-y,z
1/2+x,1/2+y,z
1/2-x,1/2+y,-z
1/2-x,1/2-y,-z
1/2+x,1/2-y,z
loop_
_atom_site_type_symbol
_atom_site_label
_atom_site_fract_x
_atom_site_fract_y
_atom_site_fract_z
Si Si1 0.372740 0.253045 0.483101
Si Si2 0.455830 0.628562 0.634596
Si Si3 0.958740 0.934646 0.804556
Si Si4 0.150251 0.640523 0.999499
Si Si5 0.223515 0.244606 0.144159
Si Si6 0.601886 0.871771 0.424046
Si Si7 0.180364 0.621485 0.763891
Si Si8 0.220721 0.564773 0.230142
O O1 0.363285 0.308970 0.524436
O O2 0.230774 0.252369 0.246163
O O3 0.573247 0.254129 0.665854
O O4 0.365614 0.194796 0.522423
O O5 0.458654 0.597449 0.720660
O O6 0.671700 0.638806 0.854714
O O7 0.346803 0.591208 0.444166
O O8 0.791398 0.905374 0.660796
O O9 0.916947 0.000000 0.745169
O O10 0.167777 0.926148 0.080621
O O11 0.102860 0.704797 0.969809
O O12 0.222676 0.605370 0.157057
O O13 0.969164 0.616691 0.745845
O O14 0.193755 0.178955 0.091834
O O15 0.427853 0.889229 0.279589
O O16 0.000000 0.630657 0.500000
O O17 0.278244 0.500000 0.279327
O O18 0.000000 0.563948 0.000000
#
# Coordination Sequence:
#
# PCOD9220804 Si02
#       8
#     8   8   8   8   8   8   8   8
#     4   9  18  37  68  98 137 172 218 275 345 405
#     4  11  22  41  68 100 136 180 230 279 336 417
#     4  12  29  48  68 100 140 181 236 296 337 401
#     4  11  22  38  69 104 136 184 230 274 340 409
#     4   9  17  37  68 101 138 169 212 281 342 408
#     4  11  24  45  70 105 138 181 224 284 352 409
#     4  11  23  48  77 100 131 179 227 284 363 418
#     4  11  24  41  59  89 140 191 233 277 327 398
#
# _framework density 22.50366
#
# number of rings (size 3 to 8) (size 9 to 14) (size 15 to 20)
#    0.000    1.375    5.000    1.500    1.750    6.250 
#    2.250    0.625    0.000    0.000    0.000    0.000 
#    0.000    0.000    0.000    0.000    0.000    0.000 
#
# Total GULP energy -178818.057687 kJ/mol
# GULP energy per Si atom -5588.064303 kJ/mol
# Density = 2.245244 g / cm^3
# Si number density = 22.503660 Si / 1000 Ang^3
#
#
#
# Elastic Constant Matrix: (Units=GPa)
#
#
# Indices 1 2 3 4 5 6 
#
# 1 19.7949 12.2421 15.6297 0.0000 -5.6989 -0.0001
# 2 12.2421 112.1114 27.1779 0.0000 9.2498 0.0000
# 3 15.6297 27.1779 92.4990 0.0001 2.2902 -0.0001
# 4 0.0000 0.0000 0.0001 22.5565 0.0000 -3.7647
# 5 -5.6989 9.2498 2.2902 0.0000 26.8431 0.0000
# 6 -0.0001 0.0000 -0.0001 -3.7647 0.0000 26.9844
#
#
#
# Elastic Compliance Matrix: (Units=1/GPa)
#
#
# Indices 1 2 3 4 5 6 
#
# 1 0.067284 -0.006370 -0.009926 0.000000 0.017327 0.000000
# 2 -0.006370 0.010467 -0.001880 0.000000 -0.004799 0.000000
# 3 -0.009926 -0.001880 0.013104 0.000000 -0.002578 0.000000
# 4 0.000000 0.000000 0.000000 0.045390 0.000000 0.006333
# 5 0.017327 -0.004799 -0.002578 0.000000 0.042806 0.000000
# 6 0.000000 0.000000 0.000000 0.006333 0.000000 0.037942
#
#
# Mechanical properties :
#
#
# Convention : Reuss Voigt Hill
#
# Bulk Modulus (GPa) = 18.34807 37.16718 27.75762
# Shear Modulus (GPa) = 18.41527 26.56719 22.49123
#
# Velocity S-wave (km/s) = 2.86374 3.43967 3.16483
# Velocity P-wave (km/s) = 4.37101 5.68569 5.07113
#
# Compressibility (1/GPa) = 0.05450164
#
# Stress axis : x y z
#
# Youngs Moduli (GPa) = 14.86240 95.53799 76.31005
#
# Poissons Ratio (x) = 0.60861 0.75748
# Poissons Ratio (y) = 0.09468 0.14348
# Poissons Ratio (z) = 0.14753 0.17963
#
# Static dielectric constant tensor:
#      x y z
#    x 1.859400 0.000000 0.001370 
#    y 0.000000 1.800130 0.000000 
#    z 0.001370 0.000000 1.864880 
# 
# From -- ./inp_files/286485.got.cif
#   From: 2010.05.17/outbox.cif.g08.bks.cpg/sg12_144_cif.got.tgz:286485.got - 2010.06.03 13:09:07.
