data_PCOD9220412
_publ_section_title
;
Structure prediction by ZEFSAII (Michael W. Deem and Ramdas Pophale) SiO2 
 PCOD9220412
Probable space group: C 2/M
;
_chemical_formula_sum "Si O2"
_cell_formula_units_Z 48
_cell_length_a 9.603270
_cell_length_b 31.551342
_cell_length_c 19.330427
_cell_angle_alpha 90.000000
_cell_angle_beta 155.927391
_cell_angle_gamma 90.000000
_cell_volume 2389.052881
_symmetry_space_group_name_H-M "C 2/M"
_symmetry_group_IT_number 12
_symmetry_cell_setting 'monoclinic'
loop_
_space_group_symop_operation_xyz
x,y,z
-x,y,-z
-x,-y,-z
x,-y,z
1/2+x,1/2+y,z
1/2-x,1/2+y,-z
1/2-x,1/2-y,-z
1/2+x,1/2-y,z
loop_
_atom_site_type_symbol
_atom_site_label
_atom_site_fract_x
_atom_site_fract_y
_atom_site_fract_z
Si Si1 0.856173 0.733358 0.622795
Si Si2 0.991849 0.383276 0.138502
Si Si3 0.171807 0.114010 0.262501
Si Si4 0.669554 0.319395 0.802818
Si Si5 0.170170 0.048080 0.799153
Si Si6 0.601701 0.137506 0.338889
O O1 0.500000 0.731146 0.500000
O O2 0.750000 0.750000 0.500000
O O3 0.007040 0.686287 0.695707
O O4 0.088035 0.770378 0.758627
O O5 0.221822 0.342692 0.218916
O O6 0.205621 0.424014 0.209521
O O7 0.927087 0.380327 0.190385
O O8 0.643652 0.383554 0.935678
O O9 0.502907 0.113782 0.364696
O O10 0.127724 0.154626 0.292928
O O11 0.109445 0.074018 0.283817
O O12 0.000000 0.325181 0.000000
O O13 0.075092 0.000000 0.739383
O O14 0.500000 0.047177 0.000000
O O15 0.000000 0.135672 0.500000
#
# Coordination Sequence:
#
# PCOD9220412 Si02
#       6
#     8   8   8   8   8   8
#     4  11  22  35  49  70 101 138 180 217 249 294
#     4   9  18  33  53  78 104 129 165 210 258 305
#     4   9  18  33  54  77 102 131 167 210 253 303
#     4   9  18  33  52  74  99 132 173 216 256 297
#     4   8  15  32  59  84 101 123 162 210 254 302
#     4  11  22  34  48  71 104 141 172 206 252 299
#
# _framework density 20.091643999999999
#
# number of rings (size 3 to 8) (size 9 to 14) (size 15 to 20)
#    0.000    2.500    0.000    5.500    0.000    1.333 
#    0.000    7.500    0.000    7.000    0.000    0.000 
#    0.000    0.000    0.000    0.000    0.000    0.000 
#
# Total GULP energy -133938.425118 kJ/mol
# GULP energy per Si atom -5580.767713 kJ/mol
# Density = 2.004591 g / cm^3
# Si number density = 20.091644 Si / 1000 Ang^3
#
#
#
# Elastic Constant Matrix: (Units=GPa)
#
#
# Indices 1 2 3 4 5 6 
#
# 1 115.0171 31.9569 8.9386 0.0000 6.8175 0.0000
# 2 31.9569 115.9544 5.6450 0.0000 7.0706 0.0000
# 3 8.9386 5.6450 40.0523 -0.0001 0.4542 -0.0001
# 4 0.0000 0.0000 -0.0001 44.1194 -0.0001 17.9787
# 5 6.8175 7.0706 0.4542 -0.0001 27.4617 -0.0001
# 6 0.0000 0.0000 -0.0001 17.9787 -0.0001 25.2333
#
#
#
# Elastic Compliance Matrix: (Units=1/GPa)
#
#
# Indices 1 2 3 4 5 6 
#
# 1 0.009618 -0.002459 -0.001780 0.000000 -0.001725 0.000000
# 2 -0.002459 0.009449 -0.000763 0.000000 -0.001810 0.000000
# 3 -0.001780 -0.000763 0.025470 0.000000 0.000217 0.000000
# 4 0.000000 0.000000 0.000000 0.031939 0.000000 -0.022757
# 5 -0.001725 -0.001810 0.000217 0.000000 0.037305 0.000000
# 6 0.000000 0.000000 0.000000 -0.022757 0.000000 0.055844
#
#
# Mechanical properties :
#
#
# Convention : Reuss Voigt Hill
#
# Bulk Modulus (GPa) = 28.95738 40.45610 34.70674
# Shear Modulus (GPa) = 26.15878 34.32844 30.24361
#
# Velocity S-wave (km/s) = 3.61220 4.13800 3.88401
# Velocity P-wave (km/s) = 5.64281 6.55822 6.11766
#
# Compressibility (1/GPa) = 0.03453351
#
# Stress axis : x y z
#
# Youngs Moduli (GPa) = 103.96989 105.82873 39.26237
#
# Poissons Ratio (x) = 0.26022 0.06990
# Poissons Ratio (y) = 0.25565 0.02994
# Poissons Ratio (z) = 0.18511 0.08070
#
# Static dielectric constant tensor:
#      x y z
#    x 1.766210 0.000000 -0.081170 
#    y 0.000000 1.781610 0.000000 
#    z -0.081170 0.000000 1.899140 
# 
# From -- ./inp_files/42244.got.cif
#   From: 2010.05.17/outbox.cif.g08.bks.cpg/sg12_22_cif.got.tgz:42244.got - 2010.06.03 13:09:07.
