data_PCOD9220666
_publ_section_title
;
Structure prediction by ZEFSAII (Michael W. Deem and Ramdas Pophale) SiO2 
 PCOD9220666
Probable space group: C 2/M
;
_chemical_formula_sum "Si O2"
_cell_formula_units_Z 32
_cell_length_a 4.872260
_cell_length_b 23.210613
_cell_length_c 11.789815
_cell_angle_alpha 90.000000
_cell_angle_beta 102.075751
_cell_angle_gamma 90.000000
_cell_volume 1303.785082
_symmetry_space_group_name_H-M "C 2/M"
_symmetry_group_IT_number 12
_symmetry_cell_setting 'monoclinic'
loop_
_space_group_symop_operation_xyz
x,y,z
-x,y,-z
-x,-y,-z
x,-y,z
1/2+x,1/2+y,z
1/2-x,1/2+y,-z
1/2-x,1/2-y,-z
1/2+x,1/2-y,z
loop_
_atom_site_type_symbol
_atom_site_label
_atom_site_fract_x
_atom_site_fract_y
_atom_site_fract_z
Si Si1 0.000000 0.328285 0.000000
Si Si2 0.417529 0.000000 0.311110
Si Si3 0.500000 0.404375 0.000000
Si Si4 0.657010 0.500000 0.834037
Si Si5 0.205188 0.786111 0.753476
Si Si6 0.195791 0.617077 0.421041
O O1 0.182660 0.295407 0.109116
O O2 0.228709 0.365858 0.951048
O O3 0.542843 0.057740 0.374690
O O4 0.533791 0.000000 0.191305
O O5 0.081550 0.000000 0.283255
O O6 0.596484 0.444426 0.904955
O O7 0.383600 0.732053 0.723874
O O8 0.264085 0.842082 0.683797
O O9 0.500000 0.605486 0.500000
O O10 0.000000 0.645658 0.500000
#
# Coordination Sequence:
#
# PCOD9220666 Si02
#       6
#     4   4   4   4   8   8
#     4  12  24  44  68  97 132 172 222 275 332 390
#     4  12  24  44  68  97 132 172 222 275 332 390
#     4  11  22  37  62  97 136 177 218 266 328 396
#     4  11  22  37  62  97 136 177 218 266 328 396
#     4  12  26  45  70  99 134 176 222 274 330 392
#     4  12  26  45  70  99 134 176 222 274 330 392
#
# _framework density 24.543925000000002
#
# number of rings (size 3 to 8) (size 9 to 14) (size 15 to 20)
#    0.000    0.250    0.000   10.500    0.000    5.000 
#    0.000    0.000    0.000    0.000    0.000    0.000 
#    0.000    0.000    0.000    0.000    0.000    0.000 
#
# Total GULP energy -89776.398800 kJ/mol
# GULP energy per Si atom -5611.024925 kJ/mol
# Density = 2.448806 g / cm^3
# Si number density = 24.543925 Si / 1000 Ang^3
#
#
#
# Elastic Constant Matrix: (Units=GPa)
#
#
# Indices 1 2 3 4 5 6 
#
# 1 72.5644 -14.1334 -12.0636 0.0000 1.8448 0.0000
# 2 -14.1334 73.9421 25.7684 0.0000 -0.1461 0.0000
# 3 -12.0636 25.7684 83.0510 0.0000 -1.2575 0.0000
# 4 0.0000 0.0000 0.0000 33.7596 0.0000 20.1698
# 5 1.8448 -0.1461 -1.2575 0.0000 48.5272 0.0000
# 6 0.0000 0.0000 0.0000 20.1698 0.0000 60.5356
#
#
#
# Elastic Compliance Matrix: (Units=1/GPa)
#
#
# Indices 1 2 3 4 5 6 
#
# 1 0.014469 0.002282 0.001386 0.000000 -0.000507 0.000000
# 2 0.002282 0.015524 -0.004488 0.000000 -0.000156 0.000000
# 3 0.001386 -0.004488 0.013639 0.000000 0.000287 0.000000
# 4 0.000000 0.000000 0.000000 0.036983 0.000000 -0.012322
# 5 -0.000507 -0.000156 0.000287 0.000000 0.020633 0.000000
# 6 0.000000 0.000000 0.000000 -0.012322 0.000000 0.020625
#
#
# Mechanical properties :
#
#
# Convention : Reuss Voigt Hill
#
# Bulk Modulus (GPa) = 23.81452 25.41115 24.61284
# Shear Modulus (GPa) = 36.36107 43.89688 40.12898
#
# Velocity S-wave (km/s) = 3.85316 4.23366 4.04788
# Velocity P-wave (km/s) = 5.43320 5.85442 5.64774
#
# Compressibility (1/GPa) = 0.04199118
#
# Stress axis : x y z
#
# Youngs Moduli (GPa) = 69.11540 64.41732 73.32004
#
# Poissons Ratio (x) = -0.14697 -0.10163
# Poissons Ratio (y) = -0.15769 0.32903
# Poissons Ratio (z) = -0.09580 0.28908
#
# Static dielectric constant tensor:
#      x y z
#    x 1.876130 0.000000 -0.045720 
#    y 0.000000 1.938870 0.000000 
#    z -0.045720 0.000000 1.962730 
# 
# From -- ./inp_files/114905.got.cif
#   From: 2010.05.17/outbox.cif.g08.bks.cpg/sg12_58_cif.got.tgz:114905.got - 2010.06.03 13:09:07.
