data_PCOD9220784
_publ_section_title
;
Structure prediction by ZEFSAII (Michael W. Deem and Ramdas Pophale) SiO2 
 PCOD9220784
Probable space group: C 2/M
;
_chemical_formula_sum "Si O2"
_cell_formula_units_Z 48
_cell_length_a 23.731632
_cell_length_b 15.144397
_cell_length_c 22.503664
_cell_angle_alpha 90.000000
_cell_angle_beta 18.516986
_cell_angle_gamma 90.000000
_cell_volume 2568.584633
_symmetry_space_group_name_H-M "C 2/M"
_symmetry_group_IT_number 12
_symmetry_cell_setting 'monoclinic'
loop_
_space_group_symop_operation_xyz
x,y,z
-x,y,-z
-x,-y,-z
x,-y,z
1/2+x,1/2+y,z
1/2-x,1/2+y,-z
1/2-x,1/2-y,-z
1/2+x,1/2-y,z
loop_
_atom_site_type_symbol
_atom_site_label
_atom_site_fract_x
_atom_site_fract_y
_atom_site_fract_z
Si Si1 0.708618 0.854503 0.043861
Si Si2 0.791291 0.354506 0.461159
Si Si3 0.707728 0.599960 0.409631
Si Si4 0.207969 0.099945 0.174633
Si Si5 0.000121 0.732344 0.930446
Si Si6 1.000000 0.903071 0.847221
O O1 0.759677 0.892917 0.928558
O O2 0.830175 0.893781 0.973824
O O3 0.750000 0.750000 0.000000
O O4 0.499953 0.867872 0.262663
O O5 0.750000 0.250000 0.500000
O O6 0.740252 0.392876 0.447937
O O7 0.669683 0.393807 0.634258
O O8 0.753290 0.500000 0.345075
O O9 0.499864 0.615032 0.605954
O O10 0.830799 0.672559 0.256260
O O11 0.253619 0.000000 0.147987
O O12 0.331112 0.172549 0.081758
O O13 0.000133 0.821529 0.892108
O O14 0.000000 0.751388 0.000000
O O15 0.000005 0.000000 0.875453
#
# Coordination Sequence:
#
# PCOD9220784 Si02
#       6
#     8   8   8   8   8   8
#     4  12  20  36  65  99 131 161 196 251 325 389
#     4  12  20  36  65  99 131 161 196 251 325 389
#     4  11  22  38  64  97 131 161 197 256 324 387
#     4  11  22  38  64  97 131 161 197 256 324 387
#     4  12  27  45  64  85 121 177 225 260 304 366
#     4  12  26  42  63  96 131 165 213 266 317 371
#
# _framework density 18.687334
#
# number of rings (size 3 to 8) (size 9 to 14) (size 15 to 20)
#    0.000    0.333    8.333    1.500    0.000    4.333 
#    0.000    1.667    0.000    0.000    0.000    4.667 
#    0.000    0.000    0.000    0.000    0.000    0.000 
#
# Total GULP energy -134288.365535 kJ/mol
# GULP energy per Si atom -5595.348564 kJ/mol
# Density = 1.864480 g / cm^3
# Si number density = 18.687334 Si / 1000 Ang^3
#
#
#
# Elastic Constant Matrix: (Units=GPa)
#
#
# Indices 1 2 3 4 5 6 
#
# 1 75.8597 21.1664 38.4046 0.0013 15.1471 0.0077
# 2 21.1664 125.8144 41.1377 0.0129 -5.6110 0.0068
# 3 38.4046 41.1377 119.2373 0.0047 -27.0857 0.0020
# 4 0.0013 0.0129 0.0047 17.5392 -0.0017 -6.4959
# 5 15.1471 -5.6110 -27.0857 -0.0017 4.8314 -0.0020
# 6 0.0077 0.0068 0.0020 -6.4959 -0.0020 -5.2209
#
#
#
# Elastic Compliance Matrix: (Units=1/GPa)
#
#
# Indices 1 2 3 4 5 6 
#
# 1 0.002231 -0.001376 0.008028 -0.000001 0.036414 -0.000009
# 2 -0.001376 0.009034 -0.002523 -0.000002 0.000664 0.000011
# 3 0.008028 -0.002523 -0.001054 0.000004 -0.034009 0.000016
# 4 -0.000001 -0.000002 0.000004 0.039030 0.000018 -0.048561
# 5 0.036414 0.000664 -0.034009 0.000018 -0.097073 0.000057
# 6 -0.000009 0.000011 0.000016 -0.048561 0.000057 -0.131118
#
#
# Mechanical properties :
#
#
# Convention : Reuss Voigt Hill
#
# Bulk Modulus (GPa) = 54.14355 58.03655 56.09005
# Shear Modulus (GPa) = -27.61647 18.11011 -4.75318
#
# Velocity S-wave (km/s) = -3.84841 3.11643 -1.59658
# Velocity P-wave (km/s) = 3.04783 6.63879 5.16541
#
# Compressibility (1/GPa) = 0.01846942
#
# Stress axis : x y z
#
# Youngs Moduli (GPa) = 448.23384 110.69014 -948.67964
#
# Poissons Ratio (x) = 0.15234 7.61610
# Poissons Ratio (y) = 0.61691 -2.39318
# Poissons Ratio (z) = -3.59847 0.27923
#
# Static dielectric constant tensor:
#      x y z
#    x 1.610880 0.000000 -0.007180 
#    y 0.000000 1.665490 0.000000 
#    z -0.007180 0.000000 1.636120 
# 
# From -- ./inp_files/349627.got.cif
#   From: 2010.05.17/outbox.cif.g08.bks.cpg/sg12_175_cif.got.tgz:349627.got - 2010.06.03 13:09:07.
