data_PCOD9220189
_publ_section_title
;
Structure prediction by ZEFSAII (Michael W. Deem and Ramdas Pophale) SiO2 
 PCOD9220189
Probable space group: C 2/M
;
_chemical_formula_sum "Si O2"
_cell_formula_units_Z 40
_cell_length_a 11.369520
_cell_length_b 24.313245
_cell_length_c 8.523663
_cell_angle_alpha 90.000000
_cell_angle_beta 122.178471
_cell_angle_gamma 90.000000
_cell_volume 1994.268191
_symmetry_space_group_name_H-M "C 2/M"
_symmetry_group_IT_number 12
_symmetry_cell_setting 'monoclinic'
loop_
_space_group_symop_operation_xyz
x,y,z
-x,y,-z
-x,-y,-z
x,-y,z
1/2+x,1/2+y,z
1/2-x,1/2+y,-z
1/2-x,1/2-y,-z
1/2+x,1/2-y,z
loop_
_atom_site_type_symbol
_atom_site_label
_atom_site_fract_x
_atom_site_fract_y
_atom_site_fract_z
Si Si1 0.778658 0.000000 0.248707
Si Si2 0.641336 0.714072 0.330451
Si Si3 0.000000 0.701577 0.000000
Si Si4 0.000000 0.146660 0.500000
Si Si5 0.155652 0.890030 0.155196
Si Si6 0.265601 0.110357 0.884243
Si Si7 0.587401 0.500000 0.310861
O O1 0.684236 0.052469 0.145070
O O2 0.835969 0.000000 0.467078
O O3 0.920423 0.000000 0.235569
O O4 0.750000 0.750000 0.500000
O O5 0.553806 0.682805 0.397297
O O6 0.712043 0.664259 0.282636
O O7 0.546250 0.756457 0.168010
O O8 0.131163 0.661596 0.060769
O O9 0.127846 0.116115 0.675243
O O10 0.133346 0.945319 0.244724
O O11 0.231034 0.897721 0.043145
O O12 0.000000 0.872523 0.000000
#
# Coordination Sequence:
#
# PCOD9220189 Si02
#       7
#     4   8   4   4   8   8   4
#     4  11  21  39  68  97 129 172 216 280 330 392
#     4  12  25  42  67  97 137 174 221 273 331 393
#     4  12  28  45  62  97 138 188 214 266 336 402
#     4  12  22  41  68  98 126 175 224 284 322 388
#     4  12  22  40  65 101 129 164 218 286 330 379
#     4  12  25  42  68  96 136 173 226 271 335 393
#     4  11  22  39  69 104 128 159 226 286 333 376
#
# _framework density 20.057483000000001
#
# number of rings (size 3 to 8) (size 9 to 14) (size 15 to 20)
#    0.000    0.200    7.000    3.300    2.800    2.000 
#    0.000    0.000    0.000    1.200    0.000    0.000 
#    0.000    0.000    0.000    0.000    0.000    0.000 
#
# Total GULP energy -111577.214784 kJ/mol
# GULP energy per Si atom -5578.860739 kJ/mol
# Density = 2.001183 g / cm^3
# Si number density = 20.057483 Si / 1000 Ang^3
#
#
#
# Elastic Constant Matrix: (Units=GPa)
#
#
# Indices 1 2 3 4 5 6 
#
# 1 40.0973 24.7083 31.9949 0.0000 -15.0561 0.0000
# 2 24.7083 166.5273 73.8235 0.0000 -8.2730 0.0000
# 3 31.9949 73.8235 128.7758 0.0000 -15.6040 0.0000
# 4 0.0000 0.0000 0.0000 13.1552 0.0000 -0.3860
# 5 -15.0561 -8.2730 -15.6040 0.0000 32.1474 0.0000
# 6 0.0000 0.0000 0.0000 -0.3860 0.0000 30.4190
#
#
#
# Elastic Compliance Matrix: (Units=1/GPa)
#
#
# Indices 1 2 3 4 5 6 
#
# 1 0.036147 -0.001925 -0.006254 0.000000 0.013398 0.000000
# 2 -0.001925 0.008155 -0.004305 0.000000 -0.000893 0.000000
# 3 -0.006254 -0.004305 0.012004 0.000000 0.001790 0.000000
# 4 0.000000 0.000000 0.000000 0.076044 0.000000 0.000965
# 5 0.013398 -0.000893 0.001790 0.000000 0.038021 0.000000
# 6 0.000000 0.000000 0.000000 0.000965 0.000000 0.032886
#
#
# Mechanical properties :
#
#
# Convention : Reuss Voigt Hill
#
# Bulk Modulus (GPa) = 31.91015 66.27264 49.09140
# Shear Modulus (GPa) = 20.94951 28.80256 24.87603
#
# Velocity S-wave (km/s) = 3.23534 3.79357 3.52552
# Velocity P-wave (km/s) = 5.46813 7.23197 6.41100
#
# Compressibility (1/GPa) = 0.03133799
#
# Stress axis : x y z
#
# Youngs Moduli (GPa) = 27.66516 122.62956 83.30724
#
# Poissons Ratio (x) = 0.23610 0.52096
# Poissons Ratio (y) = 0.05326 0.35861
# Poissons Ratio (z) = 0.17300 0.52787
#
# Static dielectric constant tensor:
#      x y z
#    x 1.554130 0.000000 0.040320 
#    y 0.000000 1.706060 0.000000 
#    z 0.040320 0.000000 1.672250 
# 
# From -- ./inp_files/51027.got.cif
#   From: 2010.05.17/outbox.cif.g08.bks.cpg/sg12_26_cif.got.tgz:51027.got - 2010.06.03 13:09:07.
