data_PCOD9220719
_publ_section_title
;
Structure prediction by ZEFSAII (Michael W. Deem and Ramdas Pophale) SiO2 
 PCOD9220719
Probable space group: C 2/M
;
_chemical_formula_sum "Si O2"
_cell_formula_units_Z 56
_cell_length_a 21.501325
_cell_length_b 8.642159
_cell_length_c 21.629006
_cell_angle_alpha 90.000000
_cell_angle_beta 44.892734
_cell_angle_gamma 90.000000
_cell_volume 2836.576189
_symmetry_space_group_name_H-M "C 2/M"
_symmetry_group_IT_number 12
_symmetry_cell_setting 'monoclinic'
loop_
_space_group_symop_operation_xyz
x,y,z
-x,y,-z
-x,-y,-z
x,-y,z
1/2+x,1/2+y,z
1/2-x,1/2+y,-z
1/2-x,1/2-y,-z
1/2+x,1/2-y,z
loop_
_atom_site_type_symbol
_atom_site_label
_atom_site_fract_x
_atom_site_fract_y
_atom_site_fract_z
Si Si1 0.862196 0.813150 0.573688
Si Si2 0.524624 0.185223 0.052417
Si Si3 0.211584 0.183336 0.962986
Si Si4 0.040510 0.182082 0.778020
Si Si5 0.959145 0.187063 0.624742
Si Si6 0.900128 0.319581 0.792997
Si Si7 0.209121 0.686400 0.592785
O O1 0.885689 0.763423 0.626337
O O2 0.774543 0.759986 0.601771
O O3 0.946532 0.776247 0.471871
O O4 0.858621 0.000000 0.578676
O O5 0.461851 0.251201 0.150855
O O6 0.519404 0.000000 0.058295
O O7 0.500000 0.236055 0.000000
O O8 0.623686 0.237097 0.000101
O O9 0.296016 0.207580 0.859295
O O10 0.195186 0.000000 0.980991
O O11 0.250000 0.250000 0.000000
O O12 0.113126 0.256360 0.681282
O O13 0.945677 0.221443 0.814877
O O14 0.054199 0.000000 0.770094
O O15 0.946529 0.272512 0.697306
O O16 0.954959 0.000000 0.636260
O O17 0.912901 0.500000 0.799344
O O18 0.208999 0.500000 0.589329
O O19 0.250000 0.750000 0.500000
#
# Coordination Sequence:
#
# PCOD9220719 Si02
#       7
#     8   8   8   8   8   8   8
#     4   8  17  34  56  81 114 155 197 245 296 354
#     4  11  25  45  68  95 129 168 212 267 330 391
#     4  11  23  40  65  92 124 162 204 255 311 375
#     4  12  25  41  63  89 121 165 212 260 315 378
#     4   9  17  34  59  85 113 151 200 245 294 361
#     4  11  23  38  59  90 123 153 196 253 310 368
#     4  11  22  38  60  89 126 165 208 255 309 371
#
# _framework density 19.74211
#
# number of rings (size 3 to 8) (size 9 to 14) (size 15 to 20)
#    0.000    1.571    1.429    4.714    0.000    5.143 
#    0.000    7.857    0.000    0.000    0.000    0.000 
#    0.000    0.000    0.000    0.000    0.000    0.000 
#
# Total GULP energy -156365.738057 kJ/mol
# GULP energy per Si atom -5584.490645 kJ/mol
# Density = 1.969718 g / cm^3
# Si number density = 19.742110 Si / 1000 Ang^3
#
#
#
# Elastic Constant Matrix: (Units=GPa)
#
#
# Indices 1 2 3 4 5 6 
#
# 1 103.2878 24.0580 38.4726 0.0001 2.1299 -0.0001
# 2 24.0580 68.1383 33.5043 0.0002 0.6082 -0.0002
# 3 38.4726 33.5043 92.4118 0.0000 11.3964 0.0000
# 4 0.0001 0.0002 0.0000 32.0505 0.0000 3.2733
# 5 2.1299 0.6082 11.3964 0.0000 32.6141 0.0000
# 6 -0.0001 -0.0002 0.0000 3.2733 0.0000 25.2873
#
#
#
# Elastic Compliance Matrix: (Units=1/GPa)
#
#
# Indices 1 2 3 4 5 6 
#
# 1 0.011721 -0.002069 -0.004222 0.000000 0.000748 0.000000
# 2 -0.002069 0.018353 -0.006027 0.000000 0.001899 0.000000
# 3 -0.004222 -0.006027 0.015379 0.000000 -0.004986 0.000000
# 4 0.000000 0.000000 0.000000 0.031619 0.000000 -0.004093
# 5 0.000748 0.001899 -0.004986 0.000000 0.032319 0.000000
# 6 0.000000 0.000000 0.000000 -0.004093 0.000000 0.040075
#
#
# Mechanical properties :
#
#
# Convention : Reuss Voigt Hill
#
# Bulk Modulus (GPa) = 48.03707 50.65641 49.34674
# Shear Modulus (GPa) = 27.61820 29.17723 28.39771
#
# Velocity S-wave (km/s) = 3.74431 3.84854 3.79678
# Velocity P-wave (km/s) = 6.56340 6.74264 6.65362
#
# Compressibility (1/GPa) = 0.02081726
#
# Stress axis : x y z
#
# Youngs Moduli (GPa) = 85.31933 54.48679 65.02572
#
# Poissons Ratio (x) = 0.11274 0.27451
# Poissons Ratio (y) = 0.17654 0.39189
# Poissons Ratio (z) = 0.36019 0.32838
#
# Static dielectric constant tensor:
#      x y z
#    x 1.708730 0.000000 -0.007740 
#    y 0.000000 1.668970 0.000000 
#    z -0.007740 0.000000 1.704560 
# 
# From -- ./inp_files/319651.got.cif
#   From: 2010.05.17/outbox.cif.g08.bks.cpg/sg12_160_cif.got.tgz:319651.got - 2010.06.03 13:09:07.
