data_PCOD9220818
_publ_section_title
;
Structure prediction by ZEFSAII (Michael W. Deem and Ramdas Pophale) SiO2 
 PCOD9220818
Probable space group: C 2/M
;
_chemical_formula_sum "Si O2"
_cell_formula_units_Z 64
_cell_length_a 9.865363
_cell_length_b 18.702207
_cell_length_c 32.386989
_cell_angle_alpha 90.000000
_cell_angle_beta 37.342726
_cell_angle_gamma 90.000000
_cell_volume 3624.646097
_symmetry_space_group_name_H-M "C 2/M"
_symmetry_group_IT_number 12
_symmetry_cell_setting 'monoclinic'
loop_
_space_group_symop_operation_xyz
x,y,z
-x,y,-z
-x,-y,-z
x,-y,z
1/2+x,1/2+y,z
1/2-x,1/2+y,-z
1/2-x,1/2-y,-z
1/2+x,1/2-y,z
loop_
_atom_site_type_symbol
_atom_site_label
_atom_site_fract_x
_atom_site_fract_y
_atom_site_fract_z
Si Si1 0.238214 0.414826 0.054518
Si Si2 0.339647 0.685400 0.171531
Si Si3 0.169173 0.917920 0.317962
Si Si4 0.799529 0.321563 0.015056
Si Si5 0.052718 0.581854 0.294807
Si Si6 0.782661 0.587083 0.528781
Si Si7 0.241928 0.412876 0.558198
Si Si8 0.976621 0.672877 0.186956
O O1 0.212628 0.500000 0.060716
O O2 0.099666 0.379080 0.124920
O O3 0.500000 0.398081 0.000000
O O4 0.162754 0.381482 0.029061
O O5 0.572007 0.661164 0.094709
O O6 0.243104 0.629734 0.228284
O O7 0.391985 0.758908 0.182279
O O8 0.155406 0.692841 0.179635
O O9 0.353382 0.920753 0.309555
O O10 0.271855 0.868432 0.257955
O O11 0.942528 0.890190 0.393757
O O12 0.134789 0.000000 0.311735
O O13 0.750000 0.250000 0.000000
O O14 0.000000 0.312651 0.000000
O O15 0.128956 0.500000 0.283341
O O16 0.934479 0.611366 0.364761
O O17 0.770492 0.500000 0.531075
O O18 0.814474 0.609458 0.474156
O O19 0.000000 0.610056 0.500000
O O20 0.500000 0.390987 0.500000
O O21 0.240595 0.500000 0.561949
#
# Coordination Sequence:
#
# PCOD9220818 Si02
#       8
#     8   8   8   8   8   8   8   8
#     4  11  23  40  63  92 118 147 193 243 293 347
#     4  11  23  38  61  84 113 154 191 233 285 343
#     4   9  17  32  55  81 109 142 185 234 281 331
#     4  12  23  40  65  88 118 156 200 239 286 345
#     4   9  18  33  56  85 110 141 190 239 282 333
#     4   9  16  27  46  76 109 141 177 223 282 338
#     4   9  14  26  50  77 105 138 183 231 275 328
#     4  11  22  39  60  84 113 152 193 233 282 345
#
# _framework density 17.656896
#
# number of rings (size 3 to 8) (size 9 to 14) (size 15 to 20)
#    0.000    1.875    3.750    1.500    0.000    1.250 
#    2.250    0.000    0.000    1.500    0.000    0.000 
#    0.000    0.000    0.000    0.000    0.000    0.000 
#
# Total GULP energy -178441.104967 kJ/mol
# GULP energy per Si atom -5576.284530 kJ/mol
# Density = 1.761671 g / cm^3
# Si number density = 17.656896 Si / 1000 Ang^3
#
#
#
# Elastic Constant Matrix: (Units=GPa)
#
#
# Indices 1 2 3 4 5 6 
#
# 1 97.4976 33.9928 41.9938 -0.0048 18.5260 0.0002
# 2 33.9928 60.5330 46.6396 -0.0030 9.7633 0.0010
# 3 41.9938 46.6396 160.1980 0.0228 21.8145 0.0066
# 4 -0.0048 -0.0030 0.0228 20.4491 -0.0036 0.9215
# 5 18.5260 9.7633 21.8145 -0.0036 27.1713 -0.0008
# 6 0.0002 0.0010 0.0066 0.9215 -0.0008 36.5469
#
#
#
# Elastic Compliance Matrix: (Units=1/GPa)
#
#
# Indices 1 2 3 4 5 6 
#
# 1 0.014057 -0.006038 -0.001030 0.000002 -0.006588 0.000000
# 2 -0.006038 0.024111 -0.005409 0.000008 -0.000204 0.000000
# 3 -0.001030 -0.005409 0.008675 -0.000011 -0.004319 -0.000001
# 4 0.000002 0.000008 -0.000011 0.048958 0.000011 -0.001234
# 5 -0.006588 -0.000204 -0.004319 0.000011 0.044836 0.000002
# 6 0.000000 0.000000 -0.000001 -0.001234 0.000002 0.027393
#
#
# Mechanical properties :
#
#
# Convention : Reuss Voigt Hill
#
# Bulk Modulus (GPa) = 45.68346 62.60898 54.14622
# Shear Modulus (GPa) = 24.96495 29.87361 27.41928
#
# Velocity S-wave (km/s) = 3.76426 4.11773 3.94495
# Velocity P-wave (km/s) = 6.69491 7.62517 7.17513
#
# Compressibility (1/GPa) = 0.02188976
#
# Stress axis : x y z
#
# Youngs Moduli (GPa) = 71.13782 41.47478 115.27134
#
# Poissons Ratio (x) = 0.25042 0.11873
# Poissons Ratio (y) = 0.42951 0.62351
# Poissons Ratio (z) = 0.07327 0.22434
#
# Static dielectric constant tensor:
#      x y z
#    x 1.583930 0.000000 -0.003820 
#    y 0.000000 1.599650 0.000000 
#    z -0.003820 0.000000 1.614300 
# 
# From -- ./inp_files/372920.got.cif
#   From: 2010.05.17/outbox.cif.g08.bks.cpg/sg12_187_cif.got.tgz:372920.got - 2010.06.03 13:09:07.
