data_PCOD9220044
_publ_section_title
;
Structure prediction by ZEFSAII (Michael W. Deem and Ramdas Pophale) SiO2 
 PCOD9220044
Probable space group: C 2/M
;
_chemical_formula_sum "Si O2"
_cell_formula_units_Z 48
_cell_length_a 11.502977
_cell_length_b 17.797241
_cell_length_c 12.443200
_cell_angle_alpha 90.000000
_cell_angle_beta 71.619446
_cell_angle_gamma 90.000000
_cell_volume 2417.427660
_symmetry_space_group_name_H-M "C 2/M"
_symmetry_group_IT_number 12
_symmetry_cell_setting 'monoclinic'
loop_
_space_group_symop_operation_xyz
x,y,z
-x,y,-z
-x,-y,-z
x,-y,z
1/2+x,1/2+y,z
1/2-x,1/2+y,-z
1/2-x,1/2-y,-z
1/2+x,1/2-y,z
loop_
_atom_site_type_symbol
_atom_site_label
_atom_site_fract_x
_atom_site_fract_y
_atom_site_fract_z
Si Si1 0.959182 0.000000 0.632971
Si Si2 0.863584 0.649532 0.496749
Si Si3 0.460839 0.353010 0.122879
Si Si4 0.145248 0.500000 0.962863
Si Si5 0.236567 0.000000 0.608155
Si Si6 0.291295 0.500000 0.143950
Si Si7 0.809570 0.882226 0.799621
Si Si8 0.299397 0.757835 0.310530
O O1 0.000000 0.000000 0.500000
O O2 0.876274 0.070956 0.686234
O O3 0.088401 0.000000 0.658415
O O4 0.785300 0.573470 0.533057
O O5 0.798635 0.710442 0.592764
O O6 0.860365 0.684286 0.377820
O O7 0.000000 0.635982 0.500000
O O8 0.376350 0.425286 0.120042
O O9 0.586296 0.377984 0.141172
O O10 0.392427 0.299438 0.226950
O O11 0.500000 0.314391 0.000000
O O12 0.198902 0.428668 0.882946
O O13 0.202847 0.500000 0.066255
O O14 0.000000 0.500000 0.000000
O O15 0.278646 0.000000 0.720595
O O16 0.766239 0.804285 0.763962
#
# Coordination Sequence:
#
# PCOD9220044 Si02
#       8
#     4   8   8   4   4   4   8   8
#     4  11  21  37  66  94 125 167 222 277 327 386
#     4  11  24  43  65  95 139 181 222 276 338 405
#     4  12  23  43  73  98 128 179 230 281 329 394
#     4  11  26  45  67  97 136 174 217 282 334 392
#     4  12  22  40  72 100 123 179 234 271 335 396
#     4  12  21  45  73  98 128 171 235 280 319 398
#     4  11  23  42  66  96 133 172 224 277 335 391
#     4  11  25  42  64 101 140 173 225 279 341 402
#
# _framework density 19.855816999999998
#
# number of rings (size 3 to 8) (size 9 to 14) (size 15 to 20)
#    0.000    0.667    5.000    3.000    0.000    6.667 
#    3.000    0.000    0.000    0.000    0.000    0.000 
#    0.000    0.000    0.000    0.000    0.000    0.000 
#
# Total GULP energy -134173.941130 kJ/mol
# GULP energy per Si atom -5590.580880 kJ/mol
# Density = 1.981062 g / cm^3
# Si number density = 19.855817 Si / 1000 Ang^3
#
#
#
# Elastic Constant Matrix: (Units=GPa)
#
#
# Indices 1 2 3 4 5 6 
#
# 1 124.1269 41.4044 35.8056 0.0000 -11.7000 0.0000
# 2 41.4044 94.2204 27.3183 0.0000 -5.2170 0.0000
# 3 35.8056 27.3183 128.4636 0.0000 -0.3299 0.0000
# 4 0.0000 0.0000 0.0000 18.8800 0.0000 12.8269
# 5 -11.7000 -5.2170 -0.3299 0.0000 32.9351 0.0000
# 6 0.0000 0.0000 0.0000 12.8269 0.0000 18.5333
#
#
#
# Elastic Compliance Matrix: (Units=1/GPa)
#
#
# Indices 1 2 3 4 5 6 
#
# 1 0.010164 -0.003710 -0.002036 0.000000 0.003003 0.000000
# 2 -0.003710 0.012769 -0.001680 0.000000 0.000688 0.000000
# 3 -0.002036 -0.001680 0.008707 0.000000 -0.000902 0.000000
# 4 0.000000 0.000000 0.000000 0.099974 0.000000 -0.069192
# 5 0.003003 0.000688 -0.000902 0.000000 0.031529 0.000000
# 6 0.000000 0.000000 0.000000 -0.069192 0.000000 0.101845
#
#
# Mechanical properties :
#
#
# Convention : Reuss Voigt Hill
#
# Bulk Modulus (GPa) = 59.56591 61.76305 60.66448
# Shear Modulus (GPa) = 17.51708 30.22186 23.86947
#
# Velocity S-wave (km/s) = 2.97343 3.90560 3.47095
# Velocity P-wave (km/s) = 6.46937 7.17716 6.83243
#
# Compressibility (1/GPa) = 0.01678813
#
# Stress axis : x y z
#
# Youngs Moduli (GPa) = 98.38450 78.31620 114.85380
#
# Poissons Ratio (x) = 0.29054 0.23388
# Poissons Ratio (y) = 0.36500 0.19290
# Poissons Ratio (z) = 0.20035 0.13153
#
# Static dielectric constant tensor:
#      x y z
#    x 1.682980 0.000000 0.036000 
#    y 0.000000 1.684140 0.000000 
#    z 0.036000 0.000000 1.719820 
# 
# From -- ./inp_files/131721.got.cif
#   From: 2010.05.17/outbox.cif.g08.bks.cpg/sg12_66_cif.got.tgz:131721.got - 2010.06.03 13:09:07.
