data_PCOD9220709
_publ_section_title
;
Structure prediction by ZEFSAII (Michael W. Deem and Ramdas Pophale) SiO2 
 PCOD9220709
Probable space group: C 2/M
;
_chemical_formula_sum "Si O2"
_cell_formula_units_Z 50
_cell_length_a 9.904259
_cell_length_b 26.683930
_cell_length_c 10.755863
_cell_angle_alpha 90.000000
_cell_angle_beta 66.952730
_cell_angle_gamma 90.000000
_cell_volume 2615.717645
_symmetry_space_group_name_H-M "C 2/M"
_symmetry_group_IT_number 12
_symmetry_cell_setting 'monoclinic'
loop_
_space_group_symop_operation_xyz
x,y,z
-x,y,-z
-x,-y,-z
x,-y,z
1/2+x,1/2+y,z
1/2-x,1/2+y,-z
1/2-x,1/2-y,-z
1/2+x,1/2-y,z
loop_
_atom_site_type_symbol
_atom_site_label
_atom_site_fract_x
_atom_site_fract_y
_atom_site_fract_z
Si Si1 0.326287 0.700093 0.918237
Si Si2 0.839392 0.676724 0.278274
Si Si3 0.330555 0.849363 0.817068
Si Si4 0.360267 0.381223 0.472660
Si Si5 0.641547 0.711600 0.698793
Si Si6 0.781896 0.945307 0.260860
Si Si7 0.000000 0.000000 0.000000
O O1 0.252325 0.685227 0.814261
O O2 0.497678 0.710071 0.838191
O O3 0.250000 0.750000 0.000000
O O4 0.286290 0.657466 0.031020
O O5 0.771307 0.632918 0.386945
O O6 0.834233 0.731085 0.346895
O O7 0.009086 0.664710 0.193230
O O8 0.278107 0.811339 0.726691
O O9 0.322395 0.905083 0.767018
O O10 0.500000 0.398309 0.500000
O O11 0.394082 0.327574 0.396366
O O12 0.327403 0.419762 0.374073
O O13 0.713030 0.000000 0.306878
O O14 0.918726 0.957158 0.119280
#
# Coordination Sequence:
#
# PCOD9220709 Si02
#       7
#     8   8   8   8   8   8   2
#     4  12  22  37  61  90 136 179 224 264 312 379
#     4  12  23  40  57  93 141 181 210 267 321 392
#     4  11  24  36  65 100 128 171 226 268 331 370
#     4  11  24  41  62  95 129 176 222 263 327 396
#     4  11  22  38  59  88 133 185 220 263 305 394
#     4   9  23  44  70  95 120 161 219 281 326 391
#     4   8  20  44  74  94 118 152 216 280 336 376
#
# _framework density 19.115210999999999
#
# number of rings (size 3 to 8) (size 9 to 14) (size 15 to 20)
#    0.480    0.640    4.800    1.440    4.480    2.880 
#    0.000    1.600    0.000    1.920    0.000    0.000 
#    0.000    0.000    0.000    0.000    0.000    0.000 
#
# Total GULP energy -139261.256908 kJ/mol
# GULP energy per Si atom -5570.450276 kJ/mol
# Density = 1.907170 g / cm^3
# Si number density = 19.115211 Si / 1000 Ang^3
#
#
#
# Elastic Constant Matrix: (Units=GPa)
#
#
# Indices 1 2 3 4 5 6 
#
# 1 65.1408 20.4479 9.1271 0.0000 -0.2383 0.0000
# 2 20.4479 112.3921 16.2614 0.0000 10.4468 0.0000
# 3 9.1271 16.2614 60.2281 0.0000 -0.6385 0.0000
# 4 0.0000 0.0000 0.0000 40.4237 0.0000 -0.5745
# 5 -0.2383 10.4468 -0.6385 0.0000 30.0633 0.0000
# 6 0.0000 0.0000 0.0000 -0.5745 0.0000 5.3271
#
#
#
# Elastic Compliance Matrix: (Units=1/GPa)
#
#
# Indices 1 2 3 4 5 6 
#
# 1 0.016491 -0.002853 -0.001717 0.000000 0.001086 0.000000
# 2 -0.002853 0.010086 -0.002329 0.000000 -0.003577 0.000000
# 3 -0.001717 -0.002329 0.017505 0.000000 0.001167 0.000000
# 4 0.000000 0.000000 0.000000 0.024776 0.000000 0.002672
# 5 0.001086 -0.003577 0.001167 0.000000 0.034539 0.000000
# 6 0.000000 0.000000 0.000000 0.002672 0.000000 0.188006
#
#
# Mechanical properties :
#
#
# Convention : Reuss Voigt Hill
#
# Bulk Modulus (GPa) = 33.02033 36.60376 34.81204
# Shear Modulus (GPa) = 15.85811 27.95781 21.90796
#
# Velocity S-wave (km/s) = 2.88341 3.82854 3.38908
# Velocity P-wave (km/s) = 5.32891 6.22368 5.79360
#
# Compressibility (1/GPa) = 0.03028438
#
# Stress axis : x y z
#
# Youngs Moduli (GPa) = 60.63749 99.14902 57.12673
#
# Poissons Ratio (x) = 0.28285 0.09811
# Poissons Ratio (y) = 0.17298 0.13303
# Poissons Ratio (z) = 0.10414 0.23089
#
# Static dielectric constant tensor:
#      x y z
#    x 1.656260 0.000000 0.010840 
#    y 0.000000 1.666930 0.000000 
#    z 0.010840 0.000000 1.723120 
# 
# From -- ./inp_files/123571.got.cif
#   From: 2010.05.17/outbox.cif.g08.bks.cpg/sg12_62_cif.got.tgz:123571.got - 2010.06.03 13:09:07.
