data_PCOD9220501
_publ_section_title
;
Structure prediction by ZEFSAII (Michael W. Deem and Ramdas Pophale) SiO2 
 PCOD9220501
Probable space group: C 2/M
;
_chemical_formula_sum "Si O2"
_cell_formula_units_Z 48
_cell_length_a 27.072735
_cell_length_b 13.827581
_cell_length_c 28.774501
_cell_angle_alpha 90.000000
_cell_angle_beta 13.799546
_cell_angle_gamma 90.000000
_cell_volume 2569.339166
_symmetry_space_group_name_H-M "C 2/M"
_symmetry_group_IT_number 12
_symmetry_cell_setting 'monoclinic'
loop_
_space_group_symop_operation_xyz
x,y,z
-x,y,-z
-x,-y,-z
x,-y,z
1/2+x,1/2+y,z
1/2-x,1/2+y,-z
1/2-x,1/2-y,-z
1/2+x,1/2-y,z
loop_
_atom_site_type_symbol
_atom_site_label
_atom_site_fract_x
_atom_site_fract_y
_atom_site_fract_z
Si Si1 0.840078 0.260429 0.004085
Si Si2 0.341928 0.389886 0.699737
Si Si3 0.464359 0.612853 0.329070
Si Si4 0.961529 0.252335 0.412014
Si Si5 0.384521 0.612928 0.297173
Si Si6 0.073187 0.609327 0.856734
O O1 0.923317 0.178533 0.894376
O O2 0.029728 0.313434 0.856615
O O3 0.696355 0.343050 0.112256
O O4 0.682301 0.218564 0.187096
O O5 0.423919 0.500000 0.626957
O O6 0.488030 0.309139 0.588350
O O7 0.255491 0.371802 0.727101
O O8 0.138480 0.389959 0.919042
O O9 0.474209 0.500000 0.332422
O O10 0.371980 0.676069 0.455433
O O11 0.353188 0.624015 0.381317
O O12 0.811940 0.343083 0.550122
O O13 0.417720 0.500000 0.257568
O O14 0.094688 0.500000 0.818869
#
# Coordination Sequence:
#
# PCOD9220501 Si02
#       6
#     8   8   8   8   8   8
#     4   9  19  32  55  73 103 134 166 202 252 302
#     4   8  13  25  49  79 106 129 155 196 256 316
#     4   9  18  34  54  76 105 130 160 208 259 306
#     4   9  19  32  55  73 103 134 166 202 252 302
#     4  11  22  36  50  71 101 137 180 217 239 279
#     4   8  13  25  49  79 106 129 155 196 256 316
#
# _framework density 18.681846
#
# number of rings (size 3 to 8) (size 9 to 14) (size 15 to 20)
#    1.000    2.000    0.000    3.000    0.000    0.667 
#    0.000    4.167    0.000    4.000    0.000    4.667 
#    0.000    0.000    0.000    0.000    0.000    0.000 
#
# Total GULP energy -133714.209809 kJ/mol
# GULP energy per Si atom -5571.425409 kJ/mol
# Density = 1.863933 g / cm^3
# Si number density = 18.681846 Si / 1000 Ang^3
#
#
#
# Elastic Constant Matrix: (Units=GPa)
#
#
# Indices 1 2 3 4 5 6 
#
# 1 58.7877 28.8014 -2.5085 0.0341 -4.8953 -0.0666
# 2 28.8014 73.5520 -3.6302 -0.1521 -0.4540 -0.0508
# 3 -2.5085 -3.6302 35.1771 0.1106 -1.6283 0.0229
# 4 0.0341 -0.1521 0.1106 25.5602 -0.0122 -3.6536
# 5 -4.8953 -0.4540 -1.6283 -0.0122 29.5539 0.0018
# 6 -0.0666 -0.0508 0.0229 -3.6536 0.0018 25.4154
#
#
#
# Elastic Compliance Matrix: (Units=1/GPa)
#
#
# Indices 1 2 3 4 5 6 
#
# 1 0.021411 -0.008322 0.000829 -0.000076 0.003464 0.000028
# 2 -0.008322 0.016903 0.001101 0.000110 -0.001058 0.000027
# 3 0.000829 0.001101 0.028681 -0.000123 0.001734 -0.000039
# 4 -0.000076 0.000110 -0.000123 0.039945 -0.000002 0.005743
# 5 0.003464 -0.001058 0.001734 -0.000002 0.034490 0.000003
# 6 0.000028 0.000027 -0.000039 0.005743 0.000003 0.040172
#
#
# Mechanical properties :
#
#
# Convention : Reuss Voigt Hill
#
# Bulk Modulus (GPa) = 18.44636 23.64913 21.04774
# Shear Modulus (GPa) = 23.53422 25.76284 24.64853
#
# Velocity S-wave (km/s) = 3.55313 3.71756 3.63627
# Velocity P-wave (km/s) = 5.16995 5.57793 5.37781
#
# Compressibility (1/GPa) = 0.05421124
#
# Stress axis : x y z
#
# Youngs Moduli (GPa) = 46.70393 59.16225 34.86622
#
# Poissons Ratio (x) = 0.49236 -0.02889
# Poissons Ratio (y) = 0.38868 -0.03841
# Poissons Ratio (z) = -0.03870 -0.06517
#
# Static dielectric constant tensor:
#      x y z
#    x 1.652160 -0.000010 0.010630 
#    y -0.000010 1.600340 0.000120 
#    z 0.010630 0.000120 1.730360 
# 
# From -- ./inp_files/367904.got.cif
#   From: 2010.05.17/outbox.cif.g08.bks.cpg/sg12_184_cif.got.tgz:367904.got - 2010.06.03 13:09:07.
