data_PCOD9220915
_publ_section_title
;
Structure prediction by ZEFSAII (Michael W. Deem and Ramdas Pophale) SiO2 
 PCOD9220915
Probable space group: C 2/M
;
_chemical_formula_sum "Si O2"
_cell_formula_units_Z 58
_cell_length_a 25.921058
_cell_length_b 20.622455
_cell_length_c 14.641560
_cell_angle_alpha 90.000000
_cell_angle_beta 20.246110
_cell_angle_gamma 90.000000
_cell_volume 2708.466757
_symmetry_space_group_name_H-M "C 2/M"
_symmetry_group_IT_number 12
_symmetry_cell_setting 'monoclinic'
loop_
_space_group_symop_operation_xyz
x,y,z
-x,y,-z
-x,-y,-z
x,-y,z
1/2+x,1/2+y,z
1/2-x,1/2+y,-z
1/2-x,1/2-y,-z
1/2+x,1/2-y,z
loop_
_atom_site_type_symbol
_atom_site_label
_atom_site_fract_x
_atom_site_fract_y
_atom_site_fract_z
Si Si1 0.117611 0.324947 0.042314
Si Si2 0.163057 0.190004 0.546766
Si Si3 0.659764 0.430022 0.786364
Si Si4 0.000000 0.000000 0.500000
Si Si5 0.073668 0.741632 0.286725
Si Si6 0.839031 0.793814 0.142073
Si Si7 0.420603 0.621819 0.503167
Si Si8 0.590027 0.108974 0.763574
O O1 0.031816 0.308609 0.276358
O O2 0.023992 0.355100 0.115204
O O3 0.180100 0.252977 0.913140
O O4 0.258480 0.370987 0.819599
O O5 0.236053 0.254735 0.383517
O O6 0.113508 0.137876 0.549166
O O7 0.296947 0.159227 0.379039
O O8 0.020452 0.206594 0.845583
O O9 0.649689 0.500000 0.849646
O O10 0.692253 0.369604 0.798092
O O11 0.795632 0.431552 0.488341
O O12 0.500000 0.420110 0.000000
O O13 0.988557 0.942157 0.437025
O O14 0.000000 0.715841 0.500000
O O15 0.013047 0.813914 0.372385
O O16 0.250000 0.750000 0.000000
O O17 0.500000 0.079685 0.000000
#
# Coordination Sequence:
#
# PCOD9220915 Si02
#       8
#     8   8   8   2   8   8   8   8
#     4  11  24  41  70 110 136 174 243 298 369 423
#     4  11  24  41  66 113 140 183 240 295 370 421
#     4  11  26  43  59  90 140 202 245 277 343 427
#     4  12  24  48  72  94 146 186 236 300 354 430
#     4  12  23  41  68 100 138 172 229 304 365 412
#     4  11  22  39  68  93 145 178 232 299 350 417
#     4  11  23  44  68 104 135 184 235 292 366 421
#     4  12  24  42  70 104 146 190 238 301 354 429
#
# _framework density 21.41433
#
# number of rings (size 3 to 8) (size 9 to 14) (size 15 to 20)
#    0.000    0.690    7.586    0.828    3.862    1.379 
#    3.724    0.000    0.000    0.000    0.000    1.931 
#    0.000    0.000    0.000    0.000    0.000    0.000 
#
# Total GULP energy -161445.572835 kJ/mol
# GULP energy per Si atom -5567.088718 kJ/mol
# Density = 2.136559 g / cm^3
# Si number density = 21.414330 Si / 1000 Ang^3
#
#
#
# Elastic Constant Matrix: (Units=GPa)
#
#
# Indices 1 2 3 4 5 6 
#
# 1 109.1889 41.0134 33.8661 0.0008 -3.0042 -0.0002
# 2 41.0134 114.6925 24.7984 0.0000 0.4095 -0.0018
# 3 33.8661 24.7984 128.1324 -0.0045 5.0404 -0.0005
# 4 0.0008 0.0000 -0.0045 52.7523 -0.0003 -5.8684
# 5 -3.0042 0.4095 5.0404 -0.0003 37.1521 -0.0004
# 6 -0.0002 -0.0018 -0.0005 -5.8684 -0.0004 24.0814
#
#
#
# Elastic Compliance Matrix: (Units=1/GPa)
#
#
# Indices 1 2 3 4 5 6 
#
# 1 0.011240 -0.003518 -0.002340 0.000000 0.001265 0.000000
# 2 -0.003518 0.010202 -0.001034 0.000000 -0.000257 0.000001
# 3 -0.002340 -0.001034 0.008676 0.000001 -0.001355 0.000000
# 4 0.000000 0.000000 0.000001 0.019485 0.000000 0.004748
# 5 0.001265 -0.000257 -0.001355 0.000000 0.027205 0.000000
# 6 0.000000 0.000001 0.000000 0.004748 0.000000 0.042683
#
#
# Mechanical properties :
#
#
# Convention : Reuss Voigt Hill
#
# Bulk Modulus (GPa) = 61.22317 61.26326 61.24322
# Shear Modulus (GPa) = 36.04369 39.61958 37.83163
#
# Velocity S-wave (km/s) = 4.10708 4.30600 4.20771
# Velocity P-wave (km/s) = 7.15141 7.30704 7.22964
#
# Compressibility (1/GPa) = 0.01633369
#
# Stress axis : x y z
#
# Youngs Moduli (GPa) = 88.96452 98.02373 115.25594
#
# Poissons Ratio (x) = 0.34486 0.26967
# Poissons Ratio (y) = 0.31299 0.11922
# Poissons Ratio (z) = 0.20816 0.10140
#
# Static dielectric constant tensor:
#      x y z
#    x 1.918810 0.000000 0.050380 
#    y 0.000000 1.765290 0.000000 
#    z 0.050380 0.000000 1.873260 
# 
# From -- ./inp_files/247277.got.cif
#   From: 2010.05.17/outbox.cif.g08.bks.cpg/sg12_124_cif.got.tgz:247277.got - 2010.06.03 13:09:07.
