data_PCOD9220902
_publ_section_title
;
Structure prediction by ZEFSAII (Michael W. Deem and Ramdas Pophale) SiO2 
 PCOD9220902
Probable space group: C 2/M
;
_chemical_formula_sum "Si O2"
_cell_formula_units_Z 56
_cell_length_a 14.428402
_cell_length_b 14.774213
_cell_length_c 22.577495
_cell_angle_alpha 90.000000
_cell_angle_beta 32.974728
_cell_angle_gamma 90.000000
_cell_volume 2619.461337
_symmetry_space_group_name_H-M "C 2/M"
_symmetry_group_IT_number 12
_symmetry_cell_setting 'monoclinic'
loop_
_space_group_symop_operation_xyz
x,y,z
-x,y,-z
-x,-y,-z
x,-y,z
1/2+x,1/2+y,z
1/2-x,1/2+y,-z
1/2-x,1/2-y,-z
1/2+x,1/2-y,z
loop_
_atom_site_type_symbol
_atom_site_label
_atom_site_fract_x
_atom_site_fract_y
_atom_site_fract_z
Si Si1 0.525780 0.150367 0.921864
Si Si2 0.246256 0.605472 0.016656
Si Si3 0.129988 0.845740 0.838156
Si Si4 0.346393 0.603530 0.677768
Si Si5 0.599966 0.099592 0.223159
Si Si6 0.812583 0.281907 0.623114
Si Si7 0.094341 0.774494 0.626147
O O1 0.345610 0.159722 0.985862
O O2 0.605132 0.249829 0.883890
O O3 0.661391 0.100053 0.808038
O O4 0.500000 0.109837 0.000000
O O5 0.220145 0.500000 0.016657
O O6 0.147234 0.624340 0.130775
O O7 0.445020 0.622244 0.917658
O O8 0.224553 0.906506 0.834718
O O9 0.247879 0.830097 0.717406
O O10 0.398050 0.500000 0.635668
O O11 0.325655 0.674803 0.634457
O O12 0.474884 0.653287 0.655722
O O13 0.501202 0.180951 0.307289
O O14 0.515730 0.000000 0.269182
O O15 0.677713 0.303040 0.643833
O O16 0.000000 0.308737 0.500000
O O17 0.250000 0.750000 0.500000
#
# Coordination Sequence:
#
# PCOD9220902 Si02
#       7
#     8   8   8   8   8   8   8
#     4  11  23  40  63  88 133 177 215 265 337 398
#     4  11  24  39  62  99 132 168 224 276 325 401
#     4  11  22  39  66  97 127 174 219 269 334 406
#     4  11  25  45  69 102 136 178 232 283 338 406
#     4  11  22  41  68  98 132 171 218 278 338 399
#     4  11  23  45  70  95 133 175 226 284 339 401
#     4  12  24  45  70  98 136 175 226 282 343 404
#
# _framework density 21.378440999999999
#
# number of rings (size 3 to 8) (size 9 to 14) (size 15 to 20)
#    0.000    0.857    4.286    4.286    2.000    4.857 
#    0.000    0.714    0.000    3.000    0.000    0.000 
#    0.000    0.000    0.000    0.000    0.000    0.000 
#
# Total GULP energy -156483.310541 kJ/mol
# GULP energy per Si atom -5588.689662 kJ/mol
# Density = 2.132978 g / cm^3
# Si number density = 21.378441 Si / 1000 Ang^3
#
#
#
# Elastic Constant Matrix: (Units=GPa)
#
#
# Indices 1 2 3 4 5 6 
#
# 1 98.8083 -9.0080 5.3044 -0.0001 -2.8829 0.0002
# 2 -9.0080 71.8977 0.8166 -0.0001 -2.0324 0.0001
# 3 5.3044 0.8166 88.4135 -0.0011 -1.7464 0.0011
# 4 -0.0001 -0.0001 -0.0011 10.6093 0.0007 -1.4365
# 5 -2.8829 -2.0324 -1.7464 0.0007 37.2065 -0.0003
# 6 0.0002 0.0001 0.0011 -1.4365 -0.0003 -5.0148
#
#
#
# Elastic Compliance Matrix: (Units=1/GPa)
#
#
# Indices 1 2 3 4 5 6 
#
# 1 0.010299 0.001321 -0.000613 0.000000 0.000841 0.000000
# 2 0.001321 0.014101 -0.000192 0.000000 0.000864 0.000000
# 3 -0.000613 -0.000192 0.011358 0.000001 0.000475 0.000002
# 4 0.000000 0.000000 0.000001 0.090737 -0.000002 -0.025992
# 5 0.000841 0.000864 0.000475 -0.000002 0.027012 -0.000001
# 6 0.000000 0.000000 0.000002 -0.025992 -0.000001 -0.191964
#
#
# Mechanical properties :
#
#
# Convention : Reuss Voigt Hill
#
# Bulk Modulus (GPa) = 27.18274 28.14950 27.66612
# Shear Modulus (GPa) = -183.65130 26.02731 -78.81200
#
# Velocity S-wave (km/s) = -9.27855 3.49299 -6.07826
# Velocity P-wave (km/s) = 10.10178 5.42806 6.02421
#
# Compressibility (1/GPa) = 0.03678805
#
# Stress axis : x y z
#
# Youngs Moduli (GPa) = 97.10132 70.91821 88.04014
#
# Poissons Ratio (x) = -0.09369 0.05401
# Poissons Ratio (y) = -0.12827 0.01694
# Poissons Ratio (z) = 0.05957 0.01365
#
# Static dielectric constant tensor:
#      x y z
#    x 1.800420 0.000000 -0.018280 
#    y 0.000000 1.819620 0.000000 
#    z -0.018280 0.000000 1.755860 
# 
# From -- ./inp_files/340288.got.cif
#   From: 2010.05.17/outbox.cif.g08.bks.cpg/sg12_171_cif.got.tgz:340288.got - 2010.06.03 13:09:07.
