data_PCOD9220608
_publ_section_title
;
Structure prediction by ZEFSAII (Michael W. Deem and Ramdas Pophale) SiO2 
 PCOD9220608
Probable space group: C 2/M
;
_chemical_formula_sum "Si O2"
_cell_formula_units_Z 44
_cell_length_a 6.957756
_cell_length_b 15.097993
_cell_length_c 17.776602
_cell_angle_alpha 90.000000
_cell_angle_beta 118.825207
_cell_angle_gamma 90.000000
_cell_volume 1636.018429
_symmetry_space_group_name_H-M "C 2/M"
_symmetry_group_IT_number 12
_symmetry_cell_setting 'monoclinic'
loop_
_space_group_symop_operation_xyz
x,y,z
-x,y,-z
-x,-y,-z
x,-y,z
1/2+x,1/2+y,z
1/2-x,1/2+y,-z
1/2-x,1/2-y,-z
1/2+x,1/2-y,z
loop_
_atom_site_type_symbol
_atom_site_label
_atom_site_fract_x
_atom_site_fract_y
_atom_site_fract_z
Si Si1 0.977263 0.000000 0.380045
Si Si2 0.205045 0.356022 0.484520
Si Si3 0.687339 0.606087 0.928953
Si Si4 0.815539 0.604682 0.109985
Si Si5 0.942521 0.344836 0.293065
Si Si6 0.452499 0.353262 0.256519
O O1 0.108345 0.920994 0.451500
O O2 0.888431 0.925806 0.303203
O O3 0.250000 0.250000 0.500000
O O4 0.000000 0.373166 0.500000
O O5 0.122476 0.380760 0.384928
O O6 0.724602 0.500000 0.926232
O O7 0.436603 0.616155 0.910695
O O8 0.688204 0.649322 0.847000
O O9 0.829887 0.639199 0.027054
O O10 0.854375 0.500000 0.111997
O O11 0.953423 0.639049 0.206051
O O12 0.703491 0.375296 0.277703
O O13 0.949703 0.239350 0.298529
#
# Coordination Sequence:
#
# PCOD9220608 Si02
#       6
#     4   8   8   8   8   8
#     4  12  23  38  63  87 107 162 195 232 282 346
#     4  12  24  40  62  86 119 149 196 242 283 336
#     4   8  14  29  52  84 108 145 185 234 274 340
#     4   8  16  28  52  82 116 140 187 233 283 332
#     4  11  22  37  57  86 115 147 186 242 285 331
#     4  11  22  37  63  82 118 146 194 233 288 341
#
# _framework density 26.894563999999999
#
# number of rings (size 3 to 8) (size 9 to 14) (size 15 to 20)
#    0.000    1.818    4.545    1.364    2.545    0.727 
#    0.000    0.455    2.000    0.000    0.000    2.545 
#    0.000    0.000    0.000    0.000    0.000    0.000 
#
# Total GULP energy -122819.242770 kJ/mol
# GULP energy per Si atom -5582.692853 kJ/mol
# Density = 2.683335 g / cm^3
# Si number density = 26.894564 Si / 1000 Ang^3
#
#
#
# Elastic Constant Matrix: (Units=GPa)
#
#
# Indices 1 2 3 4 5 6 
#
# 1 114.6568 -0.0135 51.1821 0.0000 -4.8992 0.0000
# 2 -0.0135 73.8742 38.7876 0.0000 8.1132 0.0000
# 3 51.1821 38.7876 250.3952 0.0000 13.9713 0.0000
# 4 0.0000 0.0000 0.0000 55.0248 0.0000 -5.8288
# 5 -4.8992 8.1132 13.9713 0.0000 55.5904 0.0000
# 6 0.0000 0.0000 0.0000 -5.8288 0.0000 -15.0251
#
#
#
# Elastic Compliance Matrix: (Units=1/GPa)
#
#
# Indices 1 2 3 4 5 6 
#
# 1 0.009771 0.001032 -0.002228 0.000000 0.001270 0.000000
# 2 0.001032 0.014986 -0.002450 0.000000 -0.001480 0.000000
# 3 -0.002228 -0.002450 0.004888 0.000000 -0.001067 0.000000
# 4 0.000000 0.000000 0.000000 0.017456 0.000000 -0.006772
# 5 0.001270 -0.001480 -0.001067 0.000000 0.018585 0.000000
# 6 0.000000 0.000000 0.000000 -0.006772 0.000000 -0.063928
#
#
# Mechanical properties :
#
#
# Convention : Reuss Voigt Hill
#
# Bulk Modulus (GPa) = 44.73658 68.75986 56.74822
# Shear Modulus (GPa) = 303.04081 42.38269 172.71175
#
# Velocity S-wave (km/s) = 10.62647 3.97405 8.02231
# Velocity P-wave (km/s) = 12.93185 6.83223 10.34196
#
# Compressibility (1/GPa) = 0.02235307
#
# Stress axis : x y z
#
# Youngs Moduli (GPa) = 102.34775 66.73116 204.57816
#
# Poissons Ratio (x) = -0.06887 0.45578
# Poissons Ratio (y) = -0.10563 0.50115
# Poissons Ratio (z) = 0.22802 0.16347
#
# Static dielectric constant tensor:
#      x y z
#    x 2.239830 0.000000 0.028030 
#    y 0.000000 1.936030 0.000000 
#    z 0.028030 0.000000 2.093600 
# 
# From -- ./inp_files/262467.got.cif
#   From: 2010.05.17/outbox.cif.g08.bks.cpg/sg12_132_cif.got.tgz:262467.got - 2010.06.03 13:09:07.
