data_PCOD9220381
_publ_section_title
;
Structure prediction by ZEFSAII (Michael W. Deem and Ramdas Pophale) SiO2 
 PCOD9220381
Probable space group: C 2/M
;
_chemical_formula_sum "Si O2"
_cell_formula_units_Z 40
_cell_length_a 26.183664
_cell_length_b 9.800127
_cell_length_c 13.073666
_cell_angle_alpha 90.000000
_cell_angle_beta 37.976386
_cell_angle_gamma 90.000000
_cell_volume 2064.297525
_symmetry_space_group_name_H-M "C 2/M"
_symmetry_group_IT_number 12
_symmetry_cell_setting 'monoclinic'
loop_
_space_group_symop_operation_xyz
x,y,z
-x,y,-z
-x,-y,-z
x,-y,z
1/2+x,1/2+y,z
1/2-x,1/2+y,-z
1/2-x,1/2-y,-z
1/2+x,1/2-y,z
loop_
_atom_site_type_symbol
_atom_site_label
_atom_site_fract_x
_atom_site_fract_y
_atom_site_fract_z
Si Si1 0.943893 0.729314 0.689656
Si Si2 0.123395 0.000000 0.094586
Si Si3 0.682175 0.000000 0.419714
Si Si4 0.677233 0.000000 0.196128
Si Si5 0.796895 0.764786 0.319683
Si Si6 0.991027 0.500000 0.268895
Si Si7 0.410878 0.500000 0.097028
Si Si8 0.406135 0.000000 0.093638
O O1 0.864329 0.633997 0.788059
O O2 0.996424 0.635373 0.683857
O O3 0.000000 0.754148 0.500000
O O4 0.915196 0.866600 0.790782
O O5 0.103571 0.000000 0.003363
O O6 0.222924 0.000000 0.957184
O O7 0.734434 0.140414 0.349833
O O8 0.648384 0.000000 0.358959
O O9 0.604086 0.000000 0.619923
O O10 0.750000 0.750000 0.500000
O O11 0.843727 0.627729 0.210960
O O12 0.871090 0.869046 0.210948
O O13 0.062612 0.500000 0.072066
O O14 0.500000 0.500000 0.000000
O O15 0.500000 0.000000 0.000000
#
# Coordination Sequence:
#
# PCOD9220381 Si02
#       8
#     8   4   4   4   8   4   4   4
#     4  11  23  43  66  96 128 172 221 270 326 392
#     4  12  24  41  67  98 133 166 216 281 328 383
#     4  11  22  43  67  87 133 174 211 265 335 385
#     4  11  21  45  67  90 130 172 215 272 329 389
#     4  11  23  41  64  90 128 170 216 267 320 385
#     4  11  22  41  67  91 126 176 217 262 328 391
#     4  11  24  44  64  93 135 172 210 258 329 392
#     4  12  24  41  65  99 130 166 226 276 322 389
#
# _framework density 19.377051999999999
#
# number of rings (size 3 to 8) (size 9 to 14) (size 15 to 20)
#    0.000    0.800    4.000    5.700    0.000    1.600 
#    0.000    1.000    0.000    0.000    0.000    0.000 
#    0.000    0.000    0.000    0.000    0.000    0.000 
#
# Total GULP energy -111430.364765 kJ/mol
# GULP energy per Si atom -5571.518238 kJ/mol
# Density = 1.933295 g / cm^3
# Si number density = 19.377052 Si / 1000 Ang^3
#
#
#
# Elastic Constant Matrix: (Units=GPa)
#
#
# Indices 1 2 3 4 5 6 
#
# 1 72.8887 37.7166 47.7938 0.0000 -13.2826 0.0000
# 2 37.7166 179.5689 90.7793 0.0000 -7.4511 0.0000
# 3 47.7938 90.7793 184.1216 0.0000 -3.3733 0.0000
# 4 0.0000 0.0000 0.0000 37.1887 0.0000 14.8352
# 5 -13.2826 -7.4511 -3.3733 0.0000 41.2054 0.0000
# 6 0.0000 0.0000 0.0000 14.8352 0.0000 0.0485
#
#
#
# Elastic Compliance Matrix: (Units=1/GPa)
#
#
# Indices 1 2 3 4 5 6 
#
# 1 0.017988 -0.001666 -0.003753 0.000000 0.005190 0.000000
# 2 -0.001666 0.007617 -0.003313 0.000000 0.000569 0.000000
# 3 -0.003753 -0.003313 0.008018 0.000000 -0.001152 0.000000
# 4 0.000000 0.000000 0.000000 -0.000222 0.000000 0.067965
# 5 0.005190 0.000569 -0.001152 0.000000 0.025950 0.000000
# 6 0.000000 0.000000 0.000000 0.067965 0.000000 -0.170373
#
#
# Mechanical properties :
#
#
# Convention : Reuss Voigt Hill
#
# Bulk Modulus (GPa) = 61.88084 87.68428 74.78256
# Shear Modulus (GPa) = -56.70681 33.04116 -11.83283
#
# Velocity S-wave (km/s) = -5.41558 4.13385 -2.47384
# Velocity P-wave (km/s) = 2.66462 8.25438 5.52425
#
# Compressibility (1/GPa) = 0.01616009
#
# Stress axis : x y z
#
# Youngs Moduli (GPa) = 55.59239 131.28398 124.72558
#
# Poissons Ratio (x) = 0.21866 0.46810
# Poissons Ratio (y) = 0.09259 0.41319
# Poissons Ratio (z) = 0.20864 0.43491
#
# Static dielectric constant tensor:
#      x y z
#    x 0.287630 0.000000 -0.239950 
#    y 0.000000 1.667290 0.000000 
#    z -0.239950 0.000000 1.586930 
# 
# From -- ./inp_files/249572.got.cif
#   From: 2010.05.17/outbox.cif.g08.bks.cpg/sg12_125_cif.got.tgz:249572.got - 2010.06.03 13:09:07.
