data_PCOD9220451
_publ_section_title
;
Structure prediction by ZEFSAII (Michael W. Deem and Ramdas Pophale) SiO2 
 PCOD9220451
Probable space group: C 2/M
;
_chemical_formula_sum "Si O2"
_cell_formula_units_Z 48
_cell_length_a 24.922566
_cell_length_b 9.033380
_cell_length_c 14.516946
_cell_angle_alpha 90.000000
_cell_angle_beta 70.636805
_cell_angle_gamma 90.000000
_cell_volume 3083.405646
_symmetry_space_group_name_H-M "C 2/M"
_symmetry_group_IT_number 12
_symmetry_cell_setting 'monoclinic'
loop_
_space_group_symop_operation_xyz
x,y,z
-x,y,-z
-x,-y,-z
x,-y,z
1/2+x,1/2+y,z
1/2-x,1/2+y,-z
1/2-x,1/2-y,-z
1/2+x,1/2-y,z
loop_
_atom_site_type_symbol
_atom_site_label
_atom_site_fract_x
_atom_site_fract_y
_atom_site_fract_z
Si Si1 0.707653 0.322658 0.951340
Si Si2 0.733833 0.677247 0.724938
Si Si3 0.798848 0.822535 0.535726
Si Si4 0.622475 0.323075 0.667556
Si Si5 0.585919 0.821475 0.009879
Si Si6 0.967250 0.322679 0.158896
O O1 0.707228 0.500000 0.960915
O O2 0.727536 0.286987 0.835665
O O3 0.750000 0.250000 0.000000
O O4 0.644352 0.258570 0.999072
O O5 0.740217 0.500000 0.710732
O O6 0.785621 0.757531 0.643451
O O7 0.675068 0.718875 0.705670
O O8 0.750000 0.750000 0.500000
O O9 0.856748 0.785990 0.447743
O O10 0.792783 0.000000 0.539282
O O11 0.616538 0.500000 0.676874
O O12 0.565992 0.248222 0.737621
O O13 0.532903 0.780013 0.105583
O O14 0.592892 0.000000 0.009902
O O15 0.565792 0.783767 0.917256
O O16 0.965513 0.500000 0.167349
#
# Coordination Sequence:
#
# PCOD9220451 Si02
#       6
#     8   8   8   8   8   8
#     4  11  22  35  50  69  93 125 163 200 236 277
#     4   9  18  31  44  63  92 122 156 195 231 274
#     4   9  17  27  41  63  92 123 154 188 229 278
#     4   9  16  27  42  66  96 122 152 188 228 278
#     4   9  18  32  46  67  95 123 158 195 231 276
#     4   9  17  28  46  69  95 125 155 189 231 279
#
# _framework density 15.567202999999999
#
# number of rings (size 3 to 8) (size 9 to 14) (size 15 to 20)
#    0.000    2.667    1.667    3.000    0.000    5.333 
#    0.000    1.667    0.000    0.000    0.000    1.167 
#    0.000    9.333    0.000    0.000    0.000    0.000 
#
# Total GULP energy -133679.166444 kJ/mol
# GULP energy per Si atom -5569.965269 kJ/mol
# Density = 1.553177 g / cm^3
# Si number density = 15.567203 Si / 1000 Ang^3
#
#
#
# Elastic Constant Matrix: (Units=GPa)
#
#
# Indices 1 2 3 4 5 6 
#
# 1 88.2930 38.9238 66.5949 0.0000 -17.3591 0.0000
# 2 38.9238 33.6056 49.8949 0.0000 -12.7298 0.0000
# 3 66.5949 49.8949 130.1399 0.0000 -36.2789 0.0000
# 4 0.0000 0.0000 0.0000 29.6531 0.0000 -6.7316
# 5 -17.3591 -12.7298 -36.2789 0.0000 27.5726 0.0000
# 6 0.0000 0.0000 0.0000 -6.7316 0.0000 22.6758
#
#
#
# Elastic Compliance Matrix: (Units=1/GPa)
#
#
# Indices 1 2 3 4 5 6 
#
# 1 0.023909 -0.022105 -0.003804 0.000000 -0.000158 0.000000
# 2 -0.022105 0.089898 -0.024423 0.000000 -0.004546 0.000000
# 3 -0.003804 -0.024423 0.023978 0.000000 0.017879 0.000000
# 4 0.000000 0.000000 0.000000 0.036160 0.000000 0.010735
# 5 -0.000158 -0.004546 0.017879 0.000000 0.057595 0.000000
# 6 0.000000 0.000000 0.000000 0.010735 0.000000 0.047286
#
#
# Mechanical properties :
#
#
# Convention : Reuss Voigt Hill
#
# Bulk Modulus (GPa) = 26.93718 62.54065 44.73891
# Shear Modulus (GPa) = 12.75959 22.42196 17.59078
#
# Velocity S-wave (km/s) = 2.86605 3.79929 3.36518
# Velocity P-wave (km/s) = 5.31918 7.71414 6.62577
#
# Compressibility (1/GPa) = 0.03712341
#
# Stress axis : x y z
#
# Youngs Moduli (GPa) = 41.82604 11.12368 41.70486
#
# Poissons Ratio (x) = 0.24588 0.15863
# Poissons Ratio (y) = 0.92455 1.01854
# Poissons Ratio (z) = 0.15909 0.27167
#
# Static dielectric constant tensor:
#      x y z
#    x 1.491740 0.000000 -0.018630 
#    y 0.000000 1.518110 0.000000 
#    z -0.018630 0.000000 1.547700 
# 
# From -- ./inp_files/229964.got.cif
#   From: 2010.05.17/outbox.cif.g08.bks.cpg/sg12_115_cif.got.tgz:229964.got - 2010.06.03 13:09:07.
