data_PCOD9220753
_publ_section_title
;
Structure prediction by ZEFSAII (Michael W. Deem and Ramdas Pophale) SiO2 
 PCOD9220753
Probable space group: C 2/M
;
_chemical_formula_sum "Si O2"
_cell_formula_units_Z 40
_cell_length_a 17.668928
_cell_length_b 13.312515
_cell_length_c 12.101492
_cell_angle_alpha 90.000000
_cell_angle_beta 29.385433
_cell_angle_gamma 90.000000
_cell_volume 1396.720692
_symmetry_space_group_name_H-M "C 2/M"
_symmetry_group_IT_number 12
_symmetry_cell_setting 'monoclinic'
loop_
_space_group_symop_operation_xyz
x,y,z
-x,y,-z
-x,-y,-z
x,-y,z
1/2+x,1/2+y,z
1/2-x,1/2+y,-z
1/2-x,1/2-y,-z
1/2+x,1/2-y,z
loop_
_atom_site_type_symbol
_atom_site_label
_atom_site_fract_x
_atom_site_fract_y
_atom_site_fract_z
Si Si1 0.527149 0.827485 0.313151
Si Si2 0.716679 0.114697 0.546709
Si Si3 0.161059 0.329261 0.842289
Si Si4 0.202821 0.888841 0.796667
Si Si5 0.660516 0.391162 0.174929
O O1 0.447734 0.852278 0.295621
O O2 0.388815 0.871904 0.563742
O O3 0.562810 0.710627 0.289323
O O4 0.694447 0.879542 0.093553
O O5 0.827013 0.112967 0.299060
O O6 0.708482 0.000000 0.594450
O O7 0.753716 0.178860 0.607222
O O8 0.138060 0.216709 0.919295
O O9 0.260960 0.387539 0.803914
O O10 0.000000 0.370203 0.000000
O O11 0.161387 0.000000 0.888914
O O12 0.584611 0.500000 0.255157
#
# Coordination Sequence:
#
# PCOD9220753 Si02
#       5
#     8   8   8   8   8
#     4   9  20  40  61  82 114 160 197 233 283 359
#     4   9  18  37  63  84 111 155 198 236 288 349
#     4  12  22  34  60  93 123 147 191 252 295 344
#     4   9  20  40  61  81 117 162 201 235 285 353
#     4  11  22  38  62  92 120 148 192 249 299 342
#
# _framework density 28.638511000000001
#
# number of rings (size 3 to 8) (size 9 to 14) (size 15 to 20)
#    1.200    0.800    2.000    2.400    0.000    2.000 
#    0.000   11.000    0.000    0.000    0.000    0.000 
#    0.000    0.000    0.000    0.000    0.000    0.000 
#
# Total GULP energy -111902.411609 kJ/mol
# GULP energy per Si atom -5595.120580 kJ/mol
# Density = 2.857333 g / cm^3
# Si number density = 28.638511 Si / 1000 Ang^3
#
#
#
# Elastic Constant Matrix: (Units=GPa)
#
#
# Indices 1 2 3 4 5 6 
#
# 1 124.2784 -1.8956 3.6574 0.0000 -6.9364 0.0000
# 2 -1.8956 224.7168 -8.4917 0.0001 -15.4303 0.0000
# 3 3.6574 -8.4917 60.5927 0.0001 -15.9569 0.0000
# 4 0.0000 0.0001 0.0001 35.6198 0.0000 1.7796
# 5 -6.9364 -15.4303 -15.9569 0.0000 40.9514 0.0000
# 6 0.0000 0.0000 0.0000 1.7796 0.0000 36.3269
#
#
#
# Elastic Compliance Matrix: (Units=1/GPa)
#
#
# Indices 1 2 3 4 5 6 
#
# 1 0.008130 0.000161 -0.000100 0.000000 0.001399 0.000000
# 2 0.000161 0.004654 0.001239 0.000000 0.002263 0.000000
# 3 -0.000100 0.001239 0.018723 0.000000 0.007745 0.000000
# 4 0.000000 0.000000 0.000000 0.028143 0.000000 -0.001379
# 5 0.001399 0.002263 0.007745 0.000000 0.028527 0.000000
# 6 0.000000 0.000000 0.000000 -0.001379 0.000000 0.027595
#
#
# Mechanical properties :
#
#
# Convention : Reuss Voigt Hill
#
# Bulk Modulus (GPa) = 29.32078 44.01423 36.66751
# Shear Modulus (GPa) = 40.14734 50.33414 45.24074
#
# Velocity S-wave (km/s) = 3.74821 4.19688 3.97888
# Velocity P-wave (km/s) = 5.38448 6.23597 5.82580
#
# Compressibility (1/GPa) = 0.03410550
#
# Stress axis : x y z
#
# Youngs Moduli (GPa) = 123.00255 214.88677 53.41050
#
# Poissons Ratio (x) = -0.03457 0.00533
# Poissons Ratio (y) = -0.01979 -0.06615
# Poissons Ratio (z) = 0.01228 -0.26614
#
# Static dielectric constant tensor:
#      x y z
#    x 2.312530 0.000000 0.124510 
#    y 0.000000 2.119040 0.000000 
#    z 0.124510 0.000000 2.339510 
# 
# From -- ./inp_files/289840.got.cif
#   From: 2010.05.17/outbox.cif.g08.bks.cpg/sg12_145_cif.got.tgz:289840.got - 2010.06.03 13:09:07.
