data_PCOD9220576
_publ_section_title
;
Structure prediction by ZEFSAII (Michael W. Deem and Ramdas Pophale) SiO2 
 PCOD9220576
Probable space group: C 2/M
;
_chemical_formula_sum "Si O2"
_cell_formula_units_Z 64
_cell_length_a 14.487646
_cell_length_b 31.850337
_cell_length_c 20.516211
_cell_angle_alpha 90.000000
_cell_angle_beta 157.803077
_cell_angle_gamma 90.000000
_cell_volume 3576.520306
_symmetry_space_group_name_H-M "C 2/M"
_symmetry_group_IT_number 12
_symmetry_cell_setting 'monoclinic'
loop_
_space_group_symop_operation_xyz
x,y,z
-x,y,-z
-x,-y,-z
x,-y,z
1/2+x,1/2+y,z
1/2-x,1/2+y,-z
1/2-x,1/2-y,-z
1/2+x,1/2-y,z
loop_
_atom_site_type_symbol
_atom_site_label
_atom_site_fract_x
_atom_site_fract_y
_atom_site_fract_z
Si Si1 0.302396 0.888953 0.501544
Si Si2 0.772514 0.255391 0.158997
Si Si3 0.996290 0.188143 0.752958
Si Si4 0.107631 0.760475 0.498868
Si Si5 0.755798 0.665988 0.056193
Si Si6 0.703439 0.358031 0.577456
Si Si7 0.385421 0.598063 0.862774
Si Si8 0.786969 0.952375 0.669252
O O1 0.178443 0.847846 0.388409
O O2 0.223275 0.886986 0.525699
O O3 0.599792 0.889592 0.688406
O O4 0.202110 0.927164 0.391638
O O5 0.942412 0.257983 0.333442
O O6 0.817886 0.291565 0.135350
O O7 0.781780 0.206278 0.144261
O O8 0.500000 0.264972 0.000000
O O9 0.842405 0.231054 0.652754
O O10 0.106370 0.176166 0.893723
O O11 0.000000 0.755295 0.500000
O O12 0.142858 0.810388 0.513368
O O13 0.018314 0.644523 0.213698
O O14 0.571450 0.636873 0.976296
O O15 0.500000 0.368354 0.500000
O O16 0.399693 0.572645 0.804151
O O17 0.500000 0.574014 0.000000
O O18 0.500000 0.954139 0.500000
O O19 0.878956 0.000000 0.724186
#
# Coordination Sequence:
#
# PCOD9220576 Si02
#       8
#     8   8   8   8   8   8   8   8
#     4  11  22  40  63  89 121 161 202 243 305 364
#     4  12  25  37  52  77 114 160 213 262 299 341
#     4  12  24  36  55  79 115 161 208 247 296 352
#     4  11  24  37  51  73 109 158 202 254 295 337
#     4  12  24  38  56  85 119 160 206 257 299 353
#     4  11  24  41  59  81 121 161 211 253 298 345
#     4  11  22  36  62  96 127 155 194 245 301 368
#     4   9  20  40  65  96 128 155 186 235 305 380
#
# _framework density 17.894487999999999
#
# number of rings (size 3 to 8) (size 9 to 14) (size 15 to 20)
#    0.000    0.875    5.000    2.625    7.000    0.250 
#    0.000    0.000    0.000    0.375    0.000    0.875 
#    0.000    0.000    0.000    0.000    0.000    0.000 
#
# Total GULP energy -178348.193689 kJ/mol
# GULP energy per Si atom -5573.381053 kJ/mol
# Density = 1.785376 g / cm^3
# Si number density = 17.894488 Si / 1000 Ang^3
#
#
#
# Elastic Constant Matrix: (Units=GPa)
#
#
# Indices 1 2 3 4 5 6 
#
# 1 107.1640 39.3627 57.6775 -0.0019 -10.2179 0.0092
# 2 39.3627 85.7307 30.9377 0.0015 -4.0252 0.0030
# 3 57.6775 30.9377 98.0948 -0.0031 -17.5091 0.0119
# 4 -0.0019 0.0015 -0.0031 4.1635 0.0000 4.7586
# 5 -10.2179 -4.0252 -17.5091 0.0000 37.6063 0.0036
# 6 0.0092 0.0030 0.0119 4.7586 0.0036 21.0227
#
#
#
# Elastic Compliance Matrix: (Units=1/GPa)
#
#
# Indices 1 2 3 4 5 6 
#
# 1 0.014848 -0.004141 -0.007398 0.000007 0.000147 -0.000003
# 2 -0.004141 0.014329 -0.002194 -0.000013 -0.000613 0.000004
# 3 -0.007398 -0.002194 0.016180 0.000022 0.005288 -0.000012
# 4 0.000007 -0.000013 0.000022 0.324009 0.000017 -0.073341
# 5 0.000147 -0.000613 0.005288 0.000017 0.029028 -0.000012
# 6 -0.000003 0.000004 -0.000012 -0.073341 -0.000012 0.064168
#
#
# Mechanical properties :
#
#
# Convention : Reuss Voigt Hill
#
# Bulk Modulus (GPa) = 55.89337 60.77171 58.33254
# Shear Modulus (GPa) = 10.08082 23.42594 16.75338
#
# Velocity S-wave (km/s) = 2.37607 3.62209 3.06311
# Velocity P-wave (km/s) = 6.23140 7.17827 6.72153
#
# Compressibility (1/GPa) = 0.01789121
#
# Stress axis : x y z
#
# Youngs Moduli (GPa) = 67.34743 69.79089 61.80442
#
# Poissons Ratio (x) = 0.28899 0.45725
# Poissons Ratio (y) = 0.27887 0.13558
# Poissons Ratio (z) = 0.49826 0.15310
#
# Static dielectric constant tensor:
#      x y z
#    x 1.565730 0.000000 -0.105940 
#    y 0.000000 1.605720 0.000000 
#    z -0.105940 0.000000 1.531410 
# 
# From -- ./inp_files/312944.got.cif
#   From: 2010.05.17/outbox.cif.g08.bks.cpg/sg12_157_cif.got.tgz:312944.got - 2010.06.03 13:09:07.
