data_PCOD9220637
_publ_section_title
;
Structure prediction by ZEFSAII (Michael W. Deem and Ramdas Pophale) SiO2 
 PCOD9220637
Probable space group: C 2/M
;
_chemical_formula_sum "Si O2"
_cell_formula_units_Z 40
_cell_length_a 23.345275
_cell_length_b 7.816158
_cell_length_c 16.280756
_cell_angle_alpha 90.000000
_cell_angle_beta 133.961440
_cell_angle_gamma 90.000000
_cell_volume 2138.370935
_symmetry_space_group_name_H-M "C 2/M"
_symmetry_group_IT_number 12
_symmetry_cell_setting 'monoclinic'
loop_
_space_group_symop_operation_xyz
x,y,z
-x,y,-z
-x,-y,-z
x,-y,z
1/2+x,1/2+y,z
1/2-x,1/2+y,-z
1/2-x,1/2-y,-z
1/2+x,1/2-y,z
loop_
_atom_site_type_symbol
_atom_site_label
_atom_site_fract_x
_atom_site_fract_y
_atom_site_fract_z
Si Si1 0.209895 0.692217 0.876124
Si Si2 0.431067 0.707008 0.494665
Si Si3 0.133558 0.000000 0.155772
Si Si4 0.021351 0.000000 0.886639
Si Si5 0.756481 0.803857 0.266800
Si Si6 0.539035 0.305524 0.744623
O O1 0.235182 0.500000 0.881895
O O2 0.233724 0.803662 0.822064
O O3 0.115736 0.699070 0.797810
O O4 0.250000 0.750000 0.000000
O O5 0.500000 0.765624 0.500000
O O6 0.427007 0.500000 0.483242
O O7 0.342022 0.763234 0.385097
O O8 0.462408 0.750765 0.616876
O O9 0.062559 0.000000 0.151155
O O10 0.187710 0.831020 0.218984
O O11 0.089788 0.000000 0.023211
O O12 0.028060 0.838647 0.830526
O O13 0.742268 0.000000 0.280471
O O14 0.557567 0.500000 0.731971
#
# Coordination Sequence:
#
# PCOD9220637 Si02
#       6
#     8   8   4   4   8   8
#     4  12  22  33  52  89 127 153 193 245 299 363
#     4   9  16  31  56  84 116 157 190 231 300 369
#     4  11  22  44  59  92 114 160 213 246 298 353
#     4   9  22  40  67  76 120 164 201 254 296 355
#     4  11  22  37  60  90 121 159 195 247 301 355
#     4   9  18  36  58  80 110 160 196 235 302 351
#
# _framework density 18.705829000000001
#
# number of rings (size 3 to 8) (size 9 to 14) (size 15 to 20)
#    0.600    1.200    3.000    3.000    0.000    0.000 
#    1.800    5.500    0.000    0.000    0.000    0.000 
#    0.000    0.000    0.000    0.000    0.000    0.000 
#
# Total GULP energy -111497.546627 kJ/mol
# GULP energy per Si atom -5574.877331 kJ/mol
# Density = 1.866325 g / cm^3
# Si number density = 18.705829 Si / 1000 Ang^3
#
#
#
# Elastic Constant Matrix: (Units=GPa)
#
#
# Indices 1 2 3 4 5 6 
#
# 1 71.1681 22.5878 5.8444 0.0000 23.0275 0.0000
# 2 22.5878 73.7048 21.2391 0.0000 16.9874 0.0000
# 3 5.8444 21.2391 76.9778 0.0000 25.4057 0.0000
# 4 0.0000 0.0000 0.0000 14.2335 0.0000 7.5332
# 5 23.0275 16.9874 25.4057 0.0000 31.0845 0.0000
# 6 0.0000 0.0000 0.0000 7.5332 0.0000 18.4920
#
#
#
# Elastic Compliance Matrix: (Units=1/GPa)
#
#
# Indices 1 2 3 4 5 6 
#
# 1 0.020426 -0.003766 0.005208 0.000000 -0.017330 0.000000
# 2 -0.003766 0.016453 -0.003022 0.000000 -0.003731 0.000000
# 3 0.005208 -0.003022 0.019387 0.000000 -0.018052 0.000000
# 4 0.000000 0.000000 0.000000 0.089568 0.000000 -0.036488
# 5 -0.017330 -0.003731 -0.018052 0.000000 0.061802 0.000000
# 6 0.000000 0.000000 0.000000 -0.036488 0.000000 0.068942
#
#
# Mechanical properties :
#
#
# Convention : Reuss Voigt Hill
#
# Bulk Modulus (GPa) = 18.83068 35.68816 27.25942
# Shear Modulus (GPa) = 16.81008 24.24062 20.52535
#
# Velocity S-wave (km/s) = 3.00101 3.60375 3.31610
# Velocity P-wave (km/s) = 4.70071 6.03623 5.40984
#
# Compressibility (1/GPa) = 0.05310484
#
# Stress axis : x y z
#
# Youngs Moduli (GPa) = 48.95630 60.78019 51.58102
#
# Poissons Ratio (x) = 0.22893 -0.26863
# Poissons Ratio (y) = 0.18439 0.15589
# Poissons Ratio (z) = -0.25496 0.18369
#
# Static dielectric constant tensor:
#      x y z
#    x 1.850360 0.000000 -0.027070 
#    y 0.000000 1.657610 0.000000 
#    z -0.027070 0.000000 1.683610 
# 
# From -- ./inp_files/287993.got.cif
#   From: 2010.05.17/outbox.cif.g08.bks.cpg/sg12_144_cif.got.tgz:287993.got - 2010.06.03 13:09:07.
