data_PCOD9220228
_publ_section_title
;
Structure prediction by ZEFSAII (Michael W. Deem and Ramdas Pophale) SiO2 
 PCOD9220228
Probable space group: C 2/M
;
_chemical_formula_sum "Si O2"
_cell_formula_units_Z 60
_cell_length_a 15.633930
_cell_length_b 17.860760
_cell_length_c 12.398971
_cell_angle_alpha 90.000000
_cell_angle_beta 115.153528
_cell_angle_gamma 90.000000
_cell_volume 3133.898318
_symmetry_space_group_name_H-M "C 2/M"
_symmetry_group_IT_number 12
_symmetry_cell_setting 'monoclinic'
loop_
_space_group_symop_operation_xyz
x,y,z
-x,y,-z
-x,-y,-z
x,-y,z
1/2+x,1/2+y,z
1/2-x,1/2+y,-z
1/2-x,1/2-y,-z
1/2+x,1/2-y,z
loop_
_atom_site_type_symbol
_atom_site_label
_atom_site_fract_x
_atom_site_fract_y
_atom_site_fract_z
Si Si1 0.679144 0.330182 0.629711
Si Si2 0.028470 0.588722 0.634397
Si Si3 0.000000 0.703037 0.000000
Si Si4 0.725786 0.838381 0.726705
Si Si5 0.896822 0.333259 0.737668
Si Si6 0.166990 0.803265 0.000518
Si Si7 0.882276 0.162068 0.649315
Si Si8 0.583121 0.411162 0.776965
O O1 0.686925 0.244993 0.678310
O O2 0.787677 0.356928 0.678033
O O3 0.633570 0.331196 0.486997
O O4 0.622545 0.379662 0.684738
O O5 0.017733 0.500000 0.632381
O O6 0.136709 0.611632 0.708413
O O7 0.000000 0.616122 0.500000
O O8 0.960821 0.625209 0.685800
O O9 0.940744 0.657939 0.879805
O O10 0.074537 0.753943 0.975252
O O11 0.786504 0.865310 0.656561
O O12 0.795815 0.833785 0.865589
O O13 0.897877 0.245162 0.706510
O O14 0.139526 0.867054 0.900740
O O15 0.250000 0.750000 0.000000
O O16 0.973022 0.112159 0.723844
O O17 0.594281 0.500000 0.791004
#
# Coordination Sequence:
#
# PCOD9220228 Si02
#       8
#     8   8   4   8   8   8   8   8
#     4  11  22  39  64  95 124 165 211 264 307 365
#     4  11  24  40  59  89 130 167 200 252 317 375
#     4  12  20  40  68  92 118 156 208 266 318 352
#     4  11  21  40  66  93 120 161 222 261 305 366
#     4  11  21  40  66  94 118 160 218 264 306 367
#     4  12  21  42  66  90 124 166 209 260 310 365
#     4  11  22  39  65  92 126 164 211 261 310 364
#     4  12  26  42  62  96 132 168 207 252 320 391
#
# _framework density 19.145484
#
# number of rings (size 3 to 8) (size 9 to 14) (size 15 to 20)
#    0.000    0.667    5.333    5.200    0.000    2.667 
#    0.000    2.667    0.000    0.000    0.000    0.000 
#    0.000    0.000    0.000    0.000    0.000    0.000 
#
# Total GULP energy -167767.654084 kJ/mol
# GULP energy per Si atom -5592.255136 kJ/mol
# Density = 1.910191 g / cm^3
# Si number density = 19.145484 Si / 1000 Ang^3
#
#
#
# Elastic Constant Matrix: (Units=GPa)
#
#
# Indices 1 2 3 4 5 6 
#
# 1 101.0842 36.9587 -24.3261 0.0000 -7.0032 0.0000
# 2 36.9587 50.2012 14.6184 0.0000 -7.4746 0.0000
# 3 -24.3261 14.6184 61.1475 0.0000 9.1335 0.0000
# 4 0.0000 0.0000 0.0000 48.9185 0.0000 -14.3965
# 5 -7.0032 -7.4746 9.1335 0.0000 33.2668 0.0000
# 6 0.0000 0.0000 0.0000 -14.3965 0.0000 3.0465
#
#
#
# Elastic Compliance Matrix: (Units=1/GPa)
#
#
# Indices 1 2 3 4 5 6 
#
# 1 0.019519 -0.018615 0.012749 0.000000 -0.003574 0.000000
# 2 -0.018615 0.040593 -0.018652 0.000000 0.010323 0.000000
# 3 0.012749 -0.018652 0.027227 0.000000 -0.008982 0.000000
# 4 0.000000 0.000000 0.000000 -0.052318 0.000000 -0.247236
# 5 -0.003574 0.010323 -0.008982 0.000000 0.034093 0.000000
# 6 0.000000 0.000000 0.000000 -0.247236 0.000000 -0.840094
#
#
# Mechanical properties :
#
#
# Convention : Reuss Voigt Hill
#
# Bulk Modulus (GPa) = 26.10710 29.65942 27.88326
# Shear Modulus (GPa) = -7.05042 29.39181 11.17069
#
# Velocity S-wave (km/s) = -1.92108 3.92239 2.41812
# Velocity P-wave (km/s) = 2.95720 6.00323 4.73201
#
# Compressibility (1/GPa) = 0.03830375
#
# Stress axis : x y z
#
# Youngs Moduli (GPa) = 51.23107 24.63495 36.72873
#
# Poissons Ratio (x) = 0.45858 -0.46827
# Poissons Ratio (y) = 0.95367 0.68506
# Poissons Ratio (z) = -0.65317 0.45949
#
# Static dielectric constant tensor:
#      x y z
#    x 1.671260 0.000000 0.006700 
#    y 0.000000 1.636620 0.000000 
#    z 0.006700 0.000000 1.673930 
# 
# From -- ./inp_files/146200.got.cif
#   From: 2010.05.17/outbox.cif.g08.bks.cpg/sg12_74_cif.got.tgz:146200.got - 2010.06.03 13:09:07.
