data_PCOD9220607
_publ_section_title
;
Structure prediction by ZEFSAII (Michael W. Deem and Ramdas Pophale) SiO2 
 PCOD9220607
Probable space group: C 2/M
;
_chemical_formula_sum "Si O2"
_cell_formula_units_Z 56
_cell_length_a 14.898946
_cell_length_b 8.534367
_cell_length_c 22.329694
_cell_angle_alpha 90.000000
_cell_angle_beta 120.089950
_cell_angle_gamma 90.000000
_cell_volume 2456.664824
_symmetry_space_group_name_H-M "C 2/M"
_symmetry_group_IT_number 12
_symmetry_cell_setting 'monoclinic'
loop_
_space_group_symop_operation_xyz
x,y,z
-x,y,-z
-x,-y,-z
x,-y,z
1/2+x,1/2+y,z
1/2-x,1/2+y,-z
1/2-x,1/2-y,-z
1/2+x,1/2-y,z
loop_
_atom_site_type_symbol
_atom_site_label
_atom_site_fract_x
_atom_site_fract_y
_atom_site_fract_z
Si Si1 0.416649 0.309491 0.052212
Si Si2 0.645342 0.687010 0.842227
Si Si3 0.658370 0.186821 0.511636
Si Si4 0.425412 0.183733 0.725526
Si Si5 0.705376 0.814810 0.667148
Si Si6 0.358268 0.688404 0.898311
Si Si7 0.507544 0.682969 0.372511
O O1 0.415235 0.500000 0.050710
O O2 0.351042 0.256991 0.087048
O O3 0.537283 0.261826 0.100838
O O4 0.379482 0.259252 0.974313
O O5 0.646639 0.500000 0.840840
O O6 0.534462 0.745301 0.782996
O O7 0.746603 0.749326 0.842560
O O8 0.750000 0.250000 0.500000
O O9 0.684700 0.217017 0.589596
O O10 0.554964 0.268510 0.452171
O O11 0.647830 0.000000 0.501338
O O12 0.323203 0.263773 0.718528
O O13 0.430061 0.218704 0.656037
O O14 0.421718 0.000000 0.735764
O O15 0.613850 0.724152 0.670316
O O16 0.693667 0.000000 0.674304
O O17 0.354678 0.500000 0.895638
O O18 0.524509 0.500000 0.366581
#
# Coordination Sequence:
#
# PCOD9220607 Si02
#       7
#     8   8   8   8   8   8   8
#     4   8  17  34  59  86 117 155 193 239 293 356
#     4  11  22  37  57  85 120 156 196 246 305 359
#     4  11  22  38  65  95 127 161 200 249 305 361
#     4  12  26  44  63  85 118 163 211 258 306 361
#     4  11  24  43  66  93 124 160 202 250 305 367
#     4   9  17  35  60  87 116 153 199 239 289 356
#     4  12  25  42  65  93 124 160 203 253 307 366
#
# _framework density 22.795131000000001
#
# number of rings (size 3 to 8) (size 9 to 14) (size 15 to 20)
#    0.000    1.429    1.429    5.571    0.000    4.571 
#    0.000    7.857    0.000    0.000    0.000    0.000 
#    0.000    0.000    0.000    0.000    0.000    0.000 
#
# Total GULP energy -156663.799417 kJ/mol
# GULP energy per Si atom -5595.135693 kJ/mol
# Density = 2.274325 g / cm^3
# Si number density = 22.795131 Si / 1000 Ang^3
#
#
#
# Elastic Constant Matrix: (Units=GPa)
#
#
# Indices 1 2 3 4 5 6 
#
# 1 107.4494 9.2169 14.7633 0.0000 32.5460 0.0000
# 2 9.2169 37.0387 -2.7994 0.0000 6.8799 0.0000
# 3 14.7633 -2.7994 50.9555 0.0000 26.7001 0.0000
# 4 0.0000 0.0000 0.0000 22.0172 0.0000 7.6261
# 5 32.5460 6.8799 26.7001 0.0000 43.7843 0.0000
# 6 0.0000 0.0000 0.0000 7.6261 0.0000 28.6976
#
#
#
# Elastic Compliance Matrix: (Units=1/GPa)
#
#
# Indices 1 2 3 4 5 6 
#
# 1 0.012160 -0.001083 0.001564 0.000000 -0.009822 0.000000
# 2 -0.001083 0.029043 0.005700 0.000000 -0.007234 0.000000
# 3 0.001564 0.005700 0.030220 0.000000 -0.020487 0.000000
# 4 0.000000 0.000000 0.000000 0.050023 0.000000 -0.013293
# 5 -0.009822 -0.007234 -0.020487 0.000000 0.043770 0.000000
# 6 0.000000 0.000000 0.000000 -0.013293 0.000000 0.038379
#
#
# Mechanical properties :
#
#
# Convention : Reuss Voigt Hill
#
# Bulk Modulus (GPa) = 11.93532 26.42281 19.17907
# Shear Modulus (GPa) = 22.81429 30.51734 26.66581
#
# Velocity S-wave (km/s) = 3.16704 3.66288 3.42395
# Velocity P-wave (km/s) = 4.31518 5.43190 4.90542
#
# Compressibility (1/GPa) = 0.08378495
#
# Stress axis : x y z
#
# Youngs Moduli (GPa) = 82.23770 34.43177 33.09100
#
# Poissons Ratio (x) = 0.03730 -0.05176
# Poissons Ratio (y) = 0.08908 -0.18862
# Poissons Ratio (z) = -0.12864 -0.19627
#
# Static dielectric constant tensor:
#      x y z
#    x 1.843920 0.000000 -0.036000 
#    y 0.000000 1.759630 0.000000 
#    z -0.036000 0.000000 1.917790 
# 
# From -- ./inp_files/360018.got.cif
#   From: 2010.05.17/outbox.cif.g08.bks.cpg/sg12_181_cif.got.tgz:360018.got - 2010.06.03 13:09:07.
