data_PCOD9220772
_publ_section_title
;
Structure prediction by ZEFSAII (Michael W. Deem and Ramdas Pophale) SiO2 
 PCOD9220772
Probable space group: C 2/M
;
_chemical_formula_sum "Si O2"
_cell_formula_units_Z 36
_cell_length_a 11.452405
_cell_length_b 23.907738
_cell_length_c 4.809016
_cell_angle_alpha 90.000000
_cell_angle_beta 99.666627
_cell_angle_gamma 90.000000
_cell_volume 1298.018424
_symmetry_space_group_name_H-M "C 2/M"
_symmetry_group_IT_number 12
_symmetry_cell_setting 'monoclinic'
loop_
_space_group_symop_operation_xyz
x,y,z
-x,y,-z
-x,-y,-z
x,-y,z
1/2+x,1/2+y,z
1/2-x,1/2+y,-z
1/2-x,1/2-y,-z
1/2+x,1/2-y,z
loop_
_atom_site_type_symbol
_atom_site_label
_atom_site_fract_x
_atom_site_fract_y
_atom_site_fract_z
Si Si1 0.872694 0.729668 0.905631
Si Si2 0.882277 0.562041 0.778497
Si Si3 0.198818 0.000000 0.659285
Si Si4 0.581405 0.393634 0.295543
Si Si5 0.673961 0.161144 0.636771
O O1 0.884496 0.671908 0.090986
O O2 0.750000 0.750000 0.000000
O O3 0.854195 0.712454 0.580841
O O4 0.000000 0.758878 0.000000
O O5 0.858767 0.500000 0.615188
O O6 0.760720 0.551836 0.894044
O O7 0.877022 0.608028 0.545287
O O8 0.000000 0.559151 0.000000
O O9 0.133072 0.949932 0.454435
O O10 0.500000 0.366265 0.500000
O O11 0.687525 0.350539 0.278346
O O12 0.500000 0.406095 0.000000
#
# Coordination Sequence:
#
# PCOD9220772 Si02
#       5
#     8   8   4   8   8
#     4  12  28  51  80 111 147 190 245 315 385 452
#     4   8  16  36  67 103 145 196 244 294 355 442
#     4   8  17  32  56  94 139 190 245 296 350 414
#     4  11  22  38  63  98 140 193 245 298 352 425
#     4  11  24  45  73 108 147 193 243 306 374 443
#
# _framework density 27.734582
#
# number of rings (size 3 to 8) (size 9 to 14) (size 15 to 20)
#    0.667    1.111    0.000    4.000    0.000    2.667 
#    0.000    3.333    0.000    6.000    0.000    0.000 
#    0.000    0.000    0.000    0.000    0.000    0.000 
#
# Total GULP energy -100355.790759 kJ/mol
# GULP energy per Si atom -5575.321709 kJ/mol
# Density = 2.767146 g / cm^3
# Si number density = 27.734582 Si / 1000 Ang^3
#
#
#
# Elastic Constant Matrix: (Units=GPa)
#
#
# Indices 1 2 3 4 5 6 
#
# 1 207.6876 33.9732 77.8146 0.0000 36.6907 0.0000
# 2 33.9732 46.6411 6.9982 0.0000 14.8179 0.0000
# 3 77.8146 6.9982 165.2190 0.0000 39.1164 0.0000
# 4 0.0000 0.0000 0.0000 28.0533 0.0000 15.9442
# 5 36.6907 14.8179 39.1164 0.0000 69.0924 0.0000
# 6 0.0000 0.0000 0.0000 15.9442 0.0000 11.2832
#
#
#
# Elastic Compliance Matrix: (Units=1/GPa)
#
#
# Indices 1 2 3 4 5 6 
#
# 1 0.006707 -0.004115 -0.002714 0.000000 -0.001143 0.000000
# 2 -0.004115 0.025540 0.001889 0.000000 -0.004362 0.000000
# 3 -0.002714 0.001889 0.008090 0.000000 -0.003544 0.000000
# 4 0.000000 0.000000 0.000000 0.181073 0.000000 -0.255873
# 5 -0.001143 -0.004362 -0.003544 0.000000 0.018022 0.000000
# 6 0.000000 0.000000 0.000000 -0.255873 0.000000 0.450200
#
#
# Mechanical properties :
#
#
# Convention : Reuss Voigt Hill
#
# Bulk Modulus (GPa) = 32.83381 73.01332 52.92357
# Shear Modulus (GPa) = 7.04560 41.73655 24.39107
#
# Velocity S-wave (km/s) = 1.59558 3.88346 2.96876
# Velocity P-wave (km/s) = 3.90625 6.81844 5.55653
#
# Compressibility (1/GPa) = 0.03045641
#
# Stress axis : x y z
#
# Youngs Moduli (GPa) = 149.10432 39.15446 123.61235
#
# Poissons Ratio (x) = 0.16112 0.33547
# Poissons Ratio (y) = 0.61356 -0.23349
# Poissons Ratio (z) = 0.40466 -0.07396
#
# Static dielectric constant tensor:
#      x y z
#    x 2.324680 0.000000 0.038260 
#    y 0.000000 2.447240 0.000000 
#    z 0.038260 0.000000 2.101680 
# 
# From -- ./inp_files/7781.got.cif
#   From: 2010.05.17/outbox.cif.g08.bks.cpg/sg12_4_cif.got.tgz:7781.got - 2010.06.03 13:09:07.
