data_PCOD9220447
_publ_section_title
;
Structure prediction by ZEFSAII (Michael W. Deem and Ramdas Pophale) SiO2 
 PCOD9220447
Probable space group: C 2/M
;
_chemical_formula_sum "Si O2"
_cell_formula_units_Z 56
_cell_length_a 28.210850
_cell_length_b 15.523812
_cell_length_c 8.322114
_cell_angle_alpha 90.000000
_cell_angle_beta 57.353452
_cell_angle_gamma 90.000000
_cell_volume 3068.793973
_symmetry_space_group_name_H-M "C 2/M"
_symmetry_group_IT_number 12
_symmetry_cell_setting 'monoclinic'
loop_
_space_group_symop_operation_xyz
x,y,z
-x,y,-z
-x,-y,-z
x,-y,z
1/2+x,1/2+y,z
1/2-x,1/2+y,-z
1/2-x,1/2-y,-z
1/2+x,1/2-y,z
loop_
_atom_site_type_symbol
_atom_site_label
_atom_site_fract_x
_atom_site_fract_y
_atom_site_fract_z
Si Si1 0.836978 0.907937 0.411485
Si Si2 0.120385 0.234420 0.086410
Si Si3 0.768215 0.808869 0.315973
Si Si4 0.572041 0.901493 0.683199
Si Si5 0.947043 0.098585 0.989366
Si Si6 0.844387 0.260508 0.617953
Si Si7 0.060428 0.402983 0.089736
O O1 0.787723 0.895635 0.369401
O O2 0.839455 0.826040 0.521592
O O3 0.830707 0.000000 0.506667
O O4 0.894868 0.906985 0.206810
O O5 0.074532 0.163909 0.108670
O O6 0.139389 0.229396 0.235017
O O7 0.094038 0.328317 0.113130
O O8 0.175685 0.225176 0.873742
O O9 0.750000 0.750000 0.500000
O O10 0.716069 0.807854 0.289803
O O11 0.609876 0.827381 0.536473
O O12 0.506261 0.892240 0.759225
O O13 0.589480 0.000000 0.609427
O O14 0.572352 0.894932 0.876835
O O15 0.959040 0.000000 0.910640
O O16 0.000000 0.129290 0.000000
O O17 0.076019 0.500000 0.110524
#
# Coordination Sequence:
#
# PCOD9220447 Si02
#       7
#     8   8   8   8   8   8   8
#     4   9  19  36  57  79 106 145 190 229 269 322
#     4  11  22  34  57  84 115 147 178 234 295 336
#     4   9  19  38  58  77 103 144 193 231 267 331
#     4   9  19  36  58  81 109 150 193 233 273 331
#     4   9  19  36  57  79 104 145 195 232 262 319
#     4  11  22  35  54  85 119 146 178 229 295 344
#     4   9  19  36  57  81 110 147 195 235 271 329
#
# _framework density 18.248211999999999
#
# number of rings (size 3 to 8) (size 9 to 14) (size 15 to 20)
#    0.000    2.429    0.000    3.857    4.000    2.286 
#    0.000    5.714    0.000    7.714    0.000    0.000 
#    0.000    0.000    0.000    0.000    0.000    0.000 
#
# Total GULP energy -156007.413571 kJ/mol
# GULP energy per Si atom -5571.693342 kJ/mol
# Density = 1.820668 g / cm^3
# Si number density = 18.248212 Si / 1000 Ang^3
#
#
#
# Elastic Constant Matrix: (Units=GPa)
#
#
# Indices 1 2 3 4 5 6 
#
# 1 116.3115 65.0508 54.6878 0.0000 12.6525 0.0000
# 2 65.0508 124.7036 44.9330 0.0000 5.2026 0.0000
# 3 54.6878 44.9330 8.7468 0.0000 1.4238 0.0000
# 4 0.0000 0.0000 0.0000 5.6860 0.0000 -5.7788
# 5 12.6525 5.2026 1.4238 0.0000 22.5193 0.0000
# 6 0.0000 0.0000 0.0000 -5.7788 0.0000 -0.9691
#
#
#
# Elastic Compliance Matrix: (Units=1/GPa)
#
#
# Indices 1 2 3 4 5 6 
#
# 1 0.004747 -0.009623 0.020032 0.000000 -0.001710 0.000000
# 2 -0.009623 0.010101 0.007854 0.000000 0.002576 0.000000
# 3 0.020032 0.007854 -0.049649 0.000000 -0.009930 0.000000
# 4 0.000000 0.000000 0.000000 0.024910 0.000000 -0.148537
# 5 -0.001710 0.002576 -0.009930 0.000000 0.045400 0.000000
# 6 0.000000 0.000000 0.000000 -0.148537 0.000000 -0.146152
#
#
# Mechanical properties :
#
#
# Convention : Reuss Voigt Hill
#
# Bulk Modulus (GPa) = 579.49279 64.34500 321.91890
# Shear Modulus (GPa) = -34.10748 11.11993 -11.49377
#
# Velocity S-wave (km/s) = -4.32798 2.47122 -2.51242
# Velocity P-wave (km/s) = 17.12529 6.59395 12.97605
#
# Compressibility (1/GPa) = 0.00172565
#
# Stress axis : x y z
#
# Youngs Moduli (GPa) = 210.66856 99.00038 -20.14128
#
# Poissons Ratio (x) = 0.95264 0.40346
# Poissons Ratio (y) = 2.02717 0.15820
# Poissons Ratio (z) = -4.22005 -0.77759
#
# Static dielectric constant tensor:
#      x y z
#    x 1.656030 0.000000 0.001000 
#    y 0.000000 1.653490 0.000000 
#    z 0.001000 0.000000 1.608800 
# 
# From -- ./inp_files/104452.got.cif
#   From: 2010.05.17/outbox.cif.g08.bks.cpg/sg12_53_cif.got.tgz:104452.got - 2010.06.03 13:09:07.
