data_PCOD9220768
_publ_section_title
;
Structure prediction by ZEFSAII (Michael W. Deem and Ramdas Pophale) SiO2 
 PCOD9220768
Probable space group: C 2/M
;
_chemical_formula_sum "Si O2"
_cell_formula_units_Z 56
_cell_length_a 9.198503
_cell_length_b 26.089103
_cell_length_c 18.366343
_cell_angle_alpha 90.000000
_cell_angle_beta 137.605897
_cell_angle_gamma 90.000000
_cell_volume 2971.698422
_symmetry_space_group_name_H-M "C 2/M"
_symmetry_group_IT_number 12
_symmetry_cell_setting 'monoclinic'
loop_
_space_group_symop_operation_xyz
x,y,z
-x,y,-z
-x,-y,-z
x,-y,z
1/2+x,1/2+y,z
1/2-x,1/2+y,-z
1/2-x,1/2-y,-z
1/2+x,1/2-y,z
loop_
_atom_site_type_symbol
_atom_site_label
_atom_site_fract_x
_atom_site_fract_y
_atom_site_fract_z
Si Si1 0.603006 0.304797 0.618147
Si Si2 0.995610 0.876638 0.807435
Si Si3 0.324891 0.695429 0.999599
Si Si4 0.657922 0.057272 0.127521
Si Si5 0.015206 0.622086 0.199240
Si Si6 0.338820 0.559467 0.871951
Si Si7 0.253001 0.198467 0.383193
O O1 0.500000 0.312501 0.500000
O O2 0.764671 0.351546 0.694594
O O3 0.740158 0.251998 0.659466
O O4 0.417646 0.298804 0.612111
O O5 0.179443 0.895728 0.821209
O O6 0.952756 0.927935 0.838163
O O7 0.815529 0.848305 0.693849
O O8 0.078473 0.836379 0.897603
O O9 0.120348 0.664492 0.894090
O O10 0.500000 0.699805 0.000000
O O11 0.250000 0.750000 0.000000
O O12 0.534928 0.072338 0.155089
O O13 0.749494 0.000000 0.166979
O O14 0.500000 0.058312 0.000000
O O15 0.857212 0.599806 0.202081
O O16 0.279827 0.500000 0.855239
O O17 0.500000 0.570890 0.000000
O O18 0.500000 0.191794 0.500000
#
# Coordination Sequence:
#
# PCOD9220768 Si02
#       7
#     8   8   8   8   8   8   8
#     4  11  25  42  66  93 122 163 210 254 307 373
#     4  12  22  40  62  92 127 161 204 253 311 367
#     4  12  26  38  57  90 128 166 201 248 309 374
#     4  11  22  38  63  94 127 163 206 254 302 366
#     4  12  22  40  62  92 127 161 204 253 311 367
#     4  11  22  40  65  94 127 167 212 254 306 368
#     4  11  25  42  66  93 122 163 210 254 307 373
#
# _framework density 18.844442999999998
#
# number of rings (size 3 to 8) (size 9 to 14) (size 15 to 20)
#    0.000    0.571    5.714    3.429    6.000    4.571 
#    0.000    0.000    0.000    5.143    0.000    0.000 
#    0.000    0.000    0.000    0.000    0.000    0.000 
#
# Total GULP energy -156278.635481 kJ/mol
# GULP energy per Si atom -5581.379839 kJ/mol
# Density = 1.880155 g / cm^3
# Si number density = 18.844443 Si / 1000 Ang^3
#
#
#
# Elastic Constant Matrix: (Units=GPa)
#
#
# Indices 1 2 3 4 5 6 
#
# 1 73.7442 22.6417 20.6634 0.0000 1.1331 0.0000
# 2 22.6417 117.2918 40.6083 0.0000 4.2788 -0.0001
# 3 20.6634 40.6083 69.1717 0.0002 3.5061 0.0005
# 4 0.0000 0.0000 0.0002 26.8300 0.0001 3.8933
# 5 1.1331 4.2788 3.5061 0.0001 24.0272 0.0002
# 6 0.0000 -0.0001 0.0005 3.8933 0.0002 34.8073
#
#
#
# Elastic Compliance Matrix: (Units=1/GPa)
#
#
# Indices 1 2 3 4 5 6 
#
# 1 0.015063 -0.001697 -0.003509 0.000000 0.000104 0.000000
# 2 -0.001697 0.010916 -0.005850 0.000000 -0.001010 0.000000
# 3 -0.003509 -0.005850 0.019019 0.000000 -0.001568 0.000000
# 4 0.000000 0.000000 0.000000 0.037887 0.000000 -0.004238
# 5 0.000104 -0.001010 -0.001568 0.000000 0.042023 0.000000
# 6 0.000000 0.000000 0.000000 -0.004238 0.000000 0.029204
#
#
# Mechanical properties :
#
#
# Convention : Reuss Voigt Hill
#
# Bulk Modulus (GPa) = 43.69485 47.55939 45.62712
# Shear Modulus (GPa) = 27.19595 28.88584 28.04090
#
# Velocity S-wave (km/s) = 3.80304 3.91942 3.86167
# Velocity P-wave (km/s) = 6.52086 6.76573 6.64443
#
# Compressibility (1/GPa) = 0.02288599
#
# Stress axis : x y z
#
# Youngs Moduli (GPa) = 66.38817 91.61277 52.57939
#
# Poissons Ratio (x) = 0.15543 0.18450
# Poissons Ratio (y) = 0.11264 0.30759
# Poissons Ratio (z) = 0.23295 0.53594
#
# Static dielectric constant tensor:
#      x y z
#    x 1.661830 0.000000 0.007220 
#    y 0.000000 1.642520 0.000000 
#    z 0.007220 0.000000 1.626370 
# 
# From -- ./inp_files/259857.got.cif
#   From: 2010.05.17/outbox.cif.g08.bks.cpg/sg12_130_cif.got.tgz:259857.got - 2010.06.03 13:09:07.
