data_PCOD9220157
_publ_section_title
;
Structure prediction by ZEFSAII (Michael W. Deem and Ramdas Pophale) SiO2 
 PCOD9220157
Probable space group: C 2/M
;
_chemical_formula_sum "Si O2"
_cell_formula_units_Z 48
_cell_length_a 11.073854
_cell_length_b 27.332982
_cell_length_c 14.747566
_cell_angle_alpha 90.000000
_cell_angle_beta 151.511635
_cell_angle_gamma 90.000000
_cell_volume 2129.151625
_symmetry_space_group_name_H-M "C 2/M"
_symmetry_group_IT_number 12
_symmetry_cell_setting 'monoclinic'
loop_
_space_group_symop_operation_xyz
x,y,z
-x,y,-z
-x,-y,-z
x,-y,z
1/2+x,1/2+y,z
1/2-x,1/2+y,-z
1/2-x,1/2-y,-z
1/2+x,1/2-y,z
loop_
_atom_site_type_symbol
_atom_site_label
_atom_site_fract_x
_atom_site_fract_y
_atom_site_fract_z
Si Si1 0.947114 0.308470 0.868131
Si Si2 0.471139 0.343701 0.200373
Si Si3 0.187995 0.653929 0.407371
Si Si4 0.499497 0.945903 0.350049
Si Si5 0.570739 0.445577 0.209058
Si Si6 0.235181 0.800372 0.215122
O O1 0.795469 0.332221 0.686162
O O2 0.818531 0.256702 0.803805
O O3 0.000000 0.334518 0.000000
O O4 0.240679 0.307086 0.028935
O O5 0.564402 0.343531 0.365734
O O6 0.404059 0.398612 0.123364
O O7 0.705735 0.327526 0.291673
O O8 0.070904 0.599740 0.336560
O O9 0.988015 0.689318 0.326633
O O10 0.229895 0.939130 0.221581
O O11 0.711771 0.945508 0.569581
O O12 0.505549 0.000000 0.312469
O O13 0.455300 0.500000 0.132575
O O14 0.000000 0.819296 0.000000
#
# Coordination Sequence:
#
# PCOD9220157 Si02
#       6
#     8   8   8   8   8   8
#     4  11  27  44  57  81 121 163 208 253 292 343
#     4  11  21  39  64  89 120 160 195 241 301 361
#     4  11  22  40  65  91 119 158 198 246 301 361
#     4   8  14  28  55  93 126 147 178 236 306 365
#     4   8  14  27  54  92 124 147 182 236 301 366
#     4  11  22  40  61  85 121 156 191 249 309 348
#
# _framework density 22.544191000000001
#
# number of rings (size 3 to 8) (size 9 to 14) (size 15 to 20)
#    0.000    2.000    3.333    2.000    2.333    1.333 
#    6.000    0.833    0.000    5.000    0.000    4.667 
#    0.000    0.000    0.000    0.000    0.000    0.000 
#
# Total GULP energy -134085.403945 kJ/mol
# GULP energy per Si atom -5586.891831 kJ/mol
# Density = 2.249288 g / cm^3
# Si number density = 22.544191 Si / 1000 Ang^3
#
#
#
# Elastic Constant Matrix: (Units=GPa)
#
#
# Indices 1 2 3 4 5 6 
#
# 1 69.5454 37.3379 26.4433 -0.0001 -19.0827 -0.0002
# 2 37.3379 158.1836 31.5586 0.0000 -4.5653 -0.0001
# 3 26.4433 31.5586 109.7084 -0.0001 -15.8814 -0.0006
# 4 -0.0001 0.0000 -0.0001 24.3099 0.0000 -13.1659
# 5 -19.0827 -4.5653 -15.8814 0.0000 43.3683 -0.0001
# 6 -0.0002 -0.0001 -0.0006 -13.1659 -0.0001 27.2975
#
#
#
# Elastic Compliance Matrix: (Units=1/GPa)
#
#
# Indices 1 2 3 4 5 6 
#
# 1 0.019389 -0.003866 -0.002519 0.000000 0.007202 0.000000
# 2 -0.003866 0.007478 -0.001427 0.000000 -0.001437 0.000000
# 3 -0.002519 -0.001427 0.010507 0.000000 0.002589 0.000000
# 4 0.000000 0.000000 0.000000 0.055680 0.000000 0.026855
# 5 0.007202 -0.001437 0.002589 0.000000 0.027024 0.000000
# 6 0.000000 0.000000 0.000000 0.026855 0.000000 0.049586
#
#
# Mechanical properties :
#
#
# Convention : Reuss Voigt Hill
#
# Bulk Modulus (GPa) = 45.97704 58.67966 52.32835
# Shear Modulus (GPa) = 25.96904 35.13500 30.55202
#
# Velocity S-wave (km/s) = 3.39767 3.95206 3.68531
# Velocity P-wave (km/s) = 5.98587 6.84911 6.43199
#
# Compressibility (1/GPa) = 0.02174999
#
# Stress axis : x y z
#
# Youngs Moduli (GPa) = 51.57673 133.73277 95.17024
#
# Poissons Ratio (x) = 0.51704 0.23969
# Poissons Ratio (y) = 0.19941 0.13582
# Poissons Ratio (z) = 0.12990 0.19085
#
# Static dielectric constant tensor:
#      x y z
#    x 1.877200 0.000000 -0.001540 
#    y 0.000000 1.846700 0.000000 
#    z -0.001540 0.000000 1.879260 
# 
# From -- ./inp_files/209449.got.cif
#   From: 2010.05.17/outbox.cif.g08.bks.cpg/sg12_105_cif.got.tgz:209449.got - 2010.06.03 13:09:07.
