data_PCOD9220199
_publ_section_title
;
Structure prediction by ZEFSAII (Michael W. Deem and Ramdas Pophale) SiO2 
 PCOD9220199
Probable space group: C 2/M
;
_chemical_formula_sum "Si O2"
_cell_formula_units_Z 32
_cell_length_a 17.096326
_cell_length_b 18.016240
_cell_length_c 11.319983
_cell_angle_alpha 90.000000
_cell_angle_beta 27.797766
_cell_angle_gamma 90.000000
_cell_volume 1626.023084
_symmetry_space_group_name_H-M "C 2/M"
_symmetry_group_IT_number 12
_symmetry_cell_setting 'monoclinic'
loop_
_space_group_symop_operation_xyz
x,y,z
-x,y,-z
-x,-y,-z
x,-y,z
1/2+x,1/2+y,z
1/2-x,1/2+y,-z
1/2-x,1/2-y,-z
1/2+x,1/2-y,z
loop_
_atom_site_type_symbol
_atom_site_label
_atom_site_fract_x
_atom_site_fract_y
_atom_site_fract_z
Si Si1 0.229873 0.500000 0.313593
Si Si2 0.668944 0.000000 0.128477
Si Si3 0.828795 0.155722 0.290508
Si Si4 0.878949 0.794097 0.485845
Si Si5 0.334984 0.631708 0.771764
O O1 0.263946 0.500000 0.127601
O O2 0.298098 0.573367 0.284955
O O3 0.029264 0.500000 0.590810
O O4 0.719162 0.925631 0.991700
O O5 0.848244 0.162670 0.405346
O O6 0.676060 0.209782 0.458953
O O7 0.000000 0.183403 0.000000
O O8 0.771252 0.826998 0.739683
O O9 0.071166 0.808338 0.269513
O O10 0.500000 0.589070 0.500000
#
# Coordination Sequence:
#
# PCOD9220199 Si02
#       5
#     4   4   8   8   8
#     4  11  27  35  57  88 119 159 188 226 303 345
#     4  11  21  41  57  87 121 148 195 242 276 354
#     4  11  21  40  57  84 123 152 189 239 286 346
#     4   8  21  37  62  88 106 149 206 229 288 341
#     4   8  19  38  64  84 109 150 195 241 284 327
#
# _framework density 19.679917
#
# number of rings (size 3 to 8) (size 9 to 14) (size 15 to 20)
#    1.500    0.750    0.000    2.250    0.000   10.000 
#    0.000    8.750    0.000    0.000    0.000    0.000 
#    0.000    0.000    0.000    0.000    0.000    0.000 
#
# Total GULP energy -89103.772318 kJ/mol
# GULP energy per Si atom -5568.985770 kJ/mol
# Density = 1.963512 g / cm^3
# Si number density = 19.679917 Si / 1000 Ang^3
#
#
#
# Elastic Constant Matrix: (Units=GPa)
#
#
# Indices 1 2 3 4 5 6 
#
# 1 138.2009 70.4832 30.8170 0.0053 34.0971 -0.0027
# 2 70.4832 85.6889 18.1178 0.0058 15.4243 -0.0023
# 3 30.8170 18.1178 45.3484 0.0103 4.4171 -0.0044
# 4 0.0053 0.0058 0.0103 -97.3109 -0.0107 80.3173
# 5 34.0971 15.4243 4.4171 -0.0107 27.2809 0.0052
# 6 -0.0027 -0.0023 -0.0044 80.3173 0.0052 -22.0158
#
#
#
# Elastic Compliance Matrix: (Units=1/GPa)
#
#
# Indices 1 2 3 4 5 6 
#
# 1 0.017806 -0.010547 -0.006401 0.000001 -0.015255 -0.000001
# 2 -0.010547 0.020233 -0.001103 0.000000 0.001921 0.000000
# 3 -0.006401 -0.001103 0.026419 0.000000 0.004346 -0.000002
# 4 0.000001 0.000000 0.000000 0.005110 -0.000003 0.018642
# 5 -0.015255 0.001921 0.004346 -0.000003 0.053933 0.000004
# 6 -0.000001 0.000000 -0.000002 0.018642 0.000004 0.022586
#
#
# Mechanical properties :
#
#
# Convention : Reuss Voigt Hill
#
# Bulk Modulus (GPa) = 35.26626 56.45270 45.85948
# Shear Modulus (GPa) = 26.09069 -8.42117 8.83476
#
# Velocity S-wave (km/s) = 3.64504 -2.07084 2.12108
# Velocity P-wave (km/s) = 5.97276 4.79895 5.41774
#
# Compressibility (1/GPa) = 0.02835572
#
# Stress axis : x y z
#
# Youngs Moduli (GPa) = 56.16139 49.42445 37.85217
#
# Poissons Ratio (x) = 0.52127 0.24227
# Poissons Ratio (y) = 0.59233 0.04177
# Poissons Ratio (z) = 0.35946 0.05454
#
# Static dielectric constant tensor:
#      x y z
#    x 1.703150 0.000000 0.000360 
#    y 0.000000 1.661780 0.000000 
#    z 0.000360 0.000000 1.702790 
# 
# From -- ./inp_files/156448.got.cif
#   From: 2010.05.17/outbox.cif.g08.bks.cpg/sg12_79_cif.got.tgz:156448.got - 2010.06.03 13:09:07.
