data_PCOD9220812
_publ_section_title
;
Structure prediction by ZEFSAII (Michael W. Deem and Ramdas Pophale) SiO2 
 PCOD9220812
Probable space group: C 2/M
;
_chemical_formula_sum "Si O2"
_cell_formula_units_Z 58
_cell_length_a 19.395743
_cell_length_b 7.710703
_cell_length_c 18.953294
_cell_angle_alpha 90.000000
_cell_angle_beta 70.710435
_cell_angle_gamma 90.000000
_cell_volume 2675.427566
_symmetry_space_group_name_H-M "C 2/M"
_symmetry_group_IT_number 12
_symmetry_cell_setting 'monoclinic'
loop_
_space_group_symop_operation_xyz
x,y,z
-x,y,-z
-x,-y,-z
x,-y,z
1/2+x,1/2+y,z
1/2-x,1/2+y,-z
1/2-x,1/2-y,-z
1/2+x,1/2-y,z
loop_
_atom_site_type_symbol
_atom_site_label
_atom_site_fract_x
_atom_site_fract_y
_atom_site_fract_z
Si Si1 0.277464 0.211080 0.591605
Si Si2 0.698107 0.289379 0.754130
Si Si3 0.371419 0.799800 0.439328
Si Si4 0.947695 0.203681 0.276849
Si Si5 0.098794 0.809102 0.994069
Si Si6 0.000000 0.500000 0.000000
Si Si7 0.254505 0.799151 0.107235
Si Si8 0.407727 0.703477 0.839990
O O1 0.263550 0.256050 0.677512
O O2 0.349216 0.269386 0.524393
O O3 0.205960 0.282830 0.575777
O O4 0.274155 0.000000 0.587160
O O5 0.695798 0.500000 0.759874
O O6 0.622000 0.229124 0.744036
O O7 0.712314 0.215066 0.825680
O O8 0.428997 0.718739 0.365993
O O9 0.391738 0.000000 0.439774
O O10 0.025192 0.280032 0.226869
O O11 0.950774 0.000000 0.258657
O O12 0.186223 0.790692 0.962473
O O13 0.081019 0.000000 0.972178
O O14 0.061458 0.652988 0.966203
O O15 0.073254 0.790344 0.083617
O O16 0.173343 0.720414 0.138759
O O17 0.248992 0.000000 0.087706
O O18 0.400329 0.500000 0.822157
#
# Coordination Sequence:
#
# PCOD9220812 Si02
#       8
#     8   8   8   8   8   2   8   8
#     4   8  15  28  45  67 104 143 179 221 279 349
#     4   9  18  32  52  79 108 147 189 233 291 350
#     4   9  15  25  44  74 104 135 175 228 285 339
#     4   9  18  34  53  76 107 145 185 232 288 348
#     4  11  24  44  66  89 124 162 191 238 300 348
#     4  12  26  44  64 106 120 144 200 252 288 350
#     4  11  22  39  59  86 117 151 199 246 284 346
#     4   9  21  40  62  82 113 158 196 234 291 349
#
# _framework density 21.678775999999999
#
# number of rings (size 3 to 8) (size 9 to 14) (size 15 to 20)
#    0.000    2.483    0.690    2.276    1.931    2.759 
#    3.724    0.000    0.000    0.828    0.000    5.793 
#    0.000    0.000    0.000    0.000    0.000    0.000 
#
# Total GULP energy -161476.579354 kJ/mol
# GULP energy per Si atom -5568.157909 kJ/mol
# Density = 2.162943 g / cm^3
# Si number density = 21.678776 Si / 1000 Ang^3
#
#
#
# Elastic Constant Matrix: (Units=GPa)
#
#
# Indices 1 2 3 4 5 6 
#
# 1 77.6351 24.3018 34.3838 0.0000 -32.7087 0.0000
# 2 24.3018 80.7549 11.8281 0.0000 -6.2881 -0.0001
# 3 34.3838 11.8281 110.5760 0.0000 -42.2737 0.0000
# 4 0.0000 0.0000 0.0000 15.3791 0.0000 0.0444
# 5 -32.7087 -6.2881 -42.2737 0.0000 25.3216 0.0000
# 6 0.0000 -0.0001 0.0000 0.0444 0.0000 5.3896
#
#
#
# Elastic Compliance Matrix: (Units=1/GPa)
#
#
# Indices 1 2 3 4 5 6 
#
# 1 0.046355 -0.009870 0.023763 0.000000 0.097099 0.000000
# 2 -0.009870 0.014736 -0.005480 0.000000 -0.018238 0.000000
# 3 0.023763 -0.005480 0.037195 0.000000 0.091431 0.000000
# 4 0.000000 0.000000 0.000000 0.065025 0.000000 -0.000536
# 5 0.097099 -0.018238 0.091431 0.000000 0.313031 0.000000
# 6 0.000000 0.000000 0.000000 -0.000536 0.000000 0.185546
#
#
# Mechanical properties :
#
#
# Convention : Reuss Voigt Hill
#
# Bulk Modulus (GPa) = 8.68709 45.55482 27.12096
# Shear Modulus (GPa) = 7.31604 22.44822 14.88213
#
# Velocity S-wave (km/s) = 1.83904 3.22140 2.62293
# Velocity P-wave (km/s) = 2.91981 5.90726 4.65945
#
# Compressibility (1/GPa) = 0.11511329
#
# Stress axis : x y z
#
# Youngs Moduli (GPa) = 21.57269 67.86229 26.88534
#
# Poissons Ratio (x) = 0.66977 -0.63888
# Poissons Ratio (y) = 0.21291 0.14732
# Poissons Ratio (z) = -0.51263 0.37186
#
# Static dielectric constant tensor:
#      x y z
#    x 1.817390 0.000000 -0.038580 
#    y 0.000000 1.799230 0.000000 
#    z -0.038580 0.000000 1.837060 
# 
# From -- ./inp_files/313905.got.cif
#   From: 2010.05.17/outbox.cif.g08.bks.cpg/sg12_157_cif.got.tgz:313905.got - 2010.06.03 13:09:07.
