data_PCOD9220309
_publ_section_title
;
Structure prediction by ZEFSAII (Michael W. Deem and Ramdas Pophale) SiO2 
 PCOD9220309
Probable space group: C 2/M
;
_chemical_formula_sum "Si O2"
_cell_formula_units_Z 60
_cell_length_a 13.709788
_cell_length_b 18.296125
_cell_length_c 12.080027
_cell_angle_alpha 90.000000
_cell_angle_beta 67.590424
_cell_angle_gamma 90.000000
_cell_volume 2801.279082
_symmetry_space_group_name_H-M "C 2/M"
_symmetry_group_IT_number 12
_symmetry_cell_setting 'monoclinic'
loop_
_space_group_symop_operation_xyz
x,y,z
-x,y,-z
-x,-y,-z
x,-y,z
1/2+x,1/2+y,z
1/2-x,1/2+y,-z
1/2-x,1/2-y,-z
1/2+x,1/2-y,z
loop_
_atom_site_type_symbol
_atom_site_label
_atom_site_fract_x
_atom_site_fract_y
_atom_site_fract_z
Si Si1 0.740293 0.875241 0.196086
Si Si2 0.353671 0.743741 0.879177
Si Si3 0.276966 0.423094 0.563597
Si Si4 0.269680 0.123341 0.174506
Si Si5 0.227165 0.500000 0.014645
Si Si6 0.913971 0.242008 0.189553
Si Si7 0.874999 0.378336 0.538796
Si Si8 0.098358 0.778415 0.540368
O O1 0.653092 0.815788 0.193006
O O2 0.844081 0.826857 0.178969
O O3 0.691468 0.907404 0.329357
O O4 0.753719 0.935571 0.096431
O O5 0.331992 0.670811 0.819252
O O6 0.463128 0.739432 0.895288
O O7 0.250000 0.750000 0.000000
O O8 0.328365 0.500000 0.511421
O O9 0.261123 0.416769 0.700272
O O10 0.163497 0.417581 0.554514
O O11 0.340724 0.353885 0.493930
O O12 0.357349 0.184514 0.169210
O O13 0.297482 0.065314 0.067850
O O14 0.919311 0.240398 0.322600
O O15 0.845294 0.292476 0.536694
O O16 0.000000 0.383673 0.500000
O O17 0.000000 0.787035 0.500000
#
# Coordination Sequence:
#
# PCOD9220309 Si02
#       8
#     8   8   8   8   4   8   8   8
#     4  11  25  44  71 101 141 184 234 293 350 429
#     4  11  23  46  72 101 134 180 243 297 338 407
#     4  12  24  40  68 101 147 185 223 282 357 439
#     4  11  24  46  69  99 144 183 237 290 351 422
#     4  12  26  52  65  98 149 194 232 300 352 421
#     4  11  23  44  77 106 135 184 239 297 356 412
#     4  11  23  43  71 102 135 178 234 296 352 420
#     4  11  21  41  71 108 140 178 230 292 358 415
#
# _framework density 21.418786999999998
#
# number of rings (size 3 to 8) (size 9 to 14) (size 15 to 20)
#    0.000    0.800    4.667    4.400    0.933    2.667 
#    0.000    2.667    0.000    0.000    0.000    0.000 
#    0.000    0.000    0.000    0.000    0.000    0.000 
#
# Total GULP energy -167126.257372 kJ/mol
# GULP energy per Si atom -5570.875246 kJ/mol
# Density = 2.137004 g / cm^3
# Si number density = 21.418787 Si / 1000 Ang^3
#
#
#
# Elastic Constant Matrix: (Units=GPa)
#
#
# Indices 1 2 3 4 5 6 
#
# 1 128.1202 65.8730 27.5113 0.0000 16.2993 0.0000
# 2 65.8730 158.2283 37.2342 0.0000 18.8326 0.0000
# 3 27.5113 37.2342 94.5020 0.0000 25.1313 0.0000
# 4 0.0000 0.0000 0.0000 27.8921 0.0000 8.6686
# 5 16.2993 18.8326 25.1313 0.0000 36.5726 0.0000
# 6 0.0000 0.0000 0.0000 8.6686 0.0000 3.0463
#
#
#
# Elastic Compliance Matrix: (Units=1/GPa)
#
#
# Indices 1 2 3 4 5 6 
#
# 1 0.010208 -0.003793 -0.000963 0.000000 -0.001935 0.000000
# 2 -0.003793 0.008507 -0.001875 0.000000 -0.001402 0.000000
# 3 -0.000963 -0.001875 0.013741 0.000000 -0.008048 0.000000
# 4 0.000000 0.000000 0.000000 0.310171 0.000000 -0.882643
# 5 -0.001935 -0.001402 -0.008048 0.000000 0.034457 0.000000
# 6 0.000000 0.000000 0.000000 -0.882643 0.000000 2.839974
#
#
# Mechanical properties :
#
#
# Convention : Reuss Voigt Hill
#
# Bulk Modulus (GPa) = 52.09695 71.34304 61.72000
# Shear Modulus (GPa) = 1.54477 30.18433 15.86455
#
# Velocity S-wave (km/s) = 0.85017 3.75806 2.72450
# Velocity P-wave (km/s) = 5.03384 7.22576 6.22701
#
# Compressibility (1/GPa) = 0.01919498
#
# Stress axis : x y z
#
# Youngs Moduli (GPa) = 97.96023 117.54886 72.77521
#
# Poissons Ratio (x) = 0.44586 0.07007
# Poissons Ratio (y) = 0.37156 0.13644
# Poissons Ratio (z) = 0.09432 0.22038
#
# Static dielectric constant tensor:
#      x y z
#    x 1.820180 0.000000 0.001110 
#    y 0.000000 1.780340 0.000000 
#    z 0.001110 0.000000 1.853060 
# 
# From -- ./inp_files/146099.got.cif
#   From: 2010.05.17/outbox.cif.g08.bks.cpg/sg12_74_cif.got.tgz:146099.got - 2010.06.03 13:09:07.
