data_PCOD9220072
_publ_section_title
;
Structure prediction by ZEFSAII (Michael W. Deem and Ramdas Pophale) SiO2 
 PCOD9220072
Probable space group: C 2/M
;
_chemical_formula_sum "Si O2"
_cell_formula_units_Z 40
_cell_length_a 17.872844
_cell_length_b 24.868038
_cell_length_c 7.744310
_cell_angle_alpha 90.000000
_cell_angle_beta 33.670502
_cell_angle_gamma 90.000000
_cell_volume 1908.330965
_symmetry_space_group_name_H-M "C 2/M"
_symmetry_group_IT_number 12
_symmetry_cell_setting 'monoclinic'
loop_
_space_group_symop_operation_xyz
x,y,z
-x,y,-z
-x,-y,-z
x,-y,z
1/2+x,1/2+y,z
1/2-x,1/2+y,-z
1/2-x,1/2-y,-z
1/2+x,1/2-y,z
loop_
_atom_site_type_symbol
_atom_site_label
_atom_site_fract_x
_atom_site_fract_y
_atom_site_fract_z
Si Si1 0.171867 0.093217 0.344947
Si Si2 0.874249 0.908542 0.972947
Si Si3 0.866216 0.500000 0.969587
Si Si4 0.198799 0.220570 0.274015
Si Si5 0.826642 0.500000 0.623144
Si Si6 0.420944 0.288444 0.975138
O O1 0.140321 0.082217 0.204274
O O2 0.209546 0.156077 0.269495
O O3 0.031828 0.081877 0.713754
O O4 0.288213 0.053292 0.179169
O O5 0.857117 0.845388 0.041691
O O6 0.762125 0.948399 0.261619
O O7 0.850069 0.500000 0.789012
O O8 0.020164 0.500000 0.733070
O O9 0.040514 0.230019 0.615446
O O10 0.250000 0.250000 0.000000
O O11 0.301819 0.245911 0.212373
O O12 0.500000 0.296581 0.000000
#
# Coordination Sequence:
#
# PCOD9220072 Si02
#       6
#     8   8   4   8   4   8
#     4   9  17  31  53  78 109 143 185 229 281 333
#     4   9  17  32  52  75 107 148 186 227 276 337
#     4   9  17  29  47  84 113 132 174 240 295 324
#     4  11  21  38  59  85 112 153 196 237 283 339
#     4   9  17  29  48  78 112 142 179 232 284 333
#     4  11  23  38  56  84 118 152 192 238 288 342
#
# _framework density 20.960723999999999
#
# number of rings (size 3 to 8) (size 9 to 14) (size 15 to 20)
#    0.000    2.200    2.000    1.800    0.000    4.000 
#    7.200    0.500    0.000    0.000    0.000    6.300 
#    0.000    0.000    0.000    0.000    0.000    0.000 
#
# Total GULP energy -111519.682019 kJ/mol
# GULP energy per Si atom -5575.984101 kJ/mol
# Density = 2.091302 g / cm^3
# Si number density = 20.960724 Si / 1000 Ang^3
#
#
#
# Elastic Constant Matrix: (Units=GPa)
#
#
# Indices 1 2 3 4 5 6 
#
# 1 49.3585 25.8847 41.6947 0.0000 -7.4263 0.0000
# 2 25.8847 125.0248 116.9882 0.0000 -47.6968 0.0000
# 3 41.6947 116.9882 147.3815 0.0000 -41.0893 0.0000
# 4 0.0000 0.0000 0.0000 16.8851 0.0000 -27.1378
# 5 -7.4263 -47.6968 -41.0893 0.0000 37.3776 0.0000
# 6 0.0000 0.0000 0.0000 -27.1378 0.0000 11.3203
#
#
#
# Elastic Compliance Matrix: (Units=1/GPa)
#
#
# Indices 1 2 3 4 5 6 
#
# 1 0.027847 0.005679 -0.012722 0.000000 -0.001206 0.000000
# 2 0.005679 0.043914 -0.029598 0.000000 0.024629 0.000000
# 3 -0.012722 -0.029598 0.032651 0.000000 -0.004404 0.000000
# 4 0.000000 0.000000 0.000000 -0.020759 0.000000 -0.049765
# 5 -0.001206 0.024629 -0.004404 0.000000 0.053101 0.000000
# 6 0.000000 0.000000 0.000000 -0.049765 0.000000 -0.030964
#
#
# Mechanical properties :
#
#
# Convention : Reuss Voigt Hill
#
# Bulk Modulus (GPa) = 32.12432 76.76665 54.44548
# Shear Modulus (GPa) = 26.39223 22.26310 24.32766
#
# Velocity S-wave (km/s) = 3.55227 3.26258 3.41050
# Velocity P-wave (km/s) = 5.67310 7.13415 6.44516
#
# Compressibility (1/GPa) = 0.03112907
#
# Stress axis : x y z
#
# Youngs Moduli (GPa) = 35.91051 22.77157 30.62713
#
# Poissons Ratio (x) = -0.12931 0.38963
# Poissons Ratio (y) = -0.20392 0.90651
# Poissons Ratio (z) = 0.45685 0.67400
#
# Static dielectric constant tensor:
#      x y z
#    x 1.814670 0.000000 0.056410 
#    y 0.000000 1.744380 0.000000 
#    z 0.056410 0.000000 1.774470 
# 
# From -- ./inp_files/79783.got.cif
#   From: 2010.05.17/outbox.cif.g08.bks.cpg/sg12_40_cif.got.tgz:79783.got - 2010.06.03 13:09:07.
