data_PCOD9220737
_publ_section_title
;
Structure prediction by ZEFSAII (Michael W. Deem and Ramdas Pophale) SiO2 
 PCOD9220737
Probable space group: C 2/M
;
_chemical_formula_sum "Si O2"
_cell_formula_units_Z 40
_cell_length_a 25.585627
_cell_length_b 15.867055
_cell_length_c 13.925138
_cell_angle_alpha 90.000000
_cell_angle_beta 159.688454
_cell_angle_gamma 90.000000
_cell_volume 1962.353961
_symmetry_space_group_name_H-M "C 2/M"
_symmetry_group_IT_number 12
_symmetry_cell_setting 'monoclinic'
loop_
_space_group_symop_operation_xyz
x,y,z
-x,y,-z
-x,-y,-z
x,-y,z
1/2+x,1/2+y,z
1/2-x,1/2+y,-z
1/2-x,1/2-y,-z
1/2+x,1/2-y,z
loop_
_atom_site_type_symbol
_atom_site_label
_atom_site_fract_x
_atom_site_fract_y
_atom_site_fract_z
Si Si1 0.092029 0.597455 0.471047
Si Si2 0.855888 0.906779 0.682569
Si Si3 0.423637 0.748033 0.273128
Si Si4 0.068990 0.832020 0.920957
Si Si5 0.050169 0.338297 0.192560
O O1 0.086063 0.500000 0.489611
O O2 0.029532 0.607525 0.254314
O O3 0.997575 0.661187 0.375194
O O4 0.266482 0.629489 0.774445
O O5 0.730970 0.839225 0.493192
O O6 0.931910 0.893704 0.710769
O O7 0.788258 0.000000 0.576472
O O8 0.000000 0.902063 0.000000
O O9 0.500000 0.712381 0.500000
O O10 0.442170 0.695155 0.208215
O O11 0.250000 0.750000 0.000000
O O12 0.031482 0.749556 0.921728
O O13 0.000000 0.367728 0.000000
#
# Coordination Sequence:
#
# PCOD9220737 Si02
#       5
#     8   8   8   8   8
#     4  11  24  43  69  99 128 171 220 265 321 392
#     4  11  22  38  61  93 134 175 216 258 310 382
#     4  11  24  45  68  99 125 167 215 278 333 388
#     4  11  23  39  67  95 127 170 224 263 310 391
#     4  11  25  38  63  97 138 176 213 262 320 377
#
# _framework density 20.383683999999999
#
# number of rings (size 3 to 8) (size 9 to 14) (size 15 to 20)
#    0.000    1.000    4.000    2.400    5.600    2.000 
#    0.000    0.000    0.000    4.200    0.000    0.000 
#    0.000    0.000    0.000    0.000    0.000    0.000 
#
# Total GULP energy -111611.555100 kJ/mol
# GULP energy per Si atom -5580.577755 kJ/mol
# Density = 2.033729 g / cm^3
# Si number density = 20.383684 Si / 1000 Ang^3
#
#
#
# Elastic Constant Matrix: (Units=GPa)
#
#
# Indices 1 2 3 4 5 6 
#
# 1 125.4243 9.0389 21.7313 0.0000 -12.3782 0.0000
# 2 9.0389 82.0867 3.5145 0.0000 1.8864 0.0000
# 3 21.7313 3.5145 64.4053 0.0000 -2.8525 0.0000
# 4 0.0000 0.0000 0.0000 29.0549 0.0000 6.6101
# 5 -12.3782 1.8864 -2.8525 0.0000 50.5773 0.0000
# 6 0.0000 0.0000 0.0000 6.6101 0.0000 19.3401
#
#
#
# Elastic Compliance Matrix: (Units=1/GPa)
#
#
# Indices 1 2 3 4 5 6 
#
# 1 0.008721 -0.000886 -0.002805 0.000000 0.002009 0.000000
# 2 -0.000886 0.012313 -0.000404 0.000000 -0.000699 0.000000
# 3 -0.002805 -0.000404 0.016507 0.000000 0.000259 0.000000
# 4 0.000000 0.000000 0.000000 0.037319 0.000000 -0.012755
# 5 0.002009 -0.000699 0.000259 0.000000 0.020304 0.000000
# 6 0.000000 0.000000 0.000000 -0.012755 0.000000 0.056066
#
#
# Mechanical properties :
#
#
# Convention : Reuss Voigt Hill
#
# Bulk Modulus (GPa) = 34.07136 37.83175 35.95155
# Shear Modulus (GPa) = 29.55004 35.63657 32.59330
#
# Velocity S-wave (km/s) = 3.81161 4.18579 4.00308
# Velocity P-wave (km/s) = 6.01020 6.47775 6.24835
#
# Compressibility (1/GPa) = 0.02935017
#
# Stress axis : x y z
#
# Youngs Moduli (GPa) = 114.66362 81.21368 60.58132
#
# Poissons Ratio (x) = 0.07199 0.16995
# Poissons Ratio (y) = 0.10164 0.02446
# Poissons Ratio (z) = 0.32167 0.03279
#
# Static dielectric constant tensor:
#      x y z
#    x 1.789430 0.000000 0.004120 
#    y 0.000000 1.758510 0.000000 
#    z 0.004120 0.000000 1.705830 
# 
# From -- ./inp_files/195302.got.cif
#   From: 2010.05.17/outbox.cif.g08.bks.cpg/sg12_98_cif.got.tgz:195302.got - 2010.06.03 13:09:07.
