data_PCOD9220387
_publ_section_title
;
Structure prediction by ZEFSAII (Michael W. Deem and Ramdas Pophale) SiO2 
 PCOD9220387
Probable space group: C 2/M
;
_chemical_formula_sum "Si O2"
_cell_formula_units_Z 56
_cell_length_a 16.329659
_cell_length_b 7.634077
_cell_length_c 21.732396
_cell_angle_alpha 90.000000
_cell_angle_beta 52.008954
_cell_angle_gamma 90.000000
_cell_volume 2135.140328
_symmetry_space_group_name_H-M "C 2/M"
_symmetry_group_IT_number 12
_symmetry_cell_setting 'monoclinic'
loop_
_space_group_symop_operation_xyz
x,y,z
-x,y,-z
-x,-y,-z
x,-y,z
1/2+x,1/2+y,z
1/2-x,1/2+y,-z
1/2-x,1/2-y,-z
1/2+x,1/2-y,z
loop_
_atom_site_type_symbol
_atom_site_label
_atom_site_fract_x
_atom_site_fract_y
_atom_site_fract_z
Si Si1 0.904769 0.798972 0.835027
Si Si2 0.127169 0.706474 0.549298
Si Si3 0.106853 0.708615 0.025248
Si Si4 0.613126 0.787051 0.689140
Si Si5 0.841558 0.785969 0.732296
Si Si6 0.370876 0.213228 0.119221
Si Si7 0.647297 0.709074 0.404595
O O1 0.857923 0.742091 0.921596
O O2 0.878276 0.714697 0.781318
O O3 0.029645 0.778661 0.776464
O O4 0.874012 0.000000 0.844206
O O5 0.116215 0.500000 0.557217
O O6 0.250000 0.750000 0.500000
O O7 0.081260 0.777881 0.634785
O O8 0.095823 0.758960 0.494848
O O9 0.104623 0.500000 0.020693
O O10 0.987454 0.775000 0.077395
O O11 0.157763 0.769578 0.937639
O O12 0.732191 0.732422 0.644090
O O13 0.611877 0.000000 0.691758
O O14 0.718842 0.741379 0.791747
O O15 0.887971 0.721526 0.645976
O O16 0.851643 0.000000 0.728299
O O17 0.374800 0.000000 0.118761
O O18 0.647738 0.500000 0.398933
#
# Coordination Sequence:
#
# PCOD9220387 Si02
#       7
#     8   8   8   8   8   8   8
#     4  11  22  32  46  71 103 135 161 194 244 294
#     4   9  17  30  50  76 101 125 158 202 249 291
#     4   9  17  32  56  78  93 120 164 207 243 283
#     4   9  18  33  53  73  94 126 166 204 240 282
#     4   9  18  32  48  70 101 133 164 197 238 290
#     4   8  15  31  55  76  93 122 166 205 236 283
#     4   9  17  32  55  76  95 125 165 207 244 281
#
# _framework density 26.227782000000001
#
# number of rings (size 3 to 8) (size 9 to 14) (size 15 to 20)
#    0.000    2.857    0.000    3.429    0.000    5.714 
#    0.000    3.571    0.000    7.714    0.000    0.000 
#    0.000    0.000    0.000    0.000    0.000    0.000 
#
# Total GULP energy -156361.065578 kJ/mol
# GULP energy per Si atom -5584.323771 kJ/mol
# Density = 2.616809 g / cm^3
# Si number density = 26.227782 Si / 1000 Ang^3
#
#
#
# Elastic Constant Matrix: (Units=GPa)
#
#
# Indices 1 2 3 4 5 6 
#
# 1 79.5616 0.2443 43.3987 0.0001 29.0227 0.0004
# 2 0.2443 49.0352 2.0609 0.0002 7.8100 0.0007
# 3 43.3987 2.0609 233.7226 0.0000 34.8232 0.0000
# 4 0.0001 0.0002 0.0000 23.4603 0.0000 9.5850
# 5 29.0227 7.8100 34.8232 0.0000 55.2323 0.0001
# 6 0.0004 0.0007 0.0000 9.5850 0.0001 8.5485
#
#
#
# Elastic Compliance Matrix: (Units=1/GPa)
#
#
# Indices 1 2 3 4 5 6 
#
# 1 0.016373 0.001203 -0.001924 0.000000 -0.007560 -0.000001
# 2 0.001203 0.020969 0.000141 0.000001 -0.003686 -0.000003
# 3 -0.001924 0.000141 0.004952 0.000000 -0.002131 0.000000
# 4 0.000000 0.000001 0.000000 0.078659 0.000000 -0.088196
# 5 -0.007560 -0.003686 -0.002131 0.000000 0.023943 0.000001
# 6 -0.000001 -0.000003 0.000000 -0.088196 0.000001 0.215869
#
#
# Mechanical properties :
#
#
# Convention : Reuss Voigt Hill
#
# Bulk Modulus (GPa) = 24.31109 50.41413 37.36261
# Shear Modulus (GPa) = 13.31078 38.55593 25.93336
#
# Velocity S-wave (km/s) = 2.25524 3.83827 3.14789
# Velocity P-wave (km/s) = 4.00884 6.23751 5.24296
#
# Compressibility (1/GPa) = 0.04113349
#
# Stress axis : x y z
#
# Youngs Moduli (GPa) = 61.07734 47.69009 201.93189
#
# Poissons Ratio (x) = -0.05739 0.38859
# Poissons Ratio (y) = -0.07350 -0.02845
# Poissons Ratio (z) = 0.11753 -0.00672
#
# Static dielectric constant tensor:
#      x y z
#    x 2.194000 0.000000 0.042720 
#    y 0.000000 2.053640 0.000000 
#    z 0.042720 0.000000 2.049750 
# 
# From -- ./inp_files/313762.got.cif
#   From: 2010.05.17/outbox.cif.g08.bks.cpg/sg12_157_cif.got.tgz:313762.got - 2010.06.03 13:09:07.
