data_PCOD9220517
_publ_section_title
;
Structure prediction by ZEFSAII (Michael W. Deem and Ramdas Pophale) SiO2 
 PCOD9220517
Probable space group: C 2/M
;
_chemical_formula_sum "Si O2"
_cell_formula_units_Z 58
_cell_length_a 10.395711
_cell_length_b 15.015759
_cell_length_c 22.744909
_cell_angle_alpha 90.000000
_cell_angle_beta 122.866228
_cell_angle_gamma 90.000000
_cell_volume 2982.180281
_symmetry_space_group_name_H-M "C 2/M"
_symmetry_group_IT_number 12
_symmetry_cell_setting 'monoclinic'
loop_
_space_group_symop_operation_xyz
x,y,z
-x,y,-z
-x,-y,-z
x,-y,z
1/2+x,1/2+y,z
1/2-x,1/2+y,-z
1/2-x,1/2-y,-z
1/2+x,1/2-y,z
loop_
_atom_site_type_symbol
_atom_site_label
_atom_site_fract_x
_atom_site_fract_y
_atom_site_fract_z
Si Si1 0.911492 0.859172 0.535526
Si Si2 0.560619 0.152047 0.434532
Si Si3 0.071086 0.605258 0.309254
Si Si4 0.000000 0.500000 0.500000
Si Si5 0.817404 0.252117 0.951318
Si Si6 0.396606 0.897683 0.145807
Si Si7 0.639256 0.604587 0.689781
Si Si8 0.716314 0.106146 0.155954
O O1 0.734472 0.884320 0.485609
O O2 0.932451 0.752288 0.540628
O O3 0.000000 0.894553 0.500000
O O4 0.982311 0.888262 0.615337
O O5 0.525551 0.154909 0.356878
O O6 0.458096 0.080229 0.442133
O O7 0.088935 0.500000 0.328687
O O8 0.231579 0.641523 0.322826
O O9 0.953213 0.611777 0.226757
O O10 0.740903 0.167750 0.901093
O O11 0.771938 0.337615 0.900514
O O12 0.750000 0.250000 0.000000
O O13 0.000000 0.248013 0.000000
O O14 0.547100 0.879647 0.142666
O O15 0.353864 0.000000 0.124727
O O16 0.678895 0.500000 0.704732
O O17 0.665655 0.636944 0.762935
O O18 0.734012 0.000000 0.149565
#
# Coordination Sequence:
#
# PCOD9220517 Si02
#       8
#     8   8   8   2   8   8   8   8
#     4  11  22  36  54  86 117 149 204 254 304 340
#     4  11  23  36  54  80 118 163 199 249 302 361
#     4   9  17  34  60  84 107 153 202 241 296 357
#     4  12  24  40  54  76 122 164 206 244 306 380
#     4  12  24  40  65  98 125 158 205 246 303 372
#     4   9  20  39  63  91 123 159 202 247 303 367
#     4   9  19  35  61  88 113 149 203 256 297 354
#     4   9  20  41  64  90 124 165 202 240 303 375
#
# _framework density 19.448857
#
# number of rings (size 3 to 8) (size 9 to 14) (size 15 to 20)
#    0.000    1.931    4.138    1.655    2.897    1.379 
#    0.000    0.000    3.034    0.000    0.000    0.000 
#    0.000    0.000    0.000    0.000    0.000    0.000 
#
# Total GULP energy -161501.484828 kJ/mol
# GULP energy per Si atom -5569.016718 kJ/mol
# Density = 1.940459 g / cm^3
# Si number density = 19.448857 Si / 1000 Ang^3
#
#
#
# Elastic Constant Matrix: (Units=GPa)
#
#
# Indices 1 2 3 4 5 6 
#
# 1 43.3823 7.4029 38.5587 0.0000 -13.5670 0.0000
# 2 7.4029 58.1580 31.9580 0.0000 -6.0235 0.0000
# 3 38.5587 31.9580 114.4542 0.0000 -15.8690 0.0000
# 4 0.0000 0.0000 0.0000 37.9805 0.0000 -8.8652
# 5 -13.5670 -6.0235 -15.8690 0.0000 32.8213 0.0000
# 6 0.0000 0.0000 0.0000 -8.8652 0.0000 32.7721
#
#
#
# Elastic Compliance Matrix: (Units=1/GPa)
#
#
# Indices 1 2 3 4 5 6 
#
# 1 0.035852 0.002765 -0.011496 0.000000 0.009769 0.000000
# 2 0.002765 0.020558 -0.006421 0.000000 0.001812 0.000000
# 3 -0.011496 -0.006421 0.014556 0.000000 0.001108 0.000000
# 4 0.000000 0.000000 0.000000 0.028104 0.000000 0.007602
# 5 0.009769 0.001812 0.001108 0.000000 0.035374 0.000000
# 6 0.000000 0.000000 0.000000 0.007602 0.000000 0.032570
#
#
# Mechanical properties :
#
#
# Convention : Reuss Voigt Hill
#
# Bulk Modulus (GPa) = 24.59196 41.31488 32.95342
# Shear Modulus (GPa) = 23.71109 29.91976 26.81543
#
# Velocity S-wave (km/s) = 3.49542 3.92648 3.71720
# Velocity P-wave (km/s) = 5.38168 6.46879 5.95012
#
# Compressibility (1/GPa) = 0.04066370
#
# Stress axis : x y z
#
# Youngs Moduli (GPa) = 27.89276 48.64196 68.69867
#
# Poissons Ratio (x) = -0.13450 0.78974
# Poissons Ratio (y) = -0.07713 0.44110
# Poissons Ratio (z) = 0.32065 0.31232
#
# Static dielectric constant tensor:
#      x y z
#    x 1.710340 0.000000 -0.018970 
#    y 0.000000 1.695120 0.000000 
#    z -0.018970 0.000000 1.701550 
# 
# From -- ./inp_files/305510.got.cif
#   From: 2010.05.17/outbox.cif.g08.bks.cpg/sg12_153_cif.got.tgz:305510.got - 2010.06.03 13:09:07.
