data_PCOD9220644
_publ_section_title
;
Structure prediction by ZEFSAII (Michael W. Deem and Ramdas Pophale) SiO2 
 PCOD9220644
Probable space group: C 2/M
;
_chemical_formula_sum "Si O2"
_cell_formula_units_Z 48
_cell_length_a 15.701233
_cell_length_b 10.235145
_cell_length_c 13.360234
_cell_angle_alpha 90.000000
_cell_angle_beta 77.212639
_cell_angle_gamma 90.000000
_cell_volume 2093.797683
_symmetry_space_group_name_H-M "C 2/M"
_symmetry_group_IT_number 12
_symmetry_cell_setting 'monoclinic'
loop_
_space_group_symop_operation_xyz
x,y,z
-x,y,-z
-x,-y,-z
x,-y,z
1/2+x,1/2+y,z
1/2-x,1/2+y,-z
1/2-x,1/2-y,-z
1/2+x,1/2-y,z
loop_
_atom_site_type_symbol
_atom_site_label
_atom_site_fract_x
_atom_site_fract_y
_atom_site_fract_z
Si Si1 0.349409 0.500000 0.044272
Si Si2 0.698882 0.655905 0.645200
Si Si3 0.233713 0.245854 0.847953
Si Si4 0.139253 0.500000 0.945537
Si Si5 0.138041 0.843606 0.450888
Si Si6 0.019914 0.500000 0.170599
Si Si7 0.508578 0.500000 0.160069
Si Si8 0.563063 0.259830 0.271776
O O1 0.289875 0.625394 0.075479
O O2 0.426142 0.500000 0.108268
O O3 0.403548 0.500000 0.928783
O O4 0.721215 0.500000 0.648291
O O5 0.681292 0.711972 0.759168
O O6 0.780037 0.747896 0.591944
O O7 0.629353 0.665953 0.573287
O O8 0.196058 0.374188 0.906752
O O9 0.335212 0.258470 0.792549
O O10 0.062993 0.500000 0.881145
O O11 0.097810 0.500000 0.067291
O O12 0.068432 0.791500 0.388614
O O13 0.153211 0.000000 0.425792
O O14 0.025121 0.624213 0.242033
O O15 0.513334 0.374334 0.228006
#
# Coordination Sequence:
#
# PCOD9220644 Si02
#       8
#     4   8   8   4   8   4   4   8
#     4  11  23  39  58  81 114 156 197 235 290 359
#     4   9  18  33  56  88 122 153 188 236 294 350
#     4  11  22  37  61  91 116 148 194 249 293 332
#     4  11  25  43  60  81 118 164 199 235 296 363
#     4   9  18  33  56  88 122 153 188 236 294 350
#     4  11  25  43  60  81 118 164 199 235 296 363
#     4  11  23  39  58  81 114 156 197 235 290 359
#     4  11  22  37  61  91 116 148 194 249 293 332
#
# _framework density 22.924851
#
# number of rings (size 3 to 8) (size 9 to 14) (size 15 to 20)
#    0.000    1.667    1.667    3.000    7.000    6.667 
#    0.000    0.000    0.000    6.000    0.000    0.000 
#    0.000    0.000    0.000    0.000    0.000    0.000 
#
# Total GULP energy -134191.199255 kJ/mol
# GULP energy per Si atom -5591.299969 kJ/mol
# Density = 2.287267 g / cm^3
# Si number density = 22.924851 Si / 1000 Ang^3
#
#
#
# Elastic Constant Matrix: (Units=GPa)
#
#
# Indices 1 2 3 4 5 6 
#
# 1 95.7045 31.9113 34.4783 0.0000 20.7063 0.0000
# 2 31.9113 201.4298 70.4355 0.0000 21.4024 0.0000
# 3 34.4783 70.4355 160.8272 0.0000 38.2928 0.0000
# 4 0.0000 0.0000 0.0000 58.2385 0.0000 16.8418
# 5 20.7063 21.4024 38.2928 0.0000 48.9604 0.0000
# 6 0.0000 0.0000 0.0000 16.8418 0.0000 -0.1283
#
#
#
# Elastic Compliance Matrix: (Units=1/GPa)
#
#
# Indices 1 2 3 4 5 6 
#
# 1 0.012047 -0.001088 -0.001237 0.000000 -0.003652 0.000000
# 2 -0.001088 0.005979 -0.002301 0.000000 -0.000354 0.000000
# 3 -0.001237 -0.002301 0.008758 0.000000 -0.005321 0.000000
# 4 0.000000 0.000000 0.000000 0.000441 0.000000 0.057853
# 5 -0.003652 -0.000354 -0.005321 0.000000 0.026285 0.000000
# 6 0.000000 0.000000 0.000000 0.057853 0.000000 -0.200053
#
#
# Mechanical properties :
#
#
# Convention : Reuss Voigt Hill
#
# Bulk Modulus (GPa) = 57.03715 81.29018 69.16366
# Shear Modulus (GPa) = -38.03793 42.82323 2.39265
#
# Velocity S-wave (km/s) = -4.07780 4.32671 1.02272
# Velocity P-wave (km/s) = 1.66216 7.77798 5.62404
#
# Compressibility (1/GPa) = 0.01753243
#
# Stress axis : x y z
#
# Youngs Moduli (GPa) = 83.00598 167.24853 114.18706
#
# Poissons Ratio (x) = 0.18199 0.14120
# Poissons Ratio (y) = 0.09032 0.26276
# Poissons Ratio (z) = 0.10264 0.38485
#
# Static dielectric constant tensor:
#      x y z
#    x 1.907470 0.000000 -0.024470 
#    y 0.000000 1.788920 0.000000 
#    z -0.024470 0.000000 1.953920 
# 
# From -- ./inp_files/221794.got.cif
#   From: 2010.05.17/outbox.cif.g08.bks.cpg/sg12_111_cif.got.tgz:221794.got - 2010.06.03 13:09:07.
