data_PCOD9220090
_publ_section_title
;
Structure prediction by ZEFSAII (Michael W. Deem and Ramdas Pophale) SiO2 
 PCOD9220090
Probable space group: C 2/M
;
_chemical_formula_sum "Si O2"
_cell_formula_units_Z 48
_cell_length_a 29.294413
_cell_length_b 8.062787
_cell_length_c 10.032194
_cell_angle_alpha 90.000000
_cell_angle_beta 73.461795
_cell_angle_gamma 90.000000
_cell_volume 2271.522212
_symmetry_space_group_name_H-M "C 2/M"
_symmetry_group_IT_number 12
_symmetry_cell_setting 'monoclinic'
loop_
_space_group_symop_operation_xyz
x,y,z
-x,y,-z
-x,-y,-z
x,-y,z
1/2+x,1/2+y,z
1/2-x,1/2+y,-z
1/2-x,1/2-y,-z
1/2+x,1/2-y,z
loop_
_atom_site_type_symbol
_atom_site_label
_atom_site_fract_x
_atom_site_fract_y
_atom_site_fract_z
Si Si1 0.938396 0.701972 0.926863
Si Si2 0.302892 0.806558 0.270845
Si Si3 0.834374 0.702436 0.949944
Si Si4 0.956837 0.700292 0.217134
Si Si5 0.704544 0.808375 0.292246
Si Si6 0.131649 0.187962 0.548911
O O1 0.938496 0.500000 0.925801
O O2 0.889461 0.756911 0.900640
O O3 0.988138 0.755104 0.819833
O O4 0.939517 0.749629 0.082484
O O5 0.246444 0.786414 0.333449
O O6 0.333994 0.710067 0.351683
O O7 0.316559 0.000000 0.271974
O O8 0.314044 0.750738 0.110740
O O9 0.833777 0.500000 0.944265
O O10 0.804525 0.761004 0.848115
O O11 0.955767 0.500000 0.221909
O O12 0.920692 0.764794 0.357321
O O13 0.655470 0.796830 0.414117
O O14 0.719337 0.000000 0.272306
O O15 0.132558 0.000000 0.501448
#
# Coordination Sequence:
#
# PCOD9220090 Si02
#       6
#     8   8   8   8   8   8
#     4   8  14  29  57  89 111 136 178 227 275 324
#     4  11  21  38  62  84 109 142 185 233 278 327
#     4   9  18  34  59  87 113 142 181 227 274 329
#     4   9  16  31  59  86 110 140 180 229 276 322
#     4  11  23  38  56  81 114 149 185 226 275 330
#     4  12  24  38  55  80 114 150 188 228 273 327
#
# _framework density 21.131202999999999
#
# number of rings (size 3 to 8) (size 9 to 14) (size 15 to 20)
#    0.000    2.000    1.667    4.500    0.000    0.000 
#    0.000    5.000    0.000    5.000    0.000    0.000 
#    0.000    0.000    0.000    0.000    0.000    0.000 
#
# Total GULP energy -134068.977184 kJ/mol
# GULP energy per Si atom -5586.207383 kJ/mol
# Density = 2.108311 g / cm^3
# Si number density = 21.131203 Si / 1000 Ang^3
#
#
#
# Elastic Constant Matrix: (Units=GPa)
#
#
# Indices 1 2 3 4 5 6 
#
# 1 57.7093 -1.3136 0.3084 0.0000 -17.5694 0.0000
# 2 -1.3136 29.4917 -6.4734 0.0000 1.7162 0.0000
# 3 0.3084 -6.4734 59.9496 0.0000 -11.6862 0.0000
# 4 0.0000 0.0000 0.0000 -6.2238 0.0000 8.8949
# 5 -17.5694 1.7162 -11.6862 0.0000 31.9301 0.0000
# 6 0.0000 0.0000 0.0000 8.8949 0.0000 8.6814
#
#
#
# Elastic Compliance Matrix: (Units=1/GPa)
#
#
# Indices 1 2 3 4 5 6 
#
# 1 0.021127 0.000743 0.002401 0.000000 0.012464 0.000000
# 2 0.000743 0.034766 0.003732 0.000000 -0.000094 0.000000
# 3 0.002401 0.003732 0.018618 0.000000 0.007935 0.000000
# 4 0.000000 0.000000 0.000000 -0.065200 0.000000 0.066803
# 5 0.012464 -0.000094 0.007935 0.000000 0.041086 0.000000
# 6 0.000000 0.000000 0.000000 0.066803 0.000000 0.046743
#
#
# Mechanical properties :
#
#
# Convention : Reuss Voigt Hill
#
# Bulk Modulus (GPa) = 11.32991 14.68816 13.00903
# Shear Modulus (GPa) = 44.32303 17.18615 30.75459
#
# Velocity S-wave (km/s) = 4.58483 2.85495 3.81912
# Velocity P-wave (km/s) = 5.77935 4.22299 5.06135
#
# Compressibility (1/GPa) = 0.08826198
#
# Stress axis : x y z
#
# Youngs Moduli (GPa) = 47.33307 28.76412 53.71140
#
# Poissons Ratio (x) = -0.02137 -0.12897
# Poissons Ratio (y) = -0.03516 -0.20044
# Poissons Ratio (z) = -0.11365 -0.10734
#
# Static dielectric constant tensor:
#      x y z
#    x 1.752100 0.000000 -0.022820 
#    y 0.000000 1.754030 0.000000 
#    z -0.022820 0.000000 1.760780 
# 
# From -- ./inp_files/185741.got.cif
#   From: 2010.05.17/outbox.cif.g08.bks.cpg/sg12_93_cif.got.tgz:185741.got - 2010.06.03 13:09:07.
