data_PCOD9220527
_publ_section_title
;
Structure prediction by ZEFSAII (Michael W. Deem and Ramdas Pophale) SiO2 
 PCOD9220527
Probable space group: C 2/M
;
_chemical_formula_sum "Si O2"
_cell_formula_units_Z 56
_cell_length_a 15.337577
_cell_length_b 28.172657
_cell_length_c 8.865000
_cell_angle_alpha 90.000000
_cell_angle_beta 61.536726
_cell_angle_gamma 90.000000
_cell_volume 3367.540600
_symmetry_space_group_name_H-M "C 2/M"
_symmetry_group_IT_number 12
_symmetry_cell_setting 'monoclinic'
loop_
_space_group_symop_operation_xyz
x,y,z
-x,y,-z
-x,-y,-z
x,-y,z
1/2+x,1/2+y,z
1/2-x,1/2+y,-z
1/2-x,1/2-y,-z
1/2+x,1/2-y,z
loop_
_atom_site_type_symbol
_atom_site_label
_atom_site_fract_x
_atom_site_fract_y
_atom_site_fract_z
Si Si1 0.845857 0.053937 0.214271
Si Si2 0.609252 0.641073 0.363577
Si Si3 0.561003 0.553770 0.191192
Si Si4 0.725921 0.272014 0.180474
Si Si5 0.719415 0.353924 0.588566
Si Si6 0.589313 0.734182 0.810252
Si Si7 0.906860 0.291859 0.488152
O O1 0.778477 0.097231 0.321407
O O2 0.947853 0.059211 0.226506
O O3 0.809346 0.000000 0.268858
O O4 0.875064 0.058593 0.014566
O O5 0.500000 0.659773 0.500000
O O6 0.589522 0.592715 0.289897
O O7 0.671023 0.677886 0.211631
O O8 0.673599 0.636241 0.462063
O O9 0.572683 0.500000 0.239312
O O10 0.829787 0.269801 0.183797
O O11 0.652950 0.240714 0.343976
O O12 0.750000 0.250000 0.000000
O O13 0.645700 0.315209 0.727192
O O14 0.826754 0.329622 0.495726
O O15 0.558663 0.758433 0.678228
O O16 0.500000 0.726874 0.000000
O O17 0.000000 0.312807 0.500000
#
# Coordination Sequence:
#
# PCOD9220527 Si02
#       7
#     8   8   8   8   8   8   8
#     4   9  19  36  54  78 111 142 181 223 268 331
#     4  12  22  33  54  79 116 146 180 225 268 329
#     4   9  20  34  52  80 112 146 177 216 273 335
#     4  11  23  36  53  81 109 149 188 226 273 329
#     4  11  22  36  55  84 109 144 189 225 271 330
#     4  11  23  37  55  78 115 147 185 229 272 324
#     4  11  22  41  55  76 114 147 189 235 272 315
#
# _framework density 16.629346999999999
#
# number of rings (size 3 to 8) (size 9 to 14) (size 15 to 20)
#    0.000    1.429    4.286    3.000    8.000    0.857 
#    0.000    0.000    0.000    0.429    0.000    0.000 
#    0.000    3.429    0.000    0.000    0.000    0.000 
#
# Total GULP energy -156300.871477 kJ/mol
# GULP energy per Si atom -5582.173981 kJ/mol
# Density = 1.659150 g / cm^3
# Si number density = 16.629347 Si / 1000 Ang^3
#
#
#
# Elastic Constant Matrix: (Units=GPa)
#
#
# Indices 1 2 3 4 5 6 
#
# 1 91.0911 31.3114 33.3006 0.0000 6.6698 0.0000
# 2 31.3114 105.3791 48.1559 0.0000 2.9415 0.0000
# 3 33.3006 48.1559 96.7599 0.0000 6.0970 0.0000
# 4 0.0000 0.0000 0.0000 14.5710 0.0000 11.2623
# 5 6.6698 2.9415 6.0970 0.0000 19.1149 0.0000
# 6 0.0000 0.0000 0.0000 11.2623 0.0000 25.4738
#
#
#
# Elastic Compliance Matrix: (Units=1/GPa)
#
#
# Indices 1 2 3 4 5 6 
#
# 1 0.013186 -0.002391 -0.003145 0.000000 -0.003230 0.000000
# 2 -0.002391 0.012717 -0.005547 0.000000 0.000647 0.000000
# 3 -0.003145 -0.005547 0.014343 0.000000 -0.002624 0.000000
# 4 0.000000 0.000000 0.000000 0.104256 0.000000 -0.046093
# 5 -0.003230 0.000647 -0.002624 0.000000 0.054180 0.000000
# 6 0.000000 0.000000 0.000000 -0.046093 0.000000 0.059634
#
#
# Mechanical properties :
#
#
# Convention : Reuss Voigt Hill
#
# Bulk Modulus (GPa) = 55.30624 57.64067 56.47345
# Shear Modulus (GPa) = 17.45158 23.86274 20.65716
#
# Velocity S-wave (km/s) = 3.24303 3.79222 3.52833
# Velocity P-wave (km/s) = 6.88138 7.34247 7.11566
#
# Compressibility (1/GPa) = 0.01808114
#
# Stress axis : x y z
#
# Youngs Moduli (GPa) = 75.83848 78.63711 69.72024
#
# Poissons Ratio (x) = 0.18800 0.21925
# Poissons Ratio (y) = 0.18131 0.38673
# Poissons Ratio (z) = 0.23849 0.43619
#
# Static dielectric constant tensor:
#      x y z
#    x 1.569890 0.000000 0.017650 
#    y 0.000000 1.564710 0.000000 
#    z 0.017650 0.000000 1.573810 
# 
# From -- ./inp_files/65308.got.cif
#   From: 2010.05.17/outbox.cif.g08.bks.cpg/sg12_33_cif.got.tgz:65308.got - 2010.06.03 13:09:07.
