data_PCOD9220852
_publ_section_title
;
Structure prediction by ZEFSAII (Michael W. Deem and Ramdas Pophale) SiO2 
 PCOD9220852
Probable space group: C 2/M
;
_chemical_formula_sum "Si O2"
_cell_formula_units_Z 40
_cell_length_a 13.658524
_cell_length_b 8.275462
_cell_length_c 16.395764
_cell_angle_alpha 90.000000
_cell_angle_beta 65.276256
_cell_angle_gamma 90.000000
_cell_volume 1683.347169
_symmetry_space_group_name_H-M "C 2/M"
_symmetry_group_IT_number 12
_symmetry_cell_setting 'monoclinic'
loop_
_space_group_symop_operation_xyz
x,y,z
-x,y,-z
-x,-y,-z
x,-y,z
1/2+x,1/2+y,z
1/2-x,1/2+y,-z
1/2-x,1/2-y,-z
1/2+x,1/2-y,z
loop_
_atom_site_type_symbol
_atom_site_label
_atom_site_fract_x
_atom_site_fract_y
_atom_site_fract_z
Si Si1 0.588948 0.195466 0.073359
Si Si2 0.873297 0.683529 0.698341
Si Si3 0.938984 0.187320 0.260124
Si Si4 0.781594 0.689041 0.121864
Si Si5 0.731150 0.314704 0.416252
O O1 0.481857 0.248558 0.158187
O O2 0.682199 0.283854 0.093206
O O3 0.599133 0.000000 0.076800
O O4 0.616427 0.234899 0.969880
O O5 0.907375 0.500000 0.699598
O O6 0.961119 0.795400 0.711304
O O7 0.760640 0.712382 0.785987
O O8 0.853517 0.720125 0.610820
O O9 0.844370 0.293481 0.330455
O O10 0.907191 0.000000 0.266634
O O11 0.790468 0.500000 0.140368
O O12 0.698161 0.500000 0.430932
O O13 0.750000 0.250000 0.500000
#
# Coordination Sequence:
#
# PCOD9220852 Si02
#       5
#     8   8   8   8   8
#     4   9  16  28  50  82 119 159 200 242 290 345
#     4  11  22  39  63  92 124 161 202 245 297 355
#     4  11  22  39  63  92 124 161 202 245 297 355
#     4   9  16  28  50  82 119 159 200 242 290 345
#     4  12  26  46  67  90 119 152 196 251 307 361
#
# _framework density 23.762183
#
# number of rings (size 3 to 8) (size 9 to 14) (size 15 to 20)
#    0.000    1.600    0.000    9.000    0.000    3.200 
#    0.000    5.000    0.000    6.000    0.000    0.000 
#    0.000    0.000    0.000    0.000    0.000    0.000 
#
# Total GULP energy -111904.588158 kJ/mol
# GULP energy per Si atom -5595.229408 kJ/mol
# Density = 2.370810 g / cm^3
# Si number density = 23.762183 Si / 1000 Ang^3
#
#
#
# Elastic Constant Matrix: (Units=GPa)
#
#
# Indices 1 2 3 4 5 6 
#
# 1 58.6446 -13.3252 15.2845 0.0000 18.2309 0.0000
# 2 -13.3252 92.8276 2.8875 0.0000 15.2124 0.0000
# 3 15.2845 2.8875 77.7207 0.0000 40.0388 0.0000
# 4 0.0000 0.0000 0.0000 37.2829 0.0000 0.4176
# 5 18.2309 15.2124 40.0388 0.0000 46.8511 0.0000
# 6 0.0000 0.0000 0.0000 0.4176 0.0000 23.1298
#
#
#
# Elastic Compliance Matrix: (Units=1/GPa)
#
#
# Indices 1 2 3 4 5 6 
#
# 1 0.021192 0.004785 0.001256 0.000000 -0.010874 0.000000
# 2 0.004785 0.012771 0.003001 0.000000 -0.008574 0.000000
# 3 0.001256 0.003001 0.023693 0.000000 -0.021711 0.000000
# 4 0.000000 0.000000 0.000000 0.026827 0.000000 -0.000484
# 5 -0.010874 -0.008574 -0.021711 0.000000 0.046914 0.000000
# 6 0.000000 0.000000 0.000000 -0.000484 0.000000 0.043243
#
#
# Mechanical properties :
#
#
# Convention : Reuss Voigt Hill
#
# Bulk Modulus (GPa) = 13.20286 26.54293 19.87289
# Shear Modulus (GPa) = 27.50249 36.40918 31.95584
#
# Velocity S-wave (km/s) = 3.40576 3.91862 3.67116
# Velocity P-wave (km/s) = 4.58627 5.62749 5.13335
#
# Compressibility (1/GPa) = 0.07574118
#
# Stress axis : x y z
#
# Youngs Moduli (GPa) = 47.18767 78.30122 42.20692
#
# Poissons Ratio (x) = -0.37467 -0.05303
# Poissons Ratio (y) = -0.22579 -0.12668
# Poissons Ratio (z) = -0.05928 -0.23501
#
# Static dielectric constant tensor:
#      x y z
#    x 2.034870 0.000000 0.004610 
#    y 0.000000 1.801510 0.000000 
#    z 0.004610 0.000000 1.899720 
# 
# From -- ./inp_files/266941.got.cif
#   From: 2010.05.17/outbox.cif.g08.bks.cpg/sg12_134_cif.got.tgz:266941.got - 2010.06.03 13:09:07.
