data_PCOD9220139
_publ_section_title
;
Structure prediction by ZEFSAII (Michael W. Deem and Ramdas Pophale) SiO2 
 PCOD9220139
Probable space group: C 2/M
;
_chemical_formula_sum "Si O2"
_cell_formula_units_Z 48
_cell_length_a 8.913638
_cell_length_b 27.497072
_cell_length_c 20.338434
_cell_angle_alpha 90.000000
_cell_angle_beta 151.700952
_cell_angle_gamma 90.000000
_cell_volume 2363.223008
_symmetry_space_group_name_H-M "C 2/M"
_symmetry_group_IT_number 12
_symmetry_cell_setting 'monoclinic'
loop_
_space_group_symop_operation_xyz
x,y,z
-x,y,-z
-x,-y,-z
x,-y,z
1/2+x,1/2+y,z
1/2-x,1/2+y,-z
1/2-x,1/2-y,-z
1/2+x,1/2-y,z
loop_
_atom_site_type_symbol
_atom_site_label
_atom_site_fract_x
_atom_site_fract_y
_atom_site_fract_z
Si Si1 0.332518 0.309059 0.743700
Si Si2 0.206955 0.195237 0.012312
Si Si3 0.064302 0.397200 0.455219
Si Si4 0.221268 0.640817 0.288105
Si Si5 0.658066 0.764333 0.351735
Si Si6 0.379636 0.054457 0.658766
O O1 0.510194 0.272609 0.763158
O O2 0.173176 0.352100 0.642804
O O3 0.057683 0.275276 0.669551
O O4 0.523133 0.328444 0.879931
O O5 0.518742 0.164578 0.151279
O O6 0.250000 0.250000 0.000000
O O7 0.000000 0.195250 0.000000
O O8 0.422794 0.376040 0.590839
O O9 0.999065 0.429341 0.365787
O O10 0.000000 0.422228 0.500000
O O11 0.225922 0.684237 0.343228
O O12 0.059016 0.594802 0.261799
O O13 0.000000 0.742817 0.500000
O O14 0.000000 0.054402 0.500000
O O15 0.478401 0.000000 0.714997
#
# Coordination Sequence:
#
# PCOD9220139 Si02
#       6
#     8   8   8   8   8   8
#     4  12  23  35  52  79 115 159 194 235 281 344
#     4  12  23  37  54  79 118 161 200 236 284 342
#     4  11  23  37  57  87 116 150 192 241 295 346
#     4  11  21  39  58  83 118 152 196 242 286 348
#     4  12  21  34  54  79 113 155 199 238 279 338
#     4   9  18  38  65  88 112 146 192 249 302 343
#
# _framework density 20.311243999999999
#
# number of rings (size 3 to 8) (size 9 to 14) (size 15 to 20)
#    0.000    0.833    6.667    1.500    2.333    1.667 
#    0.000    0.000    0.000    4.500    0.000    0.000 
#    0.000   11.333    0.000    0.000    0.000    0.000 
#
# Total GULP energy -134088.399721 kJ/mol
# GULP energy per Si atom -5587.016655 kJ/mol
# Density = 2.026501 g / cm^3
# Si number density = 20.311244 Si / 1000 Ang^3
#
#
#
# Elastic Constant Matrix: (Units=GPa)
#
#
# Indices 1 2 3 4 5 6 
#
# 1 78.9631 30.4736 2.1770 0.0054 -16.6347 -0.0006
# 2 30.4736 104.0461 21.1210 0.0001 -14.8550 -0.0006
# 3 2.1770 21.1210 88.1874 0.0400 -19.8339 -0.0042
# 4 0.0054 0.0001 0.0400 15.8081 -0.0059 -9.5568
# 5 -16.6347 -14.8550 -19.8339 -0.0059 26.4410 -0.0003
# 6 -0.0006 -0.0006 -0.0042 -9.5568 -0.0003 19.3759
#
#
#
# Elastic Compliance Matrix: (Units=1/GPa)
#
#
# Indices 1 2 3 4 5 6 
#
# 1 0.016215 -0.003872 0.002806 -0.000012 0.010130 -0.000005
# 2 -0.003872 0.011524 -0.002113 0.000011 0.002454 0.000005
# 3 0.002806 -0.002113 0.014323 -0.000044 0.011322 -0.000018
# 4 -0.000012 0.000011 -0.000044 0.090136 -0.000014 0.044458
# 5 0.010130 0.002454 0.011322 -0.000014 0.054064 -0.000003
# 6 -0.000005 0.000005 -0.000018 0.044458 -0.000003 0.073539
#
#
# Mechanical properties :
#
#
# Convention : Reuss Voigt Hill
#
# Bulk Modulus (GPa) = 28.00869 42.08222 35.04545
# Shear Modulus (GPa) = 17.98161 26.81999 22.40080
#
# Velocity S-wave (km/s) = 2.97863 3.63774 3.32456
# Velocity P-wave (km/s) = 5.06452 6.19741 5.65938
#
# Compressibility (1/GPa) = 0.03570321
#
# Stress axis : x y z
#
# Youngs Moduli (GPa) = 61.66996 86.77177 69.81995
#
# Poissons Ratio (x) = 0.33602 -0.19588
# Poissons Ratio (y) = 0.23881 0.14751
# Poissons Ratio (z) = -0.17302 0.18332
#
# Static dielectric constant tensor:
#      x y z
#    x 1.759780 0.000000 0.001620 
#    y 0.000000 1.704010 0.000000 
#    z 0.001620 0.000000 1.817340 
# 
# From -- ./inp_files/123511.got.cif
#   From: 2010.05.17/outbox.cif.g08.bks.cpg/sg12_62_cif.got.tgz:123511.got - 2010.06.03 13:09:07.
