data_PCOD9220590
_publ_section_title
;
Structure prediction by ZEFSAII (Michael W. Deem and Ramdas Pophale) SiO2 
 PCOD9220590
Probable space group: C 2/M
;
_chemical_formula_sum "Si O2"
_cell_formula_units_Z 48
_cell_length_a 13.073065
_cell_length_b 25.324669
_cell_length_c 8.213332
_cell_angle_alpha 90.000000
_cell_angle_beta 115.632511
_cell_angle_gamma 90.000000
_cell_volume 2451.592683
_symmetry_space_group_name_H-M "C 2/M"
_symmetry_group_IT_number 12
_symmetry_cell_setting 'monoclinic'
loop_
_space_group_symop_operation_xyz
x,y,z
-x,y,-z
-x,-y,-z
x,-y,z
1/2+x,1/2+y,z
1/2-x,1/2+y,-z
1/2-x,1/2-y,-z
1/2+x,1/2-y,z
loop_
_atom_site_type_symbol
_atom_site_label
_atom_site_fract_x
_atom_site_fract_y
_atom_site_fract_z
Si Si1 0.775011 0.561442 0.760363
Si Si2 0.966783 0.939721 0.283652
Si Si3 0.621990 0.162988 0.044492
Si Si4 0.380872 0.167852 0.338436
Si Si5 0.171745 0.121891 0.400976
Si Si6 0.192169 0.778328 0.615588
O O1 0.805997 0.500000 0.793421
O O2 0.667110 0.571943 0.805984
O O3 0.867030 0.605414 0.865255
O O4 0.730168 0.575993 0.549421
O O5 0.054532 0.901680 0.253290
O O6 0.000000 0.937658 0.500000
O O7 0.982803 0.000000 0.241062
O O8 0.717312 0.199442 0.192523
O O9 0.500000 0.186939 0.000000
O O10 0.629625 0.155819 0.858003
O O11 0.500000 0.149318 0.500000
O O12 0.270086 0.144044 0.352080
O O13 0.378884 0.231628 0.353934
O O14 0.137333 0.169422 0.500321
O O15 0.250000 0.750000 0.500000
#
# Coordination Sequence:
#
# PCOD9220590 Si02
#       6
#     8   8   8   8   8   8
#     4   9  18  34  56  81 107 141 184 227 276 330
#     4   8  14  28  53  81 107 136 174 221 272 326
#     4  11  22  38  57  79 110 146 183 227 277 327
#     4  11  22  37  55  79 111 146 184 226 272 326
#     4   9  17  32  55  82 109 141 178 221 271 325
#     4   9  19  35  55  80 106 139 178 219 269 324
#
# _framework density 19.579108000000002
#
# number of rings (size 3 to 8) (size 9 to 14) (size 15 to 20)
#    0.000    2.500    0.000    5.000    0.000    3.667 
#    0.000    5.833    0.000    5.500    0.000    0.000 
#    0.000    0.000    0.000    0.000    0.000    0.000 
#
# Total GULP energy -133717.652217 kJ/mol
# GULP energy per Si atom -5571.568842 kJ/mol
# Density = 1.953455 g / cm^3
# Si number density = 19.579108 Si / 1000 Ang^3
#
#
#
# Elastic Constant Matrix: (Units=GPa)
#
#
# Indices 1 2 3 4 5 6 
#
# 1 65.9774 9.2152 9.3640 0.0000 0.3987 0.0000
# 2 9.2152 57.8528 3.2354 0.0000 3.8877 0.0000
# 3 9.3640 3.2354 63.8643 0.0000 -5.3943 0.0000
# 4 0.0000 0.0000 0.0000 8.2812 0.0000 -1.5612
# 5 0.3987 3.8877 -5.3943 0.0000 21.1087 0.0000
# 6 0.0000 0.0000 0.0000 -1.5612 0.0000 25.4622
#
#
#
# Elastic Compliance Matrix: (Units=1/GPa)
#
#
# Indices 1 2 3 4 5 6 
#
# 1 0.015807 -0.002364 -0.002235 0.000000 -0.000434 0.000000
# 2 -0.002364 0.017943 -0.000856 0.000000 -0.003479 0.000000
# 3 -0.002235 -0.000856 0.016400 0.000000 0.004391 0.000000
# 4 0.000000 0.000000 0.000000 0.122168 0.000000 0.007491
# 5 -0.000434 -0.003479 0.004391 0.000000 0.049145 0.000000
# 6 0.000000 0.000000 0.000000 0.007491 0.000000 0.039733
#
#
# Mechanical properties :
#
#
# Convention : Reuss Voigt Hill
#
# Bulk Modulus (GPa) = 25.48348 25.70264 25.59306
# Shear Modulus (GPa) = 17.53244 22.02906 19.78075
#
# Velocity S-wave (km/s) = 2.99568 3.35794 3.18197
# Velocity P-wave (km/s) = 5.00094 5.30946 5.15751
#
# Compressibility (1/GPa) = 0.03924111
#
# Stress axis : x y z
#
# Youngs Moduli (GPa) = 63.26464 55.73078 60.97517
#
# Poissons Ratio (x) = 0.13173 0.13625
# Poissons Ratio (y) = 0.14954 0.05221
# Poissons Ratio (z) = 0.14137 0.04772
#
# Static dielectric constant tensor:
#      x y z
#    x 2.073330 0.000000 -0.257480 
#    y 0.000000 1.695860 0.000000 
#    z -0.257480 0.000000 1.908840 
# 
# From -- ./inp_files/51452.got.cif
#   From: 2010.05.17/outbox.cif.g08.bks.cpg/sg12_26_cif.got.tgz:51452.got - 2010.06.03 13:09:07.
