data_PCOD9220605
_publ_section_title
;
Structure prediction by ZEFSAII (Michael W. Deem and Ramdas Pophale) SiO2 
 PCOD9220605
Probable space group: C 2/M
;
_chemical_formula_sum "Si O2"
_cell_formula_units_Z 56
_cell_length_a 16.434361
_cell_length_b 26.714487
_cell_length_c 15.567550
_cell_angle_alpha 90.000000
_cell_angle_beta 152.225217
_cell_angle_gamma 90.000000
_cell_volume 3184.955043
_symmetry_space_group_name_H-M "C 2/M"
_symmetry_group_IT_number 12
_symmetry_cell_setting 'monoclinic'
loop_
_space_group_symop_operation_xyz
x,y,z
-x,y,-z
-x,-y,-z
x,-y,z
1/2+x,1/2+y,z
1/2-x,1/2+y,-z
1/2-x,1/2-y,-z
1/2+x,1/2-y,z
loop_
_atom_site_type_symbol
_atom_site_label
_atom_site_fract_x
_atom_site_fract_y
_atom_site_fract_z
Si Si1 0.878121 0.848231 0.021099
Si Si2 0.031727 0.744898 0.121513
Si Si3 0.252496 0.441485 0.803031
Si Si4 0.649110 0.057693 0.512799
Si Si5 0.967919 0.708004 0.249689
Si Si6 0.413408 0.710576 0.510656
Si Si7 0.691440 0.642418 0.445261
O O1 0.955324 0.800441 0.044127
O O2 0.013400 0.854346 0.225289
O O3 0.863680 0.899518 0.954769
O O4 0.684854 0.830144 0.868156
O O5 0.237630 0.742070 0.329690
O O6 0.949946 0.722528 0.132690
O O7 0.000000 0.718868 0.000000
O O8 0.308225 0.500000 0.863226
O O9 0.233596 0.428847 0.684288
O O10 0.058051 0.438412 0.662587
O O11 0.718510 0.091142 0.500076
O O12 0.690097 0.000000 0.534886
O O13 0.971559 0.756585 0.315025
O O14 0.158651 0.682898 0.438376
O O15 0.500000 0.703063 0.500000
O O16 0.358655 0.658747 0.505371
#
# Coordination Sequence:
#
# PCOD9220605 Si02
#       7
#     8   8   8   8   8   8   8
#     4  12  22  33  60  79 114 149 191 231 280 337
#     4  11  23  36  56  85 112 152 201 230 286 342
#     4   9  20  36  58  87 117 151 187 231 290 352
#     4   9  19  39  59  81 118 153 186 234 293 349
#     4  11  22  41  54  80 120 153 189 244 279 348
#     4  11  23  40  56  78 122 156 195 244 284 335
#     4  11  22  37  57  85 108 151 196 230 287 338
#
# _framework density 17.582666
#
# number of rings (size 3 to 8) (size 9 to 14) (size 15 to 20)
#    0.000    1.429    4.286    3.000    4.000    1.714 
#    0.000    1.429    0.000    0.429    0.000    0.000 
#    0.000    5.714    0.000    0.000    0.000    0.000 
#
# Total GULP energy -156184.848144 kJ/mol
# GULP energy per Si atom -5578.030291 kJ/mol
# Density = 1.754265 g / cm^3
# Si number density = 17.582666 Si / 1000 Ang^3
#
#
#
# Elastic Constant Matrix: (Units=GPa)
#
#
# Indices 1 2 3 4 5 6 
#
# 1 129.6491 56.7583 38.4462 0.0000 -2.4296 0.0000
# 2 56.7583 89.8559 37.3162 0.0000 -6.6020 0.0000
# 3 38.4462 37.3162 90.5009 0.0000 -1.9792 0.0000
# 4 0.0000 0.0000 0.0000 28.9537 0.0000 -8.8904
# 5 -2.4296 -6.6020 -1.9792 0.0000 27.2948 0.0000
# 6 0.0000 0.0000 0.0000 -8.8904 0.0000 -7.0205
#
#
#
# Elastic Compliance Matrix: (Units=1/GPa)
#
#
# Indices 1 2 3 4 5 6 
#
# 1 0.011019 -0.006103 -0.002179 0.000000 -0.000653 0.000000
# 2 -0.006103 0.017034 -0.004360 0.000000 0.003261 0.000000
# 3 -0.002179 -0.004360 0.013767 0.000000 -0.000250 0.000000
# 4 0.000000 0.000000 0.000000 0.024868 0.000000 -0.031492
# 5 -0.000653 0.003261 -0.000250 0.000000 0.037349 0.000000
# 6 0.000000 0.000000 0.000000 -0.031492 0.000000 -0.102560
#
#
# Mechanical properties :
#
#
# Convention : Reuss Voigt Hill
#
# Bulk Modulus (GPa) = 60.47017 63.89413 62.18215
# Shear Modulus (GPa) = 154.92481 21.67793 88.30137
#
# Velocity S-wave (km/s) = 9.39700 3.51510 7.09434
# Velocity P-wave (km/s) = 12.33712 7.27274 10.12663
#
# Compressibility (1/GPa) = 0.01653708
#
# Stress axis : x y z
#
# Youngs Moduli (GPa) = 90.75279 58.70510 72.63603
#
# Poissons Ratio (x) = 0.35830 0.15825
# Poissons Ratio (y) = 0.55391 0.31666
# Poissons Ratio (z) = 0.19772 0.25593
#
# Static dielectric constant tensor:
#      x y z
#    x 1.622970 0.000000 0.014460 
#    y 0.000000 1.601780 0.000000 
#    z 0.014460 0.000000 1.649430 
# 
# From -- ./inp_files/219160.got.cif
#   From: 2010.05.17/outbox.cif.g08.bks.cpg/sg12_110_cif.got.tgz:219160.got - 2010.06.03 13:09:07.
