data_PCOD9220187
_publ_section_title
;
Structure prediction by ZEFSAII (Michael W. Deem and Ramdas Pophale) SiO2 
 PCOD9220187
Probable space group: C 2/M
;
_chemical_formula_sum "Si O2"
_cell_formula_units_Z 64
_cell_length_a 18.934363
_cell_length_b 21.947860
_cell_length_c 15.878826
_cell_angle_alpha 90.000000
_cell_angle_beta 23.330595
_cell_angle_gamma 90.000000
_cell_volume 2613.339335
_symmetry_space_group_name_H-M "C 2/M"
_symmetry_group_IT_number 12
_symmetry_cell_setting 'monoclinic'
loop_
_space_group_symop_operation_xyz
x,y,z
-x,y,-z
-x,-y,-z
x,-y,z
1/2+x,1/2+y,z
1/2-x,1/2+y,-z
1/2-x,1/2-y,-z
1/2+x,1/2-y,z
loop_
_atom_site_type_symbol
_atom_site_label
_atom_site_fract_x
_atom_site_fract_y
_atom_site_fract_z
Si Si1 0.717522 0.932990 0.262515
Si Si2 0.916586 0.367480 0.838032
Si Si3 0.287963 0.798272 0.727406
Si Si4 0.629774 0.823146 0.930286
Si Si5 0.234127 0.932385 0.593712
Si Si6 0.830315 0.064726 0.626286
Si Si7 0.504183 0.625210 0.710702
Si Si8 0.136001 0.257469 0.538297
O O1 0.500000 0.933254 0.500000
O O2 0.774586 0.864795 0.171670
O O3 0.782369 0.932195 0.287962
O O4 0.771763 0.000000 0.166209
O O5 0.058938 0.417199 0.652162
O O6 0.978926 0.306011 0.724189
O O7 0.949879 0.353514 0.899862
O O8 0.709116 0.382317 0.052206
O O9 0.500000 0.800285 0.500000
O O10 0.228493 0.739380 0.845124
O O11 0.258556 0.782668 0.659429
O O12 0.733163 0.876989 0.770233
O O13 0.500000 0.802018 0.000000
O O14 0.107458 0.884986 0.684966
O O15 0.190422 0.000000 0.611488
O O16 0.904440 0.077829 0.452813
O O17 0.000000 0.059661 0.500000
O O18 0.730350 0.000000 0.738328
O O19 0.551577 0.690902 0.619067
O O20 0.250000 0.250000 0.500000
#
# Coordination Sequence:
#
# PCOD9220187 Si02
#       8
#     8   8   8   8   8   8   8   8
#     4   9  19  40  72  97 122 169 221 272 340 414
#     4  12  25  41  66 104 133 175 226 286 340 400
#     4  11  21  39  68  92 128 174 216 270 340 404
#     4  12  24  40  64  96 132 175 229 283 328 397
#     4  11  24  43  67  99 136 177 223 276 344 408
#     4  11  23  42  64  88 129 182 224 267 328 390
#     4  12  23  41  66  93 136 176 228 276 336 401
#     4  12  22  42  67  95 135 177 217 279 345 401
#
# _framework density 24.489740000000001
#
# number of rings (size 3 to 8) (size 9 to 14) (size 15 to 20)
#    0.000    0.750    5.000    3.375    0.000    1.750 
#    0.000    0.000    0.000    0.375    0.000    0.000 
#    0.000    0.000    0.000    0.000    0.000    0.000 
#
# Total GULP energy -178943.273586 kJ/mol
# GULP energy per Si atom -5591.977300 kJ/mol
# Density = 2.443400 g / cm^3
# Si number density = 24.489740 Si / 1000 Ang^3
#
#
#
# Elastic Constant Matrix: (Units=GPa)
#
#
# Indices 1 2 3 4 5 6 
#
# 1 82.7250 -3.2818 -8.2683 -0.0128 -3.6825 -0.0063
# 2 -3.2818 171.1832 39.3479 0.0215 -1.3674 0.0273
# 3 -8.2683 39.3479 59.8382 -0.0213 6.1718 0.0286
# 4 -0.0128 0.0215 -0.0213 -47.5514 0.0133 -22.7854
# 5 -3.6825 -1.3674 6.1718 0.0133 24.0805 -0.0054
# 6 -0.0063 0.0273 0.0286 -22.7854 -0.0054 23.7371
#
#
#
# Elastic Compliance Matrix: (Units=1/GPa)
#
#
# Indices 1 2 3 4 5 6 
#
# 1 0.012311 -0.000128 0.001635 -0.000003 0.001456 -0.000001
# 2 -0.000128 0.006943 -0.004748 0.000005 0.001591 0.000002
# 3 0.001635 -0.004748 0.020606 -0.000003 -0.005301 -0.000023
# 4 -0.000003 0.000005 -0.000003 -0.014404 0.000005 -0.013827
# 5 0.001456 0.001591 -0.005301 0.000005 0.043199 0.000020
# 6 -0.000001 0.000002 -0.000023 -0.013827 0.000020 0.028856
#
#
# Mechanical properties :
#
#
# Convention : Reuss Voigt Hill
#
# Bulk Modulus (GPa) = 29.95805 41.03800 35.49803
# Shear Modulus (GPa) = 43.43335 19.11647 31.27491
#
# Velocity S-wave (km/s) = 4.21590 2.79694 3.57748
# Velocity P-wave (km/s) = 5.99649 5.21767 5.62059
#
# Compressibility (1/GPa) = 0.03338001
#
# Stress axis : x y z
#
# Youngs Moduli (GPa) = 81.22532 144.02571 48.52887
#
# Poissons Ratio (x) = 0.01847 -0.07936
# Poissons Ratio (y) = 0.01042 0.23039
# Poissons Ratio (z) = -0.13283 0.68376
#
# Static dielectric constant tensor:
#      x y z
#    x 1.980470 -0.000080 0.019060 
#    y -0.000080 2.298570 -0.000010 
#    z 0.019060 -0.000010 1.941440 
# 
# From -- ./inp_files/286432.got.cif
#   From: 2010.05.17/outbox.cif.g08.bks.cpg/sg12_144_cif.got.tgz:286432.got - 2010.06.03 13:09:07.
