data_PCOD9220997
_publ_section_title
;
Structure prediction by ZEFSAII (Michael W. Deem and Ramdas Pophale) SiO2 
 PCOD9220997
Probable space group: C 2/M
;
_chemical_formula_sum "Si O2"
_cell_formula_units_Z 56
_cell_length_a 9.274095
_cell_length_b 23.597539
_cell_length_c 13.779609
_cell_angle_alpha 90.000000
_cell_angle_beta 123.621948
_cell_angle_gamma 90.000000
_cell_volume 2511.126016
_symmetry_space_group_name_H-M "C 2/M"
_symmetry_group_IT_number 12
_symmetry_cell_setting 'monoclinic'
loop_
_space_group_symop_operation_xyz
x,y,z
-x,y,-z
-x,-y,-z
x,-y,z
1/2+x,1/2+y,z
1/2-x,1/2+y,-z
1/2-x,1/2-y,-z
1/2+x,1/2-y,z
loop_
_atom_site_type_symbol
_atom_site_label
_atom_site_fract_x
_atom_site_fract_y
_atom_site_fract_z
Si Si1 0.812309 0.656495 0.963981
Si Si2 0.281806 0.240317 0.708449
Si Si3 0.749210 0.613551 0.644987
Si Si4 0.167069 0.274402 0.856235
Si Si5 0.693621 0.174147 0.540237
Si Si6 0.592034 0.000000 0.372196
Si Si7 0.769651 0.000000 0.651759
Si Si8 0.005572 0.894599 0.724950
O O1 0.796331 0.723016 0.927655
O O2 0.659282 0.621750 0.856221
O O3 0.799855 0.667131 0.075574
O O4 0.000000 0.635111 0.000000
O O5 0.277533 0.172022 0.717068
O O6 0.165597 0.275980 0.739696
O O7 0.479503 0.250193 0.809976
O O8 0.207869 0.259699 0.577101
O O9 0.765424 0.643247 0.545704
O O10 0.864004 0.556948 0.672925
O O11 0.582524 0.593143 0.645009
O O12 0.500000 0.155233 0.500000
O O13 0.860957 0.153847 0.663632
O O14 0.707383 0.000000 0.514990
O O15 0.397930 0.000000 0.341898
O O16 0.892108 0.052965 0.715441
#
# Coordination Sequence:
#
# PCOD9220997 Si02
#       8
#     8   8   8   8   8   4   4   8
#     4  11  22  42  68  99 139 182 236 290 343 412
#     4  12  23  43  65 104 144 187 231 279 347 414
#     4  12  24  42  67 102 143 187 234 280 337 415
#     4  11  22  40  67  97 139 183 231 284 341 410
#     4  12  25  40  63 100 152 192 220 277 342 418
#     4  11  25  47  75  96 137 189 237 290 339 418
#     4  11  25  47  72 102 134 182 243 291 352 412
#     4  12  24  44  72 104 137 185 236 288 344 417
#
# _framework density 22.300753
#
# number of rings (size 3 to 8) (size 9 to 14) (size 15 to 20)
#    0.000    0.429    5.714    3.000    0.000    1.714 
#    0.000    0.357    0.000    0.857    0.000    7.000 
#    0.000    0.000    0.000    0.071    0.000    0.000 
#
# Total GULP energy -155875.179122 kJ/mol
# GULP energy per Si atom -5566.970683 kJ/mol
# Density = 2.225000 g / cm^3
# Si number density = 22.300753 Si / 1000 Ang^3
#
#
#
# Elastic Constant Matrix: (Units=GPa)
#
#
# Indices 1 2 3 4 5 6 
#
# 1 136.2301 65.4631 60.9258 0.0000 15.6543 0.0000
# 2 65.4631 97.7397 30.4026 0.0000 0.4993 0.0000
# 3 60.9258 30.4026 77.1444 0.0000 0.1115 0.0000
# 4 0.0000 0.0000 0.0000 21.3199 0.0000 -4.8841
# 5 15.6543 0.4993 0.1115 0.0000 44.6946 0.0000
# 6 0.0000 0.0000 0.0000 -4.8841 0.0000 -5.9708
#
#
#
# Elastic Compliance Matrix: (Units=1/GPa)
#
#
# Indices 1 2 3 4 5 6 
#
# 1 0.015922 -0.007667 -0.009545 0.000000 -0.005467 0.000000
# 2 -0.007667 0.015353 0.000001 0.000000 0.002514 0.000000
# 3 -0.009545 0.000001 0.020496 0.000000 0.003292 0.000000
# 4 0.000000 0.000000 0.000000 0.039502 0.000000 -0.032313
# 5 -0.005467 0.002514 0.003292 0.000000 0.024253 0.000000
# 6 0.000000 0.000000 0.000000 -0.032313 0.000000 -0.141050
#
#
# Mechanical properties :
#
#
# Convention : Reuss Voigt Hill
#
# Bulk Modulus (GPa) = 57.64167 69.41079 63.52623
# Shear Modulus (GPa) = 340.56972 22.29693 181.43332
#
# Velocity S-wave (km/s) = 12.37127 3.16544 9.02962
# Velocity P-wave (km/s) = 15.16469 6.67476 11.71581
#
# Compressibility (1/GPa) = 0.01734856
#
# Stress axis : x y z
#
# Youngs Moduli (GPa) = 62.80717 65.13266 48.79012
#
# Poissons Ratio (x) = 0.49937 0.46570
# Poissons Ratio (y) = 0.48154 -0.00003
# Poissons Ratio (z) = 0.59949 -0.00005
#
# Static dielectric constant tensor:
#      x y z
#    x 1.918790 0.000000 -0.115160 
#    y 0.000000 2.142790 0.000000 
#    z -0.115160 0.000000 2.001060 
# 
# From -- ./inp_files/199017.got.cif
#   From: 2010.05.17/outbox.cif.g08.bks.cpg/sg12_100_cif.got.tgz:199017.got - 2010.06.03 13:09:07.
