data_PCOD9220432
_publ_section_title
;
Structure prediction by ZEFSAII (Michael W. Deem and Ramdas Pophale) SiO2 
 PCOD9220432
Probable space group: C 2/M
;
_chemical_formula_sum "Si O2"
_cell_formula_units_Z 48
_cell_length_a 18.895565
_cell_length_b 7.747010
_cell_length_c 28.442877
_cell_angle_alpha 90.000000
_cell_angle_beta 33.760737
_cell_angle_gamma 90.000000
_cell_volume 2313.813056
_symmetry_space_group_name_H-M "C 2/M"
_symmetry_group_IT_number 12
_symmetry_cell_setting 'monoclinic'
loop_
_space_group_symop_operation_xyz
x,y,z
-x,y,-z
-x,-y,-z
x,-y,z
1/2+x,1/2+y,z
1/2-x,1/2+y,-z
1/2-x,1/2-y,-z
1/2+x,1/2-y,z
loop_
_atom_site_type_symbol
_atom_site_label
_atom_site_fract_x
_atom_site_fract_y
_atom_site_fract_z
Si Si1 0.495243 0.701615 0.736735
Si Si2 0.532273 0.289660 0.907609
Si Si3 0.896718 0.301366 0.422503
Si Si4 0.858263 0.788371 0.251838
Si Si5 0.203393 0.790937 0.901204
Si Si6 0.435661 0.211619 0.584570
O O1 0.526596 0.500000 0.715169
O O2 0.535849 0.781817 0.664905
O O3 0.573135 0.770614 0.738422
O O4 0.345174 0.723046 0.827815
O O5 0.531650 0.500000 0.907796
O O6 0.568824 0.231244 0.835516
O O7 0.638178 0.239007 0.887772
O O8 0.395246 0.235801 0.003649
O O9 0.892681 0.500000 0.437462
O O10 0.750000 0.250000 0.500000
O O11 0.981067 0.220916 0.417626
O O12 0.711263 0.734144 0.331353
O O13 0.861255 0.000000 0.250189
O O14 0.209270 0.000000 0.898239
O O15 0.500000 0.262680 0.500000
O O16 0.432213 0.000000 0.587019
#
# Coordination Sequence:
#
# PCOD9220432 Si02
#       6
#     8   8   8   8   8   8
#     4  11  22  34  51  77 109 141 171 208 257 311
#     4   8  15  30  53  77  99 133 182 225 259 303
#     4  11  22  37  59  82 105 134 169 212 258 304
#     4   9  17  30  49  74 104 138 178 217 251 300
#     4   9  17  32  55  78 100 131 176 226 267 305
#     4   9  17  31  54  80 101 128 171 214 249 296
#
# _framework density 20.744976999999999
#
# number of rings (size 3 to 8) (size 9 to 14) (size 15 to 20)
#    0.000    2.500    0.000    4.000    0.000    6.000 
#    0.000    1.667    0.000   20.000    0.000    0.000 
#    0.000    0.000    0.000    0.000    0.000    0.000 
#
# Total GULP energy -134006.240407 kJ/mol
# GULP energy per Si atom -5583.593350 kJ/mol
# Density = 2.069776 g / cm^3
# Si number density = 20.744977 Si / 1000 Ang^3
#
#
#
# Elastic Constant Matrix: (Units=GPa)
#
#
# Indices 1 2 3 4 5 6 
#
# 1 178.6855 -7.0651 99.7220 -0.0004 -4.2172 -0.0054
# 2 -7.0651 21.0538 -15.6061 0.0015 -4.1143 -0.0004
# 3 99.7220 -15.6061 135.8532 -0.0009 -6.2375 -0.0012
# 4 -0.0004 0.0015 -0.0009 18.0236 0.0004 -7.6341
# 5 -4.2172 -4.1143 -6.2375 0.0004 37.3713 -0.0004
# 6 -0.0054 -0.0004 -0.0012 -7.6341 -0.0004 14.1960
#
#
#
# Elastic Compliance Matrix: (Units=1/GPa)
#
#
# Indices 1 2 3 4 5 6 
#
# 1 0.009576 -0.002281 -0.007309 0.000002 -0.000390 0.000004
# 2 -0.002281 0.054215 0.008227 -0.000005 0.007085 -0.000001
# 3 -0.007309 0.008227 0.013781 -0.000001 0.002381 -0.000002
# 4 0.000002 -0.000005 -0.000001 0.071848 -0.000001 0.038638
# 5 -0.000390 0.007085 0.002381 -0.000001 0.027892 0.000000
# 6 0.000004 -0.000001 -0.000002 0.038638 0.000000 0.091221
#
#
# Mechanical properties :
#
#
# Convention : Reuss Voigt Hill
#
# Bulk Modulus (GPa) = 13.36069 54.41047 33.88558
# Shear Modulus (GPa) = 16.88010 31.15430 24.01720
#
# Velocity S-wave (km/s) = 2.85563 3.87948 3.40624
# Velocity P-wave (km/s) = 4.16260 6.80826 5.64268
#
# Compressibility (1/GPa) = 0.07484642
#
# Stress axis : x y z
#
# Youngs Moduli (GPa) = 104.42495 18.44512 72.56540
#
# Poissons Ratio (x) = 0.04207 0.53040
# Poissons Ratio (y) = 0.23817 -0.59702
# Poissons Ratio (z) = 0.76327 -0.15176
#
# Static dielectric constant tensor:
#      x y z
#    x 1.768770 0.000000 -0.003640 
#    y 0.000000 1.755560 0.000000 
#    z -0.003640 0.000000 1.696880 
# 
# From -- ./inp_files/380137.got.cif
#   From: 2010.05.17/outbox.cif.g08.bks.cpg/sg12_191_cif.got.tgz:380137.got - 2010.06.03 13:09:07.
