data_PCOD9220396
_publ_section_title
;
Structure prediction by ZEFSAII (Michael W. Deem and Ramdas Pophale) SiO2 
 PCOD9220396
Probable space group: C 2/M
;
_chemical_formula_sum "Si O2"
_cell_formula_units_Z 48
_cell_length_a 14.704488
_cell_length_b 7.841881
_cell_length_c 21.145135
_cell_angle_alpha 90.000000
_cell_angle_beta 108.630453
_cell_angle_gamma 90.000000
_cell_volume 2310.495331
_symmetry_space_group_name_H-M "C 2/M"
_symmetry_group_IT_number 12
_symmetry_cell_setting 'monoclinic'
loop_
_space_group_symop_operation_xyz
x,y,z
-x,y,-z
-x,-y,-z
x,-y,z
1/2+x,1/2+y,z
1/2-x,1/2+y,-z
1/2-x,1/2-y,-z
1/2+x,1/2-y,z
loop_
_atom_site_type_symbol
_atom_site_label
_atom_site_fract_x
_atom_site_fract_y
_atom_site_fract_z
Si Si1 0.549603 0.703183 0.605000
Si Si2 0.143897 0.205137 0.497420
Si Si3 0.422941 0.707172 0.131497
Si Si4 0.663758 0.199867 0.753247
Si Si5 0.641834 0.290397 0.154703
Si Si6 0.115448 0.801238 0.012283
O O1 0.545038 0.500000 0.596814
O O2 0.615228 0.767554 0.561373
O O3 0.441275 0.766782 0.568213
O O4 0.596170 0.734224 0.682948
O O5 0.250000 0.250000 0.500000
O O6 0.140342 0.000000 0.497667
O O7 0.419874 0.500000 0.129726
O O8 0.379222 0.769573 0.186863
O O9 0.535093 0.758016 0.151896
O O10 0.372000 0.770924 0.055353
O O11 0.772548 0.269303 0.781350
O O12 0.671752 0.000000 0.743871
O O13 0.642680 0.500000 0.152592
O O14 0.659267 0.227798 0.086355
O O15 0.143528 0.000000 0.015523
O O16 0.000000 0.798068 0.000000
#
# Coordination Sequence:
#
# PCOD9220396 Si02
#       6
#     8   8   8   8   8   8
#     4   9  20  39  56  75 107 140 168 199 240 299
#     4   9  19  37  62  85 104 131 166 204 246 292
#     4   9  17  32  53  72  94 132 177 215 256 308
#     4  11  22  33  48  75 108 137 166 208 257 297
#     4   8  16  31  49  70  98 132 172 215 257 303
#     4   7  11  24  48  71  89 121 173 220 252 296
#
# _framework density 20.774767000000001
#
# number of rings (size 3 to 8) (size 9 to 14) (size 15 to 20)
#    0.000    3.167    0.000    3.500    0.000    3.333 
#    0.000    8.333    0.000    5.500    0.000    0.000 
#    0.000    0.000    0.000    0.000    0.000    0.000 
#
# Total GULP energy -133791.894646 kJ/mol
# GULP energy per Si atom -5574.662277 kJ/mol
# Density = 2.072748 g / cm^3
# Si number density = 20.774767 Si / 1000 Ang^3
#
#
#
# Elastic Constant Matrix: (Units=GPa)
#
#
# Indices 1 2 3 4 5 6 
#
# 1 84.3076 1.5324 30.8291 0.0000 16.9168 0.0000
# 2 1.5324 21.9396 3.9485 0.0000 4.8150 0.0000
# 3 30.8291 3.9485 104.7066 0.0000 23.1623 0.0000
# 4 0.0000 0.0000 0.0000 13.3683 0.0000 -4.5212
# 5 16.9168 4.8150 23.1623 0.0000 20.9935 0.0000
# 6 0.0000 0.0000 0.0000 -4.5212 0.0000 14.9614
#
#
#
# Elastic Compliance Matrix: (Units=1/GPa)
#
#
# Indices 1 2 3 4 5 6 
#
# 1 0.014580 0.001498 -0.002215 0.000000 -0.009648 0.000000
# 2 0.001498 0.048204 0.000600 0.000000 -0.012925 0.000000
# 3 -0.002215 0.000600 0.012985 0.000000 -0.012679 0.000000
# 4 0.000000 0.000000 0.000000 0.083319 0.000000 0.025179
# 5 -0.009648 -0.012925 -0.012679 0.000000 0.072362 0.000000
# 6 0.000000 0.000000 0.000000 0.025179 0.000000 0.074447
#
#
# Mechanical properties :
#
#
# Convention : Reuss Voigt Hill
#
# Bulk Modulus (GPa) = 13.23889 31.50822 22.37355
# Shear Modulus (GPa) = 15.09166 21.50758 18.29962
#
# Velocity S-wave (km/s) = 2.69818 3.22106 2.97114
# Velocity P-wave (km/s) = 4.01165 5.38824 4.75008
#
# Compressibility (1/GPa) = 0.07553505
#
# Stress axis : x y z
#
# Youngs Moduli (GPa) = 68.58673 20.74530 77.01336
#
# Poissons Ratio (x) = -0.03107 0.17058
# Poissons Ratio (y) = -0.10273 -0.04624
# Poissons Ratio (z) = 0.15192 -0.01246
#
# Static dielectric constant tensor:
#      x y z
#    x 1.759250 0.000000 0.024540 
#    y 0.000000 1.760340 0.000000 
#    z 0.024540 0.000000 1.766810 
# 
# From -- ./inp_files/308578.got.cif
#   From: 2010.05.17/outbox.cif.g08.bks.cpg/sg12_155_cif.got.tgz:308578.got - 2010.06.03 13:09:07.
