data_PCOD9220119
_publ_section_title
;
Structure prediction by ZEFSAII (Michael W. Deem and Ramdas Pophale) SiO2 
 PCOD9220119
Probable space group: C 2/M
;
_chemical_formula_sum "Si O2"
_cell_formula_units_Z 48
_cell_length_a 14.055497
_cell_length_b 15.060549
_cell_length_c 11.008903
_cell_angle_alpha 90.000000
_cell_angle_beta 91.488408
_cell_angle_gamma 90.000000
_cell_volume 2329.616856
_symmetry_space_group_name_H-M "C 2/M"
_symmetry_group_IT_number 12
_symmetry_cell_setting 'monoclinic'
loop_
_space_group_symop_operation_xyz
x,y,z
-x,y,-z
-x,-y,-z
x,-y,z
1/2+x,1/2+y,z
1/2-x,1/2+y,-z
1/2-x,1/2-y,-z
1/2+x,1/2-y,z
loop_
_atom_site_type_symbol
_atom_site_label
_atom_site_fract_x
_atom_site_fract_y
_atom_site_fract_z
Si Si1 0.890528 0.895713 0.271799
Si Si2 0.640274 0.268904 0.518935
Si Si3 0.416558 0.301194 0.754435
Si Si4 0.564695 0.091677 0.620488
Si Si5 0.218407 0.266673 0.861714
Si Si6 0.520118 0.860090 0.869380
O O1 0.877911 0.859917 0.409408
O O2 0.821663 0.826623 0.196150
O O3 0.001304 0.876323 0.239936
O O4 0.868455 0.000000 0.257122
O O5 0.750000 0.250000 0.500000
O O6 0.588078 0.269729 0.386931
O O7 0.611977 0.187211 0.605322
O O8 0.306846 0.309856 0.791291
O O9 0.456870 0.227751 0.849046
O O10 0.500000 0.087254 0.500000
O O11 0.504269 0.091160 0.741878
O O12 0.624790 0.000000 0.623519
O O13 0.130312 0.333623 0.866117
O O14 0.250000 0.250000 0.000000
O O15 0.500000 0.899887 0.000000
#
# Coordination Sequence:
#
# PCOD9220119 Si02
#       6
#     8   8   8   8   8   8
#     4  11  25  43  71 105 138 178 232 286 349 415
#     4  12  21  40  68  98 135 177 222 282 349 412
#     4  11  21  40  67  96 135 178 224 278 350 404
#     4  11  22  39  62  91 125 168 221 276 333 403
#     4  11  22  41  69  92 133 185 227 277 348 410
#     4  11  21  38  66  94 128 174 229 281 339 409
#
# _framework density 20.604246
#
# number of rings (size 3 to 8) (size 9 to 14) (size 15 to 20)
#    0.000    0.833    8.333    0.500    0.000    2.333 
#    0.000    5.833    0.000    0.000    0.000    0.000 
#    0.000    0.000    0.000    0.000    0.000    0.000 
#
# Total GULP energy -133705.959987 kJ/mol
# GULP energy per Si atom -5571.081666 kJ/mol
# Density = 2.055735 g / cm^3
# Si number density = 20.604246 Si / 1000 Ang^3
#
#
#
# Elastic Constant Matrix: (Units=GPa)
#
#
# Indices 1 2 3 4 5 6 
#
# 1 113.1260 19.6091 21.3459 0.0000 -14.8130 0.0000
# 2 19.6091 100.9398 21.2775 0.0000 -14.2810 0.0000
# 3 21.3459 21.2775 165.0211 0.0000 -6.2589 0.0000
# 4 0.0000 0.0000 0.0000 -71.3146 0.0000 -3.5028
# 5 -14.8130 -14.2810 -6.2589 0.0000 36.5299 0.0000
# 6 0.0000 0.0000 0.0000 -3.5028 0.0000 8.4032
#
#
#
# Elastic Compliance Matrix: (Units=1/GPa)
#
#
# Indices 1 2 3 4 5 6 
#
# 1 0.009662 -0.001209 -0.000970 0.000000 0.003279 0.000000
# 2 -0.001209 0.010881 -0.001111 0.000000 0.003574 0.000000
# 3 -0.000970 -0.001111 0.006338 0.000000 0.000258 0.000000
# 4 0.000000 0.000000 0.000000 -0.013741 0.000000 -0.005728
# 5 0.003279 0.003574 0.000258 0.000000 0.030146 0.000000
# 6 0.000000 0.000000 0.000000 -0.005728 0.000000 0.116615
#
#
# Mechanical properties :
#
#
# Convention : Reuss Voigt Hill
#
# Bulk Modulus (GPa) = 49.25442 55.95021 52.60231
# Shear Modulus (GPa) = 28.86044 15.84732 22.35388
#
# Velocity S-wave (km/s) = 3.74666 2.77633 3.29738
# Velocity P-wave (km/s) = 6.53249 6.12299 6.33105
#
# Compressibility (1/GPa) = 0.02030275
#
# Stress axis : x y z
#
# Youngs Moduli (GPa) = 103.50333 91.89920 157.77062
#
# Poissons Ratio (x) = 0.11107 0.15296
# Poissons Ratio (y) = 0.12509 0.17531
# Poissons Ratio (z) = 0.10035 0.10212
#
# Static dielectric constant tensor:
#      x y z
#    x 1.778190 0.000000 0.001910 
#    y 0.000000 1.767000 0.000000 
#    z 0.001910 0.000000 1.787960 
# 
# From -- ./inp_files/143021.got.cif
#   From: 2010.05.17/outbox.cif.g08.bks.cpg/sg12_72_cif.got.tgz:143021.got - 2010.06.03 13:09:07.
