data_PCOD9220919
_publ_section_title
;
Structure prediction by ZEFSAII (Michael W. Deem and Ramdas Pophale) SiO2 
 PCOD9220919
Probable space group: C 2/M
;
_chemical_formula_sum "Si O2"
_cell_formula_units_Z 48
_cell_length_a 13.924533
_cell_length_b 18.086041
_cell_length_c 9.399787
_cell_angle_alpha 90.000000
_cell_angle_beta 82.997387
_cell_angle_gamma 90.000000
_cell_volume 2349.581099
_symmetry_space_group_name_H-M "C 2/M"
_symmetry_group_IT_number 12
_symmetry_cell_setting 'monoclinic'
loop_
_space_group_symop_operation_xyz
x,y,z
-x,y,-z
-x,-y,-z
x,-y,z
1/2+x,1/2+y,z
1/2-x,1/2+y,-z
1/2-x,1/2-y,-z
1/2+x,1/2-y,z
loop_
_atom_site_type_symbol
_atom_site_label
_atom_site_fract_x
_atom_site_fract_y
_atom_site_fract_z
Si Si1 0.580635 0.419023 0.103958
Si Si2 0.046680 0.340174 0.146462
Si Si3 0.768611 0.180479 0.096060
Si Si4 0.449551 0.693780 0.664223
Si Si5 0.072149 0.584151 0.619658
Si Si6 0.273482 0.213412 0.347535
O O1 0.617074 0.500000 0.141988
O O2 0.528271 0.376644 0.242799
O O3 0.500000 0.427062 0.000000
O O4 0.662169 0.372428 0.005750
O O5 0.161657 0.353591 0.132060
O O6 0.029182 0.268504 0.250823
O O7 0.992996 0.408444 0.228294
O O8 0.000000 0.325772 0.000000
O O9 0.806298 0.220893 0.233412
O O10 0.750000 0.250000 0.000000
O O11 0.500000 0.695564 0.500000
O O12 0.332676 0.687775 0.681451
O O13 0.107655 0.500000 0.592608
O O14 0.154906 0.645263 0.634068
O O15 0.000000 0.602163 0.500000
O O16 0.250000 0.250000 0.500000
#
# Coordination Sequence:
#
# PCOD9220919 Si02
#       6
#     8   8   8   8   8   8
#     4  11  26  46  67  95 136 179 220 279 341 390
#     4  11  22  39  69 101 130 172 221 267 333 400
#     4  11  22  41  67 101 128 168 223 276 323 394
#     4  11  24  41  69  98 132 171 227 282 323 398
#     4  11  25  44  63  96 139 175 215 274 337 394
#     4  11  23  40  68 102 128 176 224 265 332 394
#
# _framework density 20.429175000000001
#
# number of rings (size 3 to 8) (size 9 to 14) (size 15 to 20)
#    0.000    1.000    3.333    5.000    4.667    2.000 
#    0.000    0.833    0.000    0.000    0.000    0.000 
#    0.000    0.000    0.000    0.000    0.000    0.000 
#
# Total GULP energy -133875.327959 kJ/mol
# GULP energy per Si atom -5578.138665 kJ/mol
# Density = 2.038268 g / cm^3
# Si number density = 20.429175 Si / 1000 Ang^3
#
#
#
# Elastic Constant Matrix: (Units=GPa)
#
#
# Indices 1 2 3 4 5 6 
#
# 1 103.3897 39.2988 23.6406 0.0000 -5.6690 0.0000
# 2 39.2988 112.2069 50.2923 0.0000 -6.9168 0.0000
# 3 23.6406 50.2923 153.7353 0.0000 -5.2110 0.0000
# 4 0.0000 0.0000 0.0000 19.1607 0.0000 -14.7847
# 5 -5.6690 -6.9168 -5.2110 0.0000 38.1407 0.0000
# 6 0.0000 0.0000 0.0000 -14.7847 0.0000 -73.8173
#
#
#
# Elastic Compliance Matrix: (Units=1/GPa)
#
#
# Indices 1 2 3 4 5 6 
#
# 1 0.011225 -0.003649 -0.000501 0.000000 0.000938 0.000000
# 2 -0.003649 0.011708 -0.003230 0.000000 0.001140 0.000000
# 3 -0.000501 -0.003230 0.007652 0.000000 0.000385 0.000000
# 4 0.000000 0.000000 0.000000 0.045204 0.000000 -0.009054
# 5 0.000938 0.001140 0.000385 0.000000 0.026617 0.000000
# 6 0.000000 0.000000 0.000000 -0.009054 0.000000 -0.011734
#
#
# Mechanical properties :
#
#
# Convention : Reuss Voigt Hill
#
# Bulk Modulus (GPa) = 63.19297 66.19949 64.69623
# Shear Modulus (GPa) = 45.16379 13.77016 29.46698
#
# Velocity S-wave (km/s) = 4.70696 2.59905 3.80201
# Velocity P-wave (km/s) = 7.78078 6.44061 7.14220
#
# Compressibility (1/GPa) = 0.01582454
#
# Stress axis : x y z
#
# Youngs Moduli (GPa) = 89.08578 85.40905 130.69324
#
# Poissons Ratio (x) = 0.31168 0.06542
# Poissons Ratio (y) = 0.32510 0.42220
# Poissons Ratio (z) = 0.04459 0.27591
#
# Static dielectric constant tensor:
#      x y z
#    x 1.567460 0.000000 -0.287110 
#    y 0.000000 1.798690 0.000000 
#    z -0.287110 0.000000 1.419850 
# 
# From -- ./inp_files/61719.got.cif
#   From: 2010.05.17/outbox.cif.g08.bks.cpg/sg12_31_cif.got.tgz:61719.got - 2010.06.03 13:09:07.
