data_PCOD9220098
_publ_section_title
;
Structure prediction by ZEFSAII (Michael W. Deem and Ramdas Pophale) SiO2 
 PCOD9220098
Probable space group: C 2/M
;
_chemical_formula_sum "Si O2"
_cell_formula_units_Z 48
_cell_length_a 16.454544
_cell_length_b 7.862195
_cell_length_c 15.614264
_cell_angle_alpha 90.000000
_cell_angle_beta 84.511856
_cell_angle_gamma 90.000000
_cell_volume 2010.739465
_symmetry_space_group_name_H-M "C 2/M"
_symmetry_group_IT_number 12
_symmetry_cell_setting 'monoclinic'
loop_
_space_group_symop_operation_xyz
x,y,z
-x,y,-z
-x,-y,-z
x,-y,z
1/2+x,1/2+y,z
1/2-x,1/2+y,-z
1/2-x,1/2-y,-z
1/2+x,1/2-y,z
loop_
_atom_site_type_symbol
_atom_site_label
_atom_site_fract_x
_atom_site_fract_y
_atom_site_fract_z
Si Si1 0.842448 0.802819 0.793847
Si Si2 0.022343 0.000000 0.638358
Si Si3 0.863486 0.000000 0.536766
Si Si4 0.568525 0.197536 0.055572
Si Si5 0.600281 0.802771 0.725510
Si Si6 0.723562 0.194289 0.371000
Si Si7 0.171904 0.797097 0.895061
O O1 0.914753 0.776416 0.854007
O O2 0.836293 0.701132 0.706152
O O3 0.761766 0.749666 0.854424
O O4 0.835463 0.000000 0.771869
O O5 0.037257 0.168322 0.692700
O O6 0.091720 0.000000 0.558210
O O7 0.936879 0.000000 0.598657
O O8 0.811206 0.830889 0.559165
O O9 0.549531 0.000000 0.071602
O O10 0.500000 0.275693 0.000000
O O11 0.647909 0.214681 0.987172
O O12 0.688386 0.755805 0.673654
O O13 0.613336 0.771990 0.825308
O O14 0.581169 0.000000 0.711188
O O15 0.727649 0.000000 0.400942
O O16 0.164443 0.000000 0.901268
#
# Coordination Sequence:
#
# PCOD9220098 Si02
#       7
#     8   4   4   8   8   8   8
#     4  11  21  38  63  89 122 161 208 262 314 368
#     4  11  26  46  66  97 138 172 209 265 332 396
#     4  11  26  46  66  97 138 172 209 265 332 396
#     4  11  24  39  54  83 123 165 214 258 308 372
#     4  11  21  42  70  99 129 168 221 270 321 384
#     4  11  21  42  70  99 129 168 221 270 321 384
#     4  11  21  38  63  89 122 161 208 262 314 368
#
# _framework density 23.871815000000002
#
# number of rings (size 3 to 8) (size 9 to 14) (size 15 to 20)
#    0.000    1.000    3.333    6.000    0.000    4.667 
#    0.000    1.667    0.000    0.000    0.000    0.000 
#    0.000    0.000    0.000    0.000    0.000    0.000 
#
# Total GULP energy -134520.785620 kJ/mol
# GULP energy per Si atom -5605.032734 kJ/mol
# Density = 2.381748 g / cm^3
# Si number density = 23.871815 Si / 1000 Ang^3
#
#
#
# Elastic Constant Matrix: (Units=GPa)
#
#
# Indices 1 2 3 4 5 6 
#
# 1 70.2745 25.9960 36.4515 0.0000 14.6990 0.0000
# 2 25.9960 186.4022 40.3593 0.0000 15.6537 0.0000
# 3 36.4515 40.3593 111.7416 0.0000 1.0085 0.0000
# 4 0.0000 0.0000 0.0000 31.8571 0.0000 6.7813
# 5 14.6990 15.6537 1.0085 0.0000 49.4972 0.0000
# 6 0.0000 0.0000 0.0000 6.7813 0.0000 23.5899
#
#
#
# Elastic Compliance Matrix: (Units=1/GPa)
#
#
# Indices 1 2 3 4 5 6 
#
# 1 0.018591 -0.000934 -0.005681 0.000000 -0.005110 0.000000
# 2 -0.000934 0.006031 -0.001860 0.000000 -0.001592 0.000000
# 3 -0.005681 -0.001860 0.011456 0.000000 0.002042 0.000000
# 4 0.000000 0.000000 0.000000 0.033436 0.000000 -0.009612
# 5 -0.005110 -0.001592 0.002042 0.000000 0.022183 0.000000
# 6 0.000000 0.000000 0.000000 -0.009612 0.000000 0.045154
#
#
# Mechanical properties :
#
#
# Convention : Reuss Voigt Hill
#
# Bulk Modulus (GPa) = 52.27583 63.78132 58.02857
# Shear Modulus (GPa) = 31.21569 38.69628 34.95598
#
# Velocity S-wave (km/s) = 3.62005 4.03054 3.83080
# Velocity P-wave (km/s) = 6.27846 6.95964 6.62781
#
# Compressibility (1/GPa) = 0.01912930
#
# Stress axis : x y z
#
# Youngs Moduli (GPa) = 53.78962 165.80269 87.29257
#
# Poissons Ratio (x) = 0.15478 0.49594
# Poissons Ratio (y) = 0.05021 0.16232
# Poissons Ratio (z) = 0.30560 0.30831
#
# Static dielectric constant tensor:
#      x y z
#    x 1.996830 0.000000 0.018960 
#    y 0.000000 1.821180 0.000000 
#    z 0.018960 0.000000 1.881960 
# 
# From -- ./inp_files/221744.got.cif
#   From: 2010.05.17/outbox.cif.g08.bks.cpg/sg12_111_cif.got.tgz:221744.got - 2010.06.03 13:09:07.
