data_PCOD9220553
_publ_section_title
;
Structure prediction by ZEFSAII (Michael W. Deem and Ramdas Pophale) SiO2 
 PCOD9220553
Probable space group: C 2/M
;
_chemical_formula_sum "Si O2"
_cell_formula_units_Z 56
_cell_length_a 9.506473
_cell_length_b 16.763017
_cell_length_c 25.157850
_cell_angle_alpha 90.000000
_cell_angle_beta 133.198452
_cell_angle_gamma 90.000000
_cell_volume 2922.570419
_symmetry_space_group_name_H-M "C 2/M"
_symmetry_group_IT_number 12
_symmetry_cell_setting 'monoclinic'
loop_
_space_group_symop_operation_xyz
x,y,z
-x,y,-z
-x,-y,-z
x,-y,z
1/2+x,1/2+y,z
1/2-x,1/2+y,-z
1/2-x,1/2-y,-z
1/2+x,1/2-y,z
loop_
_atom_site_type_symbol
_atom_site_label
_atom_site_fract_x
_atom_site_fract_y
_atom_site_fract_z
Si Si1 0.513183 0.091893 0.660776
Si Si2 0.737342 0.092771 0.220828
Si Si3 0.707423 0.198770 0.310697
Si Si4 0.481603 0.402827 0.083150
Si Si5 0.050209 0.298217 0.452524
Si Si6 0.451670 0.355443 0.782113
Si Si7 0.193148 0.596549 0.917066
O O1 0.419505 0.145965 0.682448
O O2 0.446875 0.127464 0.587072
O O3 0.743944 0.101795 0.724246
O O4 0.459603 0.000000 0.653573
O O5 0.793599 0.143931 0.286578
O O6 0.526561 0.121762 0.146810
O O7 0.891463 0.102890 0.214389
O O8 0.719756 0.000000 0.231039
O O9 0.581942 0.267179 0.249717
O O10 0.877687 0.241914 0.386693
O O11 0.478879 0.500000 0.089728
O O12 0.483851 0.360822 0.140294
O O13 0.673230 0.382262 0.098734
O O14 0.302351 0.379094 0.999159
O O15 0.250000 0.250000 0.500000
O O16 0.000000 0.320411 0.500000
O O17 0.194104 0.500000 0.918897
#
# Coordination Sequence:
#
# PCOD9220553 Si02
#       7
#     8   8   8   8   8   8   8
#     4  11  23  41  65  93 120 159 206 244 285 351
#     4  11  22  37  58  89 120 152 200 254 297 346
#     4  11  24  42  64  84 121 165 197 232 299 368
#     4   9  16  32  56  83 116 159 205 248 298 361
#     4  11  23  44  68  92 124 161 195 237 301 360
#     4  11  22  36  58  90 122 155 197 252 305 349
#     4   8  17  32  54  82 117 159 200 247 305 358
#
# _framework density 19.161214999999999
#
# number of rings (size 3 to 8) (size 9 to 14) (size 15 to 20)
#    0.000    1.714    1.429    5.143    2.000    2.000 
#    0.000    5.000    0.000    1.714    0.000    0.000 
#    0.000    0.000    0.000    0.000    0.000    0.000 
#
# Total GULP energy -156454.521899 kJ/mol
# GULP energy per Si atom -5587.661496 kJ/mol
# Density = 1.911760 g / cm^3
# Si number density = 19.161215 Si / 1000 Ang^3
#
#
#
# Elastic Constant Matrix: (Units=GPa)
#
#
# Indices 1 2 3 4 5 6 
#
# 1 84.9151 28.1469 47.3013 0.0000 -18.5700 0.0000
# 2 28.1469 93.9609 40.7245 0.0000 -11.7907 0.0000
# 3 47.3013 40.7245 95.5138 0.0000 -28.1979 0.0000
# 4 0.0000 0.0000 0.0000 15.7478 0.0000 -9.5286
# 5 -18.5700 -11.7907 -28.1979 0.0000 39.5423 0.0000
# 6 0.0000 0.0000 0.0000 -9.5286 0.0000 23.8427
#
#
#
# Elastic Compliance Matrix: (Units=1/GPa)
#
#
# Indices 1 2 3 4 5 6 
#
# 1 0.016674 -0.001744 -0.006784 0.000000 0.002473 0.000000
# 2 -0.001744 0.013238 -0.004886 0.000000 -0.000356 0.000000
# 3 -0.006784 -0.004886 0.018419 0.000000 0.008492 0.000000
# 4 0.000000 0.000000 0.000000 0.083754 0.000000 0.033472
# 5 0.002473 -0.000356 0.008492 0.000000 0.032401 0.000000
# 6 0.000000 0.000000 0.000000 0.033472 0.000000 0.055319
#
#
# Mechanical properties :
#
#
# Convention : Reuss Voigt Hill
#
# Bulk Modulus (GPa) = 46.50201 56.30392 51.40297
# Shear Modulus (GPa) = 19.70048 26.37436 23.03742
#
# Velocity S-wave (km/s) = 3.20995 3.71407 3.47117
# Velocity P-wave (km/s) = 6.16927 6.91669 6.55364
#
# Compressibility (1/GPa) = 0.02150445
#
# Stress axis : x y z
#
# Youngs Moduli (GPa) = 59.97228 75.53946 54.29039
#
# Poissons Ratio (x) = 0.13177 0.36830
# Poissons Ratio (y) = 0.10462 0.26524
# Poissons Ratio (z) = 0.40684 0.36905
#
# Static dielectric constant tensor:
#      x y z
#    x 1.643130 0.000000 0.004900 
#    y 0.000000 1.709340 0.000000 
#    z 0.004900 0.000000 1.661280 
# 
# From -- ./inp_files/333383.got.cif
#   From: 2010.05.17/outbox.cif.g08.bks.cpg/sg12_167_cif.got.tgz:333383.got - 2010.06.03 13:09:07.
