data_PCOD9220827
_publ_section_title
;
Structure prediction by ZEFSAII (Michael W. Deem and Ramdas Pophale) SiO2 
 PCOD9220827
Probable space group: C 2/M
;
_chemical_formula_sum "Si O2"
_cell_formula_units_Z 64
_cell_length_a 14.377254
_cell_length_b 28.633754
_cell_length_c 9.335413
_cell_angle_alpha 90.000000
_cell_angle_beta 124.212391
_cell_angle_gamma 90.000000
_cell_volume 3178.130654
_symmetry_space_group_name_H-M "C 2/M"
_symmetry_group_IT_number 12
_symmetry_cell_setting 'monoclinic'
loop_
_space_group_symop_operation_xyz
x,y,z
-x,y,-z
-x,-y,-z
x,-y,z
1/2+x,1/2+y,z
1/2-x,1/2+y,-z
1/2-x,1/2-y,-z
1/2+x,1/2-y,z
loop_
_atom_site_type_symbol
_atom_site_label
_atom_site_fract_x
_atom_site_fract_y
_atom_site_fract_z
Si Si1 0.815622 0.690947 0.691590
Si Si2 0.571544 0.445553 0.347422
Si Si3 0.394593 0.884940 0.981654
Si Si4 0.389190 0.263620 0.312870
Si Si5 0.196312 0.139094 0.326647
Si Si6 0.030633 0.774006 0.183214
Si Si7 0.602714 0.152216 0.697087
Si Si8 0.828680 0.054616 0.244685
O O1 0.876860 0.658898 0.860432
O O2 0.716415 0.715992 0.695104
O O3 0.767209 0.657890 0.525291
O O4 0.893150 0.731493 0.689312
O O5 0.579632 0.500000 0.312754
O O6 0.634691 0.409205 0.303227
O O7 0.629290 0.441016 0.554376
O O8 0.439955 0.433003 0.250190
O O9 0.279446 0.914176 0.878249
O O10 0.500000 0.911350 0.000000
O O11 0.418135 0.867712 0.163050
O O12 0.500000 0.275699 0.500000
O O13 0.420488 0.282843 0.183025
O O14 0.381456 0.208157 0.287940
O O15 0.104661 0.179916 0.229423
O O16 0.281872 0.133761 0.270433
O O17 0.000000 0.757153 0.000000
O O18 0.500000 0.141763 0.500000
O O19 0.803614 0.000000 0.198062
#
# Coordination Sequence:
#
# PCOD9220827 Si02
#       8
#     8   8   8   8   8   8   8   8
#     4  12  23  41  62  90 123 173 223 265 310 371
#     4   9  20  41  70 101 129 160 204 273 336 383
#     4  12  25  41  67  94 127 172 220 264 313 388
#     4  11  22  39  61  84 121 172 219 270 309 366
#     4  12  23  40  66  94 126 169 216 265 323 391
#     4  12  26  38  56  90 131 169 218 265 321 377
#     4  11  25  42  61  89 133 175 213 259 322 376
#     4   9  20  41  71 101 127 157 210 273 326 378
#
# _framework density 20.137623000000001
#
# number of rings (size 3 to 8) (size 9 to 14) (size 15 to 20)
#    0.000    1.000    3.750    5.250    3.500    1.250 
#    0.000    0.625    0.000    2.625    0.000    0.000 
#    0.000    0.000    0.000    0.000    0.000    0.000 
#
# Total GULP energy -178974.929613 kJ/mol
# GULP energy per Si atom -5592.966550 kJ/mol
# Density = 2.009179 g / cm^3
# Si number density = 20.137623 Si / 1000 Ang^3
#
#
#
# Elastic Constant Matrix: (Units=GPa)
#
#
# Indices 1 2 3 4 5 6 
#
# 1 132.7181 47.7024 27.7667 0.0000 -10.2153 0.0000
# 2 47.7024 61.9396 14.8549 0.0000 9.8116 0.0000
# 3 27.7667 14.8549 64.0819 0.0000 1.3682 0.0000
# 4 0.0000 0.0000 0.0000 16.8014 0.0000 -5.0441
# 5 -10.2153 9.8116 1.3682 0.0000 31.1366 0.0000
# 6 0.0000 0.0000 0.0000 -5.0441 0.0000 33.8683
#
#
#
# Elastic Compliance Matrix: (Units=1/GPa)
#
#
# Indices 1 2 3 4 5 6 
#
# 1 0.012314 -0.009870 -0.003203 0.000000 0.007291 0.000000
# 2 -0.009870 0.025897 -0.001485 0.000000 -0.011334 0.000000
# 3 -0.003203 -0.001485 0.017366 0.000000 -0.001346 0.000000
# 4 0.000000 0.000000 0.000000 0.062305 0.000000 0.009279
# 5 0.007291 -0.011334 -0.001346 0.000000 0.038139 0.000000
# 6 0.000000 0.000000 0.000000 0.009279 0.000000 0.030908
#
#
# Mechanical properties :
#
#
# Convention : Reuss Voigt Hill
#
# Bulk Modulus (GPa) = 37.79108 48.82084 43.30596
# Shear Modulus (GPa) = 22.23558 27.58896 24.91227
#
# Velocity S-wave (km/s) = 3.32653 3.70539 3.52106
# Velocity P-wave (km/s) = 5.79323 6.52708 6.17108
#
# Compressibility (1/GPa) = 0.02646127
#
# Stress axis : x y z
#
# Youngs Moduli (GPa) = 81.21091 38.61387 57.58421
#
# Poissons Ratio (x) = 0.38112 0.18445
# Poissons Ratio (y) = 0.80155 0.08549
# Poissons Ratio (z) = 0.26013 0.05733
#
# Static dielectric constant tensor:
#      x y z
#    x 1.744760 0.000000 0.024820 
#    y 0.000000 1.676070 0.000000 
#    z 0.024820 0.000000 1.775540 
# 
# From -- ./inp_files/68283.got.cif
#   From: 2010.05.17/outbox.cif.g08.bks.cpg/sg12_35_cif.got.tgz:68283.got - 2010.06.03 13:09:07.
