data_PCOD9220186
_publ_section_title
;
Structure prediction by ZEFSAII (Michael W. Deem and Ramdas Pophale) SiO2 
 PCOD9220186
Probable space group: C 2/M
;
_chemical_formula_sum "Si O2"
_cell_formula_units_Z 64
_cell_length_a 11.593174
_cell_length_b 29.387688
_cell_length_c 17.342840
_cell_angle_alpha 90.000000
_cell_angle_beta 30.818942
_cell_angle_gamma 90.000000
_cell_volume 3027.157897
_symmetry_space_group_name_H-M "C 2/M"
_symmetry_group_IT_number 12
_symmetry_cell_setting 'monoclinic'
loop_
_space_group_symop_operation_xyz
x,y,z
-x,y,-z
-x,-y,-z
x,-y,z
1/2+x,1/2+y,z
1/2-x,1/2+y,-z
1/2-x,1/2-y,-z
1/2+x,1/2-y,z
loop_
_atom_site_type_symbol
_atom_site_label
_atom_site_fract_x
_atom_site_fract_y
_atom_site_fract_z
Si Si1 0.407631 0.675289 0.772181
Si Si2 0.761737 0.718046 0.648501
Si Si3 0.718935 0.808361 0.576488
Si Si4 0.201728 0.945293 0.947128
Si Si5 0.167877 0.598245 0.674348
Si Si6 0.436223 0.551889 0.645094
Si Si7 0.235098 0.422185 0.906459
Si Si8 0.770291 0.228870 0.165209
O O1 0.576983 0.679677 0.745959
O O2 0.587458 0.677893 0.596872
O O3 0.259615 0.631329 0.870807
O O4 0.277494 0.723227 0.848882
O O5 0.771617 0.758478 0.579668
O O6 0.706113 0.742124 0.759592
O O7 0.000000 0.694984 0.500000
O O8 0.715200 0.848353 0.641014
O O9 0.454662 0.802236 0.705715
O O10 0.418726 0.916652 0.795909
O O11 0.240311 0.000000 0.922685
O O12 0.204953 0.932496 0.038306
O O13 0.000000 0.936466 0.000000
O O14 0.236331 0.580477 0.719389
O O15 0.338703 0.573069 0.518755
O O16 0.410154 0.500000 0.635997
O O17 0.423794 0.555531 0.743440
O O18 0.000000 0.438458 0.000000
O O19 0.000000 0.208316 0.000000
#
# Coordination Sequence:
#
# PCOD9220186 Si02
#       8
#     8   8   8   8   8   8   8   8
#     4  11  23  42  61  99 131 177 240 282 339 411
#     4  11  21  39  68  83 129 191 224 275 343 417
#     4  11  23  38  63  95 127 174 235 273 345 400
#     4  11  26  49  72 102 144 186 225 282 362 432
#     4  11  23  39  68 101 136 179 227 293 339 420
#     4  11  23  40  67 102 133 173 227 287 350 419
#     4  12  25  43  72 105 138 178 229 299 346 414
#     4  11  24  40  61  92 132 178 226 286 335 405
#
# _framework density 21.141943000000001
#
# number of rings (size 3 to 8) (size 9 to 14) (size 15 to 20)
#    0.000    0.875    5.000    3.000    3.500    6.000 
#    0.000    0.625    0.000    2.250    0.000    0.000 
#    0.000    0.000    0.000    0.000    0.000    0.000 
#
# Total GULP energy -178262.948146 kJ/mol
# GULP energy per Si atom -5570.717130 kJ/mol
# Density = 2.109382 g / cm^3
# Si number density = 21.141943 Si / 1000 Ang^3
#
#
#
# Elastic Constant Matrix: (Units=GPa)
#
#
# Indices 1 2 3 4 5 6 
#
# 1 91.2072 6.7770 43.2308 -0.0004 -0.9089 0.0005
# 2 6.7770 67.3419 -9.5944 0.0000 0.5707 -0.0001
# 3 43.2308 -9.5944 69.8399 -0.0030 -6.9514 0.0035
# 4 -0.0004 0.0000 -0.0030 -28.5659 0.0006 12.9805
# 5 -0.9089 0.5707 -6.9514 0.0006 31.1888 -0.0008
# 6 0.0005 -0.0001 0.0035 12.9805 -0.0008 -34.2547
#
#
#
# Elastic Compliance Matrix: (Units=1/GPa)
#
#
# Indices 1 2 3 4 5 6 
#
# 1 0.016233 -0.003137 -0.010663 0.000001 -0.001846 -0.000001
# 2 -0.003137 0.015753 0.004161 0.000000 0.000548 0.000000
# 3 -0.010663 0.004161 0.021938 -0.000001 0.004503 0.000001
# 4 0.000001 0.000000 -0.000001 -0.042288 0.000000 -0.016025
# 5 -0.001846 0.000548 0.004503 0.000000 0.033003 0.000000
# 6 -0.000001 0.000000 0.000001 -0.016025 0.000000 -0.035265
#
#
# Mechanical properties :
#
#
# Convention : Reuss Voigt Hill
#
# Bulk Modulus (GPa) = 28.86342 34.35732 31.61037
# Shear Modulus (GPa) = 124.37649 6.20533 65.29091
#
# Velocity S-wave (km/s) = 7.67834 1.71507 5.56320
# Velocity P-wave (km/s) = 9.60683 4.49533 7.49997
#
# Compressibility (1/GPa) = 0.03464593
#
# Stress axis : x y z
#
# Youngs Moduli (GPa) = 61.60403 63.47826 45.58217
#
# Poissons Ratio (x) = 0.19914 0.48603
# Poissons Ratio (y) = 0.19326 -0.18965
# Poissons Ratio (z) = 0.65687 -0.26410
#
# Static dielectric constant tensor:
#      x y z
#    x 1.919050 0.000000 0.004910 
#    y 0.000000 1.746590 0.000000 
#    z 0.004910 0.000000 1.792230 
# 
# From -- ./inp_files/266285.got.cif
#   From: 2010.05.17/outbox.cif.g08.bks.cpg/sg12_134_cif.got.tgz:266285.got - 2010.06.03 13:09:07.
