data_PCOD9220204
_publ_section_title
;
Structure prediction by ZEFSAII (Michael W. Deem and Ramdas Pophale) SiO2 
 PCOD9220204
Probable space group: C 2/M
;
_chemical_formula_sum "Si O2"
_cell_formula_units_Z 42
_cell_length_a 9.213204
_cell_length_b 18.004816
_cell_length_c 13.830672
_cell_angle_alpha 90.000000
_cell_angle_beta 120.905061
_cell_angle_gamma 90.000000
_cell_volume 1968.520018
_symmetry_space_group_name_H-M "C 2/M"
_symmetry_group_IT_number 12
_symmetry_cell_setting 'monoclinic'
loop_
_space_group_symop_operation_xyz
x,y,z
-x,y,-z
-x,-y,-z
x,-y,z
1/2+x,1/2+y,z
1/2-x,1/2+y,-z
1/2-x,1/2-y,-z
1/2+x,1/2-y,z
loop_
_atom_site_type_symbol
_atom_site_label
_atom_site_fract_x
_atom_site_fract_y
_atom_site_fract_z
Si Si1 0.305477 0.137118 0.287093
Si Si2 0.348703 0.085832 0.685984
Si Si3 0.328819 0.308741 0.236526
Si Si4 0.804212 0.165815 0.545226
Si Si5 0.500000 0.500000 0.000000
Si Si6 0.954385 0.140215 0.080753
O O1 0.463455 0.098356 0.291719
O O2 0.301156 0.223486 0.254460
O O3 0.307313 0.136568 0.403472
O O4 0.124610 0.108029 0.190030
O O5 0.312607 0.139238 0.764322
O O6 0.226979 0.115389 0.558331
O O7 0.317819 0.000000 0.697275
O O8 0.505740 0.330851 0.349386
O O9 0.353100 0.320277 0.130570
O O10 0.750000 0.250000 0.500000
O O11 0.618650 0.566097 0.991766
O O12 0.000000 0.187719 0.000000
#
# Coordination Sequence:
#
# PCOD9220204 Si02
#       6
#     8   8   8   8   2   8
#     4  11  22  40  65  89 123 164 210 254 308 374
#     4  12  26  36  58 100 131 157 207 268 309 356
#     4  11  22  40  65  89 123 164 210 254 308 374
#     4  11  21  40  62  87 122 175 208 238 298 382
#     4   8  20  44  64  82 112 168 206 250 328 376
#     4   9  22  41  66  83 113 162 210 247 315 378
#
# _framework density 21.335826999999998
#
# number of rings (size 3 to 8) (size 9 to 14) (size 15 to 20)
#    0.571    0.762    3.810    2.286    2.667    3.810 
#    3.429    0.952    0.000    2.286    0.000    0.000 
#    0.000    0.000    0.000    0.000    0.000    0.000 
#
# Total GULP energy -116961.471255 kJ/mol
# GULP energy per Si atom -5569.593869 kJ/mol
# Density = 2.128727 g / cm^3
# Si number density = 21.335827 Si / 1000 Ang^3
#
#
#
# Elastic Constant Matrix: (Units=GPa)
#
#
# Indices 1 2 3 4 5 6 
#
# 1 74.3533 -10.5794 12.8551 0.0000 -29.6980 0.0000
# 2 -10.5794 72.4420 -9.4279 0.0000 -14.2697 0.0000
# 3 12.8551 -9.4279 54.0273 0.0000 -33.4756 0.0000
# 4 0.0000 0.0000 0.0000 -12.8215 0.0000 -6.2587
# 5 -29.6980 -14.2697 -33.4756 0.0000 49.9486 0.0000
# 6 0.0000 0.0000 0.0000 -6.2587 0.0000 23.7391
#
#
#
# Elastic Compliance Matrix: (Units=1/GPa)
#
#
# Indices 1 2 3 4 5 6 
#
# 1 0.021935 0.008975 0.010289 0.000000 0.022502 0.000000
# 2 0.008975 0.021232 0.014766 0.000000 0.021298 0.000000
# 3 0.010289 0.014766 0.042826 0.000000 0.039038 0.000000
# 4 0.000000 0.000000 0.000000 -0.069101 0.000000 -0.018218
# 5 0.022502 0.021298 0.039038 0.000000 0.065647 0.000000
# 6 0.000000 0.000000 0.000000 -0.018218 0.000000 0.037322
#
#
# Mechanical properties :
#
#
# Convention : Reuss Voigt Hill
#
# Bulk Modulus (GPa) = 6.49131 20.72426 13.60779
# Shear Modulus (GPa) = 48.47240 26.03820 37.25530
#
# Velocity S-wave (km/s) = 4.77159 3.49721 4.18322
# Velocity P-wave (km/s) = 5.77984 5.10311 5.45198
#
# Compressibility (1/GPa) = 0.15405202
#
# Stress axis : x y z
#
# Youngs Moduli (GPa) = 45.58946 47.09922 23.35041
#
# Poissons Ratio (x) = -0.42271 -0.24026
# Poissons Ratio (y) = -0.40916 -0.34479
# Poissons Ratio (z) = -0.46908 -0.69546
#
# Static dielectric constant tensor:
#      x y z
#    x 1.854470 0.000000 0.000610 
#    y 0.000000 1.732980 0.000000 
#    z 0.000610 0.000000 1.855540 
# 
# From -- ./inp_files/196064.got.cif
#   From: 2010.05.17/outbox.cif.g08.bks.cpg/sg12_99_cif.got.tgz:196064.got - 2010.06.03 13:09:07.
