data_PCOD9220063
_publ_section_title
;
Structure prediction by ZEFSAII (Michael W. Deem and Ramdas Pophale) SiO2 
 PCOD9220063
Probable space group: C 2/M
;
_chemical_formula_sum "Si O2"
_cell_formula_units_Z 48
_cell_length_a 10.447324
_cell_length_b 30.517328
_cell_length_c 10.257379
_cell_angle_alpha 90.000000
_cell_angle_beta 60.873474
_cell_angle_gamma 90.000000
_cell_volume 2856.763146
_symmetry_space_group_name_H-M "C 2/M"
_symmetry_group_IT_number 12
_symmetry_cell_setting 'monoclinic'
loop_
_space_group_symop_operation_xyz
x,y,z
-x,y,-z
-x,-y,-z
x,-y,z
1/2+x,1/2+y,z
1/2-x,1/2+y,-z
1/2-x,1/2-y,-z
1/2+x,1/2-y,z
loop_
_atom_site_type_symbol
_atom_site_label
_atom_site_fract_x
_atom_site_fract_y
_atom_site_fract_z
Si Si1 0.136059 0.048828 0.030177
Si Si2 0.174469 0.633430 0.063893
Si Si3 0.327640 0.865732 0.239066
Si Si4 0.833586 0.271173 0.337369
Si Si5 0.862610 0.049151 0.664281
Si Si6 0.187789 0.273112 0.160018
O O1 0.243486 0.088627 0.946367
O O2 0.202220 0.000000 0.982783
O O3 0.093526 0.052920 0.204433
O O4 0.000000 0.051385 0.000000
O O5 0.216406 0.674999 0.129919
O O6 0.001042 0.626626 0.161768
O O7 0.204922 0.644900 0.896876
O O8 0.294956 0.822721 0.340004
O O9 0.243242 0.910270 0.313404
O O10 0.750000 0.250000 0.500000
O O11 0.772714 0.246956 0.239711
O O12 0.010865 0.267199 0.257899
O O13 0.000000 0.051685 0.500000
O O14 0.797151 0.000000 0.681754
O O15 0.250000 0.250000 0.000000
#
# Coordination Sequence:
#
# PCOD9220063 Si02
#       6
#     8   8   8   8   8   8
#     4   9  18  33  53  79 108 134 170 221 266 309
#     4   9  18  34  55  77 103 137 179 218 262 317
#     4   9  18  35  54  76 106 137 174 223 264 310
#     4  11  23  38  56  81 113 144 182 232 278 320
#     4   9  18  33  54  78 105 138 174 213 263 320
#     4  11  21  38  58  79 107 147 187 223 270 331
#
# _framework density 16.802232
#
# number of rings (size 3 to 8) (size 9 to 14) (size 15 to 20)
#    0.000    2.333    1.667    1.000    0.000    3.333 
#    3.000    3.333    0.000    0.000    0.000    4.667 
#    0.000    0.000    0.000    0.000    0.000    0.000 
#
# Total GULP energy -133753.270534 kJ/mol
# GULP energy per Si atom -5573.052939 kJ/mol
# Density = 1.676399 g / cm^3
# Si number density = 16.802232 Si / 1000 Ang^3
#
#
#
# Elastic Constant Matrix: (Units=GPa)
#
#
# Indices 1 2 3 4 5 6 
#
# 1 33.5896 47.7730 16.6739 0.0000 3.3969 0.0000
# 2 47.7730 158.1251 59.7578 0.0000 -8.3490 0.0000
# 3 16.6739 59.7578 81.2502 0.0000 -5.9899 0.0000
# 4 0.0000 0.0000 0.0000 27.9612 0.0000 -4.1867
# 5 3.3969 -8.3490 -5.9899 0.0000 17.9362 0.0000
# 6 0.0000 0.0000 0.0000 -4.1867 0.0000 34.3446
#
#
#
# Elastic Compliance Matrix: (Units=1/GPa)
#
#
# Indices 1 2 3 4 5 6 
#
# 1 0.058307 -0.018813 0.000422 0.000000 -0.019659 0.000000
# 2 -0.018813 0.014897 -0.006482 0.000000 0.008333 0.000000
# 3 0.000422 -0.006482 0.017183 0.000000 0.002641 0.000000
# 4 0.000000 0.000000 0.000000 0.036429 0.000000 0.004441
# 5 -0.019659 0.008333 0.002641 0.000000 0.064237 0.000000
# 6 0.000000 0.000000 0.000000 0.004441 0.000000 0.029658
#
#
# Mechanical properties :
#
#
# Convention : Reuss Voigt Hill
#
# Bulk Modulus (GPa) = 24.60548 57.93048 41.26798
# Shear Modulus (GPa) = 17.60535 25.96576 21.78555
#
# Velocity S-wave (km/s) = 3.24048 3.93539 3.60472
# Velocity P-wave (km/s) = 5.35508 7.42983 6.47609
#
# Compressibility (1/GPa) = 0.04064136
#
# Stress axis : x y z
#
# Youngs Moduli (GPa) = 17.15061 67.12542 58.19721
#
# Poissons Ratio (x) = 1.26284 -0.02455
# Poissons Ratio (y) = 0.32266 0.37722
# Poissons Ratio (z) = -0.00724 0.43509
#
# Static dielectric constant tensor:
#      x y z
#    x 1.542470 0.000000 0.010050 
#    y 0.000000 1.580050 0.000000 
#    z 0.010050 0.000000 1.562110 
# 
# From -- ./inp_files/52463.got.cif
#   From: 2010.05.17/outbox.cif.g08.bks.cpg/sg12_27_cif.got.tgz:52463.got - 2010.06.03 13:09:07.
