data_PCOD9220227
_publ_section_title
;
Structure prediction by ZEFSAII (Michael W. Deem and Ramdas Pophale) SiO2 
 PCOD9220227
Probable space group: C 2/M
;
_chemical_formula_sum "Si O2"
_cell_formula_units_Z 58
_cell_length_a 20.048907
_cell_length_b 16.579608
_cell_length_c 24.989031
_cell_angle_alpha 90.000000
_cell_angle_beta 21.362903
_cell_angle_gamma 90.000000
_cell_volume 3025.815263
_symmetry_space_group_name_H-M "C 2/M"
_symmetry_group_IT_number 12
_symmetry_cell_setting 'monoclinic'
loop_
_space_group_symop_operation_xyz
x,y,z
-x,y,-z
-x,-y,-z
x,-y,z
1/2+x,1/2+y,z
1/2-x,1/2+y,-z
1/2-x,1/2-y,-z
1/2+x,1/2-y,z
loop_
_atom_site_type_symbol
_atom_site_label
_atom_site_fract_x
_atom_site_fract_y
_atom_site_fract_z
Si Si1 0.075450 0.904330 0.003387
Si Si2 0.805934 0.867162 0.301772
Si Si3 0.500000 0.000000 0.500000
Si Si4 0.444505 0.165065 0.766662
Si Si5 0.547415 0.904412 0.119718
Si Si6 0.059459 0.143550 0.214012
Si Si7 0.819437 0.816915 0.600454
Si Si8 0.816682 0.093481 0.490142
O O1 0.932644 0.872478 0.154088
O O2 0.102955 0.000000 0.992991
O O3 0.266760 0.858569 0.866351
O O4 0.000000 0.895341 0.000000
O O5 0.642496 0.929993 0.416077
O O6 0.726197 0.777553 0.368616
O O7 0.938965 0.883495 0.252911
O O8 0.425301 0.122951 0.839026
O O9 0.459245 0.260127 0.765131
O O10 0.631148 0.129665 0.602846
O O11 0.361090 0.860649 0.241072
O O12 0.527304 0.000000 0.131822
O O13 0.729204 0.877185 0.953379
O O14 0.978599 0.103003 0.327204
O O15 0.847008 0.854905 0.521022
O O16 0.000000 0.830400 0.500000
O O17 0.787765 0.000000 0.525613
#
# Coordination Sequence:
#
# PCOD9220227 Si02
#       8
#     8   8   2   8   8   8   8   8
#     4  11  24  40  62  95 139 181 226 280 342 412
#     4  12  24  44  66  97 136 186 225 266 337 411
#     4  12  28  40  66 104 146 180 222 262 348 420
#     4  11  21  40  66  92 131 178 235 279 336 400
#     4  11  22  39  68  99 126 176 230 280 336 397
#     4  12  24  42  69  98 137 177 225 288 334 397
#     4  11  24  45  71  93 135 175 225 281 342 414
#     4  11  25  42  65 103 130 171 231 287 342 398
#
# _framework density 19.168389000000001
#
# number of rings (size 3 to 8) (size 9 to 14) (size 15 to 20)
#    0.000    0.690    5.517    4.552    1.931    3.310 
#    0.000    0.690    0.000    1.655    0.000    0.000 
#    0.000    0.000    0.000    0.000    0.000    0.000 
#
# Total GULP energy -161909.372821 kJ/mol
# GULP energy per Si atom -5583.081821 kJ/mol
# Density = 1.912476 g / cm^3
# Si number density = 19.168389 Si / 1000 Ang^3
#
#
#
# Elastic Constant Matrix: (Units=GPa)
#
#
# Indices 1 2 3 4 5 6 
#
# 1 75.0586 31.2231 44.1164 -0.0083 -16.9305 0.0094
# 2 31.2231 131.7266 31.4743 0.1011 -12.4920 0.0686
# 3 44.1164 31.4743 119.2928 0.0499 -13.6642 0.0547
# 4 -0.0083 0.1011 0.0499 17.4607 0.0142 -25.9632
# 5 -16.9305 -12.4920 -13.6642 0.0142 41.8059 0.0026
# 6 0.0094 0.0686 0.0547 -25.9632 0.0026 11.6418
#
#
#
# Elastic Compliance Matrix: (Units=1/GPa)
#
#
# Indices 1 2 3 4 5 6 
#
# 1 0.018914 -0.002641 -0.005725 -0.000033 0.004999 -0.000047
# 2 -0.002641 0.008602 -0.001165 0.000049 0.001120 0.000066
# 3 -0.005725 -0.001165 0.010910 0.000038 0.000899 0.000044
# 4 -0.000033 0.000049 0.000038 -0.024727 0.000025 -0.055145
# 5 0.004999 0.001120 0.000899 0.000025 0.026573 0.000036
# 6 -0.000047 0.000066 0.000044 -0.055145 0.000036 -0.037086
#
#
# Mechanical properties :
#
#
# Convention : Reuss Voigt Hill
#
# Bulk Modulus (GPa) = 51.64065 59.96729 55.80397
# Shear Modulus (GPa) = 174.18702 28.79929 101.49316
#
# Velocity S-wave (km/s) = 9.54302 3.88033 7.28445
# Velocity P-wave (km/s) = 12.18297 7.17136 9.99633
#
# Compressibility (1/GPa) = 0.01936459
#
# Stress axis : x y z
#
# Youngs Moduli (GPa) = 52.86981 116.25324 91.65653
#
# Poissons Ratio (x) = 0.30704 0.52476
# Poissons Ratio (y) = 0.13964 0.10674
# Poissons Ratio (z) = 0.30270 0.13538
#
# Static dielectric constant tensor:
#      x y z
#    x 1.640670 0.000000 0.001570 
#    y 0.000000 1.653300 0.000010 
#    z 0.001570 0.000010 1.678240 
# 
# From -- ./inp_files/366538.got.cif
#   From: 2010.05.17/outbox.cif.g08.bks.cpg/sg12_184_cif.got.tgz:366538.got - 2010.06.03 13:09:07.
