data_PCOD9220974
_publ_section_title
;
Structure prediction by ZEFSAII (Michael W. Deem and Ramdas Pophale) SiO2 
 PCOD9220974
Probable space group: C 2/M
;
_chemical_formula_sum "Si O2"
_cell_formula_units_Z 48
_cell_length_a 17.127770
_cell_length_b 19.143408
_cell_length_c 20.869427
_cell_angle_alpha 90.000000
_cell_angle_beta 20.339506
_cell_angle_gamma 90.000000
_cell_volume 2378.418074
_symmetry_space_group_name_H-M "C 2/M"
_symmetry_group_IT_number 12
_symmetry_cell_setting 'monoclinic'
loop_
_space_group_symop_operation_xyz
x,y,z
-x,y,-z
-x,-y,-z
x,-y,z
1/2+x,1/2+y,z
1/2-x,1/2+y,-z
1/2-x,1/2-y,-z
1/2+x,1/2-y,z
loop_
_atom_site_type_symbol
_atom_site_label
_atom_site_fract_x
_atom_site_fract_y
_atom_site_fract_z
Si Si1 0.671989 0.580467 0.489290
Si Si2 0.057917 0.670029 0.139076
Si Si3 0.732982 0.321649 0.796788
Si Si4 0.352259 0.079642 0.494102
Si Si5 0.528793 0.676204 0.816949
Si Si6 0.225192 0.331884 0.863253
O O1 0.631192 0.500000 0.502070
O O2 0.798021 0.580820 0.460745
O O3 0.440112 0.622259 0.678535
O O4 0.847054 0.619164 0.307907
O O5 0.975702 0.749066 0.215095
O O6 0.265758 0.657074 0.027623
O O7 0.165982 0.667226 0.984500
O O8 0.677810 0.309619 0.764818
O O9 0.764057 0.247830 0.809217
O O10 0.938586 0.372025 0.649855
O O11 0.500000 0.354683 0.000000
O O12 0.141340 0.114352 0.691493
O O13 0.387831 0.000000 0.487213
O O14 0.000000 0.356163 0.000000
#
# Coordination Sequence:
#
# PCOD9220974 Si02
#       6
#     8   8   8   8   8   8
#     4  11  26  44  65  97 134 174 218 263 325 398
#     4  11  23  42  72  98 126 173 220 270 325 381
#     4  11  22  40  65  98 130 165 220 271 318 383
#     4  11  25  42  63  95 137 179 213 261 326 392
#     4  11  22  40  69  99 126 169 221 266 321 385
#     4  11  23  45  71  96 129 167 218 279 329 375
#
# _framework density 20.181481999999999
#
# number of rings (size 3 to 8) (size 9 to 14) (size 15 to 20)
#    0.000    1.000    5.000    2.500    2.333    5.333 
#    0.000    0.833    0.000    0.000    0.000    0.000 
#    0.000    0.000    0.000    0.000    0.000    0.000 
#
# Total GULP energy -134081.123299 kJ/mol
# GULP energy per Si atom -5586.713471 kJ/mol
# Density = 2.013555 g / cm^3
# Si number density = 20.181482 Si / 1000 Ang^3
#
#
#
# Elastic Constant Matrix: (Units=GPa)
#
#
# Indices 1 2 3 4 5 6 
#
# 1 78.8907 42.4754 39.0741 0.0740 -12.4774 -0.0740
# 2 42.4754 124.9072 93.1992 0.3204 -13.6810 -0.1784
# 3 39.0741 93.1992 123.1124 0.1669 -20.5106 -0.0664
# 4 0.0740 0.3204 0.1669 -32.6524 -0.1681 24.8015
# 5 -12.4774 -13.6810 -20.5106 -0.1681 42.2292 0.0862
# 6 -0.0740 -0.1784 -0.0664 24.8015 0.0862 3.9284
#
#
#
# Elastic Compliance Matrix: (Units=1/GPa)
#
#
# Indices 1 2 3 4 5 6 
#
# 1 0.016033 -0.003894 -0.001699 0.000001 0.002650 0.000033
# 2 -0.003894 0.019373 -0.013684 0.000100 -0.001520 -0.000025
# 3 -0.001699 -0.013684 0.019801 -0.000066 0.004682 -0.000006
# 4 0.000001 0.000100 -0.000066 -0.005284 -0.000088 0.033363
# 5 0.002650 -0.001520 0.004682 -0.000088 0.026245 0.000042
# 6 0.000033 -0.000025 -0.000006 0.033363 0.000042 0.043924
#
#
# Mechanical properties :
#
#
# Convention : Reuss Voigt Hill
#
# Bulk Modulus (GPa) = 60.04653 75.15643 67.60148
# Shear Modulus (GPa) = 30.45123 12.84515 21.64819
#
# Velocity S-wave (km/s) = 3.88863 2.52560 3.27873
# Velocity P-wave (km/s) = 7.06964 6.76949 6.92119
#
# Compressibility (1/GPa) = 0.01665375
#
# Stress axis : x y z
#
# Youngs Moduli (GPa) = 62.37079 51.61755 50.50277
#
# Poissons Ratio (x) = 0.20099 0.08582
# Poissons Ratio (y) = 0.24286 0.69106
# Poissons Ratio (z) = 0.10599 0.70631
#
# Static dielectric constant tensor:
#      x y z
#    x 1.773690 -0.000020 0.023040 
#    y -0.000020 1.683760 0.000070 
#    z 0.023040 0.000070 1.732230 
# 
# From -- ./inp_files/285435.got.cif
#   From: 2010.05.17/outbox.cif.g08.bks.cpg/sg12_143_cif.got.tgz:285435.got - 2010.06.03 13:09:07.
