data_PCOD9220951
_publ_section_title
;
Structure prediction by ZEFSAII (Michael W. Deem and Ramdas Pophale) SiO2 
 PCOD9220951
Probable space group: C 2/M
;
_chemical_formula_sum "Si O2"
_cell_formula_units_Z 64
_cell_length_a 33.128549
_cell_length_b 21.878233
_cell_length_c 15.796870
_cell_angle_alpha 90.000000
_cell_angle_beta 162.711754
_cell_angle_gamma 90.000000
_cell_volume 3402.544568
_symmetry_space_group_name_H-M "C 2/M"
_symmetry_group_IT_number 12
_symmetry_cell_setting 'monoclinic'
loop_
_space_group_symop_operation_xyz
x,y,z
-x,y,-z
-x,-y,-z
x,-y,z
1/2+x,1/2+y,z
1/2-x,1/2+y,-z
1/2-x,1/2-y,-z
1/2+x,1/2-y,z
loop_
_atom_site_type_symbol
_atom_site_label
_atom_site_fract_x
_atom_site_fract_y
_atom_site_fract_z
Si Si1 0.499374 0.570374 0.897616
Si Si2 0.845363 0.693167 0.701166
Si Si3 0.459705 0.933131 0.155308
Si Si4 0.275296 0.122261 0.392054
Si Si5 0.772284 0.847028 0.359590
Si Si6 0.794571 0.272681 0.291426
Si Si7 0.589586 0.067361 0.762204
Si Si8 0.433758 0.207528 0.275204
O O1 0.454939 0.500000 0.800039
O O2 0.400013 0.616738 0.651378
O O3 0.500000 0.584179 0.000000
O O4 0.645664 0.579726 0.147372
O O5 0.750000 0.750000 0.500000
O O6 0.804553 0.649429 0.543207
O O7 0.818799 0.668700 0.741174
O O8 0.000000 0.711465 0.000000
O O9 0.586490 0.910749 0.356787
O O10 0.502531 0.935371 0.338703
O O11 0.418279 0.000000 0.042062
O O12 0.327258 0.891106 0.890987
O O13 0.252117 0.173967 0.272995
O O14 0.811775 0.787721 0.384673
O O15 0.936464 0.290978 0.529647
O O16 0.679151 0.253483 0.991061
O O17 0.500000 0.064144 0.500000
O O18 0.635332 0.139404 0.853827
O O19 0.667603 0.000000 0.922013
O O20 0.500000 0.223098 0.500000
#
# Coordination Sequence:
#
# PCOD9220951 Si02
#       8
#     8   8   8   8   8   8   8   8
#     4  11  25  41  58  82 118 168 205 242 303 363
#     4  12  26  38  59  88 124 162 201 251 306 358
#     4  11  22  40  64  88 116 156 203 259 305 349
#     4  12  23  41  60  88 122 153 208 252 299 353
#     4  12  23  41  60  88 122 153 208 252 299 353
#     4  12  23  39  62  92 118 156 196 243 299 356
#     4   9  18  35  61  90 117 149 193 242 295 357
#     4  11  23  41  62  90 124 155 190 239 302 366
#
# _framework density 18.809452
#
# number of rings (size 3 to 8) (size 9 to 14) (size 15 to 20)
#    0.000    0.750    6.250    1.875    1.750    0.000 
#    0.000    0.625    0.000    0.000    0.000    0.000 
#    0.000   14.000    0.000    0.000    0.000    0.000 
#
# Total GULP energy -178263.291198 kJ/mol
# GULP energy per Si atom -5570.727850 kJ/mol
# Density = 1.876664 g / cm^3
# Si number density = 18.809452 Si / 1000 Ang^3
#
#
#
# Elastic Constant Matrix: (Units=GPa)
#
#
# Indices 1 2 3 4 5 6 
#
# 1 77.0506 15.3879 1.1062 0.0000 -16.8826 0.0000
# 2 15.3879 72.9551 8.2855 0.0000 -10.8134 0.0000
# 3 1.1062 8.2855 52.3751 0.0000 -4.4996 0.0000
# 4 0.0000 0.0000 0.0000 120.9765 0.0000 4.9043
# 5 -16.8826 -10.8134 -4.4996 0.0000 26.8724 0.0000
# 6 0.0000 0.0000 0.0000 4.9043 0.0000 19.4136
#
#
#
# Elastic Compliance Matrix: (Units=1/GPa)
#
#
# Indices 1 2 3 4 5 6 
#
# 1 0.015328 -0.001992 0.000761 0.000000 0.008955 0.000000
# 2 -0.001992 0.015010 -0.001949 0.000000 0.004462 0.000000
# 3 0.000761 -0.001949 0.019642 0.000000 0.002982 0.000000
# 4 0.000000 0.000000 0.000000 0.008352 0.000000 -0.002110
# 5 0.008955 0.004462 0.002982 0.000000 0.045134 0.000000
# 6 0.000000 0.000000 0.000000 -0.002110 0.000000 0.052043
#
#
# Mechanical properties :
#
#
# Convention : Reuss Voigt Hill
#
# Bulk Modulus (GPa) = 22.92607 27.99333 25.45970
# Shear Modulus (GPa) = 28.34336 45.29257 36.81797
#
# Velocity S-wave (km/s) = 3.88605 4.91243 4.42907
# Velocity P-wave (km/s) = 5.68773 6.86228 6.30242
#
# Compressibility (1/GPa) = 0.04361846
#
# Stress axis : x y z
#
# Youngs Moduli (GPa) = 65.24172 66.62244 50.91255
#
# Poissons Ratio (x) = 0.13271 -0.03873
# Poissons Ratio (y) = 0.12996 0.09923
# Poissons Ratio (z) = -0.04963 0.12985
#
# Static dielectric constant tensor:
#      x y z
#    x 1.604070 0.000000 0.031040 
#    y 0.000000 1.709570 0.000000 
#    z 0.031040 0.000000 1.471620 
# 
# From -- ./inp_files/251908.got.cif
#   From: 2010.05.17/outbox.cif.g08.bks.cpg/sg12_126_cif.got.tgz:251908.got - 2010.06.03 13:09:07.
