data_PCOD9220162
_publ_section_title
;
Structure prediction by ZEFSAII (Michael W. Deem and Ramdas Pophale) SiO2 
 PCOD9220162
Probable space group: C 2/M
;
_chemical_formula_sum "Si O2"
_cell_formula_units_Z 36
_cell_length_a 14.849269
_cell_length_b 17.671645
_cell_length_c 13.925831
_cell_angle_alpha 90.000000
_cell_angle_beta 150.509424
_cell_angle_gamma 90.000000
_cell_volume 1798.936014
_symmetry_space_group_name_H-M "C 2/M"
_symmetry_group_IT_number 12
_symmetry_cell_setting 'monoclinic'
loop_
_space_group_symop_operation_xyz
x,y,z
-x,y,-z
-x,-y,-z
x,-y,z
1/2+x,1/2+y,z
1/2-x,1/2+y,-z
1/2-x,1/2-y,-z
1/2+x,1/2-y,z
loop_
_atom_site_type_symbol
_atom_site_label
_atom_site_fract_x
_atom_site_fract_y
_atom_site_fract_z
Si Si1 0.949599 0.121291 0.563663
Si Si2 0.167251 0.413686 0.010869
Si Si3 0.139533 0.416362 0.411785
Si Si4 0.838453 0.711682 0.418406
Si Si5 0.000000 0.709551 0.000000
O O1 0.762257 0.087264 0.429159
O O2 0.923362 0.211604 0.541908
O O3 0.000000 0.101376 0.500000
O O4 0.115096 0.095024 0.784024
O O5 0.123944 0.500000 0.002876
O O6 0.092191 0.347415 0.009324
O O7 0.067641 0.404116 0.816462
O O8 0.157608 0.500000 0.470947
O O9 0.203027 0.350461 0.540563
O O10 0.658905 0.740046 0.195287
O O11 0.000000 0.681282 0.500000
#
# Coordination Sequence:
#
# PCOD9220162 Si02
#       5
#     8   8   8   8   4
#     4  11  21  39  64  95 126 159 200 254 312 369
#     4  11  22  36  61  95 127 158 198 252 318 373
#     4  11  25  42  63  92 128 164 203 256 310 363
#     4  11  24  43  63  91 123 168 212 251 301 361
#     4  12  21  40  63  94 122 166 206 252 305 368
#
# _framework density 20.011828999999999
#
# number of rings (size 3 to 8) (size 9 to 14) (size 15 to 20)
#    0.000    0.889    6.667    1.667    0.000    6.667 
#    0.000    0.556    0.000    0.000    0.000    0.000 
#    0.000    0.000    0.000    0.000    0.000    0.000 
#
# Total GULP energy -100540.288118 kJ/mol
# GULP energy per Si atom -5585.571562 kJ/mol
# Density = 1.996628 g / cm^3
# Si number density = 20.011829 Si / 1000 Ang^3
#
#
#
# Elastic Constant Matrix: (Units=GPa)
#
#
# Indices 1 2 3 4 5 6 
#
# 1 46.2457 38.4438 22.7255 0.0000 -2.0554 0.0000
# 2 38.4438 107.2862 54.7127 0.0000 -24.9150 0.0000
# 3 22.7255 54.7127 141.0666 0.0000 -0.5577 0.0000
# 4 0.0000 0.0000 0.0000 79.2827 0.0000 -16.7023
# 5 -2.0554 -24.9150 -0.5577 0.0000 20.4295 0.0000
# 6 0.0000 0.0000 0.0000 -16.7023 0.0000 3.2935
#
#
#
# Elastic Compliance Matrix: (Units=1/GPa)
#
#
# Indices 1 2 3 4 5 6 
#
# 1 0.034270 -0.016618 0.000858 0.000000 -0.016795 -0.000001
# 2 -0.016618 0.025851 -0.007232 0.000000 0.029657 0.000000
# 3 0.000858 -0.007232 0.009722 0.000000 -0.008468 0.000000
# 4 0.000000 0.000000 0.000000 -0.184524 0.000000 -0.935769
# 5 -0.016795 0.029657 -0.008468 0.000000 0.083197 -0.000002
# 6 -0.000001 0.000000 0.000000 -0.935769 -0.000002 -4.441907
#
#
# Mechanical properties :
#
#
# Convention : Reuss Voigt Hill
#
# Bulk Modulus (GPa) = 41.91226 58.48474 50.19850
# Shear Modulus (GPa) = -1.13136 32.51557 15.69211
#
# Velocity S-wave (km/s) = -0.75271 4.03528 2.80329
# Velocity P-wave (km/s) = 4.49820 7.14141 5.96798
#
# Compressibility (1/GPa) = 0.02385937
#
# Stress axis : x y z
#
# Youngs Moduli (GPa) = 29.18025 38.68339 102.85896
#
# Poissons Ratio (x) = 0.64283 -0.08825
# Poissons Ratio (y) = 0.48491 0.74387
# Poissons Ratio (z) = -0.02504 0.27976
#
# Static dielectric constant tensor:
#      x y z
#    x 1.727180 0.000000 0.000130 
#    y 0.000000 1.687370 0.000000 
#    z 0.000130 0.000000 1.712500 
# 
# From -- ./inp_files/216568.got.cif
#   From: 2010.05.17/outbox.cif.g08.bks.cpg/sg12_109_cif.got.tgz:216568.got - 2010.06.03 13:09:07.
