data_PCOD9220771
_publ_section_title
;
Structure prediction by ZEFSAII (Michael W. Deem and Ramdas Pophale) SiO2 
 PCOD9220771
Probable space group: C 2/M
;
_chemical_formula_sum "Si O2"
_cell_formula_units_Z 56
_cell_length_a 30.461763
_cell_length_b 16.957870
_cell_length_c 10.115927
_cell_angle_alpha 90.000000
_cell_angle_beta 34.281147
_cell_angle_gamma 90.000000
_cell_volume 2943.313056
_symmetry_space_group_name_H-M "C 2/M"
_symmetry_group_IT_number 12
_symmetry_cell_setting 'monoclinic'
loop_
_space_group_symop_operation_xyz
x,y,z
-x,y,-z
-x,-y,-z
x,-y,z
1/2+x,1/2+y,z
1/2-x,1/2+y,-z
1/2-x,1/2-y,-z
1/2+x,1/2-y,z
loop_
_atom_site_type_symbol
_atom_site_label
_atom_site_fract_x
_atom_site_fract_y
_atom_site_fract_z
Si Si1 0.222692 0.408137 0.857748
Si Si2 0.132981 0.176670 0.914404
Si Si3 0.007411 0.090074 0.637714
Si Si4 0.094179 0.296554 0.249096
Si Si5 0.091923 0.291000 0.779325
Si Si6 0.640509 0.706489 0.394249
Si Si7 0.283164 0.092196 0.444264
O O1 0.236177 0.500000 0.858311
O O2 0.283809 0.348024 0.773044
O O3 0.231003 0.399999 0.678073
O O4 0.136386 0.379030 0.112605
O O5 0.109553 0.221814 0.839932
O O6 0.219165 0.143626 0.681170
O O7 0.117650 0.238536 0.070298
O O8 0.075554 0.104594 0.088615
O O9 0.068108 0.146771 0.557561
O O10 0.000000 0.109744 0.500000
O O11 0.032637 0.000000 0.584734
O O12 0.134249 0.259333 0.278988
O O13 0.000000 0.300776 0.500000
O O14 0.126429 0.262108 0.554552
O O15 0.134702 0.368997 0.724179
O O16 0.000000 0.302398 0.000000
O O17 0.278594 0.000000 0.489239
#
# Coordination Sequence:
#
# PCOD9220771 Si02
#       7
#     8   8   8   8   8   8   8
#     4  11  25  43  65  94 132 171 211 266 319 374
#     4  12  20  43  65  96 126 168 216 252 318 389
#     4  11  22  38  63  96 135 170 203 259 327 384
#     4  12  23  43  70  94 127 171 219 258 315 383
#     4  12  23  40  69  94 125 169 218 262 313 380
#     4  12  22  42  62 100 128 161 215 265 316 378
#     4  11  25  43  65  95 131 170 212 265 322 375
#
# _framework density 19.026178999999999
#
# number of rings (size 3 to 8) (size 9 to 14) (size 15 to 20)
#    0.000    0.429    7.143    2.571    0.000    0.571 
#    0.000    2.857    0.000    0.000    0.000    0.000 
#    0.000    0.000    0.000    0.000    0.000    0.000 
#
# Total GULP energy -156486.192297 kJ/mol
# GULP energy per Si atom -5588.792582 kJ/mol
# Density = 1.898287 g / cm^3
# Si number density = 19.026179 Si / 1000 Ang^3
#
#
#
# Elastic Constant Matrix: (Units=GPa)
#
#
# Indices 1 2 3 4 5 6 
#
# 1 85.0251 30.4276 30.0682 0.0000 -1.6579 0.0000
# 2 30.4276 48.0620 38.7616 0.0000 -18.3333 0.0000
# 3 30.0682 38.7616 86.2327 0.0000 -18.3175 0.0000
# 4 0.0000 0.0000 0.0000 22.8734 0.0000 8.7014
# 5 -1.6579 -18.3333 -18.3175 0.0000 33.4617 0.0000
# 6 0.0000 0.0000 0.0000 8.7014 0.0000 12.0653
#
#
#
# Elastic Compliance Matrix: (Units=1/GPa)
#
#
# Indices 1 2 3 4 5 6 
#
# 1 0.016351 -0.011142 -0.002057 0.000000 -0.006420 0.000000
# 2 -0.011142 0.044371 -0.012462 0.000000 0.016937 0.000000
# 3 -0.002057 -0.012462 0.018607 0.000000 0.003256 0.000000
# 4 0.000000 0.000000 0.000000 0.060248 0.000000 -0.043450
# 5 -0.006420 0.016937 0.003256 0.000000 0.040629 0.000000
# 6 0.000000 0.000000 0.000000 -0.043450 0.000000 0.114218
#
#
# Mechanical properties :
#
#
# Convention : Reuss Voigt Hill
#
# Bulk Modulus (GPa) = 35.70467 46.42607 41.06537
# Shear Modulus (GPa) = 14.08128 21.68423 17.88276
#
# Velocity S-wave (km/s) = 2.72343 3.37961 3.06911
# Velocity P-wave (km/s) = 5.35689 6.29946 5.84720
#
# Compressibility (1/GPa) = 0.02800754
#
# Stress axis : x y z
#
# Youngs Moduli (GPa) = 61.15965 22.53707 53.74272
#
# Poissons Ratio (x) = 0.25110 0.11054
# Poissons Ratio (y) = 0.68142 0.66976
# Poissons Ratio (z) = 0.12580 0.28086
#
# Static dielectric constant tensor:
#      x y z
#    x 1.665310 0.000000 -0.001160 
#    y 0.000000 1.653350 0.000000 
#    z -0.001160 0.000000 1.667510 
# 
# From -- ./inp_files/105979.got.cif
#   From: 2010.05.17/outbox.cif.g08.bks.cpg/sg12_53_cif.got.tgz:105979.got - 2010.06.03 13:09:07.
