data_PCOD9220438
_publ_section_title
;
Structure prediction by ZEFSAII (Michael W. Deem and Ramdas Pophale) SiO2 
 PCOD9220438
Probable space group: C 2/M
;
_chemical_formula_sum "Si O2"
_cell_formula_units_Z 58
_cell_length_a 24.082917
_cell_length_b 7.489153
_cell_length_c 21.366192
_cell_angle_alpha 90.000000
_cell_angle_beta 39.969367
_cell_angle_gamma 90.000000
_cell_volume 2475.480713
_symmetry_space_group_name_H-M "C 2/M"
_symmetry_group_IT_number 12
_symmetry_cell_setting 'monoclinic'
loop_
_space_group_symop_operation_xyz
x,y,z
-x,y,-z
-x,-y,-z
x,-y,z
1/2+x,1/2+y,z
1/2-x,1/2+y,-z
1/2-x,1/2-y,-z
1/2+x,1/2-y,z
loop_
_atom_site_type_symbol
_atom_site_label
_atom_site_fract_x
_atom_site_fract_y
_atom_site_fract_z
Si Si1 0.258867 0.210369 0.564470
Si Si2 0.550213 0.206939 0.040029
Si Si3 0.569422 0.703762 0.514244
Si Si4 0.500000 0.500000 0.000000
Si Si5 0.409490 0.281963 0.733433
Si Si6 0.851630 0.787915 0.918420
Si Si7 0.686448 0.718256 0.302757
Si Si8 0.643522 0.207072 0.773841
O O1 0.250000 0.250000 0.500000
O O2 0.344367 0.297568 0.518600
O O3 0.177825 0.279324 0.673617
O O4 0.265981 0.000000 0.568802
O O5 0.566901 0.342051 0.969392
O O6 0.608932 0.217887 0.050875
O O7 0.453476 0.278774 0.141202
O O8 0.550861 0.000000 0.019847
O O9 0.542090 0.500000 0.525541
O O10 0.494389 0.782280 0.622624
O O11 0.605993 0.778168 0.416723
O O12 0.412857 0.500000 0.733666
O O13 0.396741 0.219467 0.815410
O O14 0.331272 0.235253 0.753731
O O15 0.864164 0.000000 0.909566
O O16 0.750000 0.750000 0.000000
O O17 0.686836 0.500000 0.306816
O O18 0.776477 0.781975 0.254684
O O19 0.635704 0.000000 0.798335
#
# Coordination Sequence:
#
# PCOD9220438 Si02
#       8
#     8   8   8   2   8   8   8   8
#     4  11  22  34  53  82 122 170 216 264 323 390
#     4  11  25  47  75 106 141 180 227 288 356 425
#     4   9  17  32  54  86 124 161 211 267 324 395
#     4  12  26  48  76 110 140 172 234 290 352 422
#     4   9  18  32  60  92 122 171 220 270 339 403
#     4  11  24  44  67  98 138 179 232 294 351 424
#     4   8  14  30  56  92 129 160 211 270 321 394
#     4   9  20  38  63  93 129 168 217 274 334 398
#
# _framework density 23.429794000000001
#
# number of rings (size 3 to 8) (size 9 to 14) (size 15 to 20)
#    0.000    2.207    0.690    3.103    2.897    2.759 
#    0.000    3.448    0.000    7.448    0.000    0.000 
#    0.000    0.000    0.000    0.000    0.000    0.000 
#
# Total GULP energy -161718.667117 kJ/mol
# GULP energy per Si atom -5576.505763 kJ/mol
# Density = 2.337647 g / cm^3
# Si number density = 23.429794 Si / 1000 Ang^3
#
#
#
# Elastic Constant Matrix: (Units=GPa)
#
#
# Indices 1 2 3 4 5 6 
#
# 1 146.9885 20.2360 53.6629 0.0108 27.4649 -0.0047
# 2 20.2360 114.1859 3.5535 0.0402 5.3784 -0.0226
# 3 53.6629 3.5535 101.8622 0.0198 -1.4695 -0.0126
# 4 0.0108 0.0402 0.0198 -30.7201 -0.0115 19.9719
# 5 27.4649 5.3784 -1.4695 -0.0115 37.3264 0.0059
# 6 -0.0047 -0.0226 -0.0126 19.9719 0.0059 -11.9125
#
#
#
# Elastic Compliance Matrix: (Units=1/GPa)
#
#
# Indices 1 2 3 4 5 6 
#
# 1 0.010466 -0.001317 -0.005579 -0.000017 -0.007731 -0.000029
# 2 -0.001317 0.008994 0.000376 -0.000006 -0.000312 -0.000027
# 3 -0.005579 0.000376 0.012809 0.000015 0.004555 0.000015
# 4 -0.000017 -0.000006 0.000015 0.361835 0.000031 0.606633
# 5 -0.007731 -0.000312 0.004555 0.000031 0.032703 0.000066
# 6 -0.000029 -0.000027 0.000015 0.606633 0.000066 0.933104
#
#
# Mechanical properties :
#
#
# Convention : Reuss Voigt Hill
#
# Bulk Modulus (GPa) = 52.00836 57.54905 54.77871
# Shear Modulus (GPa) = 3.62487 17.97771 10.80129
#
# Velocity S-wave (km/s) = 1.24518 2.77303 2.14944
# Velocity P-wave (km/s) = 4.93082 5.90496 5.43974
#
# Compressibility (1/GPa) = 0.01922768
#
# Stress axis : x y z
#
# Youngs Moduli (GPa) = 95.54807 111.18449 78.06991
#
# Poissons Ratio (x) = 0.14643 0.43557
# Poissons Ratio (y) = 0.12584 -0.02932
# Poissons Ratio (z) = 0.53308 -0.04176
#
# Static dielectric constant tensor:
#      x y z
#    x 1.916750 0.000130 0.004810 
#    y 0.000130 1.920660 0.000080 
#    z 0.004810 0.000080 1.937460 
# 
# From -- ./inp_files/324508.got.cif
#   From: 2010.05.17/outbox.cif.g08.bks.cpg/sg12_163_cif.got.tgz:324508.got - 2010.06.03 13:09:07.
