data_PCOD9220419
_publ_section_title
;
Structure prediction by ZEFSAII (Michael W. Deem and Ramdas Pophale) SiO2 
 PCOD9220419
Probable space group: C 2/M
;
_chemical_formula_sum "Si O2"
_cell_formula_units_Z 40
_cell_length_a 14.096453
_cell_length_b 24.799105
_cell_length_c 7.138102
_cell_angle_alpha 90.000000
_cell_angle_beta 84.707582
_cell_angle_gamma 90.000000
_cell_volume 2484.695719
_symmetry_space_group_name_H-M "C 2/M"
_symmetry_group_IT_number 12
_symmetry_cell_setting 'monoclinic'
loop_
_space_group_symop_operation_xyz
x,y,z
-x,y,-z
-x,-y,-z
x,-y,z
1/2+x,1/2+y,z
1/2-x,1/2+y,-z
1/2-x,1/2-y,-z
1/2+x,1/2-y,z
loop_
_atom_site_type_symbol
_atom_site_label
_atom_site_fract_x
_atom_site_fract_y
_atom_site_fract_z
Si Si1 0.253468 0.277524 0.200738
Si Si2 0.921855 0.619749 0.288203
Si Si3 0.422543 0.000000 0.295722
Si Si4 0.606685 0.763403 0.542474
Si Si5 0.856720 0.617050 0.868709
Si Si6 0.863828 0.500000 0.866087
O O1 0.354109 0.268629 0.284687
O O2 0.176798 0.251574 0.357205
O O3 0.216417 0.338080 0.182722
O O4 0.250000 0.250000 0.000000
O O5 0.895472 0.559996 0.371918
O O6 0.889755 0.672799 0.404502
O O7 0.121924 0.622960 0.912925
O O8 0.537042 0.000000 0.265639
O O9 0.391382 0.000000 0.082063
O O10 0.500000 0.750851 0.500000
O O11 0.537204 0.877717 0.241740
O O12 0.817323 0.557261 0.837986
#
# Coordination Sequence:
#
# PCOD9220419 Si02
#       6
#     8   8   4   8   8   4
#     4  11  22  34  50  72  98 135 174 207 245 294
#     4   9  15  28  48  70 102 136 163 196 241 295
#     4   7  12  22  42  71  98 130 163 188 229 298
#     4  11  22  34  49  72 101 135 170 210 247 288
#     4   9  15  28  49  71  99 134 164 200 244 294
#     4   7  12  22  43  72  96 125 165 194 234 297
#
# _framework density 16.098549999999999
#
# number of rings (size 3 to 8) (size 9 to 14) (size 15 to 20)
#    0.000    2.600    4.000    2.400    0.000    0.800 
#    0.000    1.500    0.000    0.000    0.000    0.700 
#    0.000    1.600    0.000    0.000    0.000    0.000 
#
# Total GULP energy -111416.002725 kJ/mol
# GULP energy per Si atom -5570.800136 kJ/mol
# Density = 1.606191 g / cm^3
# Si number density = 16.098550 Si / 1000 Ang^3
#
#
#
# Elastic Constant Matrix: (Units=GPa)
#
#
# Indices 1 2 3 4 5 6 
#
# 1 63.2211 43.0838 27.8060 0.0000 20.9805 0.0000
# 2 43.0838 117.2628 32.7487 0.0000 23.3563 0.0000
# 3 27.8060 32.7487 85.1703 0.0000 11.3667 0.0000
# 4 0.0000 0.0000 0.0000 22.6417 0.0000 5.1697
# 5 20.9805 23.3563 11.3667 0.0000 25.1967 0.0000
# 6 0.0000 0.0000 0.0000 5.1697 0.0000 24.9466
#
#
#
# Elastic Compliance Matrix: (Units=1/GPa)
#
#
# Indices 1 2 3 4 5 6 
#
# 1 0.026523 -0.005499 -0.004552 0.000000 -0.014934 0.000000
# 2 -0.005499 0.012320 -0.002159 0.000000 -0.005867 0.000000
# 3 -0.004552 -0.002159 0.014135 0.000000 -0.000586 0.000000
# 4 0.000000 0.000000 0.000000 0.046360 0.000000 -0.009607
# 5 -0.014934 -0.005867 -0.000586 0.000000 0.057826 0.000000
# 6 0.000000 0.000000 0.000000 -0.009607 0.000000 0.042077
#
#
# Mechanical properties :
#
#
# Convention : Reuss Voigt Hill
#
# Bulk Modulus (GPa) = 35.01491 52.54789 43.78140
# Shear Modulus (GPa) = 21.44279 25.35805 23.40042
#
# Velocity S-wave (km/s) = 3.65358 3.97315 3.81671
# Velocity P-wave (km/s) = 6.29251 7.33213 6.83213
#
# Compressibility (1/GPa) = 0.02855926
#
# Stress axis : x y z
#
# Youngs Moduli (GPa) = 37.70326 81.17006 70.74455
#
# Poissons Ratio (x) = 0.44637 0.32199
# Poissons Ratio (y) = 0.20734 0.15272
# Poissons Ratio (z) = 0.17161 0.17522
#
# Static dielectric constant tensor:
#      x y z
#    x 1.507700 0.000000 0.001220 
#    y 0.000000 1.574310 0.000000 
#    z 0.001220 0.000000 1.619190 
# 
# From -- ./inp_files/62241.got.cif
#   From: 2010.05.17/outbox.cif.g08.bks.cpg/sg12_32_cif.got.tgz:62241.got - 2010.06.03 13:09:07.
