data_PCOD9220806
_publ_section_title
;
Structure prediction by ZEFSAII (Michael W. Deem and Ramdas Pophale) SiO2 
 PCOD9220806
Probable space group: C 2/M
;
_chemical_formula_sum "Si O2"
_cell_formula_units_Z 34
_cell_length_a 15.867160
_cell_length_b 14.316403
_cell_length_c 12.088715
_cell_angle_alpha 90.000000
_cell_angle_beta 153.782692
_cell_angle_gamma 90.000000
_cell_volume 1213.154844
_symmetry_space_group_name_H-M "C 2/M"
_symmetry_group_IT_number 12
_symmetry_cell_setting 'monoclinic'
loop_
_space_group_symop_operation_xyz
x,y,z
-x,y,-z
-x,-y,-z
x,-y,z
1/2+x,1/2+y,z
1/2-x,1/2+y,-z
1/2-x,1/2-y,-z
1/2+x,1/2-y,z
loop_
_atom_site_type_symbol
_atom_site_label
_atom_site_fract_x
_atom_site_fract_y
_atom_site_fract_z
Si Si1 0.183805 0.334111 0.641674
Si Si2 0.269599 0.127923 0.672485
Si Si3 0.500000 0.500000 0.500000
Si Si4 0.087010 0.140255 0.885601
Si Si5 0.934698 0.366272 0.150402
O O1 0.272823 0.238623 0.700565
O O2 0.086124 0.387406 0.425835
O O3 0.000000 0.306988 0.500000
O O4 0.330030 0.383876 0.896748
O O5 0.152241 0.079519 0.631924
O O6 0.472994 0.103013 0.856589
O O7 0.120775 0.111148 0.395664
O O8 0.084997 0.253479 0.879776
O O9 0.232731 0.103194 0.963146
#
# Coordination Sequence:
#
# PCOD9220806 Si02
#       5
#     8   8   2   8   8
#     4   9  16  32  59  91 116 135 181 256 320 342
#     4  11  22  39  54  82 124 166 196 236 291 354
#     4  12  28  44  54  74 136 178 208 234 250 374
#     4   9  18  35  60  90 118 140 185 265 317 353
#     4   9  19  31  57  89 115 146 190 247 311 356
#
# _framework density 28.026098999999999
#
# number of rings (size 3 to 8) (size 9 to 14) (size 15 to 20)
#    0.000    2.353    1.176    4.235    0.000    3.765 
#    0.000    2.353    0.000    2.824    0.000    4.941 
#    0.000    0.000    0.000    0.000    0.000    0.000 
#
# Total GULP energy -94940.403341 kJ/mol
# GULP energy per Si atom -5584.729608 kJ/mol
# Density = 2.796231 g / cm^3
# Si number density = 28.026099 Si / 1000 Ang^3
#
#
#
# Elastic Constant Matrix: (Units=GPa)
#
#
# Indices 1 2 3 4 5 6 
#
# 1 255.7550 18.4941 82.5837 0.0000 43.7743 0.0000
# 2 18.4941 119.1586 -5.9639 0.0000 19.1377 0.0000
# 3 82.5837 -5.9639 140.4130 0.0000 11.5997 0.0000
# 4 0.0000 0.0000 0.0000 -38.8048 0.0000 38.4756
# 5 43.7743 19.1377 11.5997 0.0000 82.0894 0.0000
# 6 0.0000 0.0000 0.0000 38.4756 0.0000 -183.7454
#
#
#
# Elastic Compliance Matrix: (Units=1/GPa)
#
#
# Indices 1 2 3 4 5 6 
#
# 1 0.005295 -0.000606 -0.002953 0.000000 -0.002265 0.000000
# 2 -0.000606 0.008829 0.000885 0.000000 -0.001860 0.000000
# 3 -0.002953 0.000885 0.008887 0.000000 0.000113 0.000000
# 4 0.000000 0.000000 0.000000 -0.032522 0.000000 -0.006810
# 5 -0.002265 -0.001860 0.000113 0.000000 0.013808 0.000000
# 6 0.000000 0.000000 0.000000 -0.006810 0.000000 -0.006868
#
#
# Mechanical properties :
#
#
# Convention : Reuss Voigt Hill
#
# Bulk Modulus (GPa) = 56.61286 78.39493 67.50389
# Shear Modulus (GPa) = 577.14805 -0.07799 288.53503
#
# Velocity S-wave (km/s) = 14.36591 -0.16700 10.15755
# Velocity P-wave (km/s) = 17.18768 5.29109 12.71637
#
# Compressibility (1/GPa) = 0.01766383
#
# Stress axis : x y z
#
# Youngs Moduli (GPa) = 188.85907 113.25943 112.52586
#
# Poissons Ratio (x) = 0.06861 0.33227
# Poissons Ratio (y) = 0.11441 -0.09959
# Poissons Ratio (z) = 0.55767 -0.10024
#
# Static dielectric constant tensor:
#      x y z
#    x 2.169280 0.000000 -0.113760 
#    y 0.000000 2.191800 0.000000 
#    z -0.113760 0.000000 2.225360 
# 
# From -- ./inp_files/147849.got.cif
#   From: 2010.05.17/outbox.cif.g08.bks.cpg/sg12_74_cif.got.tgz:147849.got - 2010.06.03 13:09:07.
