data_PCOD9220755
_publ_section_title
;
Structure prediction by ZEFSAII (Michael W. Deem and Ramdas Pophale) SiO2 
 PCOD9220755
Probable space group: C 2/M
;
_chemical_formula_sum "Si O2"
_cell_formula_units_Z 48
_cell_length_a 12.051453
_cell_length_b 16.056606
_cell_length_c 26.130670
_cell_angle_alpha 90.000000
_cell_angle_beta 27.588166
_cell_angle_gamma 90.000000
_cell_volume 2341.696826
_symmetry_space_group_name_H-M "C 2/M"
_symmetry_group_IT_number 12
_symmetry_cell_setting 'monoclinic'
loop_
_space_group_symop_operation_xyz
x,y,z
-x,y,-z
-x,-y,-z
x,-y,z
1/2+x,1/2+y,z
1/2-x,1/2+y,-z
1/2-x,1/2-y,-z
1/2+x,1/2-y,z
loop_
_atom_site_type_symbol
_atom_site_label
_atom_site_fract_x
_atom_site_fract_y
_atom_site_fract_z
Si Si1 0.285352 0.092854 0.878693
Si Si2 0.548121 0.748397 0.125744
Si Si3 0.947940 0.812996 0.709811
Si Si4 0.929733 0.097089 0.443892
Si Si5 0.786529 0.096149 0.874699
Si Si6 0.134809 0.354856 0.658746
O O1 0.402177 0.169099 0.861078
O O2 0.389733 0.104372 0.779155
O O3 0.351910 0.000000 0.870249
O O4 0.000000 0.100691 0.000000
O O5 0.286815 0.760079 0.209440
O O6 0.583349 0.664236 0.143257
O O7 0.750000 0.750000 0.000000
O O8 0.861793 0.881222 0.785981
O O9 0.055806 0.851325 0.614185
O O10 0.120353 0.745151 0.665200
O O11 0.709962 0.118971 0.571145
O O12 0.162205 0.115227 0.384349
O O13 0.926461 0.000000 0.432789
O O14 0.842023 0.000000 0.863915
O O15 0.500000 0.107927 0.000000
#
# Coordination Sequence:
#
# PCOD9220755 Si02
#       6
#     8   8   8   8   8   8
#     4  11  22  38  62  92 127 164 205 257 318 378
#     4  12  23  39  62  89 130 166 209 255 318 377
#     4  12  22  39  65  91 125 165 214 258 312 381
#     4  11  23  41  66  93 123 164 216 263 310 374
#     4  11  23  40  60  88 126 169 213 257 307 373
#     4  11  22  40  63  92 128 162 207 263 316 368
#
# _framework density 20.497957
#
# number of rings (size 3 to 8) (size 9 to 14) (size 15 to 20)
#    0.000    0.667    5.000    4.500    0.000    1.333 
#    0.000    2.500    0.000    0.000    0.000    9.333 
#    0.000    0.000    0.000    0.000    0.000    0.000 
#
# Total GULP energy -134176.172750 kJ/mol
# GULP energy per Si atom -5590.673865 kJ/mol
# Density = 2.045130 g / cm^3
# Si number density = 20.497957 Si / 1000 Ang^3
#
#
#
# Elastic Constant Matrix: (Units=GPa)
#
#
# Indices 1 2 3 4 5 6 
#
# 1 40.0673 26.4679 21.0478 0.0570 21.6662 0.0018
# 2 26.4679 138.6177 20.1085 0.0236 4.3941 0.0076
# 3 21.0478 20.1085 128.6343 0.2210 34.4026 -0.0576
# 4 0.0570 0.0236 0.2210 28.0159 -0.0519 6.8321
# 5 21.6662 4.3941 34.4026 -0.0519 32.8951 0.0098
# 6 0.0018 0.0076 -0.0576 6.8321 0.0098 10.3257
#
#
#
# Elastic Compliance Matrix: (Units=1/GPa)
#
#
# Indices 1 2 3 4 5 6 
#
# 1 0.046359 -0.008162 0.002173 -0.000207 -0.031717 0.000177
# 2 -0.008162 0.008821 -0.001619 0.000045 0.005891 -0.000049
# 3 0.002173 -0.001619 0.011102 -0.000158 -0.012827 0.000180
# 4 -0.000207 0.000045 -0.000158 0.042565 0.000371 -0.028164
# 5 -0.031717 0.005891 -0.012827 0.000371 0.063918 -0.000376
# 6 0.000177 -0.000049 0.000180 -0.028164 -0.000376 0.115482
#
#
# Mechanical properties :
#
#
# Convention : Reuss Voigt Hill
#
# Bulk Modulus (GPa) = 19.58194 49.17420 34.37807
# Shear Modulus (GPa) = 15.60140 30.22703 22.91421
#
# Velocity S-wave (km/s) = 2.76183 3.84427 3.34710
# Velocity P-wave (km/s) = 4.44344 6.61410 5.63429
#
# Compressibility (1/GPa) = 0.05106746
#
# Stress axis : x y z
#
# Youngs Moduli (GPa) = 21.57073 113.37074 90.07261
#
# Poissons Ratio (x) = 0.92530 -0.19577
# Poissons Ratio (y) = 0.17605 0.14582
# Poissons Ratio (z) = -0.04688 0.18354
#
# Static dielectric constant tensor:
#      x y z
#    x 1.640330 0.000100 0.023010 
#    y 0.000100 1.731630 -0.000030 
#    z 0.023010 -0.000030 1.774150 
# 
# From -- ./inp_files/183870.got.cif
#   From: 2010.05.17/outbox.cif.g08.bks.cpg/sg12_92_cif.got.tgz:183870.got - 2010.06.03 13:09:07.
