data_PCOD9220365
_publ_section_title
;
Structure prediction by ZEFSAII (Michael W. Deem and Ramdas Pophale) SiO2 
 PCOD9220365
Probable space group: C 2/M
;
_chemical_formula_sum "Si O2"
_cell_formula_units_Z 56
_cell_length_a 18.595288
_cell_length_b 17.453976
_cell_length_c 13.968145
_cell_angle_alpha 90.000000
_cell_angle_beta 144.812738
_cell_angle_gamma 90.000000
_cell_volume 2612.446676
_symmetry_space_group_name_H-M "C 2/M"
_symmetry_group_IT_number 12
_symmetry_cell_setting 'monoclinic'
loop_
_space_group_symop_operation_xyz
x,y,z
-x,y,-z
-x,-y,-z
x,-y,z
1/2+x,1/2+y,z
1/2-x,1/2+y,-z
1/2-x,1/2-y,-z
1/2+x,1/2-y,z
loop_
_atom_site_type_symbol
_atom_site_label
_atom_site_fract_x
_atom_site_fract_y
_atom_site_fract_z
Si Si1 0.222998 0.089296 0.569100
Si Si2 0.743337 0.086422 0.034391
Si Si3 0.036692 0.639133 0.287030
Si Si4 0.355521 0.670224 0.330211
Si Si5 0.302636 0.828817 0.365551
Si Si6 0.368615 0.586866 0.963276
Si Si7 0.919189 0.191839 0.734822
O O1 0.355419 0.101332 0.660558
O O2 0.221932 0.123507 0.674242
O O3 0.122621 0.137348 0.397971
O O4 0.190574 0.000000 0.534273
O O5 0.595741 0.100225 0.870511
O O6 0.797683 0.093163 0.987232
O O7 0.770356 0.000000 0.098684
O O8 0.806916 0.147118 0.173718
O O9 0.084415 0.638581 0.448590
O O10 0.029834 0.728105 0.248107
O O11 0.500000 0.649135 0.500000
O O12 0.340754 0.759780 0.337941
O O13 0.227361 0.891822 0.224582
O O14 0.205411 0.794823 0.338309
O O15 0.415084 0.500000 0.003568
O O16 0.480719 0.647160 0.092438
#
# Coordination Sequence:
#
# PCOD9220365 Si02
#       7
#     8   8   8   8   8   8   8
#     4  11  22  40  68  99 132 172 213 267 327 382
#     4  11  27  45  63  95 135 173 217 268 326 385
#     4  11  23  44  68  95 133 174 214 264 322 391
#     4  12  25  43  69  97 129 170 220 267 324 388
#     4  11  24  42  68  99 129 170 219 266 324 387
#     4  11  26  43  64  97 133 172 218 272 322 376
#     4  11  21  43  68  97 133 167 217 271 318 383
#
# _framework density 21.435843999999999
#
# number of rings (size 3 to 8) (size 9 to 14) (size 15 to 20)
#    0.000    0.857    2.857    4.286    2.000    8.000 
#    0.000    2.857    0.000    0.000    0.000    0.000 
#    0.000    0.000    0.000    0.000    0.000    0.000 
#
# Total GULP energy -156820.546928 kJ/mol
# GULP energy per Si atom -5600.733819 kJ/mol
# Density = 2.138706 g / cm^3
# Si number density = 21.435844 Si / 1000 Ang^3
#
#
#
# Elastic Constant Matrix: (Units=GPa)
#
#
# Indices 1 2 3 4 5 6 
#
# 1 52.7899 -0.6793 7.3002 0.0000 -3.7260 0.0000
# 2 -0.6793 59.3804 -7.3530 0.0000 -4.6754 0.0000
# 3 7.3002 -7.3530 83.3357 0.0000 -6.2338 0.0000
# 4 0.0000 0.0000 0.0000 11.6668 0.0000 -16.3933
# 5 -3.7260 -4.6754 -6.2338 0.0000 31.6392 0.0000
# 6 0.0000 0.0000 0.0000 -16.3933 0.0000 15.3647
#
#
#
# Elastic Compliance Matrix: (Units=1/GPa)
#
#
# Indices 1 2 3 4 5 6 
#
# 1 0.019297 0.000190 -0.001524 0.000000 0.002000 0.000000
# 2 0.000190 0.017286 0.001727 0.000000 0.002917 0.000000
# 3 -0.001524 0.001727 0.012475 0.000000 0.002534 0.000000
# 4 0.000000 0.000000 0.000000 -0.171705 0.000000 -0.183200
# 5 0.002000 0.002917 0.002534 0.000000 0.032772 0.000000
# 6 0.000000 0.000000 0.000000 -0.183200 0.000000 -0.130381
#
#
# Mechanical properties :
#
#
# Convention : Reuss Voigt Hill
#
# Bulk Modulus (GPa) = 20.06294 21.56023 20.81159
# Shear Modulus (GPa) = -24.45883 24.81668 0.17893
#
# Velocity S-wave (km/s) = -3.38157 3.40622 0.28923
# Velocity P-wave (km/s) = 2.42216 5.05466 3.13710
#
# Compressibility (1/GPa) = 0.04984314
#
# Stress axis : x y z
#
# Youngs Moduli (GPa) = 51.82043 57.84945 80.15997
#
# Poissons Ratio (x) = -0.01096 0.12217
# Poissons Ratio (y) = -0.00982 -0.13842
# Poissons Ratio (z) = 0.07898 -0.09990
#
# Static dielectric constant tensor:
#      x y z
#    x 1.779000 0.000000 0.001180 
#    y 0.000000 1.743580 0.000000 
#    z 0.001180 0.000000 1.741210 
# 
# From -- ./inp_files/234703.got.cif
#   From: 2010.05.17/outbox.cif.g08.bks.cpg/sg12_118_cif.got.tgz:234703.got - 2010.06.03 13:09:07.
