data_PCOD9220268
_publ_section_title
;
Structure prediction by ZEFSAII (Michael W. Deem and Ramdas Pophale) SiO2 
 PCOD9220268
Probable space group: C 2/M
;
_chemical_formula_sum "Si O2"
_cell_formula_units_Z 52
_cell_length_a 14.042974
_cell_length_b 16.324115
_cell_length_c 19.031763
_cell_angle_alpha 90.000000
_cell_angle_beta 34.025102
_cell_angle_gamma 90.000000
_cell_volume 2441.244978
_symmetry_space_group_name_H-M "C 2/M"
_symmetry_group_IT_number 12
_symmetry_cell_setting 'monoclinic'
loop_
_space_group_symop_operation_xyz
x,y,z
-x,y,-z
-x,-y,-z
x,-y,z
1/2+x,1/2+y,z
1/2-x,1/2+y,-z
1/2-x,1/2-y,-z
1/2+x,1/2-y,z
loop_
_atom_site_type_symbol
_atom_site_label
_atom_site_fract_x
_atom_site_fract_y
_atom_site_fract_z
Si Si1 0.110519 0.204912 0.322778
Si Si2 0.007812 0.500000 0.411685
Si Si3 0.258260 0.374179 0.192970
Si Si4 0.011393 0.169616 0.231858
Si Si5 0.639246 0.500000 0.479569
Si Si6 0.877124 0.000000 0.358390
Si Si7 0.746324 0.320826 0.389392
Si Si8 0.869720 0.906373 0.973364
O O1 0.223798 0.283840 0.239461
O O2 0.195467 0.166585 0.339162
O O3 0.103535 0.165444 0.250497
O O4 0.914110 0.217232 0.468647
O O5 0.109356 0.424179 0.319574
O O6 0.000000 0.500000 0.500000
O O7 0.818157 0.500000 0.502527
O O8 0.438744 0.404159 0.112173
O O9 0.256672 0.382447 0.109778
O O10 0.897211 0.252909 0.301303
O O11 0.130214 0.156897 0.091277
O O12 0.907743 0.083320 0.296323
O O13 0.500000 0.500000 0.500000
O O14 0.537648 0.500000 0.616303
O O15 0.749602 0.415762 0.411745
O O16 0.829500 0.000000 0.976543
#
# Coordination Sequence:
#
# PCOD9220268 Si02
#       8
#     8   4   8   8   4   4   8   8
#     4  11  23  37  61  88 125 162 209 257 311 373
#     4  12  24  34  57  95 138 160 195 247 330 386
#     4  11  22  39  59  91 127 166 208 255 318 378
#     4  12  23  40  63  95 125 165 212 259 311 383
#     4  12  22  42  61  85 126 176 208 256 308 368
#     4  12  24  37  64  99 129 162 205 255 320 386
#     4  11  23  40  60  94 129 162 210 259 320 375
#     4  11  21  41  64  88 124 168 216 259 314 381
#
# _framework density 21.300606999999999
#
# number of rings (size 3 to 8) (size 9 to 14) (size 15 to 20)
#    0.000    0.615    6.923    2.769    4.308    0.615 
#    0.000    0.000    0.000    0.000    0.000    1.077 
#    0.000    0.154    0.000    0.000    0.000    0.000 
#
# Total GULP energy -145021.461637 kJ/mol
# GULP energy per Si atom -5577.748525 kJ/mol
# Density = 2.125213 g / cm^3
# Si number density = 21.300607 Si / 1000 Ang^3
#
#
#
# Elastic Constant Matrix: (Units=GPa)
#
#
# Indices 1 2 3 4 5 6 
#
# 1 80.8675 12.3349 31.7692 -0.0027 39.6711 0.0007
# 2 12.3349 126.9627 30.2675 -0.0103 7.2853 0.0032
# 3 31.7692 30.2675 95.2880 -0.0169 39.4834 0.0059
# 4 -0.0027 -0.0103 -0.0169 0.1170 0.0032 39.8573
# 5 39.6711 7.2853 39.4834 0.0032 42.8703 -0.0005
# 6 0.0007 0.0032 0.0059 39.8573 -0.0005 -1.0488
#
#
#
# Elastic Compliance Matrix: (Units=1/GPa)
#
#
# Indices 1 2 3 4 5 6 
#
# 1 0.023101 -0.001490 0.002465 -0.000001 -0.023394 0.000004
# 2 -0.001490 0.008694 -0.003596 0.000000 0.003213 0.000000
# 3 0.002465 -0.003596 0.018608 -0.000003 -0.018808 0.000009
# 4 -0.000001 0.000000 -0.000003 0.000660 0.000003 0.025088
# 5 -0.023394 0.003213 -0.018808 0.000003 0.061750 -0.000014
# 6 0.000004 0.000000 0.000009 0.025088 -0.000014 -0.000074
#
#
# Mechanical properties :
#
#
# Convention : Reuss Voigt Hill
#
# Bulk Modulus (GPa) = 22.14290 50.20682 36.17486
# Shear Modulus (GPa) = 37.58357 23.63746 30.61052
#
# Velocity S-wave (km/s) = 4.20508 3.33484 3.79499
# Velocity P-wave (km/s) = 5.83051 6.20081 6.01851
#
# Compressibility (1/GPa) = 0.04516120
#
# Stress axis : x y z
#
# Youngs Moduli (GPa) = 43.28758 115.02140 53.73944
#
# Poissons Ratio (x) = 0.17133 -0.13245
# Poissons Ratio (y) = 0.06448 0.19327
# Poissons Ratio (z) = -0.10669 0.41366
#
# Static dielectric constant tensor:
#      x y z
#    x 1.877540 0.000000 0.060390 
#    y 0.000000 1.701870 0.000010 
#    z 0.060390 0.000010 1.807790 
# 
# From -- ./inp_files/316503.got.cif
#   From: 2010.05.17/outbox.cif.g08.bks.cpg/sg12_159_cif.got.tgz:316503.got - 2010.06.03 13:09:07.
