data_PCOD9220984
_publ_section_title
;
Structure prediction by ZEFSAII (Michael W. Deem and Ramdas Pophale) SiO2 
 PCOD9220984
Probable space group: C 2/M
;
_chemical_formula_sum "Si O2"
_cell_formula_units_Z 40
_cell_length_a 8.102488
_cell_length_b 17.265613
_cell_length_c 19.487288
_cell_angle_alpha 90.000000
_cell_angle_beta 142.435372
_cell_angle_gamma 90.000000
_cell_volume 1662.021351
_symmetry_space_group_name_H-M "C 2/M"
_symmetry_group_IT_number 12
_symmetry_cell_setting 'monoclinic'
loop_
_space_group_symop_operation_xyz
x,y,z
-x,y,-z
-x,-y,-z
x,-y,z
1/2+x,1/2+y,z
1/2-x,1/2+y,-z
1/2-x,1/2-y,-z
1/2+x,1/2-y,z
loop_
_atom_site_type_symbol
_atom_site_label
_atom_site_fract_x
_atom_site_fract_y
_atom_site_fract_z
Si Si1 0.618512 0.331289 0.153725
Si Si2 0.083552 0.834599 0.758059
Si Si3 0.397505 0.087274 0.045716
Si Si4 0.357424 0.088213 0.655842
Si Si5 0.326563 0.661614 0.536877
O O1 0.534308 0.340779 0.205127
O O2 0.342432 0.350805 0.022286
O O3 0.763752 0.248603 0.194153
O O4 0.850689 0.394109 0.217056
O O5 0.847937 0.847639 0.625334
O O6 0.673289 0.894552 0.176091
O O7 0.299820 0.000000 0.025011
O O8 0.500000 0.092870 0.000000
O O9 0.348448 0.107949 0.571278
O O10 0.134720 0.145643 0.613736
O O11 0.275884 0.000000 0.639960
O O12 0.250000 0.750000 0.500000
#
# Coordination Sequence:
#
# PCOD9220984 Si02
#       5
#     8   8   8   8   8
#     4  11  22  40  66  96 130 172 220 266 329 392
#     4  11  23  39  66  96 127 175 223 270 319 395
#     4   9  20  39  62  91 131 169 211 271 332 386
#     4  11  25  44  67  96 137 174 216 278 338 385
#     4  11  23  41  66  93 128 173 219 268 329 390
#
# _framework density 24.067080000000001
#
# number of rings (size 3 to 8) (size 9 to 14) (size 15 to 20)
#    0.000    1.400    2.000    3.600    2.800    3.200 
#    0.000    4.000    0.000    6.000    0.000    0.000 
#    0.000    0.000    0.000    0.000    0.000    0.000 
#
# Total GULP energy -111896.819961 kJ/mol
# GULP energy per Si atom -5594.840998 kJ/mol
# Density = 2.401230 g / cm^3
# Si number density = 24.067080 Si / 1000 Ang^3
#
#
#
# Elastic Constant Matrix: (Units=GPa)
#
#
# Indices 1 2 3 4 5 6 
#
# 1 83.4203 21.5612 -3.6168 -0.0003 11.4716 -0.0004
# 2 21.5612 91.2831 -4.8700 0.0000 17.1802 -0.0001
# 3 -3.6168 -4.8700 63.7130 0.0007 12.4357 0.0003
# 4 -0.0003 0.0000 0.0007 35.3198 0.0004 8.2914
# 5 11.4716 17.1802 12.4357 0.0004 35.8615 0.0001
# 6 -0.0004 -0.0001 0.0003 8.2914 0.0001 18.6080
#
#
#
# Elastic Compliance Matrix: (Units=1/GPa)
#
#
# Indices 1 2 3 4 5 6 
#
# 1 0.013137 -0.002379 0.001246 0.000000 -0.003495 0.000000
# 2 -0.002379 0.012764 0.002023 0.000000 -0.006055 0.000000
# 3 0.001246 0.002023 0.017363 0.000000 -0.007388 0.000000
# 4 0.000000 0.000000 0.000000 0.031620 0.000000 -0.014089
# 5 -0.003495 -0.006055 -0.007388 0.000000 0.034466 0.000000
# 6 0.000000 0.000000 0.000000 -0.014089 0.000000 0.060018
#
#
# Mechanical properties :
#
#
# Convention : Reuss Voigt Hill
#
# Bulk Modulus (GPa) = 22.20054 29.39613 25.79833
# Shear Modulus (GPa) = 27.38170 32.98066 30.18118
#
# Velocity S-wave (km/s) = 3.37668 3.70586 3.54509
# Velocity P-wave (km/s) = 4.94440 5.52738 5.24400
#
# Compressibility (1/GPa) = 0.04504395
#
# Stress axis : x y z
#
# Youngs Moduli (GPa) = 76.12131 78.34297 57.59427
#
# Poissons Ratio (x) = 0.18636 -0.07177
# Poissons Ratio (y) = 0.18107 -0.11649
# Poissons Ratio (z) = -0.09485 -0.15845
#
# Static dielectric constant tensor:
#      x y z
#    x 1.939250 0.000000 -0.046800 
#    y 0.000000 1.870690 0.000000 
#    z -0.046800 0.000000 1.969430 
# 
# From -- ./inp_files/301504.got.cif
#   From: 2010.05.17/outbox.cif.g08.bks.cpg/sg12_151_cif.got.tgz:301504.got - 2010.06.03 13:09:07.
