data_PCOD9220521
_publ_section_title
;
Structure prediction by ZEFSAII (Michael W. Deem and Ramdas Pophale) SiO2 
 PCOD9220521
Probable space group: C 2/M
;
_chemical_formula_sum "Si O2"
_cell_formula_units_Z 64
_cell_length_a 19.516814
_cell_length_b 8.629481
_cell_length_c 19.640339
_cell_angle_alpha 90.000000
_cell_angle_beta 83.350863
_cell_angle_gamma 90.000000
_cell_volume 3285.576419
_symmetry_space_group_name_H-M "C 2/M"
_symmetry_group_IT_number 12
_symmetry_cell_setting 'monoclinic'
loop_
_space_group_symop_operation_xyz
x,y,z
-x,y,-z
-x,-y,-z
x,-y,z
1/2+x,1/2+y,z
1/2-x,1/2+y,-z
1/2-x,1/2-y,-z
1/2+x,1/2-y,z
loop_
_atom_site_type_symbol
_atom_site_label
_atom_site_fract_x
_atom_site_fract_y
_atom_site_fract_z
Si Si1 0.504265 0.820334 0.072415
Si Si2 0.508653 0.187682 0.577603
Si Si3 0.340648 0.178384 0.971936
Si Si4 0.898986 0.183463 0.697661
Si Si5 0.371980 0.181140 0.340367
Si Si6 0.754036 0.185194 0.264108
Si Si7 0.285399 0.686695 0.107215
Si Si8 0.507818 0.183332 0.784083
O O1 0.472175 0.754045 0.144098
O O2 0.478840 0.000000 0.067828
O O3 0.500000 0.741562 0.000000
O O4 0.586424 0.821758 0.073956
O O5 0.500000 0.230324 0.500000
O O6 0.445589 0.250405 0.630331
O O7 0.582800 0.238600 0.600374
O O8 0.507508 0.000000 0.583794
O O9 0.342516 0.258127 0.045994
O O10 0.322493 0.000000 0.988179
O O11 0.283452 0.240250 0.926124
O O12 0.822632 0.252370 0.712942
O O13 0.943405 0.230407 0.758755
O O14 0.894620 0.000000 0.691753
O O15 0.305070 0.265711 0.319187
O O16 0.428340 0.193456 0.273780
O O17 0.355006 0.000000 0.353049
O O18 0.781748 0.241366 0.186100
O O19 0.751049 0.000000 0.261186
O O20 0.286475 0.500000 0.109253
O O21 0.490613 0.000000 0.792733
#
# Coordination Sequence:
#
# PCOD9220521 Si02
#       8
#     8   8   8   8   8   8   8   8
#     4   9  17  28  47  73  98 132 180 228 276 330
#     4   9  19  40  68  92 117 151 184 216 263 326
#     4   9  17  30  48  68  92 125 175 229 275 329
#     4  11  22  36  58  87 115 145 186 231 273 323
#     4   9  19  34  56  87 116 143 181 227 273 327
#     4  11  22  36  55  78 111 150 188 230 279 330
#     4   9  19  33  48  67  94 134 176 222 276 328
#     4   9  18  35  56  77 108 148 189 233 282 340
#
# _framework density 19.479078000000001
#
# number of rings (size 3 to 8) (size 9 to 14) (size 15 to 20)
#    0.000    2.500    0.000    3.000    1.750    5.250 
#    0.000    3.750    0.000    0.750    0.000    0.000 
#    0.000    0.000    0.000    0.000    0.000    0.000 
#
# Total GULP energy -178328.403052 kJ/mol
# GULP energy per Si atom -5572.762595 kJ/mol
# Density = 1.943474 g / cm^3
# Si number density = 19.479078 Si / 1000 Ang^3
#
#
#
# Elastic Constant Matrix: (Units=GPa)
#
#
# Indices 1 2 3 4 5 6 
#
# 1 61.9930 16.7524 17.5851 0.0000 13.0613 0.0000
# 2 16.7524 31.7182 18.1821 0.0000 4.8802 0.0000
# 3 17.5851 18.1821 126.8504 0.0000 20.5539 0.0000
# 4 0.0000 0.0000 0.0000 18.8970 0.0000 1.9547
# 5 13.0613 4.8802 20.5539 0.0000 21.4659 0.0000
# 6 0.0000 0.0000 0.0000 1.9547 0.0000 24.4829
#
#
#
# Elastic Compliance Matrix: (Units=1/GPa)
#
#
# Indices 1 2 3 4 5 6 
#
# 1 0.020908 -0.009506 0.000207 0.000000 -0.010759 0.000000
# 2 -0.009506 0.038917 -0.004455 0.000000 0.001203 0.000000
# 3 0.000207 -0.004455 0.009883 0.000000 -0.008576 0.000000
# 4 0.000000 0.000000 0.000000 0.053359 0.000000 -0.004260
# 5 -0.010759 0.001203 -0.008576 0.000000 0.061071 0.000000
# 6 0.000000 0.000000 0.000000 -0.004260 0.000000 0.041185
#
#
# Mechanical properties :
#
#
# Convention : Reuss Voigt Hill
#
# Bulk Modulus (GPa) = 23.69673 36.17786 29.93729
# Shear Modulus (GPa) = 18.73381 24.17195 21.45288
#
# Velocity S-wave (km/s) = 3.10456 3.52649 3.32223
# Velocity P-wave (km/s) = 5.00426 5.93249 5.48804
#
# Compressibility (1/GPa) = 0.04219992
#
# Stress axis : x y z
#
# Youngs Moduli (GPa) = 47.82929 25.69545 101.18624
#
# Poissons Ratio (x) = 0.24427 -0.02100
# Poissons Ratio (y) = 0.45468 0.45081
# Poissons Ratio (z) = -0.00992 0.11448
#
# Static dielectric constant tensor:
#      x y z
#    x 1.705190 0.000000 0.025640 
#    y 0.000000 1.685990 0.000000 
#    z 0.025640 0.000000 1.722750 
# 
# From -- ./inp_files/319191.got.cif
#   From: 2010.05.17/outbox.cif.g08.bks.cpg/sg12_160_cif.got.tgz:319191.got - 2010.06.03 13:09:07.
