data_PCOD9220174
_publ_section_title
;
Structure prediction by ZEFSAII (Michael W. Deem and Ramdas Pophale) SiO2 
 PCOD9220174
Probable space group: C 2/M
;
_chemical_formula_sum "Si O2"
_cell_formula_units_Z 48
_cell_length_a 14.739557
_cell_length_b 18.590694
_cell_length_c 9.061229
_cell_angle_alpha 90.000000
_cell_angle_beta 91.306082
_cell_angle_gamma 90.000000
_cell_volume 2482.300149
_symmetry_space_group_name_H-M "C 2/M"
_symmetry_group_IT_number 12
_symmetry_cell_setting 'monoclinic'
loop_
_space_group_symop_operation_xyz
x,y,z
-x,y,-z
-x,-y,-z
x,-y,z
1/2+x,1/2+y,z
1/2-x,1/2+y,-z
1/2-x,1/2-y,-z
1/2+x,1/2-y,z
loop_
_atom_site_type_symbol
_atom_site_label
_atom_site_fract_x
_atom_site_fract_y
_atom_site_fract_z
Si Si1 0.955653 0.708125 0.661715
Si Si2 0.441405 0.500000 0.221612
Si Si3 0.059623 0.158682 0.650660
Si Si4 0.246943 0.709055 0.240970
Si Si5 0.258638 0.137607 0.081386
Si Si6 0.956352 0.420574 0.158955
Si Si7 0.359774 0.500000 0.907763
O O1 0.846697 0.705140 0.670166
O O2 0.000000 0.704998 0.500000
O O3 0.998093 0.781598 0.735250
O O4 0.992075 0.639013 0.747062
O O5 0.430332 0.576451 0.299648
O O6 0.543383 0.500000 0.164589
O O7 0.372962 0.500000 0.083387
O O8 0.161946 0.191207 0.662240
O O9 0.000000 0.153169 0.500000
O O10 0.248568 0.789004 0.172383
O O11 0.246335 0.657795 0.093876
O O12 0.355002 0.104784 0.126279
O O13 0.189204 0.075268 0.126082
O O14 0.959495 0.500000 0.227670
O O15 0.000000 0.424242 0.000000
#
# Coordination Sequence:
#
# PCOD9220174 Si02
#       7
#     8   4   8   8   8   8   4
#     4  11  25  44  65  93 134 172 217 268 328 392
#     4  11  23  42  62  96 132 163 217 266 327 382
#     4  11  24  43  66  89 130 176 216 262 316 391
#     4  11  23  41  66  96 125 169 215 269 324 385
#     4  11  21  39  66  96 127 158 218 270 326 384
#     4  11  22  40  68  96 129 165 215 275 325 388
#     4  11  22  38  65  96 126 165 203 278 325 385
#
# _framework density 19.336903
#
# number of rings (size 3 to 8) (size 9 to 14) (size 15 to 20)
#    0.000    1.000    5.833    1.250    0.000    3.000 
#    7.500    0.000    0.000    0.000    0.000    0.000 
#    0.000    0.000    0.000    0.000    0.000    0.000 
#
# Total GULP energy -133783.858299 kJ/mol
# GULP energy per Si atom -5574.327429 kJ/mol
# Density = 1.929289 g / cm^3
# Si number density = 19.336903 Si / 1000 Ang^3
#
#
#
# Elastic Constant Matrix: (Units=GPa)
#
#
# Indices 1 2 3 4 5 6 
#
# 1 -329.4412 36.6511 21.6493 0.0000 184.0106 0.0000
# 2 36.6511 165.1023 29.7172 0.0000 15.6023 0.0000
# 3 21.6493 29.7172 48.6914 0.0000 9.6833 0.0000
# 4 0.0000 0.0000 0.0000 17.6026 0.0000 3.9202
# 5 184.0106 15.6023 9.6833 0.0000 -32.9608 0.0000
# 6 0.0000 0.0000 0.0000 3.9202 0.0000 38.3844
#
#
#
# Elastic Compliance Matrix: (Units=1/GPa)
#
#
# Indices 1 2 3 4 5 6 
#
# 1 0.001816 -0.000890 -0.002075 0.000000 0.009107 0.000000
# 2 -0.000890 0.007118 -0.003430 0.000000 -0.002608 0.000000
# 3 -0.002075 -0.003430 0.024735 0.000000 -0.005942 0.000000
# 4 0.000000 0.000000 0.000000 0.058132 0.000000 -0.005937
# 5 0.009107 -0.002608 -0.005942 0.000000 0.017524 0.000000
# 6 0.000000 0.000000 0.000000 -0.005937 0.000000 0.026659
#
#
# Mechanical properties :
#
#
# Convention : Reuss Voigt Hill
#
# Bulk Modulus (GPa) = 47.89550 6.70975 27.30262
# Shear Modulus (GPa) = 32.10595 -8.97243 11.56676
#
# Velocity S-wave (km/s) = 4.07915 -2.15642 2.44841
# Velocity P-wave (km/s) = 6.85629 1.65007 4.70564
#
# Compressibility (1/GPa) = 0.02087879
#
# Stress axis : x y z
#
# Youngs Moduli (GPa) = 550.65252 140.48271 40.42791
#
# Poissons Ratio (x) = 0.12506 0.08390
# Poissons Ratio (y) = 0.49022 0.13866
# Poissons Ratio (z) = 1.14276 0.48185
#
# Static dielectric constant tensor:
#      x y z
#    x 1.642200 0.000000 -0.011270 
#    y 0.000000 1.752290 0.000000 
#    z -0.011270 0.000000 1.703460 
# 
# From -- ./inp_files/61785.got.cif
#   From: 2010.05.17/outbox.cif.g08.bks.cpg/sg12_31_cif.got.tgz:61785.got - 2010.06.03 13:09:07.
