data_PCOD9220291
_publ_section_title
;
Structure prediction by ZEFSAII (Michael W. Deem and Ramdas Pophale) SiO2 
 PCOD9220291
Probable space group: C 2/M
;
_chemical_formula_sum "Si O2"
_cell_formula_units_Z 64
_cell_length_a 11.256752
_cell_length_b 24.643100
_cell_length_c 9.931253
_cell_angle_alpha 90.000000
_cell_angle_beta 70.497251
_cell_angle_gamma 90.000000
_cell_volume 2596.878648
_symmetry_space_group_name_H-M "C 2/M"
_symmetry_group_IT_number 12
_symmetry_cell_setting 'monoclinic'
loop_
_space_group_symop_operation_xyz
x,y,z
-x,y,-z
-x,-y,-z
x,-y,z
1/2+x,1/2+y,z
1/2-x,1/2+y,-z
1/2-x,1/2-y,-z
1/2+x,1/2-y,z
loop_
_atom_site_type_symbol
_atom_site_label
_atom_site_fract_x
_atom_site_fract_y
_atom_site_fract_z
Si Si1 0.341649 0.170346 0.007072
Si Si2 0.380798 0.662151 0.118283
Si Si3 0.257682 0.757958 0.293485
Si Si4 0.540017 0.079727 0.337603
Si Si5 0.148224 0.562540 0.837177
Si Si6 0.492851 0.205192 0.696244
Si Si7 0.859090 0.934529 0.557763
Si Si8 0.679921 0.560735 0.726063
O O1 0.290719 0.208746 0.144839
O O2 0.376178 0.110875 0.050194
O O3 0.226760 0.159419 0.951142
O O4 0.446124 0.199061 0.871285
O O5 0.323285 0.699337 0.255365
O O6 0.409276 0.603567 0.168689
O O7 0.500000 0.686512 0.000000
O O8 0.355328 0.784691 0.364900
O O9 0.106476 0.746099 0.340485
O O10 0.500000 0.059090 0.500000
O O11 0.449830 0.062155 0.250256
O O12 0.533405 0.144793 0.345135
O O13 0.683353 0.062476 0.258199
O O14 0.155369 0.500000 0.886008
O O15 0.278209 0.581264 0.716119
O O16 0.797998 0.921991 0.437242
O O17 0.000000 0.912541 0.500000
O O18 0.864122 0.000000 0.564191
O O19 0.627988 0.500000 0.746080
#
# Coordination Sequence:
#
# PCOD9220291 Si02
#       8
#     8   8   8   8   8   8   8   8
#     4  11  22  39  63  95 129 163 212 263 320 379
#     4  11  23  39  63  97 128 169 215 262 327 385
#     4  11  21  41  68  92 125 165 218 264 315 389
#     4  12  23  44  69  92 128 170 218 270 314 382
#     4  11  24  39  64  97 130 171 211 260 324 384
#     4  11  23  42  68  99 125 170 213 271 328 381
#     4   9  20  40  63  87 121 170 221 262 305 374
#     4  11  23  40  64  94 128 170 217 262 315 383
#
# _framework density 24.644971999999999
#
# number of rings (size 3 to 8) (size 9 to 14) (size 15 to 20)
#    0.000    1.125    5.000    3.750    1.750    1.250 
#    0.000    1.250    2.750    0.000    0.000    0.000 
#    0.000    0.000    0.000    0.000    0.000    0.000 
#
# Total GULP energy -178860.258015 kJ/mol
# GULP energy per Si atom -5589.383063 kJ/mol
# Density = 2.458888 g / cm^3
# Si number density = 24.644972 Si / 1000 Ang^3
#
#
#
# Elastic Constant Matrix: (Units=GPa)
#
#
# Indices 1 2 3 4 5 6 
#
# 1 86.5425 12.2111 15.1936 0.0000 -12.8017 0.0000
# 2 12.2111 111.5763 16.3933 0.0000 7.7059 0.0000
# 3 15.1936 16.3933 46.3499 0.0000 -4.2138 0.0000
# 4 0.0000 0.0000 0.0000 -0.2990 0.0000 -0.0594
# 5 -12.8017 7.7059 -4.2138 0.0000 28.6530 0.0000
# 6 0.0000 0.0000 0.0000 -0.0594 0.0000 51.3274
#
#
#
# Elastic Compliance Matrix: (Units=1/GPa)
#
#
# Indices 1 2 3 4 5 6 
#
# 1 0.013181 -0.001353 -0.003318 0.000000 0.005765 0.000000
# 2 -0.001353 0.009868 -0.003388 0.000000 -0.003757 0.000000
# 3 -0.003318 -0.003388 0.024132 0.000000 0.002978 0.000000
# 4 0.000000 0.000000 0.000000 -3.343413 0.000000 -0.003866
# 5 0.005765 -0.003757 0.002978 0.000000 0.038924 0.000000
# 6 0.000000 0.000000 0.000000 -0.003866 0.000000 0.019478
#
#
# Mechanical properties :
#
#
# Convention : Reuss Voigt Hill
#
# Bulk Modulus (GPa) = 32.19362 36.89607 34.54485
# Shear Modulus (GPa) = -1.55697 29.31431 13.87867
#
# Velocity S-wave (km/s) = -0.79570 3.45260 2.37564
# Velocity P-wave (km/s) = 3.49959 5.55855 4.64460
#
# Compressibility (1/GPa) = 0.03106206
#
# Stress axis : x y z
#
# Youngs Moduli (GPa) = 75.86501 101.33951 41.43923
#
# Poissons Ratio (x) = 0.13714 0.13750
# Poissons Ratio (y) = 0.10266 0.14040
# Poissons Ratio (z) = 0.25173 0.34334
#
# Static dielectric constant tensor:
#      x y z
#    x 1.979000 0.000000 -0.023470 
#    y 0.000000 1.965510 0.000000 
#    z -0.023470 0.000000 2.008760 
# 
# From -- ./inp_files/135932.got.cif
#   From: 2010.05.17/outbox.cif.g08.bks.cpg/sg12_68_cif.got.tgz:135932.got - 2010.06.03 13:09:07.
