data_PCOD9220440
_publ_section_title
;
Structure prediction by ZEFSAII (Michael W. Deem and Ramdas Pophale) SiO2 
 PCOD9220440
Probable space group: C 2/M
;
_chemical_formula_sum "Si O2"
_cell_formula_units_Z 64
_cell_length_a 11.691535
_cell_length_b 31.156570
_cell_length_c 10.836920
_cell_angle_alpha 90.000000
_cell_angle_beta 75.522412
_cell_angle_gamma 90.000000
_cell_volume 3822.192287
_symmetry_space_group_name_H-M "C 2/M"
_symmetry_group_IT_number 12
_symmetry_cell_setting 'monoclinic'
loop_
_space_group_symop_operation_xyz
x,y,z
-x,y,-z
-x,-y,-z
x,-y,z
1/2+x,1/2+y,z
1/2-x,1/2+y,-z
1/2-x,1/2-y,-z
1/2+x,1/2-y,z
loop_
_atom_site_type_symbol
_atom_site_label
_atom_site_fract_x
_atom_site_fract_y
_atom_site_fract_z
Si Si1 0.440900 0.720461 0.652002
Si Si2 0.687170 0.047038 0.497341
Si Si3 0.005219 0.371695 0.141253
Si Si4 0.052952 0.545402 0.280052
Si Si5 0.584377 0.267734 0.857413
Si Si6 0.191405 0.318223 0.709716
Si Si7 0.857473 0.639874 0.521028
Si Si8 0.174935 0.690421 0.229437
O O1 0.500000 0.719775 0.500000
O O2 0.523452 0.713058 0.749733
O O3 0.330920 0.687666 0.682055
O O4 0.386114 0.767615 0.694450
O O5 0.646689 0.046820 0.365466
O O6 0.572346 0.044632 0.615665
O O7 0.716875 0.097925 0.502775
O O8 0.749736 0.000000 0.500621
O O9 0.873172 0.360056 0.220260
O O10 0.054714 0.413051 0.196744
O O11 0.088410 0.331658 0.155033
O O12 0.000000 0.379040 0.000000
O O13 0.066873 0.500000 0.208469
O O14 0.633678 0.221801 0.797382
O O15 0.700126 0.295433 0.858831
O O16 0.500000 0.264448 0.000000
O O17 0.155960 0.322086 0.575225
O O18 0.811484 0.656828 0.663225
O O19 0.000000 0.630544 0.500000
#
# Coordination Sequence:
#
# PCOD9220440 Si02
#       8
#     8   8   8   8   8   8   8   8
#     4  11  23  38  52  74 103 135 179 225 261 302
#     4   9  14  24  46  71 100 130 158 196 248 309
#     4  12  22  33  49  77 107 139 174 207 257 313
#     4   9  16  29  47  73 106 135 160 199 253 320
#     4  11  24  39  53  70 100 143 182 222 260 305
#     4  11  22  34  54  74 101 135 175 218 263 307
#     4  12  16  30  52  76 103 128 165 209 256 312
#     4  11  22  34  55  73  99 135 179 217 257 311
#
# _framework density 16.744316999999999
#
# number of rings (size 3 to 8) (size 9 to 14) (size 15 to 20)
#    0.000    1.250    6.250    3.000    1.750    3.250 
#    0.000    0.000    0.000    0.000    0.000    0.000 
#    0.000   13.000    0.000    0.000    0.000    0.000 
#
# Total GULP energy -178137.188509 kJ/mol
# GULP energy per Si atom -5566.787141 kJ/mol
# Density = 1.670621 g / cm^3
# Si number density = 16.744317 Si / 1000 Ang^3
#
#
#
# Elastic Constant Matrix: (Units=GPa)
#
#
# Indices 1 2 3 4 5 6 
#
# 1 50.8210 22.4327 30.7581 0.0000 -6.8131 0.0000
# 2 22.4327 74.1326 17.8201 0.0000 -3.1982 0.0000
# 3 30.7581 17.8201 92.4084 0.0000 1.8410 0.0000
# 4 0.0000 0.0000 0.0000 10.5829 0.0000 4.0898
# 5 -6.8131 -3.1982 1.8410 0.0000 21.2587 0.0000
# 6 0.0000 0.0000 0.0000 4.0898 0.0000 9.4356
#
#
#
# Elastic Compliance Matrix: (Units=1/GPa)
#
#
# Indices 1 2 3 4 5 6 
#
# 1 0.028849 -0.006279 -0.008572 0.000000 0.009043 0.000000
# 2 -0.006279 0.015632 -0.000933 0.000000 0.000420 0.000000
# 3 -0.008572 -0.000933 0.013936 0.000000 -0.004094 0.000000
# 4 0.000000 0.000000 0.000000 0.113505 0.000000 -0.049198
# 5 0.009043 0.000420 -0.004094 0.000000 0.050356 0.000000
# 6 0.000000 0.000000 0.000000 -0.049198 0.000000 0.127306
#
#
# Mechanical properties :
#
#
# Convention : Reuss Voigt Hill
#
# Bulk Modulus (GPa) = 37.24467 39.93154 38.58811
# Shear Modulus (GPa) = 12.81722 18.01218 15.41470
#
# Velocity S-wave (km/s) = 2.76971 3.28337 3.03742
# Velocity P-wave (km/s) = 5.70262 6.18657 5.94952
#
# Compressibility (1/GPa) = 0.02684948
#
# Stress axis : x y z
#
# Youngs Moduli (GPa) = 34.66381 63.97238 71.75652
#
# Poissons Ratio (x) = 0.40168 0.61506
# Poissons Ratio (y) = 0.21766 0.06694
# Poissons Ratio (z) = 0.29712 0.05968
#
# Static dielectric constant tensor:
#      x y z
#    x 1.592810 0.000000 0.011430 
#    y 0.000000 1.634650 0.000000 
#    z 0.011430 0.000000 1.585350 
# 
# From -- ./inp_files/137421.got.cif
#   From: 2010.05.17/outbox.cif.g08.bks.cpg/sg12_69_cif.got.tgz:137421.got - 2010.06.03 13:09:07.
