data_PCOD9220577
_publ_section_title
;
Structure prediction by ZEFSAII (Michael W. Deem and Ramdas Pophale) SiO2 
 PCOD9220577
Probable space group: C 2/M
;
_chemical_formula_sum "Si O2"
_cell_formula_units_Z 48
_cell_length_a 14.301415
_cell_length_b 21.774428
_cell_length_c 13.124171
_cell_angle_alpha 90.000000
_cell_angle_beta 143.336098
_cell_angle_gamma 90.000000
_cell_volume 2440.389681
_symmetry_space_group_name_H-M "C 2/M"
_symmetry_group_IT_number 12
_symmetry_cell_setting 'monoclinic'
loop_
_space_group_symop_operation_xyz
x,y,z
-x,y,-z
-x,-y,-z
x,-y,z
1/2+x,1/2+y,z
1/2-x,1/2+y,-z
1/2-x,1/2-y,-z
1/2+x,1/2-y,z
loop_
_atom_site_type_symbol
_atom_site_label
_atom_site_fract_x
_atom_site_fract_y
_atom_site_fract_z
Si Si1 0.156908 0.605993 0.598545
Si Si2 0.444920 0.336948 0.336648
Si Si3 0.393594 0.204105 0.009007
Si Si4 0.031111 0.929686 0.242419
Si Si5 0.648583 0.657607 0.056144
Si Si6 0.587918 0.213830 0.380127
O O1 0.308387 0.572129 0.683786
O O2 0.211775 0.640956 0.748301
O O3 0.119574 0.657362 0.481843
O O4 0.000000 0.572199 0.500000
O O5 0.500000 0.348606 0.500000
O O6 0.536356 0.384888 0.344270
O O7 0.490755 0.267262 0.350064
O O8 0.258630 0.337437 0.148116
O O9 0.500540 0.190743 0.201293
O O10 0.500000 0.202662 0.000000
O O11 0.340489 0.275107 0.981786
O O12 0.996744 0.000000 0.238146
O O13 0.894486 0.897308 0.056962
O O14 0.500000 0.662120 0.000000
O O15 0.750000 0.250000 0.500000
#
# Coordination Sequence:
#
# PCOD9220577 Si02
#       6
#     8   8   8   8   8   8
#     4  11  23  37  65  93 128 159 204 266 325 380
#     4  12  24  40  65  95 129 169 209 257 317 379
#     4  11  22  36  64 100 129 161 203 259 327 386
#     4  11  25  44  64  86 122 174 221 258 305 374
#     4   9  18  38  59  89 123 159 196 250 317 380
#     4  12  20  37  63  99 135 164 197 257 329 388
#
# _framework density 19.668990000000001
#
# number of rings (size 3 to 8) (size 9 to 14) (size 15 to 20)
#    0.000    1.000    3.333    6.000    2.333    3.667 
#    0.000    0.000    0.000    0.500    0.000    0.000 
#    0.000    0.000    0.000    0.000    0.000    0.000 
#
# Total GULP energy -133926.421495 kJ/mol
# GULP energy per Si atom -5580.267562 kJ/mol
# Density = 1.962422 g / cm^3
# Si number density = 19.668990 Si / 1000 Ang^3
#
#
#
# Elastic Constant Matrix: (Units=GPa)
#
#
# Indices 1 2 3 4 5 6 
#
# 1 71.5393 18.6180 39.9216 0.0000 4.9677 0.0000
# 2 18.6180 91.2556 26.7621 0.0000 -10.9207 0.0000
# 3 39.9216 26.7621 153.8668 0.0000 -17.8789 0.0000
# 4 0.0000 0.0000 0.0000 0.8942 0.0000 4.0714
# 5 4.9677 -10.9207 -17.8789 0.0000 44.0779 0.0000
# 6 0.0000 0.0000 0.0000 4.0714 0.0000 3.7276
#
#
#
# Elastic Compliance Matrix: (Units=1/GPa)
#
#
# Indices 1 2 3 4 5 6 
#
# 1 0.017588 -0.002781 -0.004607 0.000000 -0.004540 0.000000
# 2 -0.002781 0.012184 -0.001061 0.000000 0.002902 0.000000
# 3 -0.004607 -0.001061 0.008300 0.000000 0.003623 0.000000
# 4 0.000000 0.000000 0.000000 -0.281477 0.000000 0.307436
# 5 -0.004540 0.002902 0.003623 0.000000 0.025387 0.000000
# 6 0.000000 0.000000 0.000000 0.307436 0.000000 -0.067522
#
#
# Mechanical properties :
#
#
# Convention : Reuss Voigt Hill
#
# Bulk Modulus (GPa) = 47.22468 54.14059 50.68263
# Shear Modulus (GPa) = -19.11429 25.16394 3.02483
#
# Velocity S-wave (km/s) = -3.12075 3.58071 1.24145
# Velocity P-wave (km/s) = 3.32812 6.68438 5.28002
#
# Compressibility (1/GPa) = 0.02117537
#
# Stress axis : x y z
#
# Youngs Moduli (GPa) = 56.85620 82.07621 120.48241
#
# Poissons Ratio (x) = 0.22821 0.55510
# Poissons Ratio (y) = 0.15809 0.12778
# Poissons Ratio (z) = 0.26195 0.08704
#
# Static dielectric constant tensor:
#      x y z
#    x 1.769860 0.000000 0.058250 
#    y 0.000000 1.635160 0.000000 
#    z 0.058250 0.000000 1.767930 
# 
# From -- ./inp_files/148006.got.cif
#   From: 2010.05.17/outbox.cif.g08.bks.cpg/sg12_75_cif.got.tgz:148006.got - 2010.06.03 13:09:07.
