data_PCOD9220617
_publ_section_title
;
Structure prediction by ZEFSAII (Michael W. Deem and Ramdas Pophale) SiO2 
 PCOD9220617
Probable space group: C 2/M
;
_chemical_formula_sum "Si O2"
_cell_formula_units_Z 48
_cell_length_a 8.234109
_cell_length_b 17.742662
_cell_length_c 14.232715
_cell_angle_alpha 90.000000
_cell_angle_beta 99.985737
_cell_angle_gamma 90.000000
_cell_volume 2047.828826
_symmetry_space_group_name_H-M "C 2/M"
_symmetry_group_IT_number 12
_symmetry_cell_setting 'monoclinic'
loop_
_space_group_symop_operation_xyz
x,y,z
-x,y,-z
-x,-y,-z
x,-y,z
1/2+x,1/2+y,z
1/2-x,1/2+y,-z
1/2-x,1/2-y,-z
1/2+x,1/2-y,z
loop_
_atom_site_type_symbol
_atom_site_label
_atom_site_fract_x
_atom_site_fract_y
_atom_site_fract_z
Si Si1 0.627165 0.691917 0.121999
Si Si2 0.488955 0.683999 0.684783
Si Si3 0.235162 0.088033 0.466191
Si Si4 0.206026 0.583483 0.219263
Si Si5 0.982785 0.642281 0.640838
Si Si6 0.746008 0.847451 0.044134
O O1 0.633109 0.688810 0.235532
O O2 0.654941 0.775040 0.080813
O O3 0.441008 0.665392 0.082976
O O4 0.756403 0.646620 0.068875
O O5 0.414215 0.633387 0.594683
O O6 0.653990 0.643745 0.737847
O O7 0.514483 0.768788 0.651275
O O8 0.314317 0.126872 0.565519
O O9 0.378408 0.098196 0.402239
O O10 0.201716 0.000000 0.479030
O O11 0.257073 0.500000 0.254002
O O12 0.045455 0.608342 0.259595
O O13 0.187921 0.586565 0.105388
#
# Coordination Sequence:
#
# PCOD9220617 Si02
#       6
#     8   8   8   8   8   8
#     4   9  18  33  56  85 111 144 189 232 273 327
#     4  11  22  37  60  88 112 148 197 237 276 340
#     4  11  24  41  58  82 117 153 187 237 299 343
#     4  11  22  37  58  88 120 149 187 238 291 335
#     4  11  22  40  60  82 110 153 197 237 279 347
#     4   9  18  34  55  84 113 148 183 230 277 334
#
# _framework density 23.439461000000001
#
# number of rings (size 3 to 8) (size 9 to 14) (size 15 to 20)
#    0.000    1.667    1.667    4.000    2.333    2.000 
#    0.000    9.167    0.000    0.000    0.000    5.833 
#    0.000    0.000    0.000    0.000    0.000    0.000 
#
# Total GULP energy -134092.120863 kJ/mol
# GULP energy per Si atom -5587.171703 kJ/mol
# Density = 2.338611 g / cm^3
# Si number density = 23.439461 Si / 1000 Ang^3
#
#
#
# Elastic Constant Matrix: (Units=GPa)
#
#
# Indices 1 2 3 4 5 6 
#
# 1 45.8899 4.1800 26.8979 0.0000 -13.2148 0.0000
# 2 4.1800 143.1525 31.0682 0.0000 -4.9373 0.0000
# 3 26.8979 31.0682 88.2559 0.0000 -13.8143 0.0000
# 4 0.0000 0.0000 0.0000 25.6740 0.0000 2.4434
# 5 -13.2148 -4.9373 -13.8143 0.0000 39.6823 0.0000
# 6 0.0000 0.0000 0.0000 2.4434 0.0000 9.6664
#
#
#
# Elastic Compliance Matrix: (Units=1/GPa)
#
#
# Indices 1 2 3 4 5 6 
#
# 1 0.028314 0.001136 -0.007965 0.000000 0.006798 0.000000
# 2 0.001136 0.007609 -0.002980 0.000000 0.000288 0.000000
# 3 -0.007965 -0.002980 0.015160 0.000000 0.002254 0.000000
# 4 0.000000 0.000000 0.000000 0.039910 0.000000 -0.010088
# 5 0.006798 0.000288 0.002254 0.000000 0.028284 0.000000
# 6 0.000000 0.000000 0.000000 -0.010088 0.000000 0.106001
#
#
# Mechanical properties :
#
#
# Convention : Reuss Voigt Hill
#
# Bulk Modulus (GPa) = 31.78078 44.62117 38.20098
# Shear Modulus (GPa) = 19.57830 29.34801 24.46316
#
# Velocity S-wave (km/s) = 2.89324 3.54231 3.23410
# Velocity P-wave (km/s) = 4.97486 5.98404 5.50263
#
# Compressibility (1/GPa) = 0.03146556
#
# Stress axis : x y z
#
# Youngs Moduli (GPa) = 35.31810 131.42311 65.96252
#
# Poissons Ratio (x) = -0.14935 0.52542
# Poissons Ratio (y) = -0.04014 0.19656
# Poissons Ratio (z) = 0.28132 0.39162
#
# Static dielectric constant tensor:
#      x y z
#    x 1.930620 0.000000 -0.006210 
#    y 0.000000 1.848010 0.000000 
#    z -0.006210 0.000000 1.995730 
# 
# From -- ./inp_files/195983.got.cif
#   From: 2010.05.17/outbox.cif.g08.bks.cpg/sg12_98_cif.got.tgz:195983.got - 2010.06.03 13:09:07.
