data_PCOD9220223
_publ_section_title
;
Structure prediction by ZEFSAII (Michael W. Deem and Ramdas Pophale) SiO2 
 PCOD9220223
Probable space group: C 2/M
;
_chemical_formula_sum "Si O2"
_cell_formula_units_Z 56
_cell_length_a 8.676085
_cell_length_b 18.867771
_cell_length_c 16.516055
_cell_angle_alpha 90.000000
_cell_angle_beta 62.480580
_cell_angle_gamma 90.000000
_cell_volume 2397.744919
_symmetry_space_group_name_H-M "C 2/M"
_symmetry_group_IT_number 12
_symmetry_cell_setting 'monoclinic'
loop_
_space_group_symop_operation_xyz
x,y,z
-x,y,-z
-x,-y,-z
x,-y,z
1/2+x,1/2+y,z
1/2-x,1/2+y,-z
1/2-x,1/2-y,-z
1/2+x,1/2-y,z
loop_
_atom_site_type_symbol
_atom_site_label
_atom_site_fract_x
_atom_site_fract_y
_atom_site_fract_z
Si Si1 0.239026 0.919100 0.743928
Si Si2 0.670125 0.803215 0.838638
Si Si3 0.766307 0.331316 0.900095
Si Si4 0.212401 0.581198 0.946744
Si Si5 0.645374 0.079932 0.597598
Si Si6 0.785667 0.847935 0.411028
Si Si7 0.351701 0.707422 0.629498
O O1 0.222389 0.877152 0.831400
O O2 0.442730 0.917992 0.668646
O O3 0.151403 0.884523 0.686924
O O4 0.185342 0.000000 0.768185
O O5 0.676144 0.744209 0.907549
O O6 0.474158 0.816711 0.856043
O O7 0.749872 0.874625 0.857006
O O8 0.787096 0.776823 0.736336
O O9 0.721459 0.375321 0.991510
O O10 0.270241 0.500000 0.932952
O O11 0.000000 0.580904 0.000000
O O12 0.685415 0.099079 0.494714
O O13 0.736349 0.142297 0.625663
O O14 0.709252 0.000000 0.599809
O O15 0.676608 0.779434 0.412016
O O16 0.952216 0.818250 0.417028
#
# Coordination Sequence:
#
# PCOD9220223 Si02
#       7
#     8   8   8   8   8   8   8
#     4  11  23  41  66  91 125 167 209 259 315 377
#     4  11  22  39  66  94 124 163 207 257 307 368
#     4  11  21  40  65  95 127 161 210 252 309 369
#     4   9  20  38  64  95 125 162 206 252 304 366
#     4  11  25  44  64  91 125 166 213 263 318 371
#     4  12  25  42  64  92 126 164 216 260 313 373
#     4  12  24  42  65  93 126 166 212 259 315 370
#
# _framework density 23.35528
#
# number of rings (size 3 to 8) (size 9 to 14) (size 15 to 20)
#    0.000    1.000    2.857    4.286    0.000    5.143 
#    0.000    0.000    0.000    0.857    0.000    0.000 
#    0.000    0.000    0.000    0.000    0.000    0.000 
#
# Total GULP energy -156910.599514 kJ/mol
# GULP energy per Si atom -5603.949983 kJ/mol
# Density = 2.330212 g / cm^3
# Si number density = 23.355280 Si / 1000 Ang^3
#
#
#
# Elastic Constant Matrix: (Units=GPa)
#
#
# Indices 1 2 3 4 5 6 
#
# 1 34.8246 11.7709 19.1157 0.0000 9.1979 0.0000
# 2 11.7709 144.1018 13.9092 0.0000 17.5368 0.0000
# 3 19.1157 13.9092 71.1232 0.0000 7.4958 0.0000
# 4 0.0000 0.0000 0.0000 36.2831 0.0000 7.3774
# 5 9.1979 17.5368 7.4958 0.0000 38.5600 0.0000
# 6 0.0000 0.0000 0.0000 7.3774 0.0000 12.7953
#
#
#
# Elastic Compliance Matrix: (Units=1/GPa)
#
#
# Indices 1 2 3 4 5 6 
#
# 1 0.035541 -0.001314 -0.008642 0.000000 -0.006200 0.000000
# 2 -0.001314 0.007481 -0.000801 0.000000 -0.002933 0.000000
# 3 -0.008642 -0.000801 0.016624 0.000000 -0.000806 0.000000
# 4 0.000000 0.000000 0.000000 0.031221 0.000000 -0.018001
# 5 -0.006200 -0.002933 -0.000806 0.000000 0.028903 0.000000
# 6 0.000000 0.000000 0.000000 -0.018001 0.000000 0.088533
#
#
# Mechanical properties :
#
#
# Convention : Reuss Voigt Hill
#
# Bulk Modulus (GPa) = 26.22440 37.73791 31.98115
# Shear Modulus (GPa) = 20.61621 31.21127 25.91374
#
# Velocity S-wave (km/s) = 2.97429 3.65960 3.33460
# Velocity P-wave (km/s) = 4.80083 5.83526 5.34314
#
# Compressibility (1/GPa) = 0.03813243
#
# Stress axis : x y z
#
# Youngs Moduli (GPa) = 28.13675 133.66924 60.15298
#
# Poissons Ratio (x) = 0.17571 0.51983
# Poissons Ratio (y) = 0.03699 0.04816
# Poissons Ratio (z) = 0.24315 0.10702
#
# Static dielectric constant tensor:
#      x y z
#    x 1.873800 0.000000 -0.007440 
#    y 0.000000 1.832620 0.000000 
#    z -0.007440 0.000000 1.876840 
# 
# From -- ./inp_files/257011.got.cif
#   From: 2010.05.17/outbox.cif.g08.bks.cpg/sg12_129_cif.got.tgz:257011.got - 2010.06.03 13:09:07.
