data_PCOD9220752
_publ_section_title
;
Structure prediction by ZEFSAII (Michael W. Deem and Ramdas Pophale) SiO2 
 PCOD9220752
Probable space group: C 2/M
;
_chemical_formula_sum "Si O2"
_cell_formula_units_Z 42
_cell_length_a 14.703037
_cell_length_b 7.668795
_cell_length_c 15.385167
_cell_angle_alpha 90.000000
_cell_angle_beta 96.506740
_cell_angle_gamma 90.000000
_cell_volume 1723.573668
_symmetry_space_group_name_H-M "C 2/M"
_symmetry_group_IT_number 12
_symmetry_cell_setting 'monoclinic'
loop_
_space_group_symop_operation_xyz
x,y,z
-x,y,-z
-x,-y,-z
x,-y,z
1/2+x,1/2+y,z
1/2-x,1/2+y,-z
1/2-x,1/2-y,-z
1/2+x,1/2-y,z
loop_
_atom_site_type_symbol
_atom_site_label
_atom_site_fract_x
_atom_site_fract_y
_atom_site_fract_z
Si Si1 0.623158 0.798847 0.786031
Si Si2 0.438372 0.697043 0.711619
Si Si3 0.189595 0.699088 0.161527
Si Si4 0.898194 0.287334 0.017949
Si Si5 0.641645 0.710395 0.482753
Si Si6 0.500000 0.000000 0.500000
O O1 0.547696 0.703957 0.721476
O O2 0.729244 0.783604 0.774738
O O3 0.619231 0.732681 0.885527
O O4 0.596359 0.000000 0.782185
O O5 0.408584 0.500000 0.721881
O O6 0.402697 0.796179 0.792484
O O7 0.392554 0.759938 0.618595
O O8 0.216624 0.500000 0.152633
O O9 0.169836 0.778740 0.064683
O O10 0.893827 0.500000 0.015666
O O11 0.000000 0.236847 0.000000
O O12 0.626311 0.500000 0.494941
O O13 0.750000 0.750000 0.500000
O O14 0.577927 0.844014 0.529466
#
# Coordination Sequence:
#
# PCOD9220752 Si02
#       6
#     8   8   8   8   8   2
#     4  11  22  38  62  91 132 175 229 280 336 403
#     4  11  25  44  66  98 138 172 221 282 340 414
#     4  11  22  38  63  91 129 178 225 278 342 399
#     4   9  17  34  58  86 121 174 228 282 333 391
#     4  11  26  50  80 115 151 193 246 304 371 456
#     4  12  26  48  88 112 152 194 242 294 382 444
#
# _framework density 24.367975000000001
#
# number of rings (size 3 to 8) (size 9 to 14) (size 15 to 20)
#    0.000    1.333    2.857    2.571    2.667    1.524 
#    0.000    3.810    0.000    0.000    0.000    0.000 
#    0.000    0.000    0.000    0.000    0.000    0.000 
#
# Total GULP energy -117145.896417 kJ/mol
# GULP energy per Si atom -5578.376020 kJ/mol
# Density = 2.431251 g / cm^3
# Si number density = 24.367975 Si / 1000 Ang^3
#
#
#
# Elastic Constant Matrix: (Units=GPa)
#
#
# Indices 1 2 3 4 5 6 
#
# 1 108.5807 15.9991 24.0101 0.0000 38.1430 0.0000
# 2 15.9991 78.3019 16.4644 0.0000 -6.0099 0.0000
# 3 24.0101 16.4644 106.3071 0.0000 32.0388 0.0000
# 4 0.0000 0.0000 0.0000 1.3530 0.0000 29.1869
# 5 38.1430 -6.0099 32.0388 0.0000 47.5391 0.0000
# 6 0.0000 0.0000 0.0000 29.1869 0.0000 -2.9764
#
#
#
# Elastic Compliance Matrix: (Units=1/GPa)
#
#
# Indices 1 2 3 4 5 6 
#
# 1 0.013941 -0.004078 0.001267 0.000000 -0.012555 0.000000
# 2 -0.004078 0.014972 -0.003707 0.000000 0.007664 0.000000
# 3 0.001267 -0.003707 0.012727 0.000000 -0.010063 0.000000
# 4 0.000000 0.000000 0.000000 0.003477 0.000000 0.034101
# 5 -0.012555 0.007664 -0.010063 0.000000 0.038859 0.000000
# 6 0.000000 0.000000 0.000000 0.034101 0.000000 -0.001581
#
#
# Mechanical properties :
#
#
# Convention : Reuss Voigt Hill
#
# Bulk Modulus (GPa) = 34.96206 45.12633 40.04420
# Shear Modulus (GPa) = 47.63325 24.96422 36.29874
#
# Velocity S-wave (km/s) = 4.42605 3.20420 3.86373
# Velocity P-wave (km/s) = 6.36385 5.67874 6.03103
#
# Compressibility (1/GPa) = 0.02860243
#
# Stress axis : x y z
#
# Youngs Moduli (GPa) = 71.73128 66.79058 78.57016
#
# Poissons Ratio (x) = 0.27240 -0.09953
# Poissons Ratio (y) = 0.29255 0.29129
# Poissons Ratio (z) = -0.09087 0.24762
#
# Static dielectric constant tensor:
#      x y z
#    x 1.974560 0.000000 -0.062230 
#    y 0.000000 1.890220 0.000000 
#    z -0.062230 0.000000 2.038680 
# 
# From -- ./inp_files/267779.got.cif
#   From: 2010.05.17/outbox.cif.g08.bks.cpg/sg12_134_cif.got.tgz:267779.got - 2010.06.03 13:09:07.
