data_PCOD9220810
_publ_section_title
;
Structure prediction by ZEFSAII (Michael W. Deem and Ramdas Pophale) SiO2 
 PCOD9220810
Probable space group: C 2/M
;
_chemical_formula_sum "Si O2"
_cell_formula_units_Z 64
_cell_length_a 9.877480
_cell_length_b 27.643027
_cell_length_c 14.707416
_cell_angle_alpha 90.000000
_cell_angle_beta 58.626573
_cell_angle_gamma 90.000000
_cell_volume 3428.628170
_symmetry_space_group_name_H-M "C 2/M"
_symmetry_group_IT_number 12
_symmetry_cell_setting 'monoclinic'
loop_
_space_group_symop_operation_xyz
x,y,z
-x,y,-z
-x,-y,-z
x,-y,z
1/2+x,1/2+y,z
1/2-x,1/2+y,-z
1/2-x,1/2-y,-z
1/2+x,1/2-y,z
loop_
_atom_site_type_symbol
_atom_site_label
_atom_site_fract_x
_atom_site_fract_y
_atom_site_fract_z
Si Si1 0.125274 0.445498 0.817230
Si Si2 0.280781 0.649469 0.711807
Si Si3 0.269724 0.945587 0.009072
Si Si4 0.122356 0.189633 0.638041
Si Si5 0.180354 0.713241 0.908402
Si Si6 0.126470 0.303142 0.592220
Si Si7 0.781059 0.689533 0.771190
Si Si8 0.834529 0.153347 0.015410
O O1 0.145921 0.500000 0.774415
O O2 0.219482 0.405309 0.727885
O O3 0.937120 0.437261 0.898376
O O4 0.192754 0.444436 0.896721
O O5 0.466870 0.659044 0.666241
O O6 0.185489 0.671641 0.830616
O O7 0.230621 0.679608 0.641207
O O8 0.158384 0.900267 0.027394
O O9 0.213257 0.000000 0.006354
O O10 0.105224 0.244955 0.608456
O O11 0.282599 0.176961 0.527480
O O12 0.151031 0.188105 0.736376
O O13 0.262693 0.758921 0.830278
O O14 0.271925 0.691484 0.963301
O O15 0.000000 0.722939 0.000000
O O16 0.947414 0.319559 0.665387
O O17 0.772083 0.652469 0.857283
O O18 0.000000 0.169136 0.000000
#
# Coordination Sequence:
#
# PCOD9220810 Si02
#       8
#     8   8   8   8   8   8   8   8
#     4   9  18  34  60  87 114 151 195 238 283 343
#     4  12  21  36  62  86 117 150 192 239 295 343
#     4   9  18  35  56  82 115 153 194 233 275 335
#     4  11  23  39  57  82 109 144 196 249 289 335
#     4  12  23  38  54  79 117 160 197 226 272 348
#     4  11  22  39  59  80 108 147 195 244 289 341
#     4  12  24  38  54  77 114 159 193 231 281 345
#     4  12  25  35  54  84 122 155 187 231 286 345
#
# _framework density 18.666357999999999
#
# number of rings (size 3 to 8) (size 9 to 14) (size 15 to 20)
#    0.000    1.000    3.750    5.250    0.000    2.250 
#    0.000    0.000    0.000    1.500    0.000    0.000 
#    0.000    5.000    0.000    0.000    0.000    0.000 
#
# Total GULP energy -178611.386519 kJ/mol
# GULP energy per Si atom -5581.605829 kJ/mol
# Density = 1.862387 g / cm^3
# Si number density = 18.666358 Si / 1000 Ang^3
#
#
#
# Elastic Constant Matrix: (Units=GPa)
#
#
# Indices 1 2 3 4 5 6 
#
# 1 80.3114 19.5464 22.2955 0.0000 5.7767 0.0000
# 2 19.5464 73.1195 11.6398 0.0000 -6.8208 0.0000
# 3 22.2955 11.6398 77.9614 0.0000 -7.5601 0.0000
# 4 0.0000 0.0000 0.0000 9.3281 0.0000 -2.1160
# 5 5.7767 -6.8208 -7.5601 0.0000 29.6999 0.0000
# 6 0.0000 0.0000 0.0000 -2.1160 0.0000 17.6259
#
#
#
# Elastic Compliance Matrix: (Units=1/GPa)
#
#
# Indices 1 2 3 4 5 6 
#
# 1 0.014867 -0.003762 -0.004157 0.000000 -0.004814 0.000000
# 2 -0.003762 0.015184 -0.000802 0.000000 0.004015 0.000000
# 3 -0.004157 -0.000802 0.014555 0.000000 0.004329 0.000000
# 4 0.000000 0.000000 0.000000 0.110204 0.000000 0.013230
# 5 -0.004814 0.004015 0.004329 0.000000 0.036630 0.000000
# 6 0.000000 0.000000 0.000000 0.013230 0.000000 0.058323
#
#
# Mechanical properties :
#
#
# Convention : Reuss Voigt Hill
#
# Bulk Modulus (GPa) = 36.81147 37.59508 37.20327
# Shear Modulus (GPa) = 18.09886 23.19148 20.64517
#
# Velocity S-wave (km/s) = 3.11721 3.52862 3.32928
# Velocity P-wave (km/s) = 5.72011 6.06513 5.89514
#
# Compressibility (1/GPa) = 0.02716545
#
# Stress axis : x y z
#
# Youngs Moduli (GPa) = 67.26162 65.85897 68.70376
#
# Poissons Ratio (x) = 0.24774 0.28560
# Poissons Ratio (y) = 0.25301 0.05510
# Poissons Ratio (z) = 0.27960 0.05281
#
# Static dielectric constant tensor:
#      x y z
#    x 1.689300 0.000000 -0.112670 
#    y 0.000000 1.681970 0.000000 
#    z -0.112670 0.000000 2.412790 
# 
# From -- ./inp_files/200904.got.cif
#   From: 2010.05.17/outbox.cif.g08.bks.cpg/sg12_101_cif.got.tgz:200904.got - 2010.06.03 13:09:07.
