data_PCOD9220209
_publ_section_title
;
Structure prediction by ZEFSAII (Michael W. Deem and Ramdas Pophale) SiO2 
 PCOD9220209
Probable space group: C 2/M
;
_chemical_formula_sum "Si O2"
_cell_formula_units_Z 48
_cell_length_a 9.842697
_cell_length_b 14.825713
_cell_length_c 17.730122
_cell_angle_alpha 90.000000
_cell_angle_beta 90.561612
_cell_angle_gamma 90.000000
_cell_volume 2587.143778
_symmetry_space_group_name_H-M "C 2/M"
_symmetry_group_IT_number 12
_symmetry_cell_setting 'monoclinic'
loop_
_space_group_symop_operation_xyz
x,y,z
-x,y,-z
-x,-y,-z
x,-y,z
1/2+x,1/2+y,z
1/2-x,1/2+y,-z
1/2-x,1/2-y,-z
1/2+x,1/2-y,z
loop_
_atom_site_type_symbol
_atom_site_label
_atom_site_fract_x
_atom_site_fract_y
_atom_site_fract_z
Si Si1 0.729618 0.500000 0.031319
Si Si2 0.513952 0.309173 0.654460
Si Si3 0.562255 0.500000 0.884041
Si Si4 0.838393 0.500000 0.510127
Si Si5 0.574919 0.500000 0.417952
Si Si6 0.209542 0.304923 0.425030
Si Si7 0.779450 0.304615 0.077296
Si Si8 0.000607 0.806856 0.169651
O O1 0.582316 0.500000 0.072373
O O2 0.804044 0.408521 0.054784
O O3 0.685464 0.500000 0.943898
O O4 0.467526 0.409402 0.626933
O O5 0.671204 0.296194 0.635215
O O6 0.428173 0.238028 0.605709
O O7 0.486998 0.290511 0.741759
O O8 0.560990 0.407569 0.838520
O O9 0.736483 0.500000 0.437455
O O10 0.803732 0.409218 0.554393
O O11 0.000000 0.500000 0.500000
O O12 0.500000 0.500000 0.500000
O O13 0.250000 0.250000 0.500000
O O14 0.901139 0.260027 0.124321
O O15 0.645033 0.303020 0.128415
O O16 0.750000 0.250000 0.000000
#
# Coordination Sequence:
#
# PCOD9220209 Si02
#       8
#     4   8   4   4   4   8   8   8
#     4   9  18  34  61  88 112 155 206 246 287 355
#     4  12  24  40  62  94 128 163 204 271 317 371
#     4   9  17  35  60  86 113 153 205 242 288 366
#     4  12  24  40  63  96 120 156 218 263 304 368
#     4  12  21  43  67  93 122 169 225 256 307 387
#     4  12  23  41  64  88 122 164 215 254 310 378
#     4  11  21  40  64  89 122 163 212 253 301 386
#     4  11  23  39  61  94 124 159 202 258 323 362
#
# _framework density 18.553277999999999
#
# number of rings (size 3 to 8) (size 9 to 14) (size 15 to 20)
#    0.000    0.833    5.000    3.500    0.000    0.000 
#    0.000    3.333    0.000    0.000    0.000    0.000 
#    0.000    0.000    0.000    0.000    0.000    0.000 
#
# Total GULP energy -134110.493897 kJ/mol
# GULP energy per Si atom -5587.937246 kJ/mol
# Density = 1.851105 g / cm^3
# Si number density = 18.553278 Si / 1000 Ang^3
#
#
#
# Elastic Constant Matrix: (Units=GPa)
#
#
# Indices 1 2 3 4 5 6 
#
# 1 45.1982 -14.6556 -18.0598 0.0000 -7.2043 0.0000
# 2 -14.6556 105.8280 -1.2261 0.0000 5.5166 0.0000
# 3 -18.0598 -1.2261 81.7014 0.0000 -5.1375 0.0000
# 4 0.0000 0.0000 0.0000 24.8806 0.0000 4.8130
# 5 -7.2043 5.5166 -5.1375 0.0000 32.1390 0.0000
# 6 0.0000 0.0000 0.0000 4.8130 0.0000 23.9783
#
#
#
# Elastic Compliance Matrix: (Units=1/GPa)
#
#
# Indices 1 2 3 4 5 6 
#
# 1 0.026823 0.003453 0.006386 0.000000 0.006441 0.000000
# 2 0.003453 0.009979 0.000863 0.000000 -0.000801 0.000000
# 3 0.006386 0.000863 0.013884 0.000000 0.003503 0.000000
# 4 0.000000 0.000000 0.000000 0.041816 0.000000 -0.008393
# 5 0.006441 -0.000801 0.003503 0.000000 0.033256 0.000000
# 6 0.000000 0.000000 0.000000 -0.008393 0.000000 0.043389
#
#
# Mechanical properties :
#
#
# Convention : Reuss Voigt Hill
#
# Bulk Modulus (GPa) = 13.87178 18.31604 16.09391
# Shear Modulus (GPa) = 29.10798 33.97751 31.54275
#
# Velocity S-wave (km/s) = 3.96521 4.28407 4.12772
# Velocity P-wave (km/s) = 5.33450 5.86213 5.60452
#
# Compressibility (1/GPa) = 0.07208881
#
# Stress axis : x y z
#
# Youngs Moduli (GPa) = 37.28202 100.20835 72.02284
#
# Poissons Ratio (x) = -0.34600 -0.45993
# Poissons Ratio (y) = -0.12873 -0.06213
# Poissons Ratio (z) = -0.23808 -0.08644
#
# Static dielectric constant tensor:
#      x y z
#    x 1.635750 0.000000 0.000530 
#    y 0.000000 1.626650 0.000000 
#    z 0.000530 0.000000 1.629720 
# 
# From -- ./inp_files/255847.got.cif
#   From: 2010.05.17/outbox.cif.g08.bks.cpg/sg12_128_cif.got.tgz:255847.got - 2010.06.03 13:09:07.
