data_PCOD9220713
_publ_section_title
;
Structure prediction by ZEFSAII (Michael W. Deem and Ramdas Pophale) SiO2 
 PCOD9220713
Probable space group: C 2/M
;
_chemical_formula_sum "Si O2"
_cell_formula_units_Z 48
_cell_length_a 27.398821
_cell_length_b 8.021251
_cell_length_c 15.243411
_cell_angle_alpha 90.000000
_cell_angle_beta 132.545790
_cell_angle_gamma 90.000000
_cell_volume 2468.133960
_symmetry_space_group_name_H-M "C 2/M"
_symmetry_group_IT_number 12
_symmetry_cell_setting 'monoclinic'
loop_
_space_group_symop_operation_xyz
x,y,z
-x,y,-z
-x,-y,-z
x,-y,z
1/2+x,1/2+y,z
1/2-x,1/2+y,-z
1/2-x,1/2-y,-z
1/2+x,1/2-y,z
loop_
_atom_site_type_symbol
_atom_site_label
_atom_site_fract_x
_atom_site_fract_y
_atom_site_fract_z
Si Si1 0.228566 0.187138 0.879418
Si Si2 0.684703 0.692681 0.371024
Si Si3 0.041288 0.201155 0.961424
Si Si4 0.443525 0.811985 0.691871
Si Si5 0.954000 0.000000 0.576312
Si Si6 0.897151 0.000000 0.313770
Si Si7 0.689204 0.196653 0.180165
O O1 0.149985 0.156025 0.770933
O O2 0.261742 0.268666 0.834703
O O3 0.257277 0.000000 0.911574
O O4 0.250000 0.250000 0.000000
O O5 0.669897 0.500000 0.372154
O O6 0.750000 0.750000 0.500000
O O7 0.622592 0.797357 0.329819
O O8 0.695177 0.714730 0.280568
O O9 0.003172 0.270581 0.830874
O O10 0.045343 0.000000 0.959932
O O11 0.114178 0.276427 0.057335
O O12 0.000000 0.239867 0.000000
O O13 0.440243 0.666892 0.615293
O O14 0.449700 0.000000 0.664251
O O15 0.911446 0.000000 0.435003
O O16 0.032029 0.000000 0.646398
O O17 0.702595 0.000000 0.212107
#
# Coordination Sequence:
#
# PCOD9220713 Si02
#       7
#     8   8   8   8   4   4   8
#     4   9  22  41  64  94 128 166 224 282 341 404
#     4  12  25  42  62  95 136 182 227 270 334 414
#     4  11  22  38  59  91 135 178 223 270 334 407
#     4  12  25  42  67 102 135 178 227 281 338 409
#     4  11  24  48  75  96 138 180 229 290 342 421
#     4   9  24  48  72  96 133 183 222 286 362 398
#     4  11  23  38  62  95 129 176 220 279 337 402
#
# _framework density 19.447890000000001
#
# number of rings (size 3 to 8) (size 9 to 14) (size 15 to 20)
#    0.500    0.667    3.333    2.500    4.667    2.000 
#    0.000    2.500    0.000    0.000    0.000    0.000 
#    0.000    0.000    0.000    0.000    0.000    0.000 
#
# Total GULP energy -133985.241368 kJ/mol
# GULP energy per Si atom -5582.718390 kJ/mol
# Density = 1.940363 g / cm^3
# Si number density = 19.447890 Si / 1000 Ang^3
#
#
#
# Elastic Constant Matrix: (Units=GPa)
#
#
# Indices 1 2 3 4 5 6 
#
# 1 86.9472 11.1179 40.5414 0.0000 -11.5403 0.0000
# 2 11.1179 90.6513 17.1664 0.0000 -17.2141 0.0000
# 3 40.5414 17.1664 136.3879 0.0000 -4.9712 0.0000
# 4 0.0000 0.0000 0.0000 28.9817 0.0000 -2.0258
# 5 -11.5403 -17.2141 -4.9712 0.0000 30.9231 0.0000
# 6 0.0000 0.0000 0.0000 -2.0258 0.0000 20.2224
#
#
#
# Elastic Compliance Matrix: (Units=1/GPa)
#
#
# Indices 1 2 3 4 5 6 
#
# 1 0.013967 -0.000103 -0.003974 0.000000 0.004516 0.000000
# 2 -0.000103 0.012573 -0.001306 0.000000 0.006751 0.000000
# 3 -0.003974 -0.001306 0.008648 0.000000 -0.000820 0.000000
# 4 0.000000 0.000000 0.000000 0.034748 0.000000 0.003481
# 5 0.004516 0.006751 -0.000820 0.000000 0.037650 0.000000
# 6 0.000000 0.000000 0.000000 0.003481 0.000000 0.049799
#
#
# Mechanical properties :
#
#
# Convention : Reuss Voigt Hill
#
# Bulk Modulus (GPa) = 40.94633 50.18198 45.56416
# Shear Modulus (GPa) = 28.36227 32.36949 30.36588
#
# Velocity S-wave (km/s) = 3.82301 4.08416 3.95574
# Velocity P-wave (km/s) = 6.37081 6.93540 6.65909
#
# Compressibility (1/GPa) = 0.02442221
#
# Stress axis : x y z
#
# Youngs Moduli (GPa) = 71.59819 79.53472 115.63612
#
# Poissons Ratio (x) = 0.00818 0.45955
# Poissons Ratio (y) = 0.00736 0.15101
# Poissons Ratio (z) = 0.28454 0.10386
#
# Static dielectric constant tensor:
#      x y z
#    x 1.699320 0.000000 -0.015700 
#    y 0.000000 1.700070 0.000000 
#    z -0.015700 0.000000 1.658840 
# 
# From -- ./inp_files/244410.got.cif
#   From: 2010.05.17/outbox.cif.g08.bks.cpg/sg12_123_cif.got.tgz:244410.got - 2010.06.03 13:09:07.
