data_PCOD9220084
_publ_section_title
;
Structure prediction by ZEFSAII (Michael W. Deem and Ramdas Pophale) SiO2 
 PCOD9220084
Probable space group: C 2/M
;
_chemical_formula_sum "Si O2"
_cell_formula_units_Z 48
_cell_length_a 9.463876
_cell_length_b 14.799262
_cell_length_c 17.664867
_cell_angle_alpha 90.000000
_cell_angle_beta 102.572732
_cell_angle_gamma 90.000000
_cell_volume 2414.784603
_symmetry_space_group_name_H-M "C 2/M"
_symmetry_group_IT_number 12
_symmetry_cell_setting 'monoclinic'
loop_
_space_group_symop_operation_xyz
x,y,z
-x,y,-z
-x,-y,-z
x,-y,z
1/2+x,1/2+y,z
1/2-x,1/2+y,-z
1/2-x,1/2-y,-z
1/2+x,1/2-y,z
loop_
_atom_site_type_symbol
_atom_site_label
_atom_site_fract_x
_atom_site_fract_y
_atom_site_fract_z
Si Si1 0.023584 0.308430 0.089526
Si Si2 0.351324 0.500000 0.304103
Si Si3 0.388239 0.303205 0.333301
Si Si4 0.359940 0.000000 0.245949
Si Si5 0.904778 0.500000 0.599823
Si Si6 0.618467 0.000000 0.151058
Si Si7 0.149728 0.697539 0.429772
Si Si8 0.222995 0.310149 0.817894
O O1 0.098399 0.407499 0.102900
O O2 0.126961 0.237195 0.143850
O O3 0.873887 0.315408 0.117835
O O4 0.000000 0.282953 0.000000
O O5 0.434767 0.406511 0.324841
O O6 0.224412 0.500000 0.352791
O O7 0.268368 0.500000 0.214444
O O8 0.236325 0.304033 0.360283
O O9 0.502860 0.250846 0.397597
O O10 0.362055 0.251929 0.252144
O O11 0.443895 0.000000 0.336061
O O12 0.491360 0.000000 0.199818
O O13 0.270832 0.090896 0.219355
O O14 0.883275 0.593694 0.553401
O O15 0.250000 0.750000 0.500000
#
# Coordination Sequence:
#
# PCOD9220084 Si02
#       8
#     8   4   8   4   4   4   8   8
#     4  11  22  37  58  88 119 149 188 240 292 338
#     4   9  18  34  60  87 110 143 199 245 272 324
#     4  11  21  39  62  86 114 152 195 236 282 340
#     4   9  18  35  59  82 109 155 195 227 278 345
#     4   9  18  37  60  80 114 156 191 226 280 348
#     4   9  17  34  59  84 108 151 199 232 271 343
#     4  11  23  39  60  88 118 151 188 237 292 340
#     4  11  21  38  61  84 112 154 198 233 280 341
#
# _framework density 19.877548999999998
#
# number of rings (size 3 to 8) (size 9 to 14) (size 15 to 20)
#    0.000    1.667    3.333    2.250    0.000    0.667 
#    0.000   10.417    0.000    0.000    0.000    0.000 
#    0.000    0.000    0.000    0.000    0.000    0.000 
#
# Total GULP energy -134058.684960 kJ/mol
# GULP energy per Si atom -5585.778540 kJ/mol
# Density = 1.983231 g / cm^3
# Si number density = 19.877549 Si / 1000 Ang^3
#
#
#
# Elastic Constant Matrix: (Units=GPa)
#
#
# Indices 1 2 3 4 5 6 
#
# 1 36.1088 13.2482 -4.7441 0.0000 2.9026 0.0000
# 2 13.2482 178.1219 33.4098 0.0000 22.9593 0.0000
# 3 -4.7441 33.4098 69.8040 0.0000 6.2929 0.0000
# 4 0.0000 0.0000 0.0000 21.2922 0.0000 1.6965
# 5 2.9026 22.9593 6.2929 0.0000 32.4410 0.0000
# 6 0.0000 0.0000 0.0000 1.6965 0.0000 23.0031
#
#
#
# Elastic Compliance Matrix: (Units=1/GPa)
#
#
# Indices 1 2 3 4 5 6 
#
# 1 0.029212 -0.002623 0.003368 0.000000 -0.001411 0.000000
# 2 -0.002623 0.006918 -0.003124 0.000000 -0.004055 0.000000
# 3 0.003368 -0.003124 0.016160 0.000000 -0.001225 0.000000
# 4 0.000000 0.000000 0.000000 0.047243 0.000000 -0.003484
# 5 -0.001411 -0.004055 -0.001225 0.000000 0.034059 0.000000
# 6 0.000000 0.000000 0.000000 -0.003484 0.000000 0.043729
#
#
# Mechanical properties :
#
#
# Convention : Reuss Voigt Hill
#
# Bulk Modulus (GPa) = 21.03787 40.87362 30.95575
# Shear Modulus (GPa) = 25.26230 31.48863 28.37547
#
# Velocity S-wave (km/s) = 3.56883 3.98443 3.78234
# Velocity P-wave (km/s) = 5.25250 6.46335 5.88913
#
# Compressibility (1/GPa) = 0.04753332
#
# Stress axis : x y z
#
# Youngs Moduli (GPa) = 34.23228 144.55452 61.88023
#
# Poissons Ratio (x) = 0.37910 -0.20840
# Poissons Ratio (y) = 0.08978 0.19329
# Poissons Ratio (z) = -0.11529 0.45154
#
# Static dielectric constant tensor:
#      x y z
#    x 1.700260 0.000000 -0.038410 
#    y 0.000000 1.715990 0.000000 
#    z -0.038410 0.000000 1.678230 
# 
# From -- ./inp_files/255844.got.cif
#   From: 2010.05.17/outbox.cif.g08.bks.cpg/sg12_128_cif.got.tgz:255844.got - 2010.06.03 13:09:07.
