data_PCOD9220031
_publ_section_title
;
Structure prediction by ZEFSAII (Michael W. Deem and Ramdas Pophale) SiO2 
 PCOD9220031
Probable space group: C 2/M
;
_chemical_formula_sum "Si O2"
_cell_formula_units_Z 40
_cell_length_a 19.796124
_cell_length_b 12.675173
_cell_length_c 8.855277
_cell_angle_alpha 90.000000
_cell_angle_beta 69.440461
_cell_angle_gamma 90.000000
_cell_volume 2080.438284
_symmetry_space_group_name_H-M "C 2/M"
_symmetry_group_IT_number 12
_symmetry_cell_setting 'monoclinic'
loop_
_space_group_symop_operation_xyz
x,y,z
-x,y,-z
-x,-y,-z
x,-y,z
1/2+x,1/2+y,z
1/2-x,1/2+y,-z
1/2-x,1/2-y,-z
1/2+x,1/2-y,z
loop_
_atom_site_type_symbol
_atom_site_label
_atom_site_fract_x
_atom_site_fract_y
_atom_site_fract_z
Si Si1 0.064238 0.289953 0.330350
Si Si2 0.421088 0.883692 0.990710
Si Si3 0.158942 0.240620 0.729572
Si Si4 0.012377 0.877193 0.808309
Si Si5 0.805238 0.625890 0.585479
O O1 0.066582 0.375866 0.196296
O O2 0.138917 0.305885 0.358689
O O3 0.000000 0.305574 0.500000
O O4 0.045989 0.183838 0.249147
O O5 0.396278 0.000000 0.054509
O O6 0.500000 0.865996 0.000000
O O7 0.366561 0.797138 0.097255
O O8 0.088782 0.180006 0.721376
O O9 0.182037 0.332010 0.594573
O O10 0.224500 0.159619 0.694644
O O11 0.014678 0.000000 0.766770
O O12 0.000000 0.870669 0.000000
O O13 0.816874 0.500000 0.589335
#
# Coordination Sequence:
#
# PCOD9220031 Si02
#       5
#     8   8   8   8   8
#     4  12  22  41  61  96 125 158 204 265 308 366
#     4  11  21  37  64  93 126 166 207 251 305 367
#     4  11  21  44  63  88 127 166 214 251 303 376
#     4  11  22  42  67  90 120 165 210 254 309 369
#     4  11  25  40  63  94 127 165 203 260 319 364
#
# _framework density 19.226718000000002
#
# number of rings (size 3 to 8) (size 9 to 14) (size 15 to 20)
#    0.000    0.800    6.000    1.800    0.000    4.400 
#    0.000    2.000    0.000    0.000    0.000    0.000 
#    0.000    0.000    0.000    0.000    0.000    0.000 
#
# Total GULP energy -111607.798325 kJ/mol
# GULP energy per Si atom -5580.389916 kJ/mol
# Density = 1.918296 g / cm^3
# Si number density = 19.226718 Si / 1000 Ang^3
#
#
#
# Elastic Constant Matrix: (Units=GPa)
#
#
# Indices 1 2 3 4 5 6 
#
# 1 79.4324 39.9037 25.5634 0.0000 -1.7133 0.0000
# 2 39.9037 142.4103 24.1914 0.0000 -15.3461 0.0000
# 3 25.5634 24.1914 97.6234 0.0000 -5.2086 0.0000
# 4 0.0000 0.0000 0.0000 1.6598 0.0000 -48.5335
# 5 -1.7133 -15.3461 -5.2086 0.0000 25.7392 0.0000
# 6 0.0000 0.0000 0.0000 -48.5335 0.0000 -109.9076
#
#
#
# Elastic Compliance Matrix: (Units=1/GPa)
#
#
# Indices 1 2 3 4 5 6 
#
# 1 0.015607 -0.004049 -0.003191 0.000000 -0.002021 0.000000
# 2 -0.004049 0.008823 -0.000869 0.000000 0.004815 0.000000
# 3 -0.003191 -0.000869 0.011378 0.000000 0.001572 0.000000
# 4 0.000000 0.000000 0.000000 0.043306 0.000000 -0.019123
# 5 -0.002021 0.004815 0.001572 0.000000 0.041906 0.000000
# 6 0.000000 0.000000 0.000000 -0.019123 0.000000 -0.000654
#
#
# Mechanical properties :
#
#
# Convention : Reuss Voigt Hill
#
# Bulk Modulus (GPa) = 51.04766 55.42033 53.23399
# Shear Modulus (GPa) = 34.93720 -1.18120 16.87800
#
# Velocity S-wave (km/s) = 4.26739 -0.78466 2.96605
# Velocity P-wave (km/s) = 7.13364 5.29776 6.28312
#
# Compressibility (1/GPa) = 0.01958954
#
# Stress axis : x y z
#
# Youngs Moduli (GPa) = 64.07520 113.34090 87.88599
#
# Poissons Ratio (x) = 0.45888 0.28047
# Poissons Ratio (y) = 0.25942 0.07640
# Poissons Ratio (z) = 0.20448 0.09852
#
# Static dielectric constant tensor:
#      x y z
#    x 1.667500 0.000000 0.021900 
#    y 0.000000 1.669240 0.000000 
#    z 0.021900 0.000000 1.702080 
# 
# From -- ./inp_files/71244.got.cif
#   From: 2010.05.17/outbox.cif.g08.bks.cpg/sg12_36_cif.got.tgz:71244.got - 2010.06.03 13:09:07.
