data_PCOD9220267
_publ_section_title
;
Structure prediction by ZEFSAII (Michael W. Deem and Ramdas Pophale) SiO2 
 PCOD9220267
Probable space group: C 2/M
;
_chemical_formula_sum "Si O2"
_cell_formula_units_Z 48
_cell_length_a 19.154811
_cell_length_b 13.543753
_cell_length_c 24.391870
_cell_angle_alpha 90.000000
_cell_angle_beta 21.307715
_cell_angle_gamma 90.000000
_cell_volume 2299.423932
_symmetry_space_group_name_H-M "C 2/M"
_symmetry_group_IT_number 12
_symmetry_cell_setting 'monoclinic'
loop_
_space_group_symop_operation_xyz
x,y,z
-x,y,-z
-x,-y,-z
x,-y,z
1/2+x,1/2+y,z
1/2-x,1/2+y,-z
1/2-x,1/2-y,-z
1/2+x,1/2-y,z
loop_
_atom_site_type_symbol
_atom_site_label
_atom_site_fract_x
_atom_site_fract_y
_atom_site_fract_z
Si Si1 0.897714 0.383193 0.515609
Si Si2 0.154012 0.606923 0.805925
Si Si3 0.957722 0.228469 0.184932
Si Si4 0.333046 0.886024 0.889803
Si Si5 0.963357 0.291391 0.353221
Si Si6 0.213457 0.105469 0.168009
O O1 0.899162 0.500000 0.502838
O O2 0.681088 0.342021 0.679306
O O3 0.988073 0.325291 0.397919
O O4 0.000000 0.369938 0.500000
O O5 0.194440 0.500000 0.749106
O O6 0.179648 0.706016 0.753435
O O7 0.265431 0.608035 0.781670
O O8 0.927970 0.608295 0.987188
O O9 0.065324 0.313573 0.140877
O O10 0.120176 0.160686 0.037709
O O11 0.465839 0.877592 0.738831
O O12 0.319367 0.000000 0.917814
O O13 0.750000 0.250000 0.500000
O O14 0.097087 0.200408 0.237376
O O15 0.125542 0.000000 0.216111
#
# Coordination Sequence:
#
# PCOD9220267 Si02
#       6
#     8   8   8   8   8   8
#     4  11  25  44  65  91 127 168 208 256 316 378
#     4   9  17  34  62  90 118 150 193 255 308 359
#     4  11  21  41  63  89 123 160 207 253 309 371
#     4  11  24  40  62  91 122 160 210 260 305 364
#     4  12  23  43  61  89 127 170 207 256 311 369
#     4   9  19  35  59  91 118 151 200 247 306 368
#
# _framework density 20.874794000000001
#
# number of rings (size 3 to 8) (size 9 to 14) (size 15 to 20)
#    0.000    1.500    3.333    3.500    0.000    1.333 
#    0.000    0.000    0.000    7.500    0.000    0.000 
#    0.000    0.000    0.000    0.000    0.000    0.000 
#
# Total GULP energy -133938.398917 kJ/mol
# GULP energy per Si atom -5580.766622 kJ/mol
# Density = 2.082728 g / cm^3
# Si number density = 20.874794 Si / 1000 Ang^3
#
#
#
# Elastic Constant Matrix: (Units=GPa)
#
#
# Indices 1 2 3 4 5 6 
#
# 1 53.2920 18.3818 -7.4561 -0.0159 12.3159 0.0019
# 2 18.3818 133.1258 21.7785 -0.0299 -6.0125 0.0036
# 3 -7.4561 21.7785 40.4614 -0.0558 6.9823 0.0109
# 4 -0.0159 -0.0299 -0.0558 20.1966 0.0096 3.4264
# 5 12.3159 -6.0125 6.9823 0.0096 25.3081 0.0029
# 6 0.0019 0.0036 0.0109 3.4264 0.0029 27.7631
#
#
#
# Elastic Compliance Matrix: (Units=1/GPa)
#
#
# Indices 1 2 3 4 5 6 
#
# 1 0.026589 -0.006319 0.011333 0.000053 -0.017567 -0.000010
# 2 -0.006319 0.010016 -0.007872 -0.000016 0.007626 0.000003
# 3 0.011333 -0.007872 0.033930 0.000103 -0.016746 -0.000024
# 4 0.000053 -0.000016 0.000103 0.050572 -0.000077 -0.006241
# 5 -0.017567 0.007626 -0.016746 -0.000077 0.054494 0.000011
# 6 -0.000010 0.000003 -0.000024 -0.006241 0.000011 0.036789
#
#
# Mechanical properties :
#
#
# Convention : Reuss Voigt Hill
#
# Bulk Modulus (GPa) = 15.42733 32.47639 23.95186
# Shear Modulus (GPa) = 20.85814 27.59857 24.22836
#
# Velocity S-wave (km/s) = 3.16445 3.64001 3.41053
# Velocity P-wave (km/s) = 4.55610 5.76695 5.19691
#
# Compressibility (1/GPa) = 0.06482002
#
# Stress axis : x y z
#
# Youngs Moduli (GPa) = 37.60890 99.83635 29.47218
#
# Poissons Ratio (x) = 0.63084 -0.33399
# Poissons Ratio (y) = 0.23764 0.23200
# Poissons Ratio (z) = -0.42620 0.78590
#
# Static dielectric constant tensor:
#      x y z
#    x 1.789230 0.000000 0.000230 
#    y 0.000000 1.762330 0.000010 
#    z 0.000230 0.000010 1.723330 
# 
# From -- ./inp_files/94988.got.cif
#   From: 2010.05.17/outbox.cif.g08.bks.cpg/sg12_48_cif.got.tgz:94988.got - 2010.06.03 13:09:07.
