data_PCOD9220739
_publ_section_title
;
Structure prediction by ZEFSAII (Michael W. Deem and Ramdas Pophale) SiO2 
 PCOD9220739
Probable space group: C 2/M
;
_chemical_formula_sum "Si O2"
_cell_formula_units_Z 64
_cell_length_a 14.841874
_cell_length_b 8.448664
_cell_length_c 26.744322
_cell_angle_alpha 90.000000
_cell_angle_beta 78.706928
_cell_angle_gamma 90.000000
_cell_volume 3288.646872
_symmetry_space_group_name_H-M "C 2/M"
_symmetry_group_IT_number 12
_symmetry_cell_setting 'monoclinic'
loop_
_space_group_symop_operation_xyz
x,y,z
-x,y,-z
-x,-y,-z
x,-y,z
1/2+x,1/2+y,z
1/2-x,1/2+y,-z
1/2-x,1/2-y,-z
1/2+x,1/2-y,z
loop_
_atom_site_type_symbol
_atom_site_label
_atom_site_fract_x
_atom_site_fract_y
_atom_site_fract_z
Si Si1 0.619514 0.187246 0.879979
Si Si2 0.527963 0.193067 0.441969
Si Si3 0.412396 0.807335 0.719668
Si Si4 0.151682 0.310621 0.991871
Si Si5 0.794391 0.309207 0.636408
Si Si6 0.911105 0.308938 0.358350
Si Si7 0.071890 0.183795 0.097250
Si Si8 0.808271 0.312760 0.829000
O O1 0.529979 0.280636 0.872542
O O2 0.710572 0.226959 0.839501
O O3 0.600303 0.000000 0.880538
O O4 0.637813 0.234356 0.935798
O O5 0.500000 0.248433 0.500000
O O6 0.630005 0.241668 0.413138
O O7 0.455441 0.240350 0.406810
O O8 0.527920 0.000000 0.442484
O O9 0.339728 0.761000 0.684457
O O10 0.513930 0.755568 0.691318
O O11 0.375085 0.755937 0.777371
O O12 0.414915 0.000000 0.719830
O O13 0.148104 0.500000 0.994965
O O14 0.079760 0.240955 0.039208
O O15 0.250000 0.250000 0.000000
O O16 0.791739 0.500000 0.636183
O O17 0.691875 0.248946 0.639038
O O18 0.909863 0.500000 0.357914
O O19 0.143072 0.278375 0.123645
O O20 0.095471 0.000000 0.097419
O O21 0.793374 0.500000 0.825133
#
# Coordination Sequence:
#
# PCOD9220739 Si02
#       8
#     8   8   8   8   8   8   8   8
#     4  11  24  41  60  85 114 144 181 223 271 328
#     4   8  15  29  49  73 105 146 182 213 259 322
#     4   8  18  36  55  75 102 140 178 217 268 326
#     4  11  22  38  62  86 114 147 182 223 270 325
#     4   9  17  32  53  76 104 137 179 223 265 317
#     4   9  17  32  53  76 104 138 180 222 264 317
#     4  12  25  40  59  85 115 147 184 223 269 328
#     4  11  22  39  61  82 109 142 181 229 280 329
#
# _framework density 19.460892999999999
#
# number of rings (size 3 to 8) (size 9 to 14) (size 15 to 20)
#    0.000    2.125    1.250    4.125    0.000    4.500 
#    0.000    7.500    0.000    0.750    0.000    0.000 
#    0.000    0.000    0.000    0.000    0.000    0.000 
#
# Total GULP energy -178640.453863 kJ/mol
# GULP energy per Si atom -5582.514183 kJ/mol
# Density = 1.941660 g / cm^3
# Si number density = 19.460893 Si / 1000 Ang^3
#
#
#
# Elastic Constant Matrix: (Units=GPa)
#
#
# Indices 1 2 3 4 5 6 
#
# 1 112.0933 3.0140 27.5866 0.0000 -24.5432 0.0000
# 2 3.0140 12.1912 10.5507 0.0000 -1.5153 0.0000
# 3 27.5866 10.5507 103.8792 0.0000 -21.5419 0.0000
# 4 0.0000 0.0000 0.0000 13.2061 0.0000 -5.6111
# 5 -24.5432 -1.5153 -21.5419 0.0000 17.5351 0.0000
# 6 0.0000 0.0000 0.0000 -5.6111 0.0000 33.0011
#
#
#
# Elastic Compliance Matrix: (Units=1/GPa)
#
#
# Indices 1 2 3 4 5 6 
#
# 1 0.012898 -0.001374 0.000582 0.000000 0.018649 0.000000
# 2 -0.001374 0.090359 -0.010188 0.000000 -0.006630 0.000000
# 3 0.000582 -0.010188 0.014080 0.000000 0.017231 0.000000
# 4 0.000000 0.000000 0.000000 0.081619 0.000000 0.013878
# 5 0.018649 -0.006630 0.017231 0.000000 0.103726 0.000000
# 6 0.000000 0.000000 0.000000 0.013878 0.000000 0.032662
#
#
# Mechanical properties :
#
#
# Convention : Reuss Voigt Hill
#
# Bulk Modulus (GPa) = 10.48473 34.49627 22.49050
# Shear Modulus (GPa) = 12.85028 25.21595 19.03311
#
# Velocity S-wave (km/s) = 2.57244 3.60352 3.13072
# Velocity P-wave (km/s) = 3.77128 5.92269 4.96492
#
# Compressibility (1/GPa) = 0.09537683
#
# Stress axis : x y z
#
# Youngs Moduli (GPa) = 77.53026 11.06699 71.02185
#
# Poissons Ratio (x) = 0.01521 -0.04130
# Poissons Ratio (y) = 0.10654 0.72354
# Poissons Ratio (z) = -0.04509 0.11275
#
# Static dielectric constant tensor:
#      x y z
#    x 1.666750 0.000000 -0.015350 
#    y 0.000000 1.663160 0.000000 
#    z -0.015350 0.000000 1.699580 
# 
# From -- ./inp_files/359756.got.cif
#   From: 2010.05.17/outbox.cif.g08.bks.cpg/sg12_180_cif.got.tgz:359756.got - 2010.06.03 13:09:07.
