data_PCOD9220213
_publ_section_title
;
Structure prediction by ZEFSAII (Michael W. Deem and Ramdas Pophale) SiO2 
 PCOD9220213
Probable space group: C 2/M
;
_chemical_formula_sum "Si O2"
_cell_formula_units_Z 60
_cell_length_a 11.876361
_cell_length_b 21.461384
_cell_length_c 23.451948
_cell_angle_alpha 90.000000
_cell_angle_beta 30.125799
_cell_angle_gamma 90.000000
_cell_volume 3000.111842
_symmetry_space_group_name_H-M "C 2/M"
_symmetry_group_IT_number 12
_symmetry_cell_setting 'monoclinic'
loop_
_space_group_symop_operation_xyz
x,y,z
-x,y,-z
-x,-y,-z
x,-y,z
1/2+x,1/2+y,z
1/2-x,1/2+y,-z
1/2-x,1/2-y,-z
1/2+x,1/2-y,z
loop_
_atom_site_type_symbol
_atom_site_label
_atom_site_fract_x
_atom_site_fract_y
_atom_site_fract_z
Si Si1 0.514451 0.072578 0.286823
Si Si2 0.436254 0.925141 0.962440
Si Si3 0.135627 0.152101 0.516800
Si Si4 0.500000 0.281694 0.000000
Si Si5 0.989258 0.763143 0.798595
Si Si6 0.289033 0.790349 0.561963
Si Si7 0.034273 0.865476 0.871351
Si Si8 0.861159 0.375750 0.239582
O O1 0.320299 0.114420 0.400698
O O2 0.752099 0.091107 0.210452
O O3 0.512658 0.088650 0.220039
O O4 0.467957 0.000000 0.315114
O O5 0.603698 0.899866 0.839874
O O6 0.437283 0.000000 0.960093
O O7 0.500000 0.907141 0.000000
O O8 0.192389 0.900461 0.048646
O O9 0.210986 0.163248 0.548002
O O10 0.124944 0.223468 0.499198
O O11 0.892949 0.120659 0.625845
O O12 0.722049 0.240436 0.909580
O O13 0.505959 0.325388 0.941584
O O14 0.093227 0.774290 0.691334
O O15 0.076474 0.815880 0.802731
O O16 0.068940 0.696511 0.787458
O O17 0.500000 0.820170 0.500000
#
# Coordination Sequence:
#
# PCOD9220213 Si02
#       8
#     8   8   8   4   8   8   8   8
#     4  12  25  46  71 101 141 181 233 285 337 408
#     4  11  27  48  67  93 134 187 239 279 338 418
#     4  11  24  39  67 100 136 177 223 282 344 405
#     4  12  24  42  63 106 141 166 224 286 350 412
#     4  12  25  38  67 102 140 175 222 284 346 419
#     4  11  21  40  64  94 139 176 219 275 344 416
#     4  12  25  43  70  98 139 182 229 282 349 404
#     4  12  24  43  69 105 133 180 227 289 352 403
#
# _framework density 19.999254000000001
#
# number of rings (size 3 to 8) (size 9 to 14) (size 15 to 20)
#    0.000    0.400    5.333    2.400    6.533    1.600 
#    0.000    2.000    0.000    1.200    0.000    0.000 
#    0.000    0.000    0.000    0.000    0.000    0.000 
#
# Total GULP energy -167786.682514 kJ/mol
# GULP energy per Si atom -5592.889417 kJ/mol
# Density = 1.995373 g / cm^3
# Si number density = 19.999254 Si / 1000 Ang^3
#
#
#
# Elastic Constant Matrix: (Units=GPa)
#
#
# Indices 1 2 3 4 5 6 
#
# 1 133.3988 31.3649 37.0440 0.2102 8.7827 -0.4241
# 2 31.3649 61.6922 1.1954 0.1208 8.8505 -0.2578
# 3 37.0440 1.1954 74.3858 0.0914 -0.8496 -0.2561
# 4 0.2102 0.1208 0.0914 -9.4991 -0.2409 40.7190
# 5 8.7827 8.8505 -0.8496 -0.2409 36.3570 0.4084
# 6 -0.4241 -0.2578 -0.2561 40.7190 0.4084 -66.6755
#
#
#
# Elastic Compliance Matrix: (Units=1/GPa)
#
#
# Indices 1 2 3 4 5 6 
#
# 1 0.010106 -0.004844 -0.004971 0.000000 -0.001378 -0.000035
# 2 -0.004844 0.019125 0.002066 0.000041 -0.003436 -0.000047
# 3 -0.004971 0.002066 0.015898 0.000056 0.001070 0.000003
# 4 0.000000 0.000041 0.000056 0.065070 -0.000024 0.039738
# 5 -0.001378 -0.003436 0.001070 -0.000024 0.028697 0.000179
# 6 -0.000035 -0.000047 0.000003 0.039738 0.000179 0.009272
#
#
# Mechanical properties :
#
#
# Convention : Reuss Voigt Hill
#
# Bulk Modulus (GPa) = 33.74943 45.40947 39.57945
# Shear Modulus (GPa) = 28.81112 5.36131 17.08622
#
# Velocity S-wave (km/s) = 3.79965 1.63908 2.92609
# Velocity P-wave (km/s) = 6.01347 5.13196 5.59012
#
# Compressibility (1/GPa) = 0.02963013
#
# Stress axis : x y z
#
# Youngs Moduli (GPa) = 98.94805 52.28740 62.90138
#
# Poissons Ratio (x) = 0.25330 0.31268
# Poissons Ratio (y) = 0.47933 -0.12993
# Poissons Ratio (z) = 0.49186 -0.10801
#
# Static dielectric constant tensor:
#      x y z
#    x 1.631720 -0.000020 -0.041320 
#    y -0.000020 1.665140 0.000010 
#    z -0.041320 0.000010 1.711180 
# 
# From -- ./inp_files/336857.got.cif
#   From: 2010.05.17/outbox.cif.g08.bks.cpg/sg12_169_cif.got.tgz:336857.got - 2010.06.03 13:09:07.
