data_PCOD9220006
_publ_section_title
;
Structure prediction by ZEFSAII (Michael W. Deem and Ramdas Pophale) SiO2 
 PCOD9220006
Probable space group: C 2/M
;
_chemical_formula_sum "Si O2"
_cell_formula_units_Z 48
_cell_length_a 15.455678
_cell_length_b 8.575701
_cell_length_c 30.148723
_cell_angle_alpha 90.000000
_cell_angle_beta 139.967444
_cell_angle_gamma 90.000000
_cell_volume 2570.324937
_symmetry_space_group_name_H-M "C 2/M"
_symmetry_group_IT_number 12
_symmetry_cell_setting 'monoclinic'
loop_
_space_group_symop_operation_xyz
x,y,z
-x,y,-z
-x,-y,-z
x,-y,z
1/2+x,1/2+y,z
1/2-x,1/2+y,-z
1/2-x,1/2-y,-z
1/2+x,1/2-y,z
loop_
_atom_site_type_symbol
_atom_site_label
_atom_site_fract_x
_atom_site_fract_y
_atom_site_fract_z
Si Si1 0.889547 0.313782 0.574937
Si Si2 0.585954 0.310409 0.076393
Si Si3 0.887458 0.188014 0.075805
Si Si4 0.414795 0.312909 0.422416
Si Si5 0.378442 0.685981 0.669670
Si Si6 0.889049 0.687674 0.175742
O O1 0.884192 0.500000 0.573666
O O2 0.750000 0.250000 0.500000
O O3 0.903588 0.250720 0.630190
O O4 0.009246 0.257372 0.590061
O O5 0.585759 0.500000 0.074874
O O6 0.508954 0.265024 0.090808
O O7 0.740262 0.261039 0.133261
O O8 0.500000 0.256875 0.000000
O O9 0.904344 0.257309 0.131168
O O10 0.882368 0.000000 0.075911
O O11 0.750000 0.250000 0.000000
O O12 0.500000 0.271290 0.500000
O O13 0.413195 0.500000 0.418269
O O14 0.264543 0.250783 0.369582
O O15 0.372731 0.500000 0.665960
O O16 0.496062 0.741746 0.748359
O O17 0.895315 0.500000 0.180092
#
# Coordination Sequence:
#
# PCOD9220006 Si02
#       6
#     8   8   8   8   8   8
#     4  12  24  41  67  98 130 169 215 263 319 380
#     4   9  18  36  62  89 119 162 207 249 306 378
#     4  11  21  37  62  92 123 160 210 259 314 380
#     4  11  23  41  68  98 128 166 216 266 317 381
#     4  12  26  44  65  94 133 171 213 265 323 384
#     4  11  23  42  64  89 126 166 208 261 321 378
#
# _framework density 18.674681
#
# number of rings (size 3 to 8) (size 9 to 14) (size 15 to 20)
#    0.000    1.000    3.333    4.500    0.000    2.000 
#    0.000    9.167    0.000    0.000    0.000    0.000 
#    0.000    0.000    0.000    0.000    0.000    0.000 
#
# Total GULP energy -134239.548530 kJ/mol
# GULP energy per Si atom -5593.314522 kJ/mol
# Density = 1.863218 g / cm^3
# Si number density = 18.674681 Si / 1000 Ang^3
#
#
#
# Elastic Constant Matrix: (Units=GPa)
#
#
# Indices 1 2 3 4 5 6 
#
# 1 170.2176 20.6565 92.4226 0.0000 1.9646 0.0000
# 2 20.6565 64.8163 40.3406 0.0000 0.2750 0.0000
# 3 92.4226 40.3406 176.6093 0.0000 2.2147 0.0000
# 4 0.0000 0.0000 0.0000 29.9593 0.0000 -4.7323
# 5 1.9646 0.2750 2.2147 0.0000 35.8000 0.0000
# 6 0.0000 0.0000 0.0000 -4.7323 0.0000 31.3954
#
#
#
# Elastic Compliance Matrix: (Units=1/GPa)
#
#
# Indices 1 2 3 4 5 6 
#
# 1 0.008208 0.000066 -0.004308 0.000000 -0.000184 0.000000
# 2 0.000066 0.017986 -0.004144 0.000000 0.000115 0.000000
# 3 -0.004308 -0.004144 0.008867 0.000000 -0.000280 0.000000
# 4 0.000000 0.000000 0.000000 0.034193 0.000000 0.005154
# 5 -0.000184 0.000115 -0.000280 0.000000 0.027960 0.000000
# 6 0.000000 0.000000 0.000000 0.005154 0.000000 0.032629
#
#
# Mechanical properties :
#
#
# Convention : Reuss Voigt Hill
#
# Bulk Modulus (GPa) = 54.67975 79.83143 67.25559
# Shear Modulus (GPa) = 32.74153 36.64584 34.69368
#
# Velocity S-wave (km/s) = 4.19173 4.43462 4.31489
# Velocity P-wave (km/s) = 7.26438 8.31038 7.80492
#
# Compressibility (1/GPa) = 0.01828831
#
# Stress axis : x y z
#
# Youngs Moduli (GPa) = 121.82950 55.59869 112.77754
#
# Poissons Ratio (x) = -0.00369 0.48588
# Poissons Ratio (y) = -0.00808 0.46740
# Poissons Ratio (z) = 0.52488 0.23043
#
# Static dielectric constant tensor:
#      x y z
#    x 1.629550 0.000000 0.003000 
#    y 0.000000 1.629330 0.000000 
#    z 0.003000 0.000000 1.604810 
# 
# From -- ./inp_files/308593.got.cif
#   From: 2010.05.17/outbox.cif.g08.bks.cpg/sg12_155_cif.got.tgz:308593.got - 2010.06.03 13:09:07.
