data_PCOD9220058
_publ_section_title
;
Structure prediction by ZEFSAII (Michael W. Deem and Ramdas Pophale) SiO2 
 PCOD9220058
Probable space group: C 2/M
;
_chemical_formula_sum "Si O2"
_cell_formula_units_Z 56
_cell_length_a 11.807769
_cell_length_b 17.772752
_cell_length_c 27.380258
_cell_angle_alpha 90.000000
_cell_angle_beta 33.185413
_cell_angle_gamma 90.000000
_cell_volume 3145.033855
_symmetry_space_group_name_H-M "C 2/M"
_symmetry_group_IT_number 12
_symmetry_cell_setting 'monoclinic'
loop_
_space_group_symop_operation_xyz
x,y,z
-x,y,-z
-x,-y,-z
x,-y,z
1/2+x,1/2+y,z
1/2-x,1/2+y,-z
1/2-x,1/2-y,-z
1/2+x,1/2-y,z
loop_
_atom_site_type_symbol
_atom_site_label
_atom_site_fract_x
_atom_site_fract_y
_atom_site_fract_z
Si Si1 0.974929 0.168276 0.800367
Si Si2 0.639196 0.086475 0.302501
Si Si3 0.725215 0.662326 0.020907
Si Si4 0.267142 0.590977 0.599213
Si Si5 0.337824 0.585350 0.121727
Si Si6 0.836205 0.408738 0.163279
Si Si7 0.065298 0.345196 0.769000
O O1 0.857282 0.153645 0.894109
O O2 0.837712 0.129366 0.808154
O O3 0.203425 0.132745 0.721535
O O4 0.009499 0.257552 0.784150
O O5 0.404197 0.113227 0.379530
O O6 0.734968 0.088498 0.213061
O O7 0.637627 0.000000 0.319334
O O8 0.545055 0.632869 0.050291
O O9 0.750000 0.750000 0.000000
O O10 0.937935 0.617066 0.937800
O O11 0.500000 0.609128 0.500000
O O12 0.249498 0.500000 0.611032
O O13 0.199083 0.628101 0.674519
O O14 0.391950 0.500000 0.091608
O O15 0.156464 0.613253 0.152468
O O16 0.820097 0.500000 0.170502
O O17 0.825040 0.370813 0.220865
#
# Coordination Sequence:
#
# PCOD9220058 Si02
#       7
#     8   8   8   8   8   8   8
#     4  11  23  37  58  79 118 159 194 234 291 352
#     4   8  16  33  57  81 106 142 189 228 275 342
#     4  11  21  38  55  80 111 153 202 246 287 335
#     4   9  18  36  65  92 113 143 189 242 292 351
#     4   9  18  33  54  75 103 141 187 237 282 330
#     4  12  25  38  57  86 120 159 201 247 295 347
#     4  11  22  37  59  84 119 149 191 242 300 352
#
# _framework density 17.80585
#
# number of rings (size 3 to 8) (size 9 to 14) (size 15 to 20)
#    0.000    1.857    1.429    4.286    4.000    2.857 
#    0.000    2.143    0.000    0.000    0.000    4.000 
#    0.000    0.000    0.000    0.000    0.000    0.000 
#
# Total GULP energy -156279.576390 kJ/mol
# GULP energy per Si atom -5581.413442 kJ/mol
# Density = 1.776532 g / cm^3
# Si number density = 17.805850 Si / 1000 Ang^3
#
#
#
# Elastic Constant Matrix: (Units=GPa)
#
#
# Indices 1 2 3 4 5 6 
#
# 1 128.9730 48.1780 50.5125 -0.0009 -20.6418 0.0004
# 2 48.1780 105.0896 37.9187 0.0053 -13.1366 -0.0004
# 3 50.5125 37.9187 107.0083 0.0104 -20.6834 0.0055
# 4 -0.0009 0.0053 0.0104 11.3719 0.0004 2.6328
# 5 -20.6418 -13.1366 -20.6834 0.0004 26.2147 -0.0025
# 6 0.0004 -0.0004 0.0055 2.6328 -0.0025 24.5019
#
#
#
# Elastic Compliance Matrix: (Units=1/GPa)
#
#
# Indices 1 2 3 4 5 6 
#
# 1 0.010935 -0.003328 -0.003116 0.000005 0.004484 0.000000
# 2 -0.003328 0.012108 -0.002423 -0.000004 0.001535 0.000001
# 3 -0.003116 -0.002423 0.012939 -0.000011 0.006541 -0.000001
# 4 0.000005 -0.000004 -0.000011 0.090180 -0.000009 -0.009690
# 5 0.004484 0.001535 0.006541 -0.000009 0.047608 0.000004
# 6 0.000000 0.000001 -0.000001 -0.009690 0.000004 0.041854
#
#
# Mechanical properties :
#
#
# Convention : Reuss Voigt Hill
#
# Bulk Modulus (GPa) = 54.80031 68.25437 61.52734
# Shear Modulus (GPa) = 20.88221 26.04846 23.46533
#
# Velocity S-wave (km/s) = 3.42829 3.82896 3.63415
# Velocity P-wave (km/s) = 6.82014 7.61339 7.22765
#
# Compressibility (1/GPa) = 0.01824807
#
# Stress axis : x y z
#
# Youngs Moduli (GPa) = 91.45166 82.59316 77.28858
#
# Poissons Ratio (x) = 0.27490 0.24080
# Poissons Ratio (y) = 0.30438 0.18723
# Poissons Ratio (z) = 0.28492 0.20008
#
# Static dielectric constant tensor:
#      x y z
#    x 1.628700 0.000070 0.000990 
#    y 0.000070 1.792770 -0.000030 
#    z 0.000990 -0.000030 1.601050 
# 
# From -- ./inp_files/263250.got.cif
#   From: 2010.05.17/outbox.cif.g08.bks.cpg/sg12_132_cif.got.tgz:263250.got - 2010.06.03 13:09:07.
