data_PCOD9220563
_publ_section_title
;
Structure prediction by ZEFSAII (Michael W. Deem and Ramdas Pophale) SiO2 
 PCOD9220563
Probable space group: C 2/M
;
_chemical_formula_sum "Si O2"
_cell_formula_units_Z 64
_cell_length_a 20.659020
_cell_length_b 29.268982
_cell_length_c 8.395070
_cell_angle_alpha 90.000000
_cell_angle_beta 140.551023
_cell_angle_gamma 90.000000
_cell_volume 3225.392653
_symmetry_space_group_name_H-M "C 2/M"
_symmetry_group_IT_number 12
_symmetry_cell_setting 'monoclinic'
loop_
_space_group_symop_operation_xyz
x,y,z
-x,y,-z
-x,-y,-z
x,-y,z
1/2+x,1/2+y,z
1/2-x,1/2+y,-z
1/2-x,1/2-y,-z
1/2+x,1/2-y,z
loop_
_atom_site_type_symbol
_atom_site_label
_atom_site_fract_x
_atom_site_fract_y
_atom_site_fract_z
Si Si1 0.967641 0.751363 0.120312
Si Si2 0.185096 0.116934 0.533277
Si Si3 0.977571 0.854395 0.271750
Si Si4 0.868603 0.447190 0.918297
Si Si5 0.593747 0.053361 0.393803
Si Si6 0.144252 0.292016 0.642930
Si Si7 0.737190 0.374649 0.262112
Si Si8 0.274802 0.795271 0.870820
O O1 0.976914 0.803720 0.193785
O O2 0.035079 0.717886 0.359606
O O3 0.853479 0.734020 0.918752
O O4 0.000000 0.747938 0.000000
O O5 0.067054 0.115724 0.360362
O O6 0.264923 0.079852 0.752775
O O7 0.198920 0.117311 0.369534
O O8 0.226502 0.164387 0.680767
O O9 0.000000 0.849715 0.500000
O O10 0.864627 0.874373 0.035742
O O11 0.857012 0.500000 0.940715
O O12 0.887629 0.445430 0.762714
O O13 0.976536 0.430944 0.197829
O O14 0.679008 0.087166 0.623869
O O15 0.603318 0.000000 0.460388
O O16 0.207529 0.325521 0.648556
O O17 0.186843 0.240605 0.746026
O O18 0.166140 0.312343 0.859441
#
# Coordination Sequence:
#
# PCOD9220563 Si02
#       8
#     8   8   8   8   8   8   8   8
#     4  12  24  38  58  81 110 149 200 251 286 332
#     4  11  22  36  60  90 116 150 200 246 285 342
#     4  12  24  40  57  77 116 162 197 238 298 349
#     4   8  16  34  60  90 121 148 180 234 299 350
#     4   8  16  34  60  90 121 148 180 234 299 350
#     4  11  23  38  56  80 117 159 193 231 289 351
#     4  11  22  36  60  90 116 150 200 246 285 342
#     4  11  23  38  56  80 117 159 193 231 289 351
#
# _framework density 19.842545000000001
#
# number of rings (size 3 to 8) (size 9 to 14) (size 15 to 20)
#    0.000    1.500    2.500    4.500    1.750    1.000 
#    0.000    0.625    0.000    6.750    0.000    7.000 
#    0.000    0.000    0.000    0.000    0.000    0.000 
#
# Total GULP energy -178613.567464 kJ/mol
# GULP energy per Si atom -5581.673983 kJ/mol
# Density = 1.979738 g / cm^3
# Si number density = 19.842545 Si / 1000 Ang^3
#
#
#
# Elastic Constant Matrix: (Units=GPa)
#
#
# Indices 1 2 3 4 5 6 
#
# 1 17.1082 -2.4252 0.2290 0.0000 10.6241 0.0000
# 2 -2.4252 51.8231 35.1996 0.0000 24.2145 0.0000
# 3 0.2290 35.1996 108.5616 0.0000 24.3224 0.0000
# 4 0.0000 0.0000 0.0000 -3.1746 0.0000 -66.7597
# 5 10.6241 24.2145 24.3224 0.0000 38.6657 0.0000
# 6 0.0000 0.0000 0.0000 -66.7597 0.0000 -209.2242
#
#
#
# Elastic Compliance Matrix: (Units=1/GPa)
#
#
# Indices 1 2 3 4 5 6 
#
# 1 0.083941 0.019951 0.001538 0.000000 -0.036526 0.000000
# 2 0.019951 0.035622 -0.006246 0.000000 -0.023861 0.000000
# 3 0.001538 -0.006246 0.012166 0.000000 -0.004164 0.000000
# 4 0.000000 0.000000 0.000000 0.055166 0.000000 -0.017602
# 5 -0.036526 -0.023861 -0.004164 0.000000 0.053461 0.000000
# 6 0.000000 0.000000 0.000000 -0.017602 0.000000 0.000837
#
#
# Mechanical properties :
#
#
# Convention : Reuss Voigt Hill
#
# Bulk Modulus (GPa) = 6.16472 27.05554 16.61013
# Shear Modulus (GPa) = 18.88363 -25.11397 -3.11517
#
# Velocity S-wave (km/s) = 3.08827 -3.56148 -1.25433
# Velocity P-wave (km/s) = 3.97870 1.80206 2.50825
#
# Compressibility (1/GPa) = 0.16221347
#
# Stress axis : x y z
#
# Youngs Moduli (GPa) = 11.91308 28.07289 82.19487
#
# Poissons Ratio (x) = -0.56007 -0.12638
# Poissons Ratio (y) = -0.23767 0.51339
# Poissons Ratio (z) = -0.01832 0.17534
#
# Static dielectric constant tensor:
#      x y z
#    x 1.725360 0.000000 0.007020 
#    y 0.000000 1.677670 0.000000 
#    z 0.007020 0.000000 1.729840 
# 
# From -- ./inp_files/100232.got.cif
#   From: 2010.05.17/outbox.cif.g08.bks.cpg/sg12_51_cif.got.tgz:100232.got - 2010.06.03 13:09:07.
