data_PCOD9220611
_publ_section_title
;
Structure prediction by ZEFSAII (Michael W. Deem and Ramdas Pophale) SiO2 
 PCOD9220611
Probable space group: C 2/M
;
_chemical_formula_sum "Si O2"
_cell_formula_units_Z 56
_cell_length_a 9.546860
_cell_length_b 28.203737
_cell_length_c 20.309777
_cell_angle_alpha 90.000000
_cell_angle_beta 30.865285
_cell_angle_gamma 90.000000
_cell_volume 2805.483581
_symmetry_space_group_name_H-M "C 2/M"
_symmetry_group_IT_number 12
_symmetry_cell_setting 'monoclinic'
loop_
_space_group_symop_operation_xyz
x,y,z
-x,y,-z
-x,-y,-z
x,-y,z
1/2+x,1/2+y,z
1/2-x,1/2+y,-z
1/2-x,1/2-y,-z
1/2+x,1/2-y,z
loop_
_atom_site_type_symbol
_atom_site_label
_atom_site_fract_x
_atom_site_fract_y
_atom_site_fract_z
Si Si1 0.921267 0.729437 0.788683
Si Si2 0.051685 0.443923 0.682249
Si Si3 0.878848 0.132086 0.114213
Si Si4 0.479800 0.277590 0.628206
Si Si5 0.989496 0.944637 0.615052
Si Si6 0.306710 0.325257 0.894619
Si Si7 0.171343 0.864840 0.629019
O O1 0.791835 0.677770 0.841719
O O2 0.819503 0.767993 0.882883
O O3 0.245602 0.724520 0.668591
O O4 0.865442 0.752790 0.740380
O O5 0.976318 0.500000 0.715079
O O6 0.221043 0.432080 0.680665
O O7 0.259271 0.438156 0.537451
O O8 0.808405 0.406663 0.774531
O O9 0.104686 0.153667 0.071626
O O10 0.000000 0.108813 0.000000
O O11 0.750000 0.250000 0.500000
O O12 0.571781 0.329845 0.611152
O O13 0.052074 0.914983 0.654701
O O14 0.970433 0.000000 0.637980
O O15 0.529003 0.344843 0.752232
O O16 0.000000 0.339779 0.000000
O O17 0.500000 0.864573 0.500000
#
# Coordination Sequence:
#
# PCOD9220611 Si02
#       7
#     8   8   8   8   8   8   8
#     4  11  23  40  61  86 127 165 217 258 306 379
#     4   9  20  40  65  98 129 156 210 272 312 375
#     4  12  26  40  67  91 119 176 220 252 322 380
#     4  11  22  37  57  91 126 165 200 259 316 374
#     4   9  19  38  67  96 125 161 206 263 323 378
#     4  11  26  44  61  91 136 165 213 272 311 379
#     4  11  23  39  63  89 128 167 207 260 325 374
#
# _framework density 19.960909000000001
#
# number of rings (size 3 to 8) (size 9 to 14) (size 15 to 20)
#    0.000    1.429    1.429    5.143    8.000    1.714 
#    0.000    0.714    0.000    0.857    0.000    0.000 
#    0.000    0.000    0.000    0.000    0.000    0.000 
#
# Total GULP energy -156462.347668 kJ/mol
# GULP energy per Si atom -5587.940988 kJ/mol
# Density = 1.991548 g / cm^3
# Si number density = 19.960909 Si / 1000 Ang^3
#
#
#
# Elastic Constant Matrix: (Units=GPa)
#
#
# Indices 1 2 3 4 5 6 
#
# 1 76.1937 20.5990 23.0271 -0.0006 -21.6403 -0.0001
# 2 20.5990 58.6133 6.1534 0.0003 -9.1085 -0.0002
# 3 23.0271 6.1534 49.7962 0.0002 -22.5324 -0.0017
# 4 -0.0006 0.0003 0.0002 11.1490 0.0002 -4.7093
# 5 -21.6403 -9.1085 -22.5324 0.0002 30.9918 0.0002
# 6 -0.0001 -0.0002 -0.0017 -4.7093 0.0002 21.8470
#
#
#
# Elastic Compliance Matrix: (Units=1/GPa)
#
#
# Indices 1 2 3 4 5 6 
#
# 1 0.017917 -0.004594 -0.003975 0.000001 0.008270 0.000000
# 2 -0.004594 0.019058 0.001270 -0.000001 0.003317 0.000000
# 3 -0.003975 0.001270 0.030813 0.000000 0.020000 0.000002
# 4 0.000001 -0.000001 0.000000 0.098679 -0.000001 0.021271
# 5 0.008270 0.003317 0.020000 -0.000001 0.053557 0.000001
# 6 0.000000 0.000000 0.000002 0.021271 0.000001 0.050358
#
#
# Mechanical properties :
#
#
# Convention : Reuss Voigt Hill
#
# Bulk Modulus (GPa) = 18.80091 31.57356 25.18723
# Shear Modulus (GPa) = 16.51748 21.78581 19.15165
#
# Velocity S-wave (km/s) = 2.87974 3.30725 3.10087
# Velocity P-wave (km/s) = 4.52730 5.51688 5.04641
#
# Compressibility (1/GPa) = 0.05318892
#
# Stress axis : x y z
#
# Youngs Moduli (GPa) = 55.81373 52.47256 32.45382
#
# Poissons Ratio (x) = 0.24107 0.12901
# Poissons Ratio (y) = 0.25642 -0.04122
# Poissons Ratio (z) = 0.22188 -0.06665
#
# Static dielectric constant tensor:
#      x y z
#    x 2.083690 0.000000 0.057980 
#    y 0.000000 1.724060 0.000000 
#    z 0.057980 0.000000 1.715700 
# 
# From -- ./inp_files/303009.got.cif
#   From: 2010.05.17/outbox.cif.g08.bks.cpg/sg12_152_cif.got.tgz:303009.got - 2010.06.03 13:09:07.
