data_PCOD9220276
_publ_section_title
;
Structure prediction by ZEFSAII (Michael W. Deem and Ramdas Pophale) SiO2 
 PCOD9220276
Probable space group: C 2/M
;
_chemical_formula_sum "Si O2"
_cell_formula_units_Z 56
_cell_length_a 17.681807
_cell_length_b 20.602652
_cell_length_c 7.816628
_cell_angle_alpha 90.000000
_cell_angle_beta 64.455543
_cell_angle_gamma 90.000000
_cell_volume 2569.192079
_symmetry_space_group_name_H-M "C 2/M"
_symmetry_group_IT_number 12
_symmetry_cell_setting 'monoclinic'
loop_
_space_group_symop_operation_xyz
x,y,z
-x,y,-z
-x,-y,-z
x,-y,z
1/2+x,1/2+y,z
1/2-x,1/2+y,-z
1/2-x,1/2-y,-z
1/2+x,1/2-y,z
loop_
_atom_site_type_symbol
_atom_site_label
_atom_site_fract_x
_atom_site_fract_y
_atom_site_fract_z
Si Si1 0.855064 0.923632 0.876754
Si Si2 0.087357 0.313696 0.011992
Si Si3 0.766493 0.926274 0.319828
Si Si4 0.091053 0.384092 0.373779
Si Si5 0.520608 0.324337 0.159386
Si Si6 0.739368 0.649067 0.318100
Si Si7 0.909604 0.757612 0.497448
O O1 0.819844 0.906273 0.100351
O O2 0.871515 0.000000 0.855176
O O3 0.936872 0.879302 0.768585
O O4 0.788884 0.903291 0.796439
O O5 0.093918 0.357134 0.177043
O O6 0.081201 0.238338 0.077807
O O7 0.167188 0.327910 0.816665
O O8 0.000000 0.327385 0.000000
O O9 0.670915 0.925559 0.344776
O O10 0.770549 0.881310 0.483419
O O11 0.790778 0.000000 0.342612
O O12 0.097258 0.319075 0.484672
O O13 0.000000 0.413685 0.500000
O O14 0.432976 0.291437 0.297916
O O15 0.500000 0.356750 0.000000
O O16 0.674751 0.708913 0.358143
O O17 0.000000 0.771249 0.500000
#
# Coordination Sequence:
#
# PCOD9220276 Si02
#       7
#     8   8   8   8   8   8   8
#     4  11  24  44  67  94 135 183 224 265 317 390
#     4  11  23  40  66 102 130 167 217 278 336 394
#     4  11  26  44  64  94 132 176 226 271 320 395
#     4  11  21  41  65  95 137 166 212 278 334 395
#     4  11  23  42  64  98 138 169 218 277 325 396
#     4  12  24  42  71  96 131 176 222 274 333 383
#     4  11  22  40  64 101 136 165 215 276 335 388
#
# _framework density 21.796735999999999
#
# number of rings (size 3 to 8) (size 9 to 14) (size 15 to 20)
#    0.000    0.857    5.714    2.143    4.000    2.286 
#    0.000    2.143    0.000    2.143    0.000    0.000 
#    0.000    0.000    0.000    0.000    0.000    0.000 
#
# Total GULP energy -156396.860010 kJ/mol
# GULP energy per Si atom -5585.602143 kJ/mol
# Density = 2.174713 g / cm^3
# Si number density = 21.796736 Si / 1000 Ang^3
#
#
#
# Elastic Constant Matrix: (Units=GPa)
#
#
# Indices 1 2 3 4 5 6 
#
# 1 84.1957 29.6253 23.2108 0.0000 11.5579 0.0000
# 2 29.6253 71.5840 28.2251 0.0000 -5.5496 0.0000
# 3 23.2108 28.2251 86.7343 0.0000 -3.1667 0.0000
# 4 0.0000 0.0000 0.0000 19.8666 0.0000 6.6651
# 5 11.5579 -5.5496 -3.1667 0.0000 29.7648 0.0000
# 6 0.0000 0.0000 0.0000 6.6651 0.0000 25.0764
#
#
#
# Elastic Compliance Matrix: (Units=1/GPa)
#
#
# Indices 1 2 3 4 5 6 
#
# 1 0.015751 -0.006116 -0.002499 0.000000 -0.007522 0.000000
# 2 -0.006116 0.018580 -0.004213 0.000000 0.005391 0.000000
# 3 -0.002499 -0.004213 0.013629 0.000000 0.001635 0.000000
# 4 0.000000 0.000000 0.000000 0.055264 0.000000 -0.014689
# 5 -0.007522 0.005391 0.001635 0.000000 0.037697 0.000000
# 6 0.000000 0.000000 0.000000 -0.014689 0.000000 0.043782
#
#
# Mechanical properties :
#
#
# Convention : Reuss Voigt Hill
#
# Bulk Modulus (GPa) = 44.83702 44.95962 44.89832
# Shear Modulus (GPa) = 22.95753 25.70506 24.33130
#
# Velocity S-wave (km/s) = 3.24891 3.43783 3.34470
# Velocity P-wave (km/s) = 5.88974 6.03571 5.96317
#
# Compressibility (1/GPa) = 0.02230300
#
# Stress axis : x y z
#
# Youngs Moduli (GPa) = 63.48875 53.82186 73.37355
#
# Poissons Ratio (x) = 0.32919 0.18339
# Poissons Ratio (y) = 0.38831 0.30910
# Poissons Ratio (z) = 0.15868 0.22673
#
# Static dielectric constant tensor:
#      x y z
#    x 1.807630 0.000000 0.053680 
#    y 0.000000 1.752470 0.000000 
#    z 0.053680 0.000000 1.986400 
# 
# From -- ./inp_files/77379.got.cif
#   From: 2010.05.17/outbox.cif.g08.bks.cpg/sg12_39_cif.got.tgz:77379.got - 2010.06.03 13:09:07.
