data_PCOD9220801
_publ_section_title
;
Structure prediction by ZEFSAII (Michael W. Deem and Ramdas Pophale) SiO2 
 PCOD9220801
Probable space group: C 2/M
;
_chemical_formula_sum "Si O2"
_cell_formula_units_Z 64
_cell_length_a 25.484377
_cell_length_b 17.069163
_cell_length_c 22.184458
_cell_angle_alpha 90.000000
_cell_angle_beta 158.719881
_cell_angle_gamma 90.000000
_cell_volume 3502.316996
_symmetry_space_group_name_H-M "C 2/M"
_symmetry_group_IT_number 12
_symmetry_cell_setting 'monoclinic'
loop_
_space_group_symop_operation_xyz
x,y,z
-x,y,-z
-x,-y,-z
x,-y,z
1/2+x,1/2+y,z
1/2-x,1/2+y,-z
1/2-x,1/2-y,-z
1/2+x,1/2-y,z
loop_
_atom_site_type_symbol
_atom_site_label
_atom_site_fract_x
_atom_site_fract_y
_atom_site_fract_z
Si Si1 0.627502 0.706180 0.787631
Si Si2 0.709920 0.090774 0.474377
Si Si3 0.163246 0.279035 0.695178
Si Si4 0.356949 0.409869 0.500653
Si Si5 0.148014 0.678880 0.193258
Si Si6 0.103351 0.908538 0.052184
Si Si7 0.581540 0.302614 0.228334
Si Si8 0.931875 0.314609 0.162953
O O1 0.663141 0.747124 0.762826
O O2 0.492443 0.647765 0.637258
O O3 0.588488 0.772395 0.794814
O O4 0.773843 0.665148 0.968213
O O5 0.791435 0.100848 0.497610
O O6 0.781293 0.152818 0.596642
O O7 0.543390 0.114276 0.287171
O O8 0.726135 0.000000 0.510652
O O9 0.244584 0.216322 0.740447
O O10 0.252140 0.359042 0.784008
O O11 0.000000 0.289052 0.500000
O O12 0.400966 0.500000 0.541168
O O13 0.231499 0.388583 0.318696
O O14 0.116570 0.745452 0.210026
O O15 0.000000 0.657979 0.000000
O O16 0.129163 0.000000 0.070958
O O17 0.000000 0.898754 0.000000
O O18 0.023251 0.869344 0.909812
O O19 0.504654 0.249642 0.196476
#
# Coordination Sequence:
#
# PCOD9220801 Si02
#       8
#     8   8   8   8   8   8   8   8
#     4  11  23  41  62  91 122 167 204 247 306 378
#     4  11  24  39  61  95 127 159 203 262 315 360
#     4  12  23  39  63  89 123 163 207 249 302 372
#     4  11  24  42  63  93 128 161 205 264 317 358
#     4  12  22  40  68  92 118 162 215 260 299 362
#     4  11  23  40  62  93 127 162 205 256 311 362
#     4  12  19  39  67  92 119 160 209 259 301 367
#     4  11  22  38  67  89 118 162 213 251 302 370
#
# _framework density 18.273616000000001
#
# number of rings (size 3 to 8) (size 9 to 14) (size 15 to 20)
#    0.000    0.625    7.500    1.500    0.000    1.000 
#    0.000    1.875    0.000    0.000    0.000    0.000 
#    0.000    0.000    0.000    0.000    0.000    0.000 
#
# Total GULP energy -178840.140471 kJ/mol
# GULP energy per Si atom -5588.754390 kJ/mol
# Density = 1.823202 g / cm^3
# Si number density = 18.273616 Si / 1000 Ang^3
#
#
#
# Elastic Constant Matrix: (Units=GPa)
#
#
# Indices 1 2 3 4 5 6 
#
# 1 67.5876 -8.2407 -4.3821 0.0051 -7.6575 0.0027
# 2 -8.2407 29.1002 6.0491 0.0052 -3.0445 0.0018
# 3 -4.3821 6.0491 105.8084 0.0013 0.6990 0.0027
# 4 0.0051 0.0052 0.0013 11.4180 0.0013 -5.9386
# 5 -7.6575 -3.0445 0.6990 0.0013 29.4376 0.0010
# 6 0.0027 0.0018 0.0027 -5.9386 0.0010 13.3052
#
#
#
# Elastic Compliance Matrix: (Units=1/GPa)
#
#
# Indices 1 2 3 4 5 6 
#
# 1 0.015946 0.004930 0.000348 -0.000016 0.004650 -0.000011
# 2 0.004930 0.036697 -0.001928 -0.000029 0.005123 -0.000019
# 3 0.000348 -0.001928 0.009578 -0.000002 -0.000336 -0.000002
# 4 -0.000016 -0.000029 -0.000002 0.114059 -0.000014 0.050909
# 5 0.004650 0.005123 -0.000336 -0.000014 0.035718 -0.000010
# 6 -0.000011 -0.000019 -0.000002 0.050909 -0.000010 0.097881
#
#
# Mechanical properties :
#
#
# Convention : Reuss Voigt Hill
#
# Bulk Modulus (GPa) = 14.50941 21.03874 17.77407
# Shear Modulus (GPa) = 15.33030 24.77015 20.05022
#
# Velocity S-wave (km/s) = 2.89957 3.68573 3.31603
# Velocity P-wave (km/s) = 4.37805 5.44527 4.94056
#
# Compressibility (1/GPa) = 0.06892079
#
# Stress axis : x y z
#
# Youngs Moduli (GPa) = 62.71149 27.25031 104.40729
#
# Poissons Ratio (x) = -0.13434 -0.03632
# Poissons Ratio (y) = -0.30915 0.20126
# Poissons Ratio (z) = -0.02182 0.05253
#
# Static dielectric constant tensor:
#      x y z
#    x 1.617910 0.000000 -0.010920 
#    y 0.000000 1.598470 0.000000 
#    z -0.010920 0.000000 1.639330 
# 
# From -- ./inp_files/97770.got.cif
#   From: 2010.05.17/outbox.cif.g08.bks.cpg/sg12_49_cif.got.tgz:97770.got - 2010.06.03 13:09:07.
