data_PCOD9220092
_publ_section_title
;
Structure prediction by ZEFSAII (Michael W. Deem and Ramdas Pophale) SiO2 
 PCOD9220092
Probable space group: C 2/M
;
_chemical_formula_sum "Si O2"
_cell_formula_units_Z 48
_cell_length_a 19.861671
_cell_length_b 8.526877
_cell_length_c 19.650740
_cell_angle_alpha 90.000000
_cell_angle_beta 45.344766
_cell_angle_gamma 90.000000
_cell_volume 2367.376393
_symmetry_space_group_name_H-M "C 2/M"
_symmetry_group_IT_number 12
_symmetry_cell_setting 'monoclinic'
loop_
_space_group_symop_operation_xyz
x,y,z
-x,y,-z
-x,-y,-z
x,-y,z
1/2+x,1/2+y,z
1/2-x,1/2+y,-z
1/2-x,1/2-y,-z
1/2+x,1/2-y,z
loop_
_atom_site_type_symbol
_atom_site_label
_atom_site_fract_x
_atom_site_fract_y
_atom_site_fract_z
Si Si1 0.149196 0.313281 0.758365
Si Si2 0.357847 0.186210 0.836927
Si Si3 0.027972 0.690338 0.373946
Si Si4 0.949366 0.182585 0.901392
Si Si5 0.348191 0.189642 0.583103
Si Si6 0.671399 0.184963 0.900885
O O1 0.138325 0.500000 0.761527
O O2 0.244344 0.260545 0.653082
O O3 0.161322 0.268919 0.829464
O O4 0.053091 0.232447 0.802700
O O5 0.434460 0.239798 0.725916
O O6 0.375973 0.274754 0.894070
O O7 0.256804 0.222197 0.875508
O O8 0.367623 0.000000 0.841707
O O9 0.028521 0.500000 0.373845
O O10 0.923286 0.738606 0.471837
O O11 0.101802 0.737259 0.380904
O O12 0.946261 0.000000 0.919489
O O13 0.920840 0.278694 0.988811
O O14 0.341678 0.000000 0.587526
O O15 0.692062 0.000000 0.888817
#
# Coordination Sequence:
#
# PCOD9220092 Si02
#       6
#     8   8   8   8   8   8
#     4  11  23  39  59  87 119 151 189 238 290 340
#     4  11  21  38  62  88 118 153 192 234 285 340
#     4   8  16  31  58  89 116 147 187 234 280 334
#     4  12  26  41  58  82 115 155 196 239 288 342
#     4   9  16  33  59  88 116 147 190 233 280 337
#     4  11  23  40  61  86 116 150 192 240 286 339
#
# _framework density 20.275611000000001
#
# number of rings (size 3 to 8) (size 9 to 14) (size 15 to 20)
#    0.000    1.667    1.667    5.000    0.000    4.000 
#    0.000    4.167    0.000    0.000    0.000    0.000 
#    0.000    0.000    0.000    0.000    0.000    0.000 
#
# Total GULP energy -134142.420004 kJ/mol
# GULP energy per Si atom -5589.267500 kJ/mol
# Density = 2.022946 g / cm^3
# Si number density = 20.275611 Si / 1000 Ang^3
#
#
#
# Elastic Constant Matrix: (Units=GPa)
#
#
# Indices 1 2 3 4 5 6 
#
# 1 37.1777 4.3727 -6.5132 -0.0001 -9.8297 0.0000
# 2 4.3727 25.2474 -5.6795 -0.0002 3.8702 0.0002
# 3 -6.5132 -5.6795 78.5348 -0.0001 -7.2166 0.0001
# 4 -0.0001 -0.0002 -0.0001 27.3700 0.0000 -3.0848
# 5 -9.8297 3.8702 -7.2166 0.0000 27.9091 0.0000
# 6 0.0000 0.0002 0.0001 -3.0848 0.0000 12.5310
#
#
#
# Elastic Compliance Matrix: (Units=1/GPa)
#
#
# Indices 1 2 3 4 5 6 
#
# 1 0.031699 -0.006727 0.003333 0.000000 0.012959 0.000000
# 2 -0.006727 0.042369 0.001791 0.000000 -0.007781 -0.000001
# 3 0.003333 0.001791 0.013546 0.000000 0.004428 0.000000
# 4 0.000000 0.000000 0.000000 0.037579 0.000000 0.009251
# 5 0.012959 -0.007781 0.004428 0.000000 0.042619 0.000000
# 6 0.000000 -0.000001 0.000000 0.009251 0.000000 0.082080
#
#
# Mechanical properties :
#
#
# Convention : Reuss Voigt Hill
#
# Bulk Modulus (GPa) = 11.84699 13.92444 12.88572
# Shear Modulus (GPa) = 17.77884 23.48069 20.62976
#
# Velocity S-wave (km/s) = 2.96439 3.40674 3.19324
# Velocity P-wave (km/s) = 4.19196 4.72832 4.46819
#
# Compressibility (1/GPa) = 0.08440960
#
# Stress axis : x y z
#
# Youngs Moduli (GPa) = 31.54637 23.60225 73.82200
#
# Poissons Ratio (x) = 0.15877 -0.24607
# Poissons Ratio (y) = 0.21221 -0.13223
# Poissons Ratio (z) = -0.10515 -0.04228
#
# Static dielectric constant tensor:
#      x y z
#    x 1.696620 0.000000 -0.007400 
#    y 0.000000 1.674210 0.000000 
#    z -0.007400 0.000000 1.732750 
# 
# From -- ./inp_files/229942.got.cif
#   From: 2010.05.17/outbox.cif.g08.bks.cpg/sg12_115_cif.got.tgz:229942.got - 2010.06.03 13:09:07.
