data_PCOD9220986
_publ_section_title
;
Structure prediction by ZEFSAII (Michael W. Deem and Ramdas Pophale) SiO2 
 PCOD9220986
Probable space group: C 2/M
;
_chemical_formula_sum "Si O2"
_cell_formula_units_Z 56
_cell_length_a 13.944334
_cell_length_b 18.128932
_cell_length_c 12.386545
_cell_angle_alpha 90.000000
_cell_angle_beta 119.673559
_cell_angle_gamma 90.000000
_cell_volume 2720.633360
_symmetry_space_group_name_H-M "C 2/M"
_symmetry_group_IT_number 12
_symmetry_cell_setting 'monoclinic'
loop_
_space_group_symop_operation_xyz
x,y,z
-x,y,-z
-x,-y,-z
x,-y,z
1/2+x,1/2+y,z
1/2-x,1/2+y,-z
1/2-x,1/2-y,-z
1/2+x,1/2-y,z
loop_
_atom_site_type_symbol
_atom_site_label
_atom_site_fract_x
_atom_site_fract_y
_atom_site_fract_z
Si Si1 0.986052 0.413243 0.768372
Si Si2 0.125510 0.813401 0.102930
Si Si3 0.417704 0.797432 0.551860
Si Si4 0.760865 0.585736 0.016218
Si Si5 0.708039 0.151049 0.197743
Si Si6 0.629322 0.582451 0.551627
Si Si7 0.831034 0.160163 0.636026
O O1 0.965140 0.500000 0.738378
O O2 0.962419 0.364973 0.649003
O O3 0.903380 0.383475 0.814355
O O4 0.111981 0.404136 0.876168
O O5 0.185419 0.861637 0.046145
O O6 0.186341 0.735443 0.155011
O O7 0.130731 0.853457 0.221683
O O8 0.000000 0.798862 0.000000
O O9 0.500000 0.780766 0.500000
O O10 0.297642 0.818256 0.438767
O O11 0.398906 0.728560 0.621828
O O12 0.731667 0.500000 0.014459
O O13 0.754537 0.607954 0.887619
O O14 0.799325 0.140805 0.341581
O O15 0.500000 0.591076 0.500000
O O16 0.663089 0.500000 0.604382
O O17 0.652156 0.594363 0.438498
#
# Coordination Sequence:
#
# PCOD9220986 Si02
#       7
#     8   8   8   8   8   8   8
#     4  11  22  41  69 101 139 180 229 285 349 416
#     4  12  27  46  70 103 138 188 238 285 345 415
#     4  11  22  40  66  96 135 177 226 283 351 413
#     4  11  26  44  68 103 141 187 233 286 350 412
#     4  12  23  45  73 103 139 180 235 289 345 411
#     4  11  25  43  71 106 137 183 236 286 352 421
#     4  11  23  43  65  97 135 180 227 285 349 407
#
# _framework density 20.583442999999999
#
# number of rings (size 3 to 8) (size 9 to 14) (size 15 to 20)
#    0.000    0.714    2.857    5.143    2.000    3.429 
#    0.000    0.000    0.000    0.000    0.000    0.000 
#    0.000    0.000    0.000    0.000    0.000    0.000 
#
# Total GULP energy -156788.241078 kJ/mol
# GULP energy per Si atom -5599.580039 kJ/mol
# Density = 2.053659 g / cm^3
# Si number density = 20.583443 Si / 1000 Ang^3
#
#
#
# Elastic Constant Matrix: (Units=GPa)
#
#
# Indices 1 2 3 4 5 6 
#
# 1 85.1798 26.8447 -9.6588 0.0000 -12.1110 0.0000
# 2 26.8447 96.8104 13.5813 0.0000 1.4811 0.0000
# 3 -9.6588 13.5813 63.7443 0.0000 -8.1473 0.0000
# 4 0.0000 0.0000 0.0000 32.4234 0.0000 -5.8008
# 5 -12.1110 1.4811 -8.1473 0.0000 25.0922 0.0000
# 6 0.0000 0.0000 0.0000 -5.8008 0.0000 17.9552
#
#
#
# Elastic Compliance Matrix: (Units=1/GPa)
#
#
# Indices 1 2 3 4 5 6 
#
# 1 0.015097 -0.004956 0.004499 0.000000 0.009040 0.000000
# 2 -0.004956 0.012324 -0.003939 0.000000 -0.004398 0.000000
# 3 0.004499 -0.003939 0.018274 0.000000 0.008337 0.000000
# 4 0.000000 0.000000 0.000000 0.032734 0.000000 0.010575
# 5 0.009040 -0.004398 0.008337 0.000000 0.047183 0.000000
# 6 0.000000 0.000000 0.000000 0.010575 0.000000 0.059111
#
#
# Mechanical properties :
#
#
# Convention : Reuss Voigt Hill
#
# Bulk Modulus (GPa) = 27.09755 34.14100 30.61927
# Shear Modulus (GPa) = 24.29365 29.42529 26.85947
#
# Velocity S-wave (km/s) = 3.43921 3.78506 3.61627
# Velocity P-wave (km/s) = 5.38184 5.97703 5.68722
#
# Compressibility (1/GPa) = 0.03690371
#
# Stress axis : x y z
#
# Youngs Moduli (GPa) = 66.23748 81.14573 54.72198
#
# Poissons Ratio (x) = 0.40214 -0.24619
# Poissons Ratio (y) = 0.32826 0.21553
# Poissons Ratio (z) = -0.29800 0.31961
#
# Static dielectric constant tensor:
#      x y z
#    x 1.704140 0.000000 0.007220 
#    y 0.000000 1.733690 0.000000 
#    z 0.007220 0.000000 1.714270 
# 
# From -- ./inp_files/146222.got.cif
#   From: 2010.05.17/outbox.cif.g08.bks.cpg/sg12_74_cif.got.tgz:146222.got - 2010.06.03 13:09:07.
