data_PCOD9220166
_publ_section_title
;
Structure prediction by ZEFSAII (Michael W. Deem and Ramdas Pophale) SiO2 
 PCOD9220166
Probable space group: C 2/M
;
_chemical_formula_sum "Si O2"
_cell_formula_units_Z 64
_cell_length_a 8.920364
_cell_length_b 18.761648
_cell_length_c 26.006935
_cell_angle_alpha 90.000000
_cell_angle_beta 42.272991
_cell_angle_gamma 90.000000
_cell_volume 2927.795746
_symmetry_space_group_name_H-M "C 2/M"
_symmetry_group_IT_number 12
_symmetry_cell_setting 'monoclinic'
loop_
_space_group_symop_operation_xyz
x,y,z
-x,y,-z
-x,-y,-z
x,-y,z
1/2+x,1/2+y,z
1/2-x,1/2+y,-z
1/2-x,1/2-y,-z
1/2+x,1/2-y,z
loop_
_atom_site_type_symbol
_atom_site_label
_atom_site_fract_x
_atom_site_fract_y
_atom_site_fract_z
Si Si1 0.053953 0.210285 0.700780
Si Si2 0.900365 0.583104 0.766142
Si Si3 0.055021 0.419039 0.047710
Si Si4 0.641976 0.915192 0.345562
Si Si5 0.988217 0.163552 0.918228
Si Si6 0.342570 0.331232 0.653760
Si Si7 0.679721 0.830367 0.501477
Si Si8 0.252993 0.705713 0.871894
O O1 0.156465 0.132167 0.683300
O O2 0.243916 0.268992 0.642549
O O3 0.892543 0.209377 0.693906
O O4 0.919892 0.231302 0.785524
O O5 0.894097 0.500000 0.778131
O O6 0.852684 0.594169 0.717344
O O7 0.708722 0.619392 0.848424
O O8 0.146925 0.613112 0.711833
O O9 0.044388 0.500000 0.069109
O O10 0.869847 0.365829 0.116553
O O11 0.297813 0.384059 0.992825
O O12 0.000000 0.420317 0.000000
O O13 0.427947 0.876924 0.425547
O O14 0.650236 0.000000 0.354663
O O15 0.066285 0.234436 0.927055
O O16 0.882567 0.188946 0.890917
O O17 0.579664 0.361787 0.576039
O O18 0.500000 0.831380 0.500000
O O19 0.750000 0.750000 0.500000
#
# Coordination Sequence:
#
# PCOD9220166 Si02
#       8
#     8   8   8   8   8   8   8   8
#     4  12  22  41  65  95 126 167 206 268 313 377
#     4  11  25  43  65  93 128 169 212 263 321 380
#     4   9  20  38  61  92 128 168 213 257 312 375
#     4  11  25  43  64  94 126 165 212 262 322 378
#     4  11  21  39  65  95 128 167 212 263 314 372
#     4  12  24  41  67  93 127 162 217 257 319 381
#     4  12  25  42  67  93 124 167 209 264 319 379
#     4  11  22  36  67  95 124 164 215 261 313 373
#
# _framework density 21.859448
#
# number of rings (size 3 to 8) (size 9 to 14) (size 15 to 20)
#    0.000    0.875    5.000    2.250    1.750    2.250 
#    0.000    1.250    0.000    0.750    0.000    0.000 
#    0.000    0.000    0.000    0.000    0.000    0.000 
#
# Total GULP energy -179005.250179 kJ/mol
# GULP energy per Si atom -5593.914068 kJ/mol
# Density = 2.180969 g / cm^3
# Si number density = 21.859448 Si / 1000 Ang^3
#
#
#
# Elastic Constant Matrix: (Units=GPa)
#
#
# Indices 1 2 3 4 5 6 
#
# 1 47.1324 11.2856 5.3276 -0.0026 -23.6551 0.0015
# 2 11.2856 94.6596 10.0486 -0.0028 -19.6807 0.0013
# 3 5.3276 10.0486 80.0180 -0.0005 -23.5874 0.0018
# 4 -0.0026 -0.0028 -0.0005 33.2987 0.0000 -5.7763
# 5 -23.6551 -19.6807 -23.5874 0.0000 34.4581 -0.0015
# 6 0.0015 0.0013 0.0018 -5.7763 -0.0015 24.1904
#
#
#
# Elastic Compliance Matrix: (Units=1/GPa)
#
#
# Indices 1 2 3 4 5 6 
#
# 1 0.034542 0.001165 0.005938 0.000003 0.028443 0.000000
# 2 0.001165 0.012053 0.000844 0.000001 0.008262 0.000000
# 3 0.005938 0.000844 0.016712 0.000001 0.015998 0.000000
# 4 0.000003 0.000001 0.000001 0.031329 0.000003 0.007481
# 5 0.028443 0.008262 0.015998 0.000003 0.064216 0.000002
# 6 0.000000 0.000000 0.000000 0.007481 0.000002 0.043125
#
#
# Mechanical properties :
#
#
# Convention : Reuss Voigt Hill
#
# Bulk Modulus (GPa) = 12.62605 30.57040 21.59823
# Shear Modulus (GPa) = 23.53136 31.39934 27.46535
#
# Velocity S-wave (km/s) = 3.28454 3.79412 3.54849
# Velocity P-wave (km/s) = 4.49142 5.76274 5.16633
#
# Compressibility (1/GPa) = 0.07920132
#
# Stress axis : x y z
#
# Youngs Moduli (GPa) = 28.95062 82.96413 59.83832
#
# Poissons Ratio (x) = -0.09665 -0.35533
# Poissons Ratio (y) = -0.03373 -0.05052
# Poissons Ratio (z) = -0.17191 -0.07004
#
# Static dielectric constant tensor:
#      x y z
#    x 1.788650 0.000000 0.011270 
#    y 0.000000 1.780560 0.000000 
#    z 0.011270 0.000000 1.818140 
# 
# From -- ./inp_files/372884.got.cif
#   From: 2010.05.17/outbox.cif.g08.bks.cpg/sg12_187_cif.got.tgz:372884.got - 2010.06.03 13:09:07.
