data_PCOD9220938
_publ_section_title
;
Structure prediction by ZEFSAII (Michael W. Deem and Ramdas Pophale) SiO2 
 PCOD9220938
Probable space group: C 2/M
;
_chemical_formula_sum "Si O2"
_cell_formula_units_Z 52
_cell_length_a 9.043247
_cell_length_b 18.210486
_cell_length_c 19.276926
_cell_angle_alpha 90.000000
_cell_angle_beta 125.958467
_cell_angle_gamma 90.000000
_cell_volume 2569.625930
_symmetry_space_group_name_H-M "C 2/M"
_symmetry_group_IT_number 12
_symmetry_cell_setting 'monoclinic'
loop_
_space_group_symop_operation_xyz
x,y,z
-x,y,-z
-x,-y,-z
x,-y,z
1/2+x,1/2+y,z
1/2-x,1/2+y,-z
1/2-x,1/2-y,-z
1/2+x,1/2-y,z
loop_
_atom_site_type_symbol
_atom_site_label
_atom_site_fract_x
_atom_site_fract_y
_atom_site_fract_z
Si Si1 0.500000 0.807079 0.500000
Si Si2 0.370681 0.085204 0.573796
Si Si3 0.795224 0.084957 0.734936
Si Si4 0.255834 0.308836 0.351085
Si Si5 0.995390 0.912851 0.076478
Si Si6 0.570929 0.703397 0.748516
Si Si7 0.213251 0.304793 0.053583
O O1 0.634759 0.860220 0.493642
O O2 0.610881 0.752791 0.580288
O O3 0.584352 0.089033 0.655534
O O4 0.249129 0.119467 0.601749
O O5 0.328416 0.000000 0.546658
O O6 0.832439 0.103327 0.826332
O O7 0.926486 0.139743 0.729512
O O8 0.852253 0.000000 0.740243
O O9 0.316694 0.318916 0.288663
O O10 0.053983 0.274185 0.299483
O O11 0.821041 0.878951 0.065589
O O12 0.979878 0.000000 0.067604
O O13 0.000000 0.882076 0.000000
O O14 0.702604 0.719608 0.849714
O O15 0.250000 0.250000 0.000000
O O16 0.000000 0.316448 0.000000
#
# Coordination Sequence:
#
# PCOD9220938 Si02
#       7
#     4   8   8   8   8   8   8
#     4  12  23  44  69  90 124 164 210 254 313 378
#     4  11  24  42  66  95 126 162 208 258 311 371
#     4   9  19  38  61  87 121 162 204 251 311 371
#     4  12  24  40  65  93 123 165 211 253 309 376
#     4   9  19  36  59  85 117 160 204 249 303 365
#     4  11  22  40  62  87 124 165 204 256 313 369
#     4  11  23  37  58  89 122 160 205 258 301 361
#
# _framework density 20.236408999999998
#
# number of rings (size 3 to 8) (size 9 to 14) (size 15 to 20)
#    0.000    1.385    3.077    2.077    0.000    5.846 
#    0.000    0.385    0.000    0.000    0.000    0.000 
#    0.000    0.000    0.000    0.000    0.000    0.000 
#
# Total GULP energy -145279.559452 kJ/mol
# GULP energy per Si atom -5587.675364 kJ/mol
# Density = 2.019035 g / cm^3
# Si number density = 20.236409 Si / 1000 Ang^3
#
#
#
# Elastic Constant Matrix: (Units=GPa)
#
#
# Indices 1 2 3 4 5 6 
#
# 1 67.5812 20.4377 12.4821 0.0000 -26.3619 0.0000
# 2 20.4377 76.1706 16.4958 0.0000 -9.4841 0.0000
# 3 12.4821 16.4958 74.8164 0.0000 -17.6980 0.0000
# 4 0.0000 0.0000 0.0000 15.5577 0.0000 -9.2280
# 5 -26.3619 -9.4841 -17.6980 0.0000 33.0020 0.0000
# 6 0.0000 0.0000 0.0000 -9.2280 0.0000 23.0610
#
#
#
# Elastic Compliance Matrix: (Units=1/GPa)
#
#
# Indices 1 2 3 4 5 6 
#
# 1 0.022696 -0.004177 0.001305 0.000000 0.017628 0.000000
# 2 -0.004177 0.014764 -0.002685 0.000000 -0.000533 0.000000
# 3 0.001305 -0.002685 0.015810 0.000000 0.008749 0.000000
# 4 0.000000 0.000000 0.000000 0.084281 0.000000 0.033726
# 5 0.017628 -0.000533 0.008749 0.000000 0.048921 0.000000
# 6 0.000000 0.000000 0.000000 0.033726 0.000000 0.056859
#
#
# Mechanical properties :
#
#
# Convention : Reuss Voigt Hill
#
# Bulk Modulus (GPa) = 23.72168 35.26659 29.49414
# Shear Modulus (GPa) = 18.62217 25.60098 22.11157
#
# Velocity S-wave (km/s) = 3.03682 3.56068 3.30913
# Velocity P-wave (km/s) = 4.90348 5.86257 5.40434
#
# Compressibility (1/GPa) = 0.04215553
#
# Stress axis : x y z
#
# Youngs Moduli (GPa) = 44.06112 67.73151 63.25151
#
# Poissons Ratio (x) = 0.28293 -0.08252
# Poissons Ratio (y) = 0.18405 0.16980
# Poissons Ratio (z) = -0.05748 0.18183
#
# Static dielectric constant tensor:
#      x y z
#    x 1.696600 0.000000 -0.033600 
#    y 0.000000 1.719750 0.000000 
#    z -0.033600 0.000000 1.767620 
# 
# From -- ./inp_files/301177.got.cif
#   From: 2010.05.17/outbox.cif.g08.bks.cpg/sg12_151_cif.got.tgz:301177.got - 2010.06.03 13:09:07.
