data_PCOD9220016
_publ_section_title
;
Structure prediction by ZEFSAII (Michael W. Deem and Ramdas Pophale) SiO2 
 PCOD9220016
Probable space group: C 2/M
;
_chemical_formula_sum "Si O2"
_cell_formula_units_Z 48
_cell_length_a 25.650462
_cell_length_b 8.615374
_cell_length_c 12.755422
_cell_angle_alpha 90.000000
_cell_angle_beta 70.806061
_cell_angle_gamma 90.000000
_cell_volume 2662.105520
_symmetry_space_group_name_H-M "C 2/M"
_symmetry_group_IT_number 12
_symmetry_cell_setting 'monoclinic'
loop_
_space_group_symop_operation_xyz
x,y,z
-x,y,-z
-x,-y,-z
x,-y,z
1/2+x,1/2+y,z
1/2-x,1/2+y,-z
1/2-x,1/2-y,-z
1/2+x,1/2-y,z
loop_
_atom_site_type_symbol
_atom_site_label
_atom_site_fract_x
_atom_site_fract_y
_atom_site_fract_z
Si Si1 0.557365 0.313414 0.253097
Si Si2 0.365067 0.686404 0.227274
Si Si3 0.562784 0.813886 0.629013
Si Si4 0.749899 0.314998 0.381617
Si Si5 0.441760 0.311146 0.989031
Si Si6 0.864652 0.314005 0.623469
O O1 0.554641 0.500000 0.257680
O O2 0.499711 0.245517 0.333516
O O3 0.563611 0.262561 0.127784
O O4 0.606867 0.254616 0.292525
O O5 0.360447 0.500000 0.232054
O O6 0.406392 0.738067 0.292498
O O7 0.305803 0.759656 0.288909
O O8 0.392633 0.735593 0.099207
O O9 0.596635 0.773541 0.501827
O O10 0.563420 0.000000 0.639803
O O11 0.748435 0.500000 0.387424
O O12 0.750000 0.250000 0.500000
O O13 0.695837 0.251856 0.359212
O O14 0.442905 0.500000 0.988525
O O15 0.500000 0.258834 0.000000
O O16 0.862206 0.500000 0.631982
#
# Coordination Sequence:
#
# PCOD9220016 Si02
#       6
#     8   8   8   8   8   8
#     4  11  22  38  61  88 121 159 202 244 297 358
#     4  11  21  37  63  90 119 154 198 246 297 348
#     4  11  22  36  57  87 124 158 194 245 300 355
#     4  12  24  40  62  89 120 155 199 244 294 352
#     4   9  18  36  60  88 119 155 196 245 294 349
#     4  11  24  41  59  85 123 160 199 246 299 352
#
# _framework density 18.030840999999999
#
# number of rings (size 3 to 8) (size 9 to 14) (size 15 to 20)
#    0.000    1.167    3.333    4.000    0.000    4.000 
#    0.000    5.000    0.000    0.000    0.000    0.000 
#    0.000    0.000    0.000    0.000    0.000    0.000 
#
# Total GULP energy -134180.831108 kJ/mol
# GULP energy per Si atom -5590.867963 kJ/mol
# Density = 1.798980 g / cm^3
# Si number density = 18.030841 Si / 1000 Ang^3
#
#
#
# Elastic Constant Matrix: (Units=GPa)
#
#
# Indices 1 2 3 4 5 6 
#
# 1 133.9014 11.8315 41.7449 0.0000 -4.4967 0.0000
# 2 11.8315 42.6029 16.2316 0.0000 -2.2223 0.0000
# 3 41.7449 16.2316 68.1862 0.0000 -13.7533 0.0000
# 4 0.0000 0.0000 0.0000 21.3986 0.0000 -2.4635
# 5 -4.4967 -2.2223 -13.7533 0.0000 32.6453 0.0000
# 6 0.0000 0.0000 0.0000 -2.4635 0.0000 36.3186
#
#
#
# Elastic Compliance Matrix: (Units=1/GPa)
#
#
# Indices 1 2 3 4 5 6 
#
# 1 0.009281 -0.000421 -0.005825 0.000000 -0.001204 0.000000
# 2 -0.000421 0.025858 -0.006070 0.000000 -0.000855 0.000000
# 3 -0.005825 -0.006070 0.021236 0.000000 0.007731 0.000000
# 4 0.000000 0.000000 0.000000 0.047100 0.000000 0.003195
# 5 -0.001204 -0.000855 0.007731 0.000000 0.033665 0.000000
# 6 0.000000 0.000000 0.000000 0.003195 0.000000 0.027751
#
#
# Mechanical properties :
#
#
# Convention : Reuss Voigt Hill
#
# Bulk Modulus (GPa) = 31.50295 42.70072 37.10183
# Shear Modulus (GPa) = 24.98719 29.73133 27.35926
#
# Velocity S-wave (km/s) = 3.72668 4.06509 3.89956
# Velocity P-wave (km/s) = 6.00226 6.76511 6.39507
#
# Compressibility (1/GPa) = 0.03174306
#
# Stress axis : x y z
#
# Youngs Moduli (GPa) = 107.74941 38.67342 47.08999
#
# Poissons Ratio (x) = 0.01629 0.27428
# Poissons Ratio (y) = 0.04537 0.28584
# Poissons Ratio (z) = 0.62759 0.23475
#
# Static dielectric constant tensor:
#      x y z
#    x 1.582580 0.000000 -0.001740 
#    y 0.000000 1.610360 0.000000 
#    z -0.001740 0.000000 1.610260 
# 
# From -- ./inp_files/172107.got.cif
#   From: 2010.05.17/outbox.cif.g08.bks.cpg/sg12_87_cif.got.tgz:172107.got - 2010.06.03 13:09:07.
