data_PCOD9220639
_publ_section_title
;
Structure prediction by ZEFSAII (Michael W. Deem and Ramdas Pophale) SiO2 
 PCOD9220639
Probable space group: C 2/M
;
_chemical_formula_sum "Si O2"
_cell_formula_units_Z 60
_cell_length_a 9.779629
_cell_length_b 17.432815
_cell_length_c 18.518659
_cell_angle_alpha 90.000000
_cell_angle_beta 95.810438
_cell_angle_gamma 90.000000
_cell_volume 3140.959971
_symmetry_space_group_name_H-M "C 2/M"
_symmetry_group_IT_number 12
_symmetry_cell_setting 'monoclinic'
loop_
_space_group_symop_operation_xyz
x,y,z
-x,y,-z
-x,-y,-z
x,-y,z
1/2+x,1/2+y,z
1/2-x,1/2+y,-z
1/2-x,1/2-y,-z
1/2+x,1/2-y,z
loop_
_atom_site_type_symbol
_atom_site_label
_atom_site_fract_x
_atom_site_fract_y
_atom_site_fract_z
Si Si1 0.133303 0.407284 0.600569
Si Si2 0.320762 0.906754 0.558088
Si Si3 0.644692 0.650280 0.278684
Si Si4 0.680345 0.409524 0.118630
Si Si5 0.295405 0.800395 0.792446
Si Si6 0.000000 0.808222 0.000000
Si Si7 0.858298 0.908059 0.317736
Si Si8 0.587102 0.205270 0.880808
O O1 0.137749 0.500000 0.603373
O O2 0.194111 0.382517 0.525929
O O3 0.221708 0.376200 0.670799
O O4 0.973369 0.384227 0.592596
O O5 0.206885 0.883012 0.609398
O O6 0.320085 0.000000 0.557025
O O7 0.641107 0.611357 0.199093
O O8 0.656095 0.740541 0.265906
O O9 0.508807 0.625921 0.313510
O O10 0.671832 0.500000 0.106766
O O11 0.831316 0.374366 0.113676
O O12 0.583431 0.361876 0.059452
O O13 0.238706 0.875937 0.751275
O O14 0.429023 0.808003 0.850029
O O15 0.170878 0.758534 0.828387
O O16 0.090482 0.751920 0.955429
O O17 0.864849 0.000000 0.315932
#
# Coordination Sequence:
#
# PCOD9220639 Si02
#       8
#     8   8   8   8   8   4   8   8
#     4   9  17  34  57  84 121 163 201 247 298 364
#     4   8  18  33  54  86 121 159 202 244 306 357
#     4  11  22  38  62  87 122 160 202 245 303 362
#     4  11  24  39  63  97 123 156 205 251 296 357
#     4  11  23  42  60  91 121 163 197 251 297 366
#     4  12  21  44  69  86 124 168 198 240 303 370
#     4  11  22  37  60  92 122 155 202 257 301 346
#     4  11  23  42  68  87 122 164 206 236 304 369
#
# _framework density 19.102440000000001
#
# number of rings (size 3 to 8) (size 9 to 14) (size 15 to 20)
#    0.000    1.600    4.000    2.600    3.733    1.067 
#    0.000    3.667    0.000    0.000    0.000    0.000 
#    0.000    0.000    0.000    0.000    0.000    0.000 
#
# Total GULP energy -167495.144632 kJ/mol
# GULP energy per Si atom -5583.171488 kJ/mol
# Density = 1.905896 g / cm^3
# Si number density = 19.102440 Si / 1000 Ang^3
#
#
#
# Elastic Constant Matrix: (Units=GPa)
#
#
# Indices 1 2 3 4 5 6 
#
# 1 36.3434 10.6742 5.4519 0.0000 -6.1358 0.0000
# 2 10.6742 37.4101 7.2153 0.0000 -16.1615 0.0000
# 3 5.4519 7.2153 69.7524 0.0000 0.1170 0.0000
# 4 0.0000 0.0000 0.0000 -0.5347 0.0000 -6.8853
# 5 -6.1358 -16.1615 0.1170 0.0000 35.6656 0.0000
# 6 0.0000 0.0000 0.0000 -6.8853 0.0000 8.3605
#
#
#
# Elastic Compliance Matrix: (Units=1/GPa)
#
#
# Indices 1 2 3 4 5 6 
#
# 1 0.030276 -0.007560 -0.001587 0.000000 0.001788 0.000000
# 2 -0.007560 0.035983 -0.003156 0.000000 0.015015 0.000000
# 3 -0.001587 -0.003156 0.014790 0.000000 -0.001752 0.000000
# 4 0.000000 0.000000 0.000000 -0.161159 0.000000 -0.132722
# 5 0.001788 0.015015 -0.001752 0.000000 0.035156 0.000000
# 6 0.000000 0.000000 0.000000 -0.132722 0.000000 0.010308
#
#
# Mechanical properties :
#
#
# Convention : Reuss Voigt Hill
#
# Bulk Modulus (GPa) = 17.71746 21.13206 19.42476
# Shear Modulus (GPa) = 569.81187 16.70925 293.26056
#
# Velocity S-wave (km/s) = 17.28989 2.96077 12.40376
# Velocity P-wave (km/s) = 20.19609 4.77229 14.67407
#
# Compressibility (1/GPa) = 0.05644149
#
# Stress axis : x y z
#
# Youngs Moduli (GPa) = 33.02982 27.79064 67.61354
#
# Poissons Ratio (x) = 0.21010 0.10733
# Poissons Ratio (y) = 0.24970 0.21342
# Poissons Ratio (z) = 0.05243 0.08772
#
# Static dielectric constant tensor:
#      x y z
#    x 1.668730 0.000000 -0.006130 
#    y 0.000000 1.642640 0.000000 
#    z -0.006130 0.000000 1.672250 
# 
# From -- ./inp_files/258149.got.cif
#   From: 2010.05.17/outbox.cif.g08.bks.cpg/sg12_130_cif.got.tgz:258149.got - 2010.06.03 13:09:07.
