data_PCOD9220967
_publ_section_title
;
Structure prediction by ZEFSAII (Michael W. Deem and Ramdas Pophale) SiO2 
 PCOD9220967
Probable space group: C 2/M
;
_chemical_formula_sum "Si O2"
_cell_formula_units_Z 40
_cell_length_a 19.367099
_cell_length_b 11.435040
_cell_length_c 10.690138
_cell_angle_alpha 90.000000
_cell_angle_beta 120.205263
_cell_angle_gamma 90.000000
_cell_volume 2046.040391
_symmetry_space_group_name_H-M "C 2/M"
_symmetry_group_IT_number 12
_symmetry_cell_setting 'monoclinic'
loop_
_space_group_symop_operation_xyz
x,y,z
-x,y,-z
-x,-y,-z
x,-y,z
1/2+x,1/2+y,z
1/2-x,1/2+y,-z
1/2-x,1/2-y,-z
1/2+x,1/2-y,z
loop_
_atom_site_type_symbol
_atom_site_label
_atom_site_fract_x
_atom_site_fract_y
_atom_site_fract_z
Si Si1 0.009433 0.750160 0.830597
Si Si2 0.124051 0.142027 0.106566
Si Si3 0.965611 0.500000 0.249134
Si Si4 0.070822 0.127178 0.465769
Si Si5 0.380148 0.000000 0.430413
Si Si6 0.779097 0.729593 0.383319
O O1 0.941160 0.794415 0.863946
O O2 0.032528 0.614559 0.837122
O O3 0.966388 0.781385 0.662948
O O4 0.088464 0.824631 0.937995
O O5 0.205843 0.204329 0.222887
O O6 0.126824 0.000000 0.124424
O O7 0.042571 0.500000 0.410455
O O8 0.897968 0.500000 0.296806
O O9 0.157047 0.169289 0.591896
O O10 0.000000 0.117866 0.500000
O O11 0.081209 0.000000 0.413185
O O12 0.330165 0.112510 0.421633
O O13 0.750000 0.750000 0.500000
#
# Coordination Sequence:
#
# PCOD9220967 Si02
#       6
#     8   8   4   8   4   8
#     4  11  22  40  65  92 128 171 215 262 315 389
#     4  11  23  41  65  96 129 170 215 265 327 379
#     4  11  22  41  64  92 126 174 212 257 320 397
#     4  11  23  41  65  94 129 168 214 263 315 382
#     4  11  22  40  66  91 129 167 211 258 330 384
#     4  12  23  39  67  96 124 162 214 271 315 382
#
# _framework density 19.549956000000002
#
# number of rings (size 3 to 8) (size 9 to 14) (size 15 to 20)
#    0.000    0.800    5.000    3.600    1.400    1.600 
#    3.600    4.000    0.000    0.000    0.000    0.000 
#    0.000    0.000    0.000    0.000    0.000    0.000 
#
# Total GULP energy -111385.474787 kJ/mol
# GULP energy per Si atom -5569.273739 kJ/mol
# Density = 1.950546 g / cm^3
# Si number density = 19.549956 Si / 1000 Ang^3
#
#
#
# Elastic Constant Matrix: (Units=GPa)
#
#
# Indices 1 2 3 4 5 6 
#
# 1 85.8135 39.1219 27.0249 0.0000 21.3354 0.0000
# 2 39.1219 140.0936 27.6350 0.0000 10.1831 0.0000
# 3 27.0249 27.6350 88.0048 0.0000 36.3613 0.0000
# 4 0.0000 0.0000 0.0000 3.5002 0.0000 -32.0923
# 5 21.3354 10.1831 36.3613 0.0000 28.7804 0.0000
# 6 0.0000 0.0000 0.0000 -32.0923 0.0000 -29.6287
#
#
#
# Elastic Compliance Matrix: (Units=1/GPa)
#
#
# Indices 1 2 3 4 5 6 
#
# 1 0.016021 -0.003849 0.001325 0.000000 -0.012189 0.000000
# 2 -0.003849 0.008541 -0.002992 0.000000 0.003612 0.000000
# 3 0.001325 -0.002992 0.024821 0.000000 -0.031282 0.000000
# 4 0.000000 0.000000 0.000000 0.026136 0.000000 -0.028310
# 5 -0.012189 0.003612 -0.031282 0.000000 0.082026 0.000000
# 6 0.000000 0.000000 0.000000 -0.028310 0.000000 -0.003088
#
#
# Mechanical properties :
#
#
# Convention : Reuss Voigt Hill
#
# Bulk Modulus (GPa) = 26.07608 55.71951 40.89780
# Shear Modulus (GPa) = 28.04678 15.20574 21.62626
#
# Velocity S-wave (km/s) = 3.79175 2.79191 3.32957
# Velocity P-wave (km/s) = 5.70412 6.24147 5.97884
#
# Compressibility (1/GPa) = 0.03834932
#
# Stress axis : x y z
#
# Youngs Moduli (GPa) = 62.41699 117.08556 40.28888
#
# Poissons Ratio (x) = 0.45071 -0.05338
# Poissons Ratio (y) = 0.24027 0.12056
# Poissons Ratio (z) = -0.08271 0.35036
#
# Static dielectric constant tensor:
#      x y z
#    x 0.356810 0.000000 1.251100 
#    y 0.000000 2.117560 0.000000 
#    z 1.251100 0.000000 0.551150 
# 
# From -- ./inp_files/153901.got.cif
#   From: 2010.05.17/outbox.cif.g08.bks.cpg/sg12_77_cif.got.tgz:153901.got - 2010.06.03 13:09:07.
