data_PCOD9220355
_publ_section_title
;
Structure prediction by ZEFSAII (Michael W. Deem and Ramdas Pophale) SiO2 
 PCOD9220355
Probable space group: C 2/M
;
_chemical_formula_sum "Si O2"
_cell_formula_units_Z 64
_cell_length_a 6.895433
_cell_length_b 27.445672
_cell_length_c 13.896665
_cell_angle_alpha 90.000000
_cell_angle_beta 92.656051
_cell_angle_gamma 90.000000
_cell_volume 2627.115659
_symmetry_space_group_name_H-M "C 2/M"
_symmetry_group_IT_number 12
_symmetry_cell_setting 'monoclinic'
loop_
_space_group_symop_operation_xyz
x,y,z
-x,y,-z
-x,-y,-z
x,-y,z
1/2+x,1/2+y,z
1/2-x,1/2+y,-z
1/2-x,1/2-y,-z
1/2+x,1/2-y,z
loop_
_atom_site_type_symbol
_atom_site_label
_atom_site_fract_x
_atom_site_fract_y
_atom_site_fract_z
Si Si1 0.780995 0.805435 0.965728
Si Si2 0.378856 0.712345 0.590413
Si Si3 0.748810 0.190675 0.308415
Si Si4 0.502159 0.054460 0.116164
Si Si5 0.997687 0.944366 0.883612
Si Si6 0.239513 0.377896 0.808665
Si Si7 0.743371 0.870624 0.136631
Si Si8 0.080570 0.368884 0.597499
O O1 0.738951 0.822662 0.855376
O O2 0.750000 0.750000 0.000000
O O3 0.700218 0.849742 0.028866
O O4 0.000000 0.812499 0.000000
O O5 0.500000 0.729537 0.500000
O O6 0.311448 0.756322 0.655883
O O7 0.535581 0.681645 0.651275
O O8 0.205202 0.676680 0.560128
O O9 0.746837 0.179950 0.196920
O O10 0.607410 0.152284 0.354272
O O11 0.509565 0.111441 0.165972
O O12 0.755211 0.067228 0.128043
O O13 0.506980 0.000000 0.159710
O O14 0.500000 0.051842 0.000000
O O15 0.747584 0.933232 0.864369
O O16 0.998664 0.885492 0.836613
O O17 0.996118 0.000000 0.845370
O O18 0.000000 0.943367 0.000000
O O19 0.209622 0.386817 0.692116
O O20 0.000000 0.396659 0.500000
#
# Coordination Sequence:
#
# PCOD9220355 Si02
#       8
#     8   8   8   8   8   8   8   8
#     4  12  28  43  64  92 143 194 229 268 331 422
#     4  12  24  43  69  94 136 180 250 301 353 402
#     4  12  25  39  66  98 137 183 223 300 352 413
#     4  11  22  38  66 100 130 170 220 280 343 404
#     4  11  21  42  75 106 137 179 231 300 362 414
#     4  12  23  45  66 100 140 181 231 287 346 427
#     4  12  23  42  61  98 142 172 228 275 338 429
#     4  12  26  45  68 101 139 184 241 306 355 412
#
# _framework density 24.361319999999999
#
# number of rings (size 3 to 8) (size 9 to 14) (size 15 to 20)
#    0.000    0.250    7.500    2.250    3.500    2.000 
#    0.000    0.000    0.000    1.500    0.000    0.875 
#    0.000    0.000    0.000    0.000    0.000    0.000 
#
# Total GULP energy -178163.363874 kJ/mol
# GULP energy per Si atom -5567.605121 kJ/mol
# Density = 2.430587 g / cm^3
# Si number density = 24.361320 Si / 1000 Ang^3
#
#
#
# Elastic Constant Matrix: (Units=GPa)
#
#
# Indices 1 2 3 4 5 6 
#
# 1 168.3272 50.7517 22.2089 0.0000 14.3947 0.0000
# 2 50.7517 141.0311 55.4230 0.0000 5.0742 0.0000
# 3 22.2089 55.4230 116.5680 0.0000 17.4621 0.0000
# 4 0.0000 0.0000 0.0000 24.2426 0.0000 5.6788
# 5 14.3947 5.0742 17.4621 0.0000 45.4830 0.0000
# 6 0.0000 0.0000 0.0000 5.6788 0.0000 42.5365
#
#
#
# Elastic Compliance Matrix: (Units=1/GPa)
#
#
# Indices 1 2 3 4 5 6 
#
# 1 0.006825 -0.002447 0.000155 0.000000 -0.001946 0.000000
# 2 -0.002447 0.009616 -0.004309 0.000000 0.001356 0.000000
# 3 0.000155 -0.004309 0.011176 0.000000 -0.003859 0.000000
# 4 0.000000 0.000000 0.000000 0.042581 0.000000 -0.005685
# 5 -0.001946 0.001356 -0.003859 0.000000 0.023932 0.000000
# 6 0.000000 0.000000 0.000000 -0.005685 0.000000 0.024268
#
#
# Mechanical properties :
#
#
# Convention : Reuss Voigt Hill
#
# Bulk Modulus (GPa) = 69.37475 75.85482 72.61479
# Shear Modulus (GPa) = 36.65571 42.28860 39.47215
#
# Velocity S-wave (km/s) = 3.88321 4.17092 4.02964
# Velocity P-wave (km/s) = 6.97460 7.37567 7.17793
#
# Compressibility (1/GPa) = 0.01441447
#
# Stress axis : x y z
#
# Youngs Moduli (GPa) = 146.53049 103.99813 89.47799
#
# Poissons Ratio (x) = 0.25444 -0.01383
# Poissons Ratio (y) = 0.35850 0.38554
# Poissons Ratio (z) = -0.02265 0.44810
#
# Static dielectric constant tensor:
#      x y z
#    x 2.639350 0.000000 -0.002910 
#    y 0.000000 2.023690 0.000000 
#    z -0.002910 0.000000 1.977790 
# 
# From -- ./inp_files/199840.got.cif
#   From: 2010.05.17/outbox.cif.g08.bks.cpg/sg12_100_cif.got.tgz:199840.got - 2010.06.03 13:09:07.
