data_PCOD9220871
_publ_section_title
;
Structure prediction by ZEFSAII (Michael W. Deem and Ramdas Pophale) SiO2 
 PCOD9220871
Probable space group: C 2/M
;
_chemical_formula_sum "Si O2"
_cell_formula_units_Z 40
_cell_length_a 13.595694
_cell_length_b 13.352842
_cell_length_c 9.575416
_cell_angle_alpha 90.000000
_cell_angle_beta 71.657048
_cell_angle_gamma 90.000000
_cell_volume 1650.007113
_symmetry_space_group_name_H-M "C 2/M"
_symmetry_group_IT_number 12
_symmetry_cell_setting 'monoclinic'
loop_
_space_group_symop_operation_xyz
x,y,z
-x,y,-z
-x,-y,-z
x,-y,z
1/2+x,1/2+y,z
1/2-x,1/2+y,-z
1/2-x,1/2-y,-z
1/2+x,1/2-y,z
loop_
_atom_site_type_symbol
_atom_site_label
_atom_site_fract_x
_atom_site_fract_y
_atom_site_fract_z
Si Si1 0.315523 0.882763 0.331095
Si Si2 0.382003 0.170333 0.000941
Si Si3 0.389138 0.278315 0.502455
Si Si4 0.120208 0.893252 0.982570
Si Si5 0.816627 0.605557 0.736122
O O1 0.315455 0.860909 0.165454
O O2 0.388169 0.795016 0.366797
O O3 0.203921 0.858554 0.452204
O O4 0.344324 0.000000 0.336819
O O5 0.361555 0.284871 0.961699
O O6 0.500000 0.160310 0.000000
O O7 0.358872 0.107739 0.874567
O O8 0.500000 0.320082 0.500000
O O9 0.358262 0.197901 0.633950
O O10 0.192834 0.890824 0.813082
O O11 0.143431 0.000000 0.044799
O O12 0.000000 0.894804 0.000000
O O13 0.846014 0.500000 0.655981
#
# Coordination Sequence:
#
# PCOD9220871 Si02
#       5
#     8   8   8   8   8
#     4  11  25  45  66  94 130 166 210 265 318 371
#     4  11  22  39  64  95 127 158 203 262 316 368
#     4  11  25  45  66  91 127 173 217 256 309 380
#     4   9  19  36  59  89 125 163 202 250 310 372
#     4  11  22  39  65  93 123 163 209 254 308 376
#
# _framework density 24.242321
#
# number of rings (size 3 to 8) (size 9 to 14) (size 15 to 20)
#    0.000    1.400    2.000    3.000    0.000    5.200 
#    0.000    0.000    0.000    0.000    0.000    0.000 
#    0.000    0.000    0.000    0.000    0.000    0.000 
#
# Total GULP energy -111745.226045 kJ/mol
# GULP energy per Si atom -5587.261302 kJ/mol
# Density = 2.418714 g / cm^3
# Si number density = 24.242321 Si / 1000 Ang^3
#
#
#
# Elastic Constant Matrix: (Units=GPa)
#
#
# Indices 1 2 3 4 5 6 
#
# 1 96.5973 -3.0665 6.6521 0.0000 -2.5565 0.0000
# 2 -3.0665 134.0839 7.7283 0.0000 6.5777 0.0000
# 3 6.6521 7.7283 94.8565 0.0000 22.2118 0.0000
# 4 0.0000 0.0000 0.0000 17.3711 0.0000 -9.0180
# 5 -2.5565 6.5777 22.2118 0.0000 30.0512 0.0000
# 6 0.0000 0.0000 0.0000 -9.0180 0.0000 32.6667
#
#
#
# Elastic Compliance Matrix: (Units=1/GPa)
#
#
# Indices 1 2 3 4 5 6 
#
# 1 0.010483 0.000223 -0.001150 0.000000 0.001693 0.000000
# 2 0.000223 0.007550 -0.000300 0.000000 -0.001412 0.000000
# 3 -0.001150 -0.000300 0.012885 0.000000 -0.009556 0.000000
# 4 0.000000 0.000000 0.000000 0.067197 0.000000 0.018550
# 5 0.001693 -0.001412 -0.009556 0.000000 0.040793 0.000000
# 6 0.000000 0.000000 0.000000 0.018550 0.000000 0.035733
#
#
# Mechanical properties :
#
#
# Convention : Reuss Voigt Hill
#
# Bulk Modulus (GPa) = 35.13206 38.68506 36.90856
# Shear Modulus (GPa) = 26.79777 36.96605 31.88191
#
# Velocity S-wave (km/s) = 3.32838 3.90918 3.63041
# Velocity P-wave (km/s) = 5.41242 6.03058 5.72984
#
# Compressibility (1/GPa) = 0.02846403
#
# Stress axis : x y z
#
# Youngs Moduli (GPa) = 95.38968 132.45614 77.61007
#
# Poissons Ratio (x) = -0.02953 0.08923
# Poissons Ratio (y) = -0.02127 0.02330
# Poissons Ratio (z) = 0.10967 0.03976
#
# Static dielectric constant tensor:
#      x y z
#    x 2.005630 0.000000 -0.006260 
#    y 0.000000 1.947880 0.000000 
#    z -0.006260 0.000000 1.912900 
# 
# From -- ./inp_files/58974.got.cif
#   From: 2010.05.17/outbox.cif.g08.bks.cpg/sg12_30_cif.got.tgz:58974.got - 2010.06.03 13:09:07.
