data_PCOD9220738
_publ_section_title
;
Structure prediction by ZEFSAII (Michael W. Deem and Ramdas Pophale) SiO2 
 PCOD9220738
Probable space group: C 2/M
;
_chemical_formula_sum "Si O2"
_cell_formula_units_Z 56
_cell_length_a 27.088391
_cell_length_b 19.653192
_cell_length_c 8.650902
_cell_angle_alpha 90.000000
_cell_angle_beta 38.823585
_cell_angle_gamma 90.000000
_cell_volume 2887.307133
_symmetry_space_group_name_H-M "C 2/M"
_symmetry_group_IT_number 12
_symmetry_cell_setting 'monoclinic'
loop_
_space_group_symop_operation_xyz
x,y,z
-x,y,-z
-x,-y,-z
x,-y,z
1/2+x,1/2+y,z
1/2-x,1/2+y,-z
1/2-x,1/2-y,-z
1/2+x,1/2-y,z
loop_
_atom_site_type_symbol
_atom_site_label
_atom_site_fract_x
_atom_site_fract_y
_atom_site_fract_z
Si Si1 0.866422 0.922463 0.197898
Si Si2 0.031966 0.838636 0.261536
Si Si3 0.783855 0.580697 0.644368
Si Si4 0.417928 0.808152 0.797607
Si Si5 0.591662 0.826814 0.815076
Si Si6 0.882477 0.813558 0.418204
Si Si7 0.759900 0.670063 0.007291
O O1 0.780496 0.909993 0.334613
O O2 0.889970 0.871680 0.274270
O O3 0.872818 0.000000 0.230143
O O4 0.925630 0.901023 0.919872
O O5 0.086775 0.773906 0.168762
O O6 0.000000 0.863587 0.500000
O O7 0.961472 0.808842 0.327853
O O8 0.789367 0.500000 0.664594
O O9 0.863710 0.612560 0.381258
O O10 0.758094 0.623280 0.859227
O O11 0.500000 0.819973 0.500000
O O12 0.407317 0.832883 0.000770
O O13 0.345739 0.837105 0.875285
O O14 0.628315 0.757170 0.650546
O O15 0.500000 0.824750 0.000000
O O16 0.811126 0.839256 0.699368
O O17 0.750000 0.750000 0.000000
#
# Coordination Sequence:
#
# PCOD9220738 Si02
#       7
#     8   8   8   8   8   8   8
#     4  11  24  42  62  90 132 175 215 265 323 389
#     4  11  22  38  61  94 133 164 214 273 321 379
#     4  11  26  45  65  96 134 173 220 268 323 393
#     4  11  22  38  62  97 127 162 215 276 318 375
#     4  12  22  41  68  95 130 169 217 274 326 383
#     4  12  23  39  65 102 127 167 221 268 321 388
#     4  12  23  39  66  94 126 171 216 264 328 381
#
# _framework density 19.395233000000001
#
# number of rings (size 3 to 8) (size 9 to 14) (size 15 to 20)
#    0.000    0.571    4.286    5.571    0.000    3.429 
#    0.000    0.714    0.000    1.714    0.000    0.000 
#    0.000    0.000    0.000    0.000    0.000    0.000 
#
# Total GULP energy -156314.729016 kJ/mol
# GULP energy per Si atom -5582.668893 kJ/mol
# Density = 1.935109 g / cm^3
# Si number density = 19.395233 Si / 1000 Ang^3
#
#
#
# Elastic Constant Matrix: (Units=GPa)
#
#
# Indices 1 2 3 4 5 6 
#
# 1 30.1783 10.0692 14.8247 0.0000 8.9815 0.0000
# 2 10.0692 65.2808 28.1484 0.0000 9.1656 0.0000
# 3 14.8247 28.1484 88.2356 0.0000 14.9151 0.0000
# 4 0.0000 0.0000 0.0000 23.5266 0.0000 0.8845
# 5 8.9815 9.1656 14.9151 0.0000 31.6292 0.0000
# 6 0.0000 0.0000 0.0000 0.8845 0.0000 18.3846
#
#
#
# Elastic Compliance Matrix: (Units=1/GPa)
#
#
# Indices 1 2 3 4 5 6 
#
# 1 0.038602 -0.003025 -0.004146 0.000000 -0.008130 0.000000
# 2 -0.003025 0.018212 -0.004949 0.000000 -0.002085 0.000000
# 3 -0.004146 -0.004949 0.014308 0.000000 -0.004135 0.000000
# 4 0.000000 0.000000 0.000000 0.042582 0.000000 -0.002049
# 5 -0.008130 -0.002085 -0.004135 0.000000 0.036479 0.000000
# 6 0.000000 0.000000 0.000000 -0.002049 0.000000 0.054492
#
#
# Mechanical properties :
#
#
# Convention : Reuss Voigt Hill
#
# Bulk Modulus (GPa) = 21.33078 32.19771 26.76425
# Shear Modulus (GPa) = 20.44633 23.41823 21.93228
#
# Velocity S-wave (km/s) = 3.25036 3.47857 3.36640
# Velocity P-wave (km/s) = 5.01081 5.72458 5.37955
#
# Compressibility (1/GPa) = 0.04688061
#
# Stress axis : x y z
#
# Youngs Moduli (GPa) = 25.90540 54.90966 69.89168
#
# Poissons Ratio (x) = 0.16609 0.28980
# Poissons Ratio (y) = 0.07836 0.34591
# Poissons Ratio (z) = 0.10742 0.27176
#
# Static dielectric constant tensor:
#      x y z
#    x 1.694920 0.000000 -0.041640 
#    y 0.000000 1.694350 0.000000 
#    z -0.041640 0.000000 1.527130 
# 
# From -- ./inp_files/105926.got.cif
#   From: 2010.05.17/outbox.cif.g08.bks.cpg/sg12_53_cif.got.tgz:105926.got - 2010.06.03 13:09:07.
