data_PCOD9220327
_publ_section_title
;
Structure prediction by ZEFSAII (Michael W. Deem and Ramdas Pophale) SiO2 
 PCOD9220327
Probable space group: C 2/M
;
_chemical_formula_sum "Si O2"
_cell_formula_units_Z 28
_cell_length_a 14.015364
_cell_length_b 11.497554
_cell_length_c 7.623886
_cell_angle_alpha 90.000000
_cell_angle_beta 118.832248
_cell_angle_gamma 90.000000
_cell_volume 1076.236920
_symmetry_space_group_name_H-M "C 2/M"
_symmetry_group_IT_number 12
_symmetry_cell_setting 'monoclinic'
loop_
_space_group_symop_operation_xyz
x,y,z
-x,y,-z
-x,-y,-z
x,-y,z
1/2+x,1/2+y,z
1/2-x,1/2+y,-z
1/2-x,1/2-y,-z
1/2+x,1/2-y,z
loop_
_atom_site_type_symbol
_atom_site_label
_atom_site_fract_x
_atom_site_fract_y
_atom_site_fract_z
Si Si1 0.175536 0.000000 0.054717
Si Si2 0.394036 0.748654 0.495520
Si Si3 0.321896 0.860087 0.794693
Si Si4 0.750000 0.250000 0.000000
Si Si5 0.433450 0.500000 0.693777
O O1 0.164305 0.000000 0.253396
O O2 0.233713 0.887497 0.036638
O O3 0.052447 0.000000 0.878671
O O4 0.500000 0.801425 0.500000
O O5 0.353835 0.820131 0.628126
O O6 0.294576 0.715764 0.271924
O O7 0.421496 0.618318 0.578747
O O8 0.376217 0.792701 0.002549
O O9 0.316996 0.000000 0.793136
#
# Coordination Sequence:
#
# PCOD9220327 Si02
#       5
#     4   8   8   4   4
#     4  11  24  38  72  95 133 166 223 270 339 381
#     4  11  23  41  67  95 128 168 225 275 324 390
#     4  11  24  41  66  96 132 174 217 274 336 386
#     4  12  22  42  62 100 128 174 210 278 318 400
#     4  11  21  42  66  98 120 172 224 272 316 402
#
# _framework density 26.016576000000001
#
# number of rings (size 3 to 8) (size 9 to 14) (size 15 to 20)
#    0.000    0.857    5.714    2.143    0.000    0.571 
#    0.000    0.000    9.429    8.571    0.000    0.000 
#    0.000    0.000    0.000    0.000    0.000    0.000 
#
# Total GULP energy -78033.300569 kJ/mol
# GULP energy per Si atom -5573.807183 kJ/mol
# Density = 2.595736 g / cm^3
# Si number density = 26.016576 Si / 1000 Ang^3
#
#
#
# Elastic Constant Matrix: (Units=GPa)
#
#
# Indices 1 2 3 4 5 6 
#
# 1 122.9335 53.7350 49.6627 0.0000 -49.9122 0.0000
# 2 53.7350 254.9072 49.3880 0.0000 -38.2423 0.0000
# 3 49.6627 49.3880 94.9564 0.0000 -34.6136 0.0000
# 4 0.0000 0.0000 0.0000 55.3175 0.0000 -31.9056
# 5 -49.9122 -38.2423 -34.6136 0.0000 56.4127 0.0000
# 6 0.0000 0.0000 0.0000 -31.9056 0.0000 36.0733
#
#
#
# Elastic Compliance Matrix: (Units=1/GPa)
#
#
# Indices 1 2 3 4 5 6 
#
# 1 0.013687 -0.000822 -0.003246 0.000000 0.009561 0.000000
# 2 -0.000822 0.004598 -0.001404 0.000000 0.001528 0.000000
# 3 -0.003246 -0.001404 0.014897 0.000000 0.005317 0.000000
# 4 0.000000 0.000000 0.000000 0.036903 0.000000 0.032639
# 5 0.009561 0.001528 0.005317 0.000000 0.030484 0.000000
# 6 0.000000 0.000000 0.000000 0.032639 0.000000 0.056590
#
#
# Mechanical properties :
#
#
# Convention : Reuss Voigt Hill
#
# Bulk Modulus (GPa) = 44.96896 86.48539 65.72717
# Shear Modulus (GPa) = 28.48766 50.89479 39.69122
#
# Velocity S-wave (km/s) = 3.31264 4.42774 3.91015
# Velocity P-wave (km/s) = 5.65276 7.71067 6.76048
#
# Compressibility (1/GPa) = 0.02223756
#
# Stress axis : x y z
#
# Youngs Moduli (GPa) = 73.06315 217.50567 67.12665
#
# Poissons Ratio (x) = 0.17879 0.21786
# Poissons Ratio (y) = 0.06006 0.09428
# Poissons Ratio (z) = 0.23713 0.30548
#
# Static dielectric constant tensor:
#      x y z
#    x 2.557710 0.000000 -0.077390 
#    y 0.000000 1.903330 0.000000 
#    z -0.077390 0.000000 2.386370 
# 
# From -- ./inp_files/56626.got.cif
#   From: 2010.05.17/outbox.cif.g08.bks.cpg/sg12_29_cif.got.tgz:56626.got - 2010.06.03 13:09:07.
