data_PCOD9220303
_publ_section_title
;
Structure prediction by ZEFSAII (Michael W. Deem and Ramdas Pophale) SiO2 
 PCOD9220303
Probable space group: C 2/M
;
_chemical_formula_sum "Si O2"
_cell_formula_units_Z 40
_cell_length_a 21.446343
_cell_length_b 13.698544
_cell_length_c 16.498620
_cell_angle_alpha 90.000000
_cell_angle_beta 19.513758
_cell_angle_gamma 90.000000
_cell_volume 1619.067328
_symmetry_space_group_name_H-M "C 2/M"
_symmetry_group_IT_number 12
_symmetry_cell_setting 'monoclinic'
loop_
_space_group_symop_operation_xyz
x,y,z
-x,y,-z
-x,-y,-z
x,-y,z
1/2+x,1/2+y,z
1/2-x,1/2+y,-z
1/2-x,1/2-y,-z
1/2+x,1/2-y,z
loop_
_atom_site_type_symbol
_atom_site_label
_atom_site_fract_x
_atom_site_fract_y
_atom_site_fract_z
Si Si1 0.199895 0.607689 0.868245
Si Si2 0.763498 0.607489 0.372574
Si Si3 0.294825 0.815610 0.596051
Si Si4 0.807223 0.711506 0.843583
Si Si5 0.560879 0.390592 0.028075
O O1 0.253036 0.500000 0.835144
O O2 0.230970 0.605304 0.733295
O O3 0.304818 0.693029 0.787906
O O4 0.974007 0.617454 0.150276
O O5 0.690826 0.500000 0.486618
O O6 0.675309 0.714228 0.488530
O O7 0.494700 0.841537 0.387312
O O8 0.162138 0.819185 0.838879
O O9 0.162152 0.878441 0.700042
O O10 0.655300 0.637440 0.995503
O O11 0.750000 0.750000 0.000000
O O12 0.609311 0.500000 0.944270
#
# Coordination Sequence:
#
# PCOD9220303 Si02
#       5
#     8   8   8   8   8
#     4   9  17  35  59  90 123 155 198 252 313 376
#     4   9  16  32  65  94 117 152 203 260 313 370
#     4  11  21  41  70  95 122 163 220 273 327 372
#     4  12  26  40  62  94 134 171 206 258 327 399
#     4  11  24  45  69  95 125 168 228 282 317 365
#
# _framework density 24.705582
#
# number of rings (size 3 to 8) (size 9 to 14) (size 15 to 20)
#    0.000    1.600    4.000    4.200    0.000    4.800 
#    0.000    2.000    0.000    0.000    0.000    0.000 
#    0.000    0.000    0.000    0.000    0.000    0.000 
#
# Total GULP energy -111622.227572 kJ/mol
# GULP energy per Si atom -5581.111379 kJ/mol
# Density = 2.464935 g / cm^3
# Si number density = 24.705582 Si / 1000 Ang^3
#
#
#
# Elastic Constant Matrix: (Units=GPa)
#
#
# Indices 1 2 3 4 5 6 
#
# 1 100.4631 26.8580 60.6301 0.0005 -39.8455 0.0007
# 2 26.8580 121.8976 27.5691 0.0000 -21.8463 -0.0014
# 3 60.6301 27.5691 109.4481 -0.0026 -36.0751 -0.0002
# 4 0.0005 0.0000 -0.0026 2.2018 0.0007 2.8998
# 5 -39.8455 -21.8463 -36.0751 0.0007 42.2448 0.0001
# 6 0.0007 -0.0014 -0.0002 2.8998 0.0001 11.2978
#
#
#
# Elastic Compliance Matrix: (Units=1/GPa)
#
#
# Indices 1 2 3 4 5 6 
#
# 1 0.018592 -0.000549 -0.006227 -0.000021 0.011935 0.000004
# 2 -0.000549 0.009141 -0.000850 -0.000005 0.003483 0.000002
# 3 -0.006227 -0.000850 0.014919 0.000025 0.006427 -0.000006
# 4 -0.000021 -0.000005 0.000025 0.686097 -0.000013 -0.176098
# 5 0.011935 0.003483 0.006427 -0.000013 0.042217 0.000003
# 6 0.000004 0.000002 -0.000006 -0.176098 0.000003 0.133711
#
#
# Mechanical properties :
#
#
# Convention : Reuss Voigt Hill
#
# Bulk Modulus (GPa) = 36.49807 62.43592 49.46700
# Shear Modulus (GPa) = 5.38175 25.59899 15.49037
#
# Velocity S-wave (km/s) = 1.47753 3.22244 2.50671
# Velocity P-wave (km/s) = 4.20905 6.25878 5.33331
#
# Compressibility (1/GPa) = 0.02739871
#
# Stress axis : x y z
#
# Youngs Moduli (GPa) = 53.78516 109.39534 67.02865
#
# Poissons Ratio (x) = 0.06008 0.41742
# Poissons Ratio (y) = 0.02954 0.05699
# Poissons Ratio (z) = 0.33495 0.09302
#
# Static dielectric constant tensor:
#      x y z
#    x 2.024260 0.000000 0.023950 
#    y 0.000000 1.980560 0.000000 
#    z 0.023950 0.000000 2.090900 
# 
# From -- ./inp_files/284414.got.cif
#   From: 2010.05.17/outbox.cif.g08.bks.cpg/sg12_143_cif.got.tgz:284414.got - 2010.06.03 13:09:07.
