data_PCOD9220973
_publ_section_title
;
Structure prediction by ZEFSAII (Michael W. Deem and Ramdas Pophale) SiO2 
 PCOD9220973
Probable space group: C 2/M
;
_chemical_formula_sum "Si O2"
_cell_formula_units_Z 44
_cell_length_a 10.074942
_cell_length_b 17.981214
_cell_length_c 18.835242
_cell_angle_alpha 90.000000
_cell_angle_beta 39.055162
_cell_angle_gamma 90.000000
_cell_volume 2149.910600
_symmetry_space_group_name_H-M "C 2/M"
_symmetry_group_IT_number 12
_symmetry_cell_setting 'monoclinic'
loop_
_space_group_symop_operation_xyz
x,y,z
-x,y,-z
-x,-y,-z
x,-y,z
1/2+x,1/2+y,z
1/2-x,1/2+y,-z
1/2-x,1/2-y,-z
1/2+x,1/2-y,z
loop_
_atom_site_type_symbol
_atom_site_label
_atom_site_fract_x
_atom_site_fract_y
_atom_site_fract_z
Si Si1 0.247312 0.123419 0.408661
Si Si2 0.500000 0.346223 0.000000
Si Si3 0.441224 0.762190 0.154122
Si Si4 0.278553 0.917007 0.554321
Si Si5 0.974910 0.225945 0.301322
Si Si6 0.560184 0.084209 0.151650
O O1 0.309564 0.087408 0.457120
O O2 0.304307 0.210789 0.390114
O O3 0.385757 0.092503 0.286273
O O4 0.000000 0.112343 0.500000
O O5 0.515794 0.292426 0.061589
O O6 0.289132 0.395634 0.088998
O O7 0.518921 0.735812 0.199138
O O8 0.507320 0.848552 0.119575
O O9 0.187349 0.759387 0.256573
O O10 0.500000 0.901668 0.500000
O O11 0.113364 0.854591 0.644817
O O12 0.208773 0.000000 0.603124
O O13 0.558125 0.000000 0.124998
#
# Coordination Sequence:
#
# PCOD9220973 Si02
#       6
#     8   4   8   8   8   8
#     4  11  22  41  66  92 129 174 217 259 313 400
#     4  12  23  48  71  92 130 176 224 274 323 400
#     4  11  23  42  71  95 127 169 225 272 325 384
#     4  11  23  36  56  91 135 171 208 263 326 385
#     4  11  22  40  65  95 127 174 217 269 315 399
#     4  11  25  43  69 100 131 172 222 270 328 388
#
# _framework density 20.465968
#
# number of rings (size 3 to 8) (size 9 to 14) (size 15 to 20)
#    0.000    0.909    3.636    5.727    0.000    3.636 
#    0.000    1.364    0.000    0.000    0.000    0.000 
#    0.000    0.000    0.000    0.000    0.000    0.000 
#
# Total GULP energy -123049.461364 kJ/mol
# GULP energy per Si atom -5593.157335 kJ/mol
# Density = 2.041939 g / cm^3
# Si number density = 20.465968 Si / 1000 Ang^3
#
#
#
# Elastic Constant Matrix: (Units=GPa)
#
#
# Indices 1 2 3 4 5 6 
#
# 1 79.1726 -10.9710 12.4060 -0.0046 -13.8839 0.0008
# 2 -10.9710 78.8422 25.7802 -0.0059 -6.4739 0.0010
# 3 12.4060 25.7802 64.9403 -0.0106 -25.4617 0.0046
# 4 -0.0046 -0.0059 -0.0106 8.3635 0.0021 0.8398
# 5 -13.8839 -6.4739 -25.4617 0.0021 29.6690 -0.0003
# 6 0.0008 0.0010 0.0046 0.8398 -0.0003 33.3689
#
#
#
# Elastic Compliance Matrix: (Units=1/GPa)
#
#
# Indices 1 2 3 4 5 6 
#
# 1 0.014349 0.003006 -0.001574 0.000007 0.006020 0.000000
# 2 0.003006 0.015349 -0.007239 0.000004 -0.001456 0.000000
# 3 -0.001574 -0.007239 0.026623 0.000023 0.020532 -0.000004
# 4 0.000007 0.000004 0.000023 0.119870 0.000015 -0.003017
# 5 0.006020 -0.001456 0.020532 0.000015 0.053825 -0.000003
# 6 0.000000 0.000000 -0.000004 -0.003017 -0.000003 0.030044
#
#
# Mechanical properties :
#
#
# Convention : Reuss Voigt Hill
#
# Bulk Modulus (GPa) = 22.36750 30.82061 26.59405
# Shear Modulus (GPa) = 17.44730 27.32959 22.38845
#
# Velocity S-wave (km/s) = 2.92293 3.65823 3.31106
# Velocity P-wave (km/s) = 4.72697 5.73896 5.25737
#
# Compressibility (1/GPa) = 0.04470773
#
# Stress axis : x y z
#
# Youngs Moduli (GPa) = 69.68892 65.15017 37.56141
#
# Poissons Ratio (x) = -0.19583 0.05913
# Poissons Ratio (y) = -0.20947 0.27189
# Poissons Ratio (z) = 0.10971 0.47159
#
# Static dielectric constant tensor:
#      x y z
#    x 1.714600 0.000000 -0.010730 
#    y 0.000000 1.730450 0.000000 
#    z -0.010730 0.000000 1.738920 
# 
# From -- ./inp_files/195664.got.cif
#   From: 2010.05.17/outbox.cif.g08.bks.cpg/sg12_98_cif.got.tgz:195664.got - 2010.06.03 13:09:07.
