data_PCOD9220887
_publ_section_title
;
Structure prediction by ZEFSAII (Michael W. Deem and Ramdas Pophale) SiO2 
 PCOD9220887
Probable space group: C 2/M
;
_chemical_formula_sum "Si O2"
_cell_formula_units_Z 36
_cell_length_a 8.485305
_cell_length_b 17.559888
_cell_length_c 12.001035
_cell_angle_alpha 90.000000
_cell_angle_beta 123.280150
_cell_angle_gamma 90.000000
_cell_volume 1494.902575
_symmetry_space_group_name_H-M "C 2/M"
_symmetry_group_IT_number 12
_symmetry_cell_setting 'monoclinic'
loop_
_space_group_symop_operation_xyz
x,y,z
-x,y,-z
-x,-y,-z
x,-y,z
1/2+x,1/2+y,z
1/2-x,1/2+y,-z
1/2-x,1/2-y,-z
1/2+x,1/2-y,z
loop_
_atom_site_type_symbol
_atom_site_label
_atom_site_fract_x
_atom_site_fract_y
_atom_site_fract_z
Si Si1 0.905236 0.583590 0.583393
Si Si2 0.165423 0.710066 0.282947
Si Si3 0.541147 0.637625 0.342922
Si Si4 0.642870 0.581616 0.954692
Si Si5 0.000000 0.777829 0.000000
O O1 0.959385 0.500000 0.646988
O O2 0.950354 0.649077 0.688976
O O3 0.683551 0.587759 0.469493
O O4 0.000000 0.594262 0.500000
O O5 0.369305 0.673798 0.343497
O O6 0.161344 0.790223 0.344802
O O7 0.087434 0.727638 0.130938
O O8 0.456577 0.593270 0.203580
O O9 0.755104 0.500000 0.991294
O O10 0.668021 0.670180 0.006054
O O11 0.500000 0.567935 0.000000
#
# Coordination Sequence:
#
# PCOD9220887 Si02
#       5
#     8   8   8   8   4
#     4  11  25  45  66  91 125 165 212 269 326 378
#     4  11  23  40  65  95 130 168 211 261 315 379
#     4  11  22  39  65  96 127 166 215 264 317 377
#     4   8  16  34  59  92 125 160 206 255 309 369
#     4   8  19  38  61  94 130 164 204 256 315 378
#
# _framework density 24.081835999999999
#
# number of rings (size 3 to 8) (size 9 to 14) (size 15 to 20)
#    0.667    1.333    0.000    3.333    0.000    6.222 
#    4.000    0.556    0.000    0.000    0.000    0.000 
#    0.000    0.000    0.000    0.000    0.000    0.000 
#
# Total GULP energy -100259.941150 kJ/mol
# GULP energy per Si atom -5569.996731 kJ/mol
# Density = 2.402702 g / cm^3
# Si number density = 24.081836 Si / 1000 Ang^3
#
#
#
# Elastic Constant Matrix: (Units=GPa)
#
#
# Indices 1 2 3 4 5 6 
#
# 1 72.5954 26.0091 7.5363 0.0000 -0.2113 0.0000
# 2 26.0091 161.5298 54.1458 0.0000 -13.2583 0.0000
# 3 7.5363 54.1458 108.1600 0.0000 -12.5167 0.0000
# 4 0.0000 0.0000 0.0000 26.0891 0.0000 2.2291
# 5 -0.2113 -13.2583 -12.5167 0.0000 22.4373 0.0000
# 6 0.0000 0.0000 0.0000 2.2291 0.0000 -24.4023
#
#
#
# Elastic Compliance Matrix: (Units=1/GPa)
#
#
# Indices 1 2 3 4 5 6 
#
# 1 0.014656 -0.002492 0.000077 0.000000 -0.001291 0.000000
# 2 -0.002492 0.007994 -0.003511 0.000000 0.002742 0.000000
# 3 0.000077 -0.003511 0.011500 0.000000 0.004342 0.000000
# 4 0.000000 0.000000 0.000000 0.038033 0.000000 0.003474
# 5 -0.001291 0.002742 0.004342 0.000000 0.048598 0.000000
# 6 0.000000 0.000000 0.000000 0.003474 0.000000 -0.040662
#
#
# Mechanical properties :
#
#
# Convention : Reuss Voigt Hill
#
# Bulk Modulus (GPa) = 44.84631 57.51863 51.18247
# Shear Modulus (GPa) = 50.29989 21.79777 36.04883
#
# Velocity S-wave (km/s) = 4.57520 3.01184 3.87322
# Velocity P-wave (km/s) = 6.82442 6.00262 6.42667
#
# Compressibility (1/GPa) = 0.02229838
#
# Stress axis : x y z
#
# Youngs Moduli (GPa) = 68.23183 125.09529 86.95461
#
# Poissons Ratio (x) = 0.31168 -0.00667
# Poissons Ratio (y) = 0.17000 0.30529
# Poissons Ratio (z) = -0.00523 0.43920
#
# Static dielectric constant tensor:
#      x y z
#    x 1.981400 0.000000 0.041340 
#    y 0.000000 2.150180 0.000000 
#    z 0.041340 0.000000 1.897040 
# 
# From -- ./inp_files/119231.got.cif
#   From: 2010.05.17/outbox.cif.g08.bks.cpg/sg12_60_cif.got.tgz:119231.got - 2010.06.03 13:09:07.
