data_PCOD9220081
_publ_section_title
;
Structure prediction by ZEFSAII (Michael W. Deem and Ramdas Pophale) SiO2 
 PCOD9220081
Probable space group: C 2/M
;
_chemical_formula_sum "Si O2"
_cell_formula_units_Z 52
_cell_length_a 30.146188
_cell_length_b 14.482273
_cell_length_c 6.377776
_cell_angle_alpha 90.000000
_cell_angle_beta 61.950047
_cell_angle_gamma 90.000000
_cell_volume 2457.376978
_symmetry_space_group_name_H-M "C 2/M"
_symmetry_group_IT_number 12
_symmetry_cell_setting 'monoclinic'
loop_
_space_group_symop_operation_xyz
x,y,z
-x,y,-z
-x,-y,-z
x,-y,z
1/2+x,1/2+y,z
1/2-x,1/2+y,-z
1/2-x,1/2-y,-z
1/2+x,1/2-y,z
loop_
_atom_site_type_symbol
_atom_site_label
_atom_site_fract_x
_atom_site_fract_y
_atom_site_fract_z
Si Si1 0.423919 0.758656 0.501237
Si Si2 0.731381 0.149757 0.111891
Si Si3 0.000000 0.220343 0.000000
Si Si4 0.335123 0.773795 0.392807
Si Si5 0.565790 0.393476 0.178968
Si Si6 0.316460 0.401811 0.193613
Si Si7 0.134051 0.393079 0.064575
O O1 0.468372 0.778766 0.238969
O O2 0.375347 0.734708 0.468746
O O3 0.440173 0.671441 0.605005
O O4 0.404785 0.841197 0.693364
O O5 0.700812 0.159722 0.396668
O O6 0.782189 0.099068 0.062816
O O7 0.690294 0.112451 0.040649
O O8 0.750000 0.250000 0.000000
O O9 0.037071 0.154901 0.050950
O O10 0.306101 0.688363 0.354343
O O11 0.362894 0.832505 0.152379
O O12 0.550283 0.500000 0.242429
O O13 0.625229 0.393530 0.996851
O O14 0.308319 0.500000 0.322404
O O15 0.121314 0.500000 0.059382
#
# Coordination Sequence:
#
# PCOD9220081 Si02
#       7
#     8   8   4   8   8   8   8
#     4  11  23  43  67  95 130 168 216 271 330 389
#     4  11  22  40  64  92 134 176 221 267 318 377
#     4  12  23  42  71  96 132 172 213 270 333 392
#     4  11  22  42  65  91 130 178 215 270 323 380
#     4  11  24  42  66  97 136 177 216 260 321 394
#     4  11  21  38  60  93 131 171 215 260 313 376
#     4  11  24  43  67  95 129 174 224 274 328 388
#
# _framework density 21.160775000000001
#
# number of rings (size 3 to 8) (size 9 to 14) (size 15 to 20)
#    0.000    0.923    4.615    2.538    0.000    5.538 
#    0.000    1.154    0.000    4.615    0.000    0.000 
#    0.000    0.000    0.000    0.000    0.000    0.000 
#
# Total GULP energy -145288.852812 kJ/mol
# GULP energy per Si atom -5588.032800 kJ/mol
# Density = 2.111261 g / cm^3
# Si number density = 21.160775 Si / 1000 Ang^3
#
#
#
# Elastic Constant Matrix: (Units=GPa)
#
#
# Indices 1 2 3 4 5 6 
#
# 1 103.4311 17.8879 33.5468 0.0000 2.1073 0.0000
# 2 17.8879 124.8971 35.7999 0.0000 15.5618 0.0000
# 3 33.5468 35.7999 93.9682 0.0000 11.0477 0.0000
# 4 0.0000 0.0000 0.0000 -2.6198 0.0000 5.9316
# 5 2.1073 15.5618 11.0477 0.0000 28.5957 0.0000
# 6 0.0000 0.0000 0.0000 5.9316 0.0000 7.8785
#
#
#
# Elastic Compliance Matrix: (Units=1/GPa)
#
#
# Indices 1 2 3 4 5 6 
#
# 1 0.010988 -0.000606 -0.003809 0.000000 0.000991 0.000000
# 2 -0.000606 0.009420 -0.002907 0.000000 -0.003958 0.000000
# 3 -0.003809 -0.002907 0.013503 0.000000 -0.003354 0.000000
# 4 0.000000 0.000000 0.000000 -0.141133 0.000000 0.106255
# 5 0.000991 -0.003958 -0.003354 0.000000 0.038347 0.000000
# 6 0.000000 0.000000 0.000000 0.106255 0.000000 0.046930
#
#
# Mechanical properties :
#
#
# Convention : Reuss Voigt Hill
#
# Bulk Modulus (GPa) = 51.89752 55.19619 53.54686
# Shear Modulus (GPa) = -5693.05755 22.44168 -2835.30793
#
# Velocity S-wave (km/s) = -51.92517 3.26011 -36.64420
# Velocity P-wave (km/s) = 59.75270 6.34917 42.01234
#
# Compressibility (1/GPa) = 0.01926874
#
# Stress axis : x y z
#
# Youngs Moduli (GPa) = 91.00773 106.15896 74.05494
#
# Poissons Ratio (x) = 0.06428 0.28205
# Poissons Ratio (y) = 0.05511 0.21529
# Poissons Ratio (z) = 0.34661 0.30862
#
# Static dielectric constant tensor:
#      x y z
#    x 1.779340 0.000000 -0.022290 
#    y 0.000000 1.761710 0.000000 
#    z -0.022290 0.000000 1.785590 
# 
# From -- ./inp_files/31455.got.cif
#   From: 2010.05.17/outbox.cif.g08.bks.cpg/sg12_16_cif.got.tgz:31455.got - 2010.06.03 13:09:07.
