data_PCOD9220573
_publ_section_title
;
Structure prediction by ZEFSAII (Michael W. Deem and Ramdas Pophale) SiO2 
 PCOD9220573
Probable space group: C 2/M
;
_chemical_formula_sum "Si O2"
_cell_formula_units_Z 40
_cell_length_a 25.192841
_cell_length_b 16.312005
_cell_length_c 10.435803
_cell_angle_alpha 90.000000
_cell_angle_beta 25.831825
_cell_angle_gamma 90.000000
_cell_volume 1868.654183
_symmetry_space_group_name_H-M "C 2/M"
_symmetry_group_IT_number 12
_symmetry_cell_setting 'monoclinic'
loop_
_space_group_symop_operation_xyz
x,y,z
-x,y,-z
-x,-y,-z
x,-y,z
1/2+x,1/2+y,z
1/2-x,1/2+y,-z
1/2-x,1/2-y,-z
1/2+x,1/2-y,z
loop_
_atom_site_type_symbol
_atom_site_label
_atom_site_fract_x
_atom_site_fract_y
_atom_site_fract_z
Si Si1 0.505773 0.905661 0.833778
Si Si2 0.162693 0.725605 0.366310
Si Si3 0.583056 0.593682 0.932972
Si Si4 0.436988 0.682814 0.751232
Si Si5 0.243975 0.672827 0.609533
O O1 0.621393 0.857176 0.528640
O O2 0.501631 0.000000 0.799491
O O3 0.500000 0.904297 0.000000
O O4 0.387527 0.852477 0.053753
O O5 0.046045 0.750628 0.534455
O O6 0.180016 0.798555 0.432452
O O7 0.299248 0.710861 0.016851
O O8 0.546027 0.500000 0.034143
O O9 0.710183 0.599414 0.580784
O O10 0.500000 0.632002 0.000000
O O11 0.579281 0.639883 0.075047
O O12 0.500000 0.630489 0.500000
O O13 0.250000 0.750000 0.500000
#
# Coordination Sequence:
#
# PCOD9220573 Si02
#       5
#     8   8   8   8   8
#     4  11  22  36  61  99 138 173 216 279 345 403
#     4  12  23  41  68  97 129 176 230 272 329 403
#     4  11  23  39  64  98 134 170 217 274 336 397
#     4  12  26  44  68  97 133 177 227 279 329 398
#     4  12  20  36  66  96 131 168 216 275 334 390
#
# _framework density 21.40578
#
# number of rings (size 3 to 8) (size 9 to 14) (size 15 to 20)
#    0.000    0.400    8.000    1.200    0.000    2.800 
#    0.000    0.000    0.000    0.600    0.000    0.000 
#    0.000    0.000    0.000    0.000    0.000    0.000 
#
# Total GULP energy -111487.358199 kJ/mol
# GULP energy per Si atom -5574.367910 kJ/mol
# Density = 2.135706 g / cm^3
# Si number density = 21.405780 Si / 1000 Ang^3
#
#
#
# Elastic Constant Matrix: (Units=GPa)
#
#
# Indices 1 2 3 4 5 6 
#
# 1 77.0475 18.3288 49.0896 0.0000 -14.7695 0.0000
# 2 18.3288 75.6190 40.1193 0.0000 -5.1386 0.0000
# 3 49.0896 40.1193 192.9630 0.0000 0.6307 0.0000
# 4 0.0000 0.0000 0.0000 17.9352 0.0000 -5.8228
# 5 -14.7695 -5.1386 0.6307 0.0000 43.5099 0.0000
# 6 0.0000 0.0000 0.0000 -5.8228 0.0000 12.2713
#
#
#
# Elastic Compliance Matrix: (Units=1/GPa)
#
#
# Indices 1 2 3 4 5 6 
#
# 1 0.016996 -0.001610 -0.004007 0.000000 0.005637 0.000000
# 2 -0.001610 0.015159 -0.002746 0.000000 0.001283 0.000000
# 3 -0.004007 -0.002746 0.006779 0.000000 -0.001783 0.000000
# 4 0.000000 0.000000 0.000000 0.065910 0.000000 0.031275
# 5 0.005637 0.001283 -0.001783 0.000000 0.025074 0.000000
# 6 0.000000 0.000000 0.000000 0.031275 0.000000 0.096331
#
#
# Mechanical properties :
#
#
# Convention : Reuss Voigt Hill
#
# Bulk Modulus (GPa) = 45.03414 62.30054 53.66734
# Shear Modulus (GPa) = 19.96978 30.61608 25.29293
#
# Velocity S-wave (km/s) = 3.05768 3.78600 3.44116
# Velocity P-wave (km/s) = 5.79222 6.94834 6.39645
#
# Compressibility (1/GPa) = 0.02220537
#
# Stress axis : x y z
#
# Youngs Moduli (GPa) = 58.83759 65.96870 147.52317
#
# Poissons Ratio (x) = 0.10624 0.59118
# Poissons Ratio (y) = 0.09475 0.40513
# Poissons Ratio (z) = 0.23578 0.18116
#
# Static dielectric constant tensor:
#      x y z
#    x 1.869200 0.000000 -0.088330 
#    y 0.000000 1.792800 0.000000 
#    z -0.088330 0.000000 1.916480 
# 
# From -- ./inp_files/189907.got.cif
#   From: 2010.05.17/outbox.cif.g08.bks.cpg/sg12_95_cif.got.tgz:189907.got - 2010.06.03 13:09:07.
