data_PCOD9220374
_publ_section_title
;
Structure prediction by ZEFSAII (Michael W. Deem and Ramdas Pophale) SiO2 
 PCOD9220374
Probable space group: C 2/M
;
_chemical_formula_sum "Si O2"
_cell_formula_units_Z 34
_cell_length_a 21.012117
_cell_length_b 10.258161
_cell_length_c 23.388184
_cell_angle_alpha 90.000000
_cell_angle_beta 18.110244
_cell_angle_gamma 90.000000
_cell_volume 1567.045554
_symmetry_space_group_name_H-M "C 2/M"
_symmetry_group_IT_number 12
_symmetry_cell_setting 'monoclinic'
loop_
_space_group_symop_operation_xyz
x,y,z
-x,y,-z
-x,-y,-z
x,-y,z
1/2+x,1/2+y,z
1/2-x,1/2+y,-z
1/2-x,1/2-y,-z
1/2+x,1/2-y,z
loop_
_atom_site_type_symbol
_atom_site_label
_atom_site_fract_x
_atom_site_fract_y
_atom_site_fract_z
Si Si1 0.478767 0.236767 0.188099
Si Si2 0.000000 0.000000 0.500000
Si Si3 0.985794 0.000000 0.915164
Si Si4 0.481949 0.281671 0.431056
Si Si5 0.416034 0.352480 0.784755
Si Si6 0.656273 0.000000 0.296615
O O1 0.510625 0.373143 0.127730
O O2 0.481695 0.265559 0.253294
O O3 0.258436 0.182793 0.359505
O O4 0.674201 0.151232 0.005334
O O5 0.911522 0.884435 0.618569
O O6 0.180046 0.000000 0.791769
O O7 0.788319 0.000000 0.125157
O O8 0.548176 0.300997 0.309165
O O9 0.525242 0.132137 0.409962
O O10 0.494172 0.500000 0.722145
#
# Coordination Sequence:
#
# PCOD9220374 Si02
#       6
#     8   2   4   8   8   4
#     4  11  24  43  71  99 133 179 225 282 344 410
#     4  12  28  44  70 100 138 182 232 270 342 414
#     4  11  21  44  68 100 128 178 229 273 341 399
#     4  12  25  48  68 103 137 181 228 284 338 409
#     4  11  24  44  68 101 138 177 225 287 343 407
#     4  11  25  43  74  96 137 180 228 281 333 407
#
# _framework density 21.696881000000001
#
# number of rings (size 3 to 8) (size 9 to 14) (size 15 to 20)
#    0.000    0.706    4.706    2.824    1.647    1.412 
#    0.000    1.176    0.000    0.000    0.000    0.000 
#    0.000    0.000    0.000    0.000    0.000    0.000 
#
# Total GULP energy -94879.388706 kJ/mol
# GULP energy per Si atom -5581.140512 kJ/mol
# Density = 2.164750 g / cm^3
# Si number density = 21.696881 Si / 1000 Ang^3
#
#
#
# Elastic Constant Matrix: (Units=GPa)
#
#
# Indices 1 2 3 4 5 6 
#
# 1 121.4083 17.4818 14.8788 -0.0092 31.7968 0.0020
# 2 17.4818 95.2039 -8.3243 -0.0319 9.8858 0.0075
# 3 14.8788 -8.3243 48.3498 -0.0304 -0.4079 0.0086
# 4 -0.0092 -0.0319 -0.0304 11.7943 0.0012 4.6252
# 5 31.7968 9.8858 -0.4079 0.0012 40.7791 0.0000
# 6 0.0020 0.0075 0.0086 4.6252 0.0000 3.9000
#
#
#
# Elastic Compliance Matrix: (Units=1/GPa)
#
#
# Indices 1 2 3 4 5 6 
#
# 1 0.011090 -0.001500 -0.003741 -0.000012 -0.008322 0.000020
# 2 -0.001500 0.011143 0.002367 0.000085 -0.001508 -0.000126
# 3 -0.003741 0.002367 0.022263 0.000151 0.002566 -0.000231
# 4 -0.000012 0.000085 0.000151 0.158505 -0.000014 -0.187978
# 5 -0.008322 -0.001508 0.002566 -0.000014 0.031402 0.000018
# 6 0.000020 -0.000126 -0.000231 -0.187978 0.000018 0.479343
#
#
# Mechanical properties :
#
#
# Convention : Reuss Voigt Hill
#
# Bulk Modulus (GPa) = 25.80687 34.78162 30.29425
# Shear Modulus (GPa) = 6.82678 27.35639 17.09159
#
# Velocity S-wave (km/s) = 1.77574 3.55469 2.80972
# Velocity P-wave (km/s) = 4.01553 5.73701 4.95165
#
# Compressibility (1/GPa) = 0.03874938
#
# Stress axis : x y z
#
# Youngs Moduli (GPa) = 90.16727 89.74427 44.91700
#
# Poissons Ratio (x) = 0.13457 0.16805
# Poissons Ratio (y) = 0.13521 -0.10633
# Poissons Ratio (z) = 0.33734 -0.21245
#
# Static dielectric constant tensor:
#      x y z
#    x 1.810820 0.000000 -0.022450 
#    y 0.000000 1.737310 0.000000 
#    z -0.022450 0.000000 1.783250 
# 
# From -- ./inp_files/346726.got.cif
#   From: 2010.05.17/outbox.cif.g08.bks.cpg/sg12_174_cif.got.tgz:346726.got - 2010.06.03 13:09:07.
