data_PCOD9220730
_publ_section_title
;
Structure prediction by ZEFSAII (Michael W. Deem and Ramdas Pophale) SiO2 
 PCOD9220730
Probable space group: C 2/M
;
_chemical_formula_sum "Si O2"
_cell_formula_units_Z 64
_cell_length_a 14.771362
_cell_length_b 8.189816
_cell_length_c 29.122606
_cell_angle_alpha 90.000000
_cell_angle_beta 131.287363
_cell_angle_gamma 90.000000
_cell_volume 2647.291153
_symmetry_space_group_name_H-M "C 2/M"
_symmetry_group_IT_number 12
_symmetry_cell_setting 'monoclinic'
loop_
_space_group_symop_operation_xyz
x,y,z
-x,y,-z
-x,-y,-z
x,-y,z
1/2+x,1/2+y,z
1/2-x,1/2+y,-z
1/2-x,1/2-y,-z
1/2+x,1/2-y,z
loop_
_atom_site_type_symbol
_atom_site_label
_atom_site_fract_x
_atom_site_fract_y
_atom_site_fract_z
Si Si1 0.504281 0.800379 0.053757
Si Si2 0.875655 0.805529 0.767799
Si Si3 0.991252 0.310280 0.548087
Si Si4 0.247821 0.188208 0.639814
Si Si5 0.620970 0.315211 0.400014
Si Si6 0.114875 0.688857 0.724851
Si Si7 0.885825 0.691109 0.102671
Si Si8 0.271080 0.690422 0.151408
O O1 0.404343 0.747109 0.056862
O O2 0.636031 0.750938 0.115768
O O3 0.501568 0.000000 0.052513
O O4 0.500000 0.743830 0.000000
O O5 0.854243 0.749756 0.708391
O O6 0.746214 0.772035 0.747964
O O7 0.983634 0.714046 0.829306
O O8 0.899599 0.000000 0.777653
O O9 0.959502 0.500000 0.533522
O O10 0.128875 0.291918 0.611044
O O11 0.000000 0.235751 0.500000
O O12 0.902122 0.232880 0.555146
O O13 0.289179 0.210351 0.601128
O O14 0.221584 0.000000 0.640671
O O15 0.663189 0.500000 0.410877
O O16 0.490309 0.295149 0.332165
O O17 0.085225 0.500000 0.705053
O O18 0.134751 0.714685 0.785680
O O19 0.854218 0.500000 0.091783
O O20 0.796270 0.786392 0.105974
O O21 0.280835 0.500000 0.166266
#
# Coordination Sequence:
#
# PCOD9220730 Si02
#       8
#     8   8   8   8   8   8   8   8
#     4   9  20  39  61  84 115 158 204 251 302 361
#     4  11  22  38  63  92 127 162 201 251 308 370
#     4  11  25  46  69  94 127 166 212 263 312 365
#     4  12  25  42  67  96 130 167 209 256 310 372
#     4  12  25  42  67  96 130 167 209 256 310 372
#     4  11  22  38  63  92 127 162 201 251 308 370
#     4  11  22  38  61  89 122 158 202 249 304 367
#     4  11  22  38  61  89 122 158 202 249 304 367
#
# _framework density 24.175657999999999
#
# number of rings (size 3 to 8) (size 9 to 14) (size 15 to 20)
#    0.000    1.000    2.500    4.875    0.000    3.000 
#    0.000    0.000    0.000    5.250    0.000    0.000 
#    0.000    0.000    0.000    0.000    0.000    0.000 
#
# Total GULP energy -179203.345192 kJ/mol
# GULP energy per Si atom -5600.104537 kJ/mol
# Density = 2.412063 g / cm^3
# Si number density = 24.175658 Si / 1000 Ang^3
#
#
#
# Elastic Constant Matrix: (Units=GPa)
#
#
# Indices 1 2 3 4 5 6 
#
# 1 110.3812 -3.1021 14.1679 0.0000 -20.9021 0.0000
# 2 -3.1021 53.3405 -11.0603 0.0000 3.2841 0.0000
# 3 14.1679 -11.0603 60.7397 0.0000 -20.3461 0.0000
# 4 0.0000 0.0000 0.0000 15.8258 0.0000 -5.7298
# 5 -20.9021 3.2841 -20.3461 0.0000 44.7278 0.0000
# 6 0.0000 0.0000 0.0000 -5.7298 0.0000 25.6250
#
#
#
# Elastic Compliance Matrix: (Units=1/GPa)
#
#
# Indices 1 2 3 4 5 6 
#
# 1 0.009982 0.000136 -0.000878 0.000000 0.004255 0.000000
# 2 0.000136 0.019487 0.003609 0.000000 0.000274 0.000000
# 3 -0.000878 0.003609 0.020173 0.000000 0.008501 0.000000
# 4 0.000000 0.000000 0.000000 0.068754 0.000000 0.015374
# 5 0.004255 0.000274 0.008501 0.000000 0.028193 0.000000
# 6 0.000000 0.000000 0.000000 0.015374 0.000000 0.042462
#
#
# Mechanical properties :
#
#
# Convention : Reuss Voigt Hill
#
# Bulk Modulus (GPa) = 18.05850 24.94139 21.49994
# Shear Modulus (GPa) = 24.77999 32.19944 28.48971
#
# Velocity S-wave (km/s) = 3.20503 3.65347 3.43657
# Velocity P-wave (km/s) = 4.60241 5.30436 4.96581
#
# Compressibility (1/GPa) = 0.05537558
#
# Stress axis : x y z
#
# Youngs Moduli (GPa) = 100.18192 51.31694 49.57048
#
# Poissons Ratio (x) = -0.00700 0.04353
# Poissons Ratio (y) = -0.01367 -0.17888
# Poissons Ratio (z) = 0.08797 -0.18518
#
# Static dielectric constant tensor:
#      x y z
#    x 1.947210 0.000000 -0.040110 
#    y 0.000000 1.816590 0.000000 
#    z -0.040110 0.000000 1.971620 
# 
# From -- ./inp_files/375621.got.cif
#   From: 2010.05.17/outbox.cif.g08.bks.cpg/sg12_188_cif.got.tgz:375621.got - 2010.06.03 13:09:07.
