data_PCOD9220800
_publ_section_title
;
Structure prediction by ZEFSAII (Michael W. Deem and Ramdas Pophale) SiO2 
 PCOD9220800
Probable space group: C 2/M
;
_chemical_formula_sum "Si O2"
_cell_formula_units_Z 50
_cell_length_a 12.867242
_cell_length_b 13.115375
_cell_length_c 13.207461
_cell_angle_alpha 90.000000
_cell_angle_beta 60.666485
_cell_angle_gamma 90.000000
_cell_volume 1943.094153
_symmetry_space_group_name_H-M "C 2/M"
_symmetry_group_IT_number 12
_symmetry_cell_setting 'monoclinic'
loop_
_space_group_symop_operation_xyz
x,y,z
-x,y,-z
-x,-y,-z
x,-y,z
1/2+x,1/2+y,z
1/2-x,1/2+y,-z
1/2-x,1/2-y,-z
1/2+x,1/2-y,z
loop_
_atom_site_type_symbol
_atom_site_label
_atom_site_fract_x
_atom_site_fract_y
_atom_site_fract_z
Si Si1 0.182580 0.159707 0.959465
Si Si2 0.362165 0.886707 0.091995
Si Si3 0.626821 0.182007 0.681714
Si Si4 0.128884 0.189698 0.388509
Si Si5 0.527387 0.385458 0.233346
Si Si6 0.882410 0.389858 0.723513
Si Si7 0.500000 0.500000 0.000000
O O1 0.177122 0.280266 0.941684
O O2 0.138920 0.364217 0.788204
O O3 0.315450 0.125032 0.863596
O O4 0.099244 0.090525 0.927088
O O5 0.116527 0.868052 0.096115
O O6 0.310770 0.000000 0.092645
O O7 0.500000 0.893529 0.000000
O O8 0.764585 0.167988 0.584038
O O9 0.570126 0.295644 0.715584
O O10 0.523895 0.123356 0.671144
O O11 0.106470 0.123203 0.298046
O O12 0.159853 0.300224 0.328493
O O13 0.000000 0.191456 0.500000
O O14 0.480331 0.500000 0.246880
O O15 0.855278 0.500000 0.695457
#
# Coordination Sequence:
#
# PCOD9220800 Si02
#       7
#     8   8   8   8   8   8   2
#     4  12  22  42  69 114 152 195 238 291 360 442
#     4  11  22  38  67 105 150 196 233 279 360 443
#     4  11  24  47  70 102 146 189 241 301 372 424
#     4  11  28  51  73  99 140 192 253 312 366 439
#     4  11  25  45  74 108 146 191 245 300 356 443
#     4  11  25  44  75 111 148 187 240 305 367 443
#     4  12  20  36  78 100 166 200 234 286 364 438
#
# _framework density 25.732157000000001
#
# number of rings (size 3 to 8) (size 9 to 14) (size 15 to 20)
#    0.000    0.800    5.600    0.480    0.000    8.960 
#    0.000    3.200    0.000    0.000    0.000    0.000 
#    0.000    0.000    0.000    0.000    0.000    0.000 
#
# Total GULP energy -139614.130463 kJ/mol
# GULP energy per Si atom -5584.565219 kJ/mol
# Density = 2.567359 g / cm^3
# Si number density = 25.732157 Si / 1000 Ang^3
#
#
#
# Elastic Constant Matrix: (Units=GPa)
#
#
# Indices 1 2 3 4 5 6 
#
# 1 105.4847 15.1465 18.9405 0.0000 -37.3198 0.0000
# 2 15.1465 193.1228 6.5894 0.0000 -7.5363 0.0000
# 3 18.9405 6.5894 52.1048 0.0000 -14.3713 0.0000
# 4 0.0000 0.0000 0.0000 -125.6851 0.0000 -45.6748
# 5 -37.3198 -7.5363 -14.3713 0.0000 52.1551 0.0000
# 6 0.0000 0.0000 0.0000 -45.6748 0.0000 -8.9808
#
#
#
# Elastic Compliance Matrix: (Units=1/GPa)
#
#
# Indices 1 2 3 4 5 6 
#
# 1 0.013020 -0.000608 -0.002284 0.000000 0.008599 0.000000
# 2 -0.000608 0.005247 -0.000383 0.000000 0.000218 0.000000
# 3 -0.002284 -0.000383 0.021217 0.000000 0.004157 0.000000
# 4 0.000000 0.000000 0.000000 0.009380 0.000000 -0.047706
# 5 0.008599 0.000218 0.004157 0.000000 0.026504 0.000000
# 6 0.000000 0.000000 0.000000 -0.047706 0.000000 0.131274
#
#
# Mechanical properties :
#
#
# Convention : Reuss Voigt Hill
#
# Bulk Modulus (GPa) = 30.36235 48.00724 39.18480
# Shear Modulus (GPa) = 22.30460 4.16688 13.23574
#
# Velocity S-wave (km/s) = 2.94734 1.27391 2.27042
# Velocity P-wave (km/s) = 4.83812 4.56736 4.70469
#
# Compressibility (1/GPa) = 0.03293552
#
# Stress axis : x y z
#
# Youngs Moduli (GPa) = 76.80644 190.57527 47.13139
#
# Poissons Ratio (x) = 0.11580 0.10766
# Poissons Ratio (y) = 0.04667 0.01803
# Poissons Ratio (z) = 0.17544 0.07291
#
# Static dielectric constant tensor:
#      x y z
#    x 2.274730 0.000000 -0.014440 
#    y 0.000000 1.982080 0.000000 
#    z -0.014440 0.000000 2.184120 
# 
# From -- ./inp_files/262778.got.cif
#   From: 2010.05.17/outbox.cif.g08.bks.cpg/sg12_132_cif.got.tgz:262778.got - 2010.06.03 13:09:07.
