data_PCOD9220137
_publ_section_title
;
Structure prediction by ZEFSAII (Michael W. Deem and Ramdas Pophale) SiO2 
 PCOD9220137
Probable space group: C 2/M
;
_chemical_formula_sum "Si O2"
_cell_formula_units_Z 48
_cell_length_a 28.133412
_cell_length_b 14.043124
_cell_length_c 12.154688
_cell_angle_alpha 90.000000
_cell_angle_beta 29.071143
_cell_angle_gamma 90.000000
_cell_volume 2333.310848
_symmetry_space_group_name_H-M "C 2/M"
_symmetry_group_IT_number 12
_symmetry_cell_setting 'monoclinic'
loop_
_space_group_symop_operation_xyz
x,y,z
-x,y,-z
-x,-y,-z
x,-y,z
1/2+x,1/2+y,z
1/2-x,1/2+y,-z
1/2-x,1/2-y,-z
1/2+x,1/2-y,z
loop_
_atom_site_type_symbol
_atom_site_label
_atom_site_fract_x
_atom_site_fract_y
_atom_site_fract_z
Si Si1 0.100266 0.293888 0.559046
Si Si2 0.492989 0.500000 0.740573
Si Si3 0.867033 0.000000 0.202349
Si Si4 0.410633 0.343001 0.595801
Si Si5 0.813485 0.000000 0.928075
Si Si6 0.191773 0.500000 0.379845
Si Si7 0.943121 0.390301 0.997410
Si Si8 0.779836 0.165053 0.518709
O O1 0.111231 0.258973 0.411823
O O2 0.140812 0.398991 0.500805
O O3 0.162525 0.217457 0.501164
O O4 0.988783 0.308973 0.826059
O O5 0.552725 0.407911 0.580664
O O6 0.400911 0.500000 0.842251
O O7 0.460889 0.500000 0.932247
O O8 0.779735 0.000000 0.289281
O O9 0.849451 0.091292 0.314366
O O10 0.500000 0.335768 0.500000
O O11 0.328922 0.406255 0.822317
O O12 0.720633 0.000000 0.193029
O O13 0.962055 0.500000 0.924618
O O14 0.825633 0.380964 0.240289
O O15 0.000000 0.377970 0.000000
O O16 0.750000 0.250000 0.500000
#
# Coordination Sequence:
#
# PCOD9220137 Si02
#       8
#     8   4   4   8   4   4   8   8
#     4  12  25  39  68  95 126 173 226 260 323 389
#     4   8  18  36  65  84 119 165 204 255 329 387
#     4  11  21  39  57  89 136 163 209 268 312 372
#     4   9  20  41  64  92 120 164 213 271 333 390
#     4   8  18  38  64  85 118 157 206 267 331 376
#     4  11  21  39  61  90 121 171 216 254 317 401
#     4  11  22  41  64  88 132 182 213 257 313 384
#     4  12  24  39  62  98 129 171 224 264 306 385
#
# _framework density 20.571625999999998
#
# number of rings (size 3 to 8) (size 9 to 14) (size 15 to 20)
#    0.000    1.500    5.000    1.000    2.333    3.333 
#    0.000    1.250    0.000    0.000    0.000    0.000 
#    0.000    0.000    0.000    0.000    0.000    0.000 
#
# Total GULP energy -133847.915964 kJ/mol
# GULP energy per Si atom -5576.996499 kJ/mol
# Density = 2.052480 g / cm^3
# Si number density = 20.571626 Si / 1000 Ang^3
#
#
#
# Elastic Constant Matrix: (Units=GPa)
#
#
# Indices 1 2 3 4 5 6 
#
# 1 72.3363 48.6509 35.7564 0.0000 6.8554 0.0000
# 2 48.6509 103.2584 23.5423 0.0000 4.7666 0.0000
# 3 35.7564 23.5423 83.3007 0.0000 14.5375 0.0000
# 4 0.0000 0.0000 0.0000 26.4513 0.0000 9.9849
# 5 6.8554 4.7666 14.5375 0.0000 19.3556 0.0000
# 6 0.0000 0.0000 0.0000 9.9849 0.0000 39.5296
#
#
#
# Elastic Compliance Matrix: (Units=1/GPa)
#
#
# Indices 1 2 3 4 5 6 
#
# 1 0.024038 -0.009588 -0.007520 0.000000 -0.000504 0.000000
# 2 -0.009588 0.014178 0.000144 0.000000 -0.000204 0.000000
# 3 -0.007520 0.000144 0.016956 0.000000 -0.010107 0.000000
# 4 0.000000 0.000000 0.000000 0.041790 0.000000 -0.010556
# 5 -0.000504 -0.000204 -0.010107 0.000000 0.059485 0.000000
# 6 0.000000 0.000000 0.000000 -0.010556 0.000000 0.027964
#
#
# Mechanical properties :
#
#
# Convention : Reuss Voigt Hill
#
# Bulk Modulus (GPa) = 47.07239 52.75495 49.91367
# Shear Modulus (GPa) = 22.18076 27.13033 24.65555
#
# Velocity S-wave (km/s) = 3.28719 3.63550 3.46572
# Velocity P-wave (km/s) = 6.11059 6.58200 6.35067
#
# Compressibility (1/GPa) = 0.02124387
#
# Stress axis : x y z
#
# Youngs Moduli (GPa) = 41.60092 70.53001 58.97613
#
# Poissons Ratio (x) = 0.67622 0.44353
# Poissons Ratio (y) = 0.39886 -0.00849
# Poissons Ratio (z) = 0.31286 -0.01016
#
# Static dielectric constant tensor:
#      x y z
#    x 1.745240 0.000000 -0.062030 
#    y 0.000000 1.748810 0.000000 
#    z -0.062030 0.000000 1.990020 
# 
# From -- ./inp_files/183729.got.cif
#   From: 2010.05.17/outbox.cif.g08.bks.cpg/sg12_92_cif.got.tgz:183729.got - 2010.06.03 13:09:07.
