data_PCOD9220315
_publ_section_title
;
Structure prediction by ZEFSAII (Michael W. Deem and Ramdas Pophale) SiO2 
 PCOD9220315
Probable space group: C 2/M
;
_chemical_formula_sum "Si O2"
_cell_formula_units_Z 40
_cell_length_a 9.624723
_cell_length_b 19.708623
_cell_length_c 9.441789
_cell_angle_alpha 90.000000
_cell_angle_beta 102.467642
_cell_angle_gamma 90.000000
_cell_volume 1748.777785
_symmetry_space_group_name_H-M "C 2/M"
_symmetry_group_IT_number 12
_symmetry_cell_setting 'monoclinic'
loop_
_space_group_symop_operation_xyz
x,y,z
-x,y,-z
-x,-y,-z
x,-y,z
1/2+x,1/2+y,z
1/2-x,1/2+y,-z
1/2-x,1/2-y,-z
1/2+x,1/2-y,z
loop_
_atom_site_type_symbol
_atom_site_label
_atom_site_fract_x
_atom_site_fract_y
_atom_site_fract_z
Si Si1 0.015879 0.579509 0.660687
Si Si2 0.199985 0.887718 0.614417
Si Si3 0.924304 0.075677 0.709215
Si Si4 0.875403 0.657654 0.072924
Si Si5 0.101005 0.190635 0.829311
O O1 0.858365 0.591604 0.688103
O O2 0.657671 0.684158 0.678062
O O3 0.000000 0.609399 0.500000
O O4 0.130981 0.612763 0.787830
O O5 0.079643 0.930882 0.667419
O O6 0.175794 0.900187 0.442613
O O7 0.544100 0.000000 0.654938
O O8 0.964593 0.140917 0.814060
O O9 0.886886 0.000000 0.754473
O O10 0.925248 0.732500 0.133702
O O11 0.730595 0.664052 0.954080
O O12 0.000000 0.629761 0.000000
#
# Coordination Sequence:
#
# PCOD9220315 Si02
#       5
#     8   8   8   8   8
#     4  11  24  40  60  89 122 153 194 247 296 345
#     4   9  17  35  59  88 117 150 192 239 292 346
#     4   9  16  31  59  89 116 145 194 245 288 345
#     4  11  21  42  59  82 120 159 195 241 291 352
#     4   9  21  35  58  88 115 153 200 239 290 344
#
# _framework density 22.873118000000002
#
# number of rings (size 3 to 8) (size 9 to 14) (size 15 to 20)
#    1.200    1.000    2.000    2.400    0.000    2.800 
#    7.200    2.000    0.000    0.600    0.000    0.000 
#    0.000    0.000    0.000    0.000    0.000    0.000 
#
# Total GULP energy -111444.487598 kJ/mol
# GULP energy per Si atom -5572.224380 kJ/mol
# Density = 2.282106 g / cm^3
# Si number density = 22.873118 Si / 1000 Ang^3
#
#
#
# Elastic Constant Matrix: (Units=GPa)
#
#
# Indices 1 2 3 4 5 6 
#
# 1 51.8623 -4.6967 -0.3206 0.0000 12.1650 0.0000
# 2 -4.6967 58.5145 45.9511 0.0000 8.4974 0.0000
# 3 -0.3206 45.9511 86.1681 0.0000 8.9331 0.0000
# 4 0.0000 0.0000 0.0000 69.1535 0.0000 -12.2402
# 5 12.1650 8.4974 8.9331 0.0000 34.2396 0.0000
# 6 0.0000 0.0000 0.0000 -12.2402 0.0000 16.0077
#
#
#
# Elastic Compliance Matrix: (Units=1/GPa)
#
#
# Indices 1 2 3 4 5 6 
#
# 1 0.021570 0.003784 -0.001075 0.000000 -0.008322 0.000000
# 2 0.003784 0.030433 -0.015718 0.000000 -0.004796 0.000000
# 3 -0.001075 -0.015718 0.020082 0.000000 -0.000957 0.000000
# 4 0.000000 0.000000 0.000000 0.016724 0.000000 0.012788
# 5 -0.008322 -0.004796 -0.000957 0.000000 0.033603 0.000000
# 6 0.000000 0.000000 0.000000 0.012788 0.000000 0.072248
#
#
# Mechanical properties :
#
#
# Convention : Reuss Voigt Hill
#
# Bulk Modulus (GPa) = 21.70709 30.93472 26.32091
# Shear Modulus (GPa) = 21.18341 34.25426 27.71883
#
# Velocity S-wave (km/s) = 3.04653 3.87405 3.48494
# Velocity P-wave (km/s) = 4.67825 5.79352 5.26550
#
# Compressibility (1/GPa) = 0.04606790
#
# Stress axis : x y z
#
# Youngs Moduli (GPa) = 46.36080 32.85889 49.79500
#
# Poissons Ratio (x) = -0.12434 0.05352
# Poissons Ratio (y) = -0.17543 0.78267
# Poissons Ratio (z) = 0.04983 0.51647
#
# Static dielectric constant tensor:
#      x y z
#    x 1.907960 0.000000 -0.055720 
#    y 0.000000 1.862510 0.000000 
#    z -0.055720 0.000000 1.900260 
# 
# From -- ./inp_files/48886.got.cif
#   From: 2010.05.17/outbox.cif.g08.bks.cpg/sg12_25_cif.got.tgz:48886.got - 2010.06.03 13:09:07.
