data_PCOD9220163
_publ_section_title
;
Structure prediction by ZEFSAII (Michael W. Deem and Ramdas Pophale) SiO2 
 PCOD9220163
Probable space group: C 2/M
;
_chemical_formula_sum "Si O2"
_cell_formula_units_Z 64
_cell_length_a 18.633084
_cell_length_b 14.544256
_cell_length_c 24.893377
_cell_angle_alpha 90.000000
_cell_angle_beta 152.170474
_cell_angle_gamma 90.000000
_cell_volume 3149.418582
_symmetry_space_group_name_H-M "C 2/M"
_symmetry_group_IT_number 12
_symmetry_cell_setting 'monoclinic'
loop_
_space_group_symop_operation_xyz
x,y,z
-x,y,-z
-x,-y,-z
x,-y,z
1/2+x,1/2+y,z
1/2-x,1/2+y,-z
1/2-x,1/2-y,-z
1/2+x,1/2-y,z
loop_
_atom_site_type_symbol
_atom_site_label
_atom_site_fract_x
_atom_site_fract_y
_atom_site_fract_z
Si Si1 0.926976 0.607322 0.297110
Si Si2 0.419030 0.394743 0.756287
Si Si3 0.729146 0.853881 0.006442
Si Si4 0.225408 0.780720 0.246236
Si Si5 0.975355 0.397908 0.753611
Si Si6 0.471257 0.894965 0.917894
Si Si7 0.793767 0.700618 0.473468
Si Si8 0.147449 0.170779 0.577030
O O1 0.881218 0.500000 0.263793
O O2 0.802051 0.665114 0.247836
O O3 0.965733 0.646732 0.263068
O O4 0.086853 0.619960 0.434721
O O5 0.362863 0.500000 0.718985
O O6 0.602575 0.393315 0.872770
O O7 0.384661 0.346313 0.790967
O O8 0.338934 0.338224 0.654224
O O9 0.750000 0.750000 0.000000
O O10 0.619768 0.897692 0.888697
O O11 0.628688 0.866536 0.993004
O O12 0.146835 0.686303 0.174569
O O13 0.341064 0.748298 0.369501
O O14 0.932286 0.500000 0.707551
O O15 0.822729 0.365075 0.684162
O O16 0.427044 0.000000 0.871536
O O17 0.500000 0.896718 0.000000
O O18 0.750000 0.750000 0.500000
O O19 0.878606 0.781570 0.497190
O O20 0.000000 0.112891 0.500000
#
# Coordination Sequence:
#
# PCOD9220163 Si02
#       8
#     8   8   8   8   8   8   8   8
#     4  11  24  41  67  99 135 179 221 278 348 411
#     4  11  24  41  67 102 136 179 233 284 339 412
#     4  12  23  44  69  95 131 178 229 279 345 404
#     4  11  23  41  66  96 135 175 221 282 340 406
#     4  11  24  42  65  96 133 173 223 277 338 411
#     4  11  25  44  67  96 133 177 229 283 342 409
#     4  11  22  40  64  93 136 176 223 277 334 402
#     4  11  21  39  64  96 123 176 224 269 336 397
#
# _framework density 20.321211999999999
#
# number of rings (size 3 to 8) (size 9 to 14) (size 15 to 20)
#    0.000    0.875    5.000    2.625    1.750    0.250 
#    0.000    1.875    0.000    3.750    0.000    0.000 
#    0.000    0.000    0.000    0.000    0.000    0.000 
#
# Total GULP energy -178311.092615 kJ/mol
# GULP energy per Si atom -5572.221644 kJ/mol
# Density = 2.027496 g / cm^3
# Si number density = 20.321212 Si / 1000 Ang^3
#
#
#
# Elastic Constant Matrix: (Units=GPa)
#
#
# Indices 1 2 3 4 5 6 
#
# 1 188.2037 58.2517 67.9842 0.0005 6.6969 0.0000
# 2 58.2517 123.7886 17.8875 0.0011 6.7872 0.0003
# 3 67.9842 17.8875 83.7515 0.0041 10.7109 0.0011
# 4 0.0005 0.0011 0.0041 -13.5016 0.0007 -3.7917
# 5 6.6969 6.7872 10.7109 0.0007 31.5938 0.0000
# 6 0.0000 0.0003 0.0011 -3.7917 0.0000 28.4111
#
#
#
# Elastic Compliance Matrix: (Units=1/GPa)
#
#
# Indices 1 2 3 4 5 6 
#
# 1 0.008574 -0.003164 -0.006416 -0.000002 0.001038 0.000000
# 2 -0.003164 0.009550 0.000737 0.000001 -0.001631 0.000000
# 3 -0.006416 0.000737 0.017600 0.000005 -0.004765 0.000000
# 4 -0.000002 0.000001 0.000005 -0.071390 0.000000 -0.009528
# 5 0.001038 -0.001631 -0.004765 0.000000 0.033398 0.000000
# 6 0.000000 0.000000 0.000000 -0.009528 0.000000 0.033926
#
#
# Mechanical properties :
#
#
# Convention : Reuss Voigt Hill
#
# Bulk Modulus (GPa) = 55.43939 75.99893 65.71916
# Shear Modulus (GPa) = 90.32207 26.07535 58.19871
#
# Velocity S-wave (km/s) = 6.67410 3.58601 5.35738
# Velocity P-wave (km/s) = 9.31302 7.39094 8.40709
#
# Compressibility (1/GPa) = 0.01803772
#
# Stress axis : x y z
#
# Youngs Moduli (GPa) = 116.63677 104.71027 56.81670
#
# Poissons Ratio (x) = 0.33133 0.36456
# Poissons Ratio (y) = 0.36907 -0.04190
# Poissons Ratio (z) = 0.74839 -0.07721
#
# Static dielectric constant tensor:
#      x y z
#    x 1.771750 0.000000 0.035060 
#    y 0.000000 1.778670 0.000000 
#    z 0.035060 0.000000 1.757080 
# 
# From -- ./inp_files/344089.got.cif
#   From: 2010.05.17/outbox.cif.g08.bks.cpg/sg12_173_cif.got.tgz:344089.got - 2010.06.03 13:09:07.
