data_PCOD9220498
_publ_section_title
;
Structure prediction by ZEFSAII (Michael W. Deem and Ramdas Pophale) SiO2 
 PCOD9220498
Probable space group: C 2/M
;
_chemical_formula_sum "Si O2"
_cell_formula_units_Z 48
_cell_length_a 8.022497
_cell_length_b 22.573352
_cell_length_c 20.440407
_cell_angle_alpha 90.000000
_cell_angle_beta 141.350010
_cell_angle_gamma 90.000000
_cell_volume 2311.906024
_symmetry_space_group_name_H-M "C 2/M"
_symmetry_group_IT_number 12
_symmetry_cell_setting 'monoclinic'
loop_
_space_group_symop_operation_xyz
x,y,z
-x,y,-z
-x,-y,-z
x,-y,z
1/2+x,1/2+y,z
1/2-x,1/2+y,-z
1/2-x,1/2-y,-z
1/2+x,1/2-y,z
loop_
_atom_site_type_symbol
_atom_site_label
_atom_site_fract_x
_atom_site_fract_y
_atom_site_fract_z
Si Si1 0.538733 0.652793 0.114267
Si Si2 0.644621 0.266728 0.733705
Si Si3 0.335176 0.566821 0.166752
Si Si4 0.410863 0.936696 0.397436
Si Si5 0.087559 0.307904 0.601932
Si Si6 0.919222 0.363358 0.121867
O O1 0.701285 0.711038 0.186678
O O2 0.420623 0.612337 0.135875
O O3 0.744058 0.616794 0.130288
O O4 0.287851 0.668310 0.991133
O O5 0.408712 0.297226 0.702276
O O6 0.499096 0.242468 0.624350
O O7 0.861943 0.316648 0.786954
O O8 0.297401 0.500000 0.129622
O O9 0.591062 0.564741 0.293276
O O10 0.078603 0.588442 0.128398
O O11 0.500000 0.937041 0.500000
O O12 0.495896 0.872660 0.396536
O O13 0.499833 0.000000 0.394917
O O14 0.000000 0.305301 0.500000
#
# Coordination Sequence:
#
# PCOD9220498 Si02
#       6
#     8   8   8   8   8   8
#     4  11  24  40  61  90 124 165 208 256 308 368
#     4  12  20  40  56  86 128 164 204 252 304 376
#     4  11  23  43  68  92 122 161 207 261 314 370
#     4   9  18  35  60  87 115 155 202 247 303 365
#     4  11  22  35  60  90 121 161 202 255 313 362
#     4  11  24  40  61  90 124 165 208 256 308 368
#
# _framework density 20.762090000000001
#
# number of rings (size 3 to 8) (size 9 to 14) (size 15 to 20)
#    0.000    1.167    5.000    1.500    0.000    2.000 
#    0.000    1.667    0.000    0.000    0.000    4.667 
#    0.000    0.000    0.000    0.000    0.000    0.000 
#
# Total GULP energy -133770.713301 kJ/mol
# GULP energy per Si atom -5573.779721 kJ/mol
# Density = 2.071483 g / cm^3
# Si number density = 20.762090 Si / 1000 Ang^3
#
#
#
# Elastic Constant Matrix: (Units=GPa)
#
#
# Indices 1 2 3 4 5 6 
#
# 1 69.1078 22.0771 -18.6787 0.0002 -0.3689 0.0000
# 2 22.0771 114.4805 5.5606 0.0001 -6.6577 0.0000
# 3 -18.6787 5.5606 74.6951 0.0005 -2.6041 0.0000
# 4 0.0002 0.0001 0.0005 11.2654 0.0003 2.3135
# 5 -0.3689 -6.6577 -2.6041 0.0003 19.5320 0.0000
# 6 0.0000 0.0000 0.0000 2.3135 0.0000 11.2768
#
#
#
# Elastic Compliance Matrix: (Units=1/GPa)
#
#
# Indices 1 2 3 4 5 6 
#
# 1 0.016777 -0.003467 0.004444 0.000000 -0.000272 0.000000
# 2 -0.003467 0.009652 -0.001480 0.000000 0.003027 0.000000
# 3 0.004444 -0.001480 0.014663 -0.000001 0.001534 0.000000
# 4 0.000000 0.000000 -0.000001 0.092671 -0.000002 -0.019012
# 5 -0.000272 0.003027 0.001534 -0.000002 0.052429 0.000000
# 6 0.000000 0.000000 0.000000 -0.019012 0.000000 0.092578
#
#
# Mechanical properties :
#
#
# Convention : Reuss Voigt Hill
#
# Bulk Modulus (GPa) = 24.94654 30.68905 27.81780
# Shear Modulus (GPa) = 17.05675 25.03647 21.04661
#
# Velocity S-wave (km/s) = 2.86935 3.47634 3.18733
# Velocity P-wave (km/s) = 4.79782 5.56117 5.19354
#
# Compressibility (1/GPa) = 0.04008571
#
# Stress axis : x y z
#
# Youngs Moduli (GPa) = 59.60373 103.60896 68.20006
#
# Poissons Ratio (x) = 0.35923 -0.30309
# Poissons Ratio (y) = 0.20666 0.10094
# Poissons Ratio (z) = -0.26488 0.15334
#
# Static dielectric constant tensor:
#      x y z
#    x 1.742160 0.000000 -0.020810 
#    y 0.000000 1.783910 0.000000 
#    z -0.020810 0.000000 1.777400 
# 
# From -- ./inp_files/301823.got.cif
#   From: 2010.05.17/outbox.cif.g08.bks.cpg/sg12_151_cif.got.tgz:301823.got - 2010.06.03 13:09:07.
