data_PCOD9220076
_publ_section_title
;
Structure prediction by ZEFSAII (Michael W. Deem and Ramdas Pophale) SiO2 
 PCOD9220076
Probable space group: C 2/M
;
_chemical_formula_sum "Si O2"
_cell_formula_units_Z 60
_cell_length_a 29.508079
_cell_length_b 20.445193
_cell_length_c 9.435974
_cell_angle_alpha 90.000000
_cell_angle_beta 143.593643
_cell_angle_gamma 90.000000
_cell_volume 3378.668644
_symmetry_space_group_name_H-M "C 2/M"
_symmetry_group_IT_number 12
_symmetry_cell_setting 'monoclinic'
loop_
_space_group_symop_operation_xyz
x,y,z
-x,y,-z
-x,-y,-z
x,-y,z
1/2+x,1/2+y,z
1/2-x,1/2+y,-z
1/2-x,1/2-y,-z
1/2+x,1/2-y,z
loop_
_atom_site_type_symbol
_atom_site_label
_atom_site_fract_x
_atom_site_fract_y
_atom_site_fract_z
Si Si1 0.578180 0.315838 0.612866
Si Si2 0.268341 0.373374 0.912632
Si Si3 0.943438 0.746816 0.731329
Si Si4 0.320879 0.808514 0.061140
Si Si5 0.272329 0.769053 0.398118
Si Si6 0.659651 0.000000 0.635320
Si Si7 0.079681 0.427905 0.781339
Si Si8 0.517870 0.098781 0.210159
O O1 0.500000 0.328411 0.500000
O O2 0.562881 0.300210 0.408929
O O3 0.616320 0.247835 0.762384
O O4 0.644146 0.368958 0.813044
O O5 0.222699 0.324153 0.903482
O O6 0.260421 0.338679 0.739099
O O7 0.225617 0.441987 0.810079
O O8 0.862389 0.731953 0.599504
O O9 0.970171 0.676465 0.735361
O O10 0.000000 0.766110 0.000000
O O11 0.361017 0.874214 0.112366
O O12 0.263448 0.784426 0.797029
O O13 0.250000 0.750000 0.500000
O O14 0.591707 0.942719 0.442361
O O15 0.108153 0.500000 0.809975
O O16 0.000000 0.417017 0.500000
O O17 0.054739 0.423961 0.881124
O O18 0.500000 0.089253 0.000000
#
# Coordination Sequence:
#
# PCOD9220076 Si02
#       8
#     8   8   8   8   8   4   8   8
#     4  11  21  39  61  86 112 151 205 249 304 343
#     4  11  23  40  62  86 119 160 198 253 296 355
#     4  11  22  37  59  89 120 155 193 242 303 355
#     4  11  21  38  60  82 123 155 193 253 294 344
#     4  11  23  39  58  87 120 154 200 246 297 353
#     4  12  21  38  64  84 122 165 201 240 300 346
#     4  11  23  34  52  87 121 158 200 228 278 357
#     4  11  23  37  57  85 128 167 195 233 289 365
#
# _framework density 17.758475000000001
#
# number of rings (size 3 to 8) (size 9 to 14) (size 15 to 20)
#    0.000    0.933    4.667    3.800   10.267    0.000 
#    0.000    0.333    0.000    0.000    0.000    0.467 
#    0.000    0.000    0.000    0.000    0.000    0.000 
#
# Total GULP energy -167111.846703 kJ/mol
# GULP energy per Si atom -5570.394890 kJ/mol
# Density = 1.771806 g / cm^3
# Si number density = 17.758475 Si / 1000 Ang^3
#
#
#
# Elastic Constant Matrix: (Units=GPa)
#
#
# Indices 1 2 3 4 5 6 
#
# 1 60.4812 11.6793 23.5389 0.0000 -0.6005 0.0000
# 2 11.6793 74.0233 28.2767 0.0000 5.8891 0.0000
# 3 23.5389 28.2767 99.2669 0.0000 4.8475 0.0000
# 4 0.0000 0.0000 0.0000 22.5206 0.0000 15.6691
# 5 -0.6005 5.8891 4.8475 0.0000 37.2974 0.0000
# 6 0.0000 0.0000 0.0000 15.6691 0.0000 27.1950
#
#
#
# Elastic Compliance Matrix: (Units=1/GPa)
#
#
# Indices 1 2 3 4 5 6 
#
# 1 0.018380 -0.001457 -0.003994 0.000000 0.001045 0.000000
# 2 -0.001457 0.015401 -0.003947 0.000000 -0.001942 0.000000
# 3 -0.003994 -0.003947 0.012195 0.000000 -0.001026 0.000000
# 4 0.000000 0.000000 0.000000 0.074115 0.000000 -0.042703
# 5 0.001045 -0.001942 -0.001026 0.000000 0.027268 0.000000
# 6 0.000000 0.000000 0.000000 -0.042703 0.000000 0.061376
#
#
# Mechanical properties :
#
#
# Convention : Reuss Voigt Hill
#
# Bulk Modulus (GPa) = 36.79147 40.08460 38.43804
# Shear Modulus (GPa) = 21.13326 28.75437 24.94382
#
# Velocity S-wave (km/s) = 3.45344 4.02828 3.75188
# Velocity P-wave (km/s) = 6.05510 6.65261 6.36088
#
# Compressibility (1/GPa) = 0.02718021
#
# Stress axis : x y z
#
# Youngs Moduli (GPa) = 54.40559 64.92931 81.99812
#
# Poissons Ratio (x) = 0.09462 0.32754
# Poissons Ratio (y) = 0.07929 0.32363
# Poissons Ratio (z) = 0.21732 0.25626
#
# Static dielectric constant tensor:
#      x y z
#    x 1.661130 0.000000 -0.040500 
#    y 0.000000 1.607840 0.000000 
#    z -0.040500 0.000000 1.636960 
# 
# From -- ./inp_files/89851.got.cif
#   From: 2010.05.17/outbox.cif.g08.bks.cpg/sg12_45_cif.got.tgz:89851.got - 2010.06.03 13:09:07.
