data_PCOD9220600
_publ_section_title
;
Structure prediction by ZEFSAII (Michael W. Deem and Ramdas Pophale) SiO2 
 PCOD9220600
Probable space group: C 2/M
;
_chemical_formula_sum "Si O2"
_cell_formula_units_Z 56
_cell_length_a 16.428920
_cell_length_b 8.812218
_cell_length_c 17.986242
_cell_angle_alpha 90.000000
_cell_angle_beta 68.311810
_cell_angle_gamma 90.000000
_cell_volume 2419.624523
_symmetry_space_group_name_H-M "C 2/M"
_symmetry_group_IT_number 12
_symmetry_cell_setting 'monoclinic'
loop_
_space_group_symop_operation_xyz
x,y,z
-x,y,-z
-x,-y,-z
x,-y,z
1/2+x,1/2+y,z
1/2-x,1/2+y,-z
1/2-x,1/2-y,-z
1/2+x,1/2-y,z
loop_
_atom_site_type_symbol
_atom_site_label
_atom_site_fract_x
_atom_site_fract_y
_atom_site_fract_z
Si Si1 0.010274 0.678165 0.684340
Si Si2 0.388334 0.321724 0.976007
Si Si3 0.076120 0.677929 0.885755
Si Si4 0.155671 0.823069 0.545626
Si Si5 0.855315 0.678878 0.840364
Si Si6 0.122334 0.677763 0.409447
Si Si7 0.780043 0.176975 0.250966
O O1 0.027808 0.500000 0.688672
O O2 0.099196 0.761532 0.633424
O O3 0.948259 0.729012 0.772867
O O4 0.947160 0.693348 0.633282
O O5 0.378503 0.500000 0.994930
O O6 0.488527 0.278267 0.920163
O O7 0.335458 0.270943 0.921200
O O8 0.373266 0.224966 0.055558
O O9 0.054481 0.500000 0.893646
O O10 0.137085 0.720300 0.795797
O O11 0.250000 0.750000 0.500000
O O12 0.105725 0.779655 0.486231
O O13 0.166263 0.000000 0.550515
O O14 0.862419 0.500000 0.856834
O O15 0.784789 0.690795 0.798513
O O16 0.121772 0.500000 0.432427
O O17 0.217384 0.713183 0.341461
O O18 0.806142 0.000000 0.247448
#
# Coordination Sequence:
#
# PCOD9220600 Si02
#       7
#     8   8   8   8   8   8   8
#     4   9  19  38  62  84 110 145 181 221 273 330
#     4  11  22  37  57  80 110 147 186 228 274 326
#     4  11  22  37  57  80 110 147 186 228 274 326
#     4  12  25  38  55  81 113 147 185 230 273 320
#     4   9  19  37  60  85 112 143 181 224 271 325
#     4   9  19  38  62  84 110 145 181 221 273 330
#     4   9  19  37  60  85 112 143 181 224 271 325
#
# _framework density 23.144086000000001
#
# number of rings (size 3 to 8) (size 9 to 14) (size 15 to 20)
#    0.000    2.000    0.000    6.857    0.000    5.714 
#    0.000    2.857    0.000    0.000    0.000    0.000 
#    0.000    0.000    0.000    0.000    0.000    0.000 
#
# Total GULP energy -156698.674902 kJ/mol
# GULP energy per Si atom -5596.381247 kJ/mol
# Density = 2.309141 g / cm^3
# Si number density = 23.144086 Si / 1000 Ang^3
#
#
#
# Elastic Constant Matrix: (Units=GPa)
#
#
# Indices 1 2 3 4 5 6 
#
# 1 50.2018 9.5411 13.4679 0.0000 -6.5142 0.0000
# 2 9.5411 53.4640 30.5082 0.0000 -5.9053 0.0000
# 3 13.4679 30.5082 108.9239 0.0000 -13.1857 0.0000
# 4 0.0000 0.0000 0.0000 34.4689 0.0000 0.4227
# 5 -6.5142 -5.9053 -13.1857 0.0000 48.0533 0.0000
# 6 0.0000 0.0000 0.0000 0.4227 0.0000 21.8798
#
#
#
# Elastic Compliance Matrix: (Units=1/GPa)
#
#
# Indices 1 2 3 4 5 6 
#
# 1 0.021124 -0.002610 -0.001627 0.000000 0.002096 0.000000
# 2 -0.002610 0.022637 -0.005920 0.000000 0.000804 0.000000
# 3 -0.001627 -0.005920 0.011301 0.000000 0.002153 0.000000
# 4 0.000000 0.000000 0.000000 0.029019 0.000000 -0.000561
# 5 0.002096 0.000804 0.002153 0.000000 0.021784 0.000000
# 6 0.000000 0.000000 0.000000 -0.000561 0.000000 0.045715
#
#
# Mechanical properties :
#
#
# Convention : Reuss Voigt Hill
#
# Bulk Modulus (GPa) = 28.77916 35.51379 32.14647
# Shear Modulus (GPa) = 27.25146 31.48524 29.36835
#
# Velocity S-wave (km/s) = 3.43515 3.69236 3.56608
# Velocity P-wave (km/s) = 5.30994 5.79276 5.55659
#
# Compressibility (1/GPa) = 0.03474737
#
# Stress axis : x y z
#
# Youngs Moduli (GPa) = 47.33917 44.17538 88.48972
#
# Poissons Ratio (x) = 0.11529 0.14399
# Poissons Ratio (y) = 0.12354 0.52389
# Poissons Ratio (z) = 0.07703 0.26154
#
# Static dielectric constant tensor:
#      x y z
#    x 1.984970 0.000000 0.015150 
#    y 0.000000 1.772940 0.000000 
#    z 0.015150 0.000000 1.897210 
# 
# From -- ./inp_files/257170.got.cif
#   From: 2010.05.17/outbox.cif.g08.bks.cpg/sg12_129_cif.got.tgz:257170.got - 2010.06.03 13:09:07.
