data_PCOD9220729
_publ_section_title
;
Structure prediction by ZEFSAII (Michael W. Deem and Ramdas Pophale) SiO2 
 PCOD9220729
Probable space group: C 2/M
;
_chemical_formula_sum "Si O2"
_cell_formula_units_Z 48
_cell_length_a 9.980924
_cell_length_b 25.418766
_cell_length_c 8.857222
_cell_angle_alpha 90.000000
_cell_angle_beta 68.989904
_cell_angle_gamma 90.000000
_cell_volume 2097.708298
_symmetry_space_group_name_H-M "C 2/M"
_symmetry_group_IT_number 12
_symmetry_cell_setting 'monoclinic'
loop_
_space_group_symop_operation_xyz
x,y,z
-x,y,-z
-x,-y,-z
x,-y,z
1/2+x,1/2+y,z
1/2-x,1/2+y,-z
1/2-x,1/2-y,-z
1/2+x,1/2-y,z
loop_
_atom_site_type_symbol
_atom_site_label
_atom_site_fract_x
_atom_site_fract_y
_atom_site_fract_z
Si Si1 0.186008 0.120922 0.111799
Si Si2 0.875209 0.650431 0.772908
Si Si3 0.303287 0.305968 0.432619
Si Si4 0.431599 0.559205 0.358677
Si Si5 0.934239 0.769504 0.858355
Si Si6 0.309602 0.896167 0.365545
O O1 0.186362 0.185529 0.112507
O O2 0.279885 0.091387 0.202170
O O3 0.025031 0.097665 0.210968
O O4 0.267511 0.115285 0.918481
O O5 0.796184 0.666938 0.652065
O O6 0.909886 0.708538 0.829355
O O7 0.025389 0.620476 0.685772
O O8 0.250000 0.250000 0.500000
O O9 0.453784 0.292834 0.303629
O O10 0.291833 0.344540 0.576315
O O11 0.500000 0.562860 0.500000
O O12 0.449420 0.500000 0.294609
O O13 0.264211 0.568615 0.473998
O O14 0.000000 0.773542 0.000000
#
# Coordination Sequence:
#
# PCOD9220729 Si02
#       6
#     8   8   8   8   8   8
#     4  11  22  39  61  88 123 161 203 252 306 367
#     4  12  25  38  58  88 131 167 204 247 301 361
#     4  12  24  38  57  87 124 168 209 245 290 356
#     4   9  20  40  67  93 116 151 204 262 317 372
#     4  12  23  37  58  85 125 170 205 245 291 357
#     4  11  22  38  61  89 120 158 204 255 306 360
#
# _framework density 22.882116
#
# number of rings (size 3 to 8) (size 9 to 14) (size 15 to 20)
#    0.000    0.833    5.000    3.500    0.000    1.333 
#    0.000    0.833    0.000   10.500    0.000    0.000 
#    0.000    0.000    0.000    0.000    0.000    0.167 
#
# Total GULP energy -133732.962136 kJ/mol
# GULP energy per Si atom -5572.206756 kJ/mol
# Density = 2.283003 g / cm^3
# Si number density = 22.882116 Si / 1000 Ang^3
#
#
#
# Elastic Constant Matrix: (Units=GPa)
#
#
# Indices 1 2 3 4 5 6 
#
# 1 79.0304 12.6824 47.9729 0.0000 -29.0755 0.0000
# 2 12.6824 97.2982 28.1740 0.0000 -16.1573 0.0000
# 3 47.9729 28.1740 127.8016 0.0000 -29.2452 0.0000
# 4 0.0000 0.0000 0.0000 446.4866 0.0000 -242.3269
# 5 -29.0755 -16.1573 -29.2452 0.0000 46.6642 0.0000
# 6 0.0000 0.0000 0.0000 -242.3269 0.0000 149.8455
#
#
#
# Elastic Compliance Matrix: (Units=1/GPa)
#
#
# Indices 1 2 3 4 5 6 
#
# 1 0.018950 0.000489 -0.005231 0.000000 0.008699 0.000000
# 2 0.000489 0.011283 -0.001993 0.000000 0.002962 0.000000
# 3 -0.005231 -0.001993 0.010885 0.000000 0.002872 0.000000
# 4 0.000000 0.000000 0.000000 0.018315 0.000000 0.029618
# 5 0.008699 0.002962 0.002872 0.000000 0.029676 0.000000
# 6 0.000000 0.000000 0.000000 0.029618 0.000000 0.054572
#
#
# Mechanical properties :
#
#
# Convention : Reuss Voigt Hill
#
# Bulk Modulus (GPa) = 36.16809 53.53210 44.85009
# Shear Modulus (GPa) = 30.05434 142.95265 86.50350
#
# Velocity S-wave (km/s) = 3.62808 7.91259 6.15516
# Velocity P-wave (km/s) = 5.77851 10.34043 8.37602
#
# Compressibility (1/GPa) = 0.02764869
#
# Stress axis : x y z
#
# Youngs Moduli (GPa) = 52.76985 88.62912 91.87196
#
# Poissons Ratio (x) = -0.04334 0.48054
# Poissons Ratio (y) = -0.02581 0.18310
# Poissons Ratio (z) = 0.27602 0.17664
#
# Static dielectric constant tensor:
#      x y z
#    x 1.923740 0.000000 -0.063120 
#    y 0.000000 1.875010 0.000000 
#    z -0.063120 0.000000 1.868570 
# 
# From -- ./inp_files/52450.got.cif
#   From: 2010.05.17/outbox.cif.g08.bks.cpg/sg12_27_cif.got.tgz:52450.got - 2010.06.03 13:09:07.
