data_PCOD9220075
_publ_section_title
;
Structure prediction by ZEFSAII (Michael W. Deem and Ramdas Pophale) SiO2 
 PCOD9220075
Probable space group: C 2/M
;
_chemical_formula_sum "Si O2"
_cell_formula_units_Z 56
_cell_length_a 13.795166
_cell_length_b 17.349708
_cell_length_c 20.667231
_cell_angle_alpha 90.000000
_cell_angle_beta 143.820493
_cell_angle_gamma 90.000000
_cell_volume 2920.025793
_symmetry_space_group_name_H-M "C 2/M"
_symmetry_group_IT_number 12
_symmetry_cell_setting 'monoclinic'
loop_
_space_group_symop_operation_xyz
x,y,z
-x,y,-z
-x,-y,-z
x,-y,z
1/2+x,1/2+y,z
1/2-x,1/2+y,-z
1/2-x,1/2-y,-z
1/2+x,1/2-y,z
loop_
_atom_site_type_symbol
_atom_site_label
_atom_site_fract_x
_atom_site_fract_y
_atom_site_fract_z
Si Si1 0.384051 0.676520 0.265576
Si Si2 0.949464 0.306966 0.845250
Si Si3 0.559201 0.829197 0.311800
Si Si4 0.403057 0.408939 0.515437
Si Si5 0.297451 0.088350 0.947926
Si Si6 0.427348 0.358926 0.060515
Si Si7 0.764828 0.910474 0.843956
O O1 0.233568 0.708986 0.227604
O O2 0.503405 0.744207 0.304608
O O3 0.482698 0.617363 0.363812
O O4 0.295553 0.634276 0.158406
O O5 0.948049 0.333619 0.770299
O O6 0.051891 0.228422 0.905639
O O7 0.037769 0.369132 0.939009
O O8 0.739088 0.857489 0.428198
O O9 0.420798 0.885383 0.266798
O O10 0.500000 0.396279 0.500000
O O11 0.363682 0.500000 0.497857
O O12 0.176391 0.093619 0.944228
O O13 0.327038 0.000000 0.946159
O O14 0.607372 0.393585 0.144314
O O15 0.331718 0.361692 0.940927
O O16 0.776233 0.000000 0.867614
#
# Coordination Sequence:
#
# PCOD9220075 Si02
#       7
#     8   8   8   8   8   8   8
#     4  12  25  44  66  92 128 168 214 259 317 383
#     4  12  24  40  64  95 129 168 213 253 313 381
#     4  12  23  43  67  93 124 164 214 262 311 376
#     4  11  25  45  69  93 123 163 211 266 318 376
#     4  12  25  39  62  95 136 174 208 260 318 375
#     4  11  21  38  59  91 129 169 212 251 309 374
#     4  11  22  36  62  94 128 168 212 260 308 366
#
# _framework density 19.177914000000001
#
# number of rings (size 3 to 8) (size 9 to 14) (size 15 to 20)
#    0.000    0.429    5.714    4.714    2.000    2.286 
#    0.000    0.000    0.000    0.000    0.000    4.000 
#    0.000    0.000    0.000    0.000    0.000    0.000 
#
# Total GULP energy -156583.792789 kJ/mol
# GULP energy per Si atom -5592.278314 kJ/mol
# Density = 1.913426 g / cm^3
# Si number density = 19.177914 Si / 1000 Ang^3
#
#
#
# Elastic Constant Matrix: (Units=GPa)
#
#
# Indices 1 2 3 4 5 6 
#
# 1 93.3698 7.9714 35.8346 0.0000 17.1907 0.0000
# 2 7.9714 80.3536 28.6427 -0.0001 10.8660 0.0000
# 3 35.8346 28.6427 79.0205 -0.0001 5.9345 -0.0001
# 4 0.0000 -0.0001 -0.0001 19.3373 0.0000 -2.9647
# 5 17.1907 10.8660 5.9345 0.0000 31.2695 0.0000
# 6 0.0000 0.0000 -0.0001 -2.9647 0.0000 9.7855
#
#
#
# Elastic Compliance Matrix: (Units=1/GPa)
#
#
# Indices 1 2 3 4 5 6 
#
# 1 0.014479 0.001955 -0.006722 0.000000 -0.007364 0.000000
# 2 0.001955 0.015077 -0.005963 0.000000 -0.005183 0.000000
# 3 -0.006722 -0.005963 0.017683 0.000000 0.002411 0.000000
# 4 0.000000 0.000000 0.000000 0.054233 0.000000 0.016431
# 5 -0.007364 -0.005183 0.002411 0.000000 0.037372 0.000000
# 6 0.000000 0.000000 0.000000 0.016431 0.000000 0.107170
#
#
# Mechanical properties :
#
#
# Convention : Reuss Voigt Hill
#
# Bulk Modulus (GPa) = 38.78743 44.18236 41.48489
# Shear Modulus (GPa) = 18.11170 24.09814 21.10492
#
# Velocity S-wave (km/s) = 3.07645 3.54864 3.32095
# Velocity P-wave (km/s) = 5.73484 6.31495 6.03187
#
# Compressibility (1/GPa) = 0.02578155
#
# Stress axis : x y z
#
# Youngs Moduli (GPa) = 69.06749 66.32492 56.55060
#
# Poissons Ratio (x) = -0.12969 0.38011
# Poissons Ratio (y) = -0.13505 0.33719
# Poissons Ratio (z) = 0.46424 0.39547
#
# Static dielectric constant tensor:
#      x y z
#    x 1.682550 0.000000 0.014530 
#    y 0.000000 1.658000 0.000000 
#    z 0.014530 0.000000 1.639690 
# 
# From -- ./inp_files/311674.got.cif
#   From: 2010.05.17/outbox.cif.g08.bks.cpg/sg12_156_cif.got.tgz:311674.got - 2010.06.03 13:09:07.
