data_PCOD9220024
_publ_section_title
;
Structure prediction by ZEFSAII (Michael W. Deem and Ramdas Pophale) SiO2 
 PCOD9220024
Probable space group: C 2/M
;
_chemical_formula_sum "Si O2"
_cell_formula_units_Z 40
_cell_length_a 14.919738
_cell_length_b 11.677473
_cell_length_c 11.105097
_cell_angle_alpha 90.000000
_cell_angle_beta 80.770293
_cell_angle_gamma 90.000000
_cell_volume 1909.734535
_symmetry_space_group_name_H-M "C 2/M"
_symmetry_group_IT_number 12
_symmetry_cell_setting 'monoclinic'
loop_
_space_group_symop_operation_xyz
x,y,z
-x,y,-z
-x,-y,-z
x,-y,z
1/2+x,1/2+y,z
1/2-x,1/2+y,-z
1/2-x,1/2-y,-z
1/2+x,1/2-y,z
loop_
_atom_site_type_symbol
_atom_site_label
_atom_site_fract_x
_atom_site_fract_y
_atom_site_fract_z
Si Si1 0.681807 0.738096 0.224199
Si Si2 0.366465 0.252659 0.286705
Si Si3 0.107038 0.636237 0.475581
Si Si4 0.464225 0.866628 0.871840
Si Si5 0.610992 0.500000 0.332794
Si Si6 0.893218 0.000000 0.387831
O O1 0.790120 0.733161 0.202981
O O2 0.652935 0.808556 0.349983
O O3 0.631861 0.804503 0.127645
O O4 0.643973 0.611598 0.255331
O O5 0.347421 0.181621 0.412475
O O6 0.462997 0.205548 0.220842
O O7 0.366008 0.384815 0.325290
O O8 0.111854 0.500000 0.469129
O O9 0.000000 0.670674 0.500000
O O10 0.460836 0.000000 0.831879
O O11 0.500000 0.865479 0.000000
O O12 0.502429 0.500000 0.365129
O O13 0.641995 0.500000 0.466549
#
# Coordination Sequence:
#
# PCOD9220024 Si02
#       6
#     8   8   8   8   4   4
#     4  12  25  40  66  99 132 168 213 263 322 387
#     4  12  25  40  66  99 132 168 213 263 322 387
#     4  11  21  37  63  98 135 171 216 262 312 384
#     4  11  26  50  71  88 122 172 224 273 318 373
#     4  11  22  40  60  95 140 173 199 250 325 386
#     4  11  22  40  60  95 140 173 199 250 325 386
#
# _framework density 20.945319999999999
#
# number of rings (size 3 to 8) (size 9 to 14) (size 15 to 20)
#    0.000    0.600    6.000    1.800    5.600    0.800 
#    0.000    2.000    0.000    0.000    0.000    0.000 
#    0.000    0.000    0.000    0.000    0.000    0.000 
#
# Total GULP energy -111929.944406 kJ/mol
# GULP energy per Si atom -5596.497220 kJ/mol
# Density = 2.089765 g / cm^3
# Si number density = 20.945320 Si / 1000 Ang^3
#
#
#
# Elastic Constant Matrix: (Units=GPa)
#
#
# Indices 1 2 3 4 5 6 
#
# 1 111.0730 30.2182 -3.2887 0.0000 23.3572 0.0000
# 2 30.2182 136.4643 17.0397 0.0000 14.9007 0.0000
# 3 -3.2887 17.0397 33.8839 0.0000 19.0211 0.0000
# 4 0.0000 0.0000 0.0000 30.6266 0.0000 7.0412
# 5 23.3572 14.9007 19.0211 0.0000 25.4785 0.0000
# 6 0.0000 0.0000 0.0000 7.0412 0.0000 27.5968
#
#
#
# Elastic Compliance Matrix: (Units=1/GPa)
#
#
# Indices 1 2 3 4 5 6 
#
# 1 0.015695 -0.002839 0.017380 0.000000 -0.025703 0.000000
# 2 -0.002839 0.008452 -0.005529 0.000000 0.001788 0.000000
# 3 0.017380 -0.005529 0.070766 0.000000 -0.065529 0.000000
# 4 0.000000 0.000000 0.000000 0.034686 0.000000 -0.008850
# 5 -0.025703 0.001788 -0.065529 0.000000 0.110687 0.000000
# 6 0.000000 0.000000 0.000000 -0.008850 0.000000 0.038494
#
#
# Mechanical properties :
#
#
# Convention : Reuss Voigt Hill
#
# Bulk Modulus (GPa) = 8.85468 41.03996 24.94732
# Shear Modulus (GPa) = 16.75588 32.57050 24.66319
#
# Velocity S-wave (km/s) = 2.83146 3.94766 3.43520
# Velocity P-wave (km/s) = 3.86345 6.35728 5.26029
#
# Compressibility (1/GPa) = 0.11293468
#
# Stress axis : x y z
#
# Youngs Moduli (GPa) = 63.71458 118.31763 14.13113
#
# Poissons Ratio (x) = 0.33591 -0.24559
# Poissons Ratio (y) = 0.18089 0.07814
# Poissons Ratio (z) = -1.10733 0.65423
#
# Static dielectric constant tensor:
#      x y z
#    x 1.808720 0.000000 0.017040 
#    y 0.000000 1.714440 0.000000 
#    z 0.017040 0.000000 1.730170 
# 
# From -- ./inp_files/129165.got.cif
#   From: 2010.05.17/outbox.cif.g08.bks.cpg/sg12_65_cif.got.tgz:129165.got - 2010.06.03 13:09:07.
