data_PCOD9220505
_publ_section_title
;
Structure prediction by ZEFSAII (Michael W. Deem and Ramdas Pophale) SiO2 
 PCOD9220505
Probable space group: C 2/M
;
_chemical_formula_sum "Si O2"
_cell_formula_units_Z 56
_cell_length_a 19.580246
_cell_length_b 7.710586
_cell_length_c 19.828247
_cell_angle_alpha 90.000000
_cell_angle_beta 56.290723
_cell_angle_gamma 90.000000
_cell_volume 2490.246410
_symmetry_space_group_name_H-M "C 2/M"
_symmetry_group_IT_number 12
_symmetry_cell_setting 'monoclinic'
loop_
_space_group_symop_operation_xyz
x,y,z
-x,y,-z
-x,-y,-z
x,-y,z
1/2+x,1/2+y,z
1/2-x,1/2+y,-z
1/2-x,1/2-y,-z
1/2+x,1/2-y,z
loop_
_atom_site_type_symbol
_atom_site_label
_atom_site_fract_x
_atom_site_fract_y
_atom_site_fract_z
Si Si1 0.303095 0.795388 0.126336
Si Si2 0.583718 0.701719 0.418757
Si Si3 0.669770 0.206613 0.500690
Si Si4 0.120772 0.300207 0.247387
Si Si5 0.444313 0.198030 0.962335
Si Si6 0.056501 0.287565 0.680540
Si Si7 0.401996 0.212921 0.200209
O O1 0.206226 0.778231 0.177154
O O2 0.358746 0.721911 0.034752
O O3 0.337051 0.727766 0.179739
O O4 0.322684 0.000000 0.115213
O O5 0.500000 0.771937 0.500000
O O6 0.569375 0.500000 0.411274
O O7 0.655898 0.716127 0.434569
O O8 0.608701 0.788062 0.334902
O O9 0.750000 0.250000 0.500000
O O10 0.595547 0.269733 0.589131
O O11 0.665232 0.000000 0.495753
O O12 0.125078 0.500000 0.225284
O O13 0.036847 0.226365 0.263015
O O14 0.428616 0.000000 0.947961
O O15 0.500000 0.191838 0.000000
O O16 0.507590 0.273303 0.873678
O O17 0.055766 0.500000 0.679168
O O18 0.109192 0.234176 0.716529
O O19 0.401772 0.000000 0.199487
#
# Coordination Sequence:
#
# PCOD9220505 Si02
#       7
#     8   8   8   8   8   8   8
#     4   9  17  30  53  82 106 132 176 230 269 310
#     4  11  23  40  61  81 103 140 187 229 275 326
#     4  11  23  39  58  83 114 145 182 226 273 323
#     4  11  22  36  53  76 109 145 179 217 270 331
#     4   7  11  23  46  76 104 131 170 221 269 309
#     4   9  19  34  51  73 106 145 179 216 265 320
#     4   8  14  28  52  78 103 135 178 223 265 316
#
# _framework density 22.487735000000001
#
# number of rings (size 3 to 8) (size 9 to 14) (size 15 to 20)
#    0.000    2.571    1.429    3.000    2.000    0.571 
#    0.000    0.714    0.000    5.571    0.000    0.000 
#    0.000    0.000    0.000    0.000    0.000    0.000 
#
# Total GULP energy -156195.929611 kJ/mol
# GULP energy per Si atom -5578.426058 kJ/mol
# Density = 2.243655 g / cm^3
# Si number density = 22.487735 Si / 1000 Ang^3
#
#
#
# Elastic Constant Matrix: (Units=GPa)
#
#
# Indices 1 2 3 4 5 6 
#
# 1 60.2863 -5.0950 -12.2947 -0.0001 -12.5330 -0.0004
# 2 -5.0950 39.8085 -3.1577 0.0005 -1.2085 -0.0019
# 3 -12.2947 -3.1577 18.2310 0.0000 -11.7078 0.0000
# 4 -0.0001 0.0005 0.0000 0.5752 -0.0001 -6.1352
# 5 -12.5330 -1.2085 -11.7078 -0.0001 41.0364 0.0001
# 6 -0.0004 -0.0019 0.0000 -6.1352 0.0001 15.5659
#
#
#
# Elastic Compliance Matrix: (Units=1/GPa)
#
#
# Indices 1 2 3 4 5 6 
#
# 1 0.026758 0.006318 0.030004 -0.000005 0.016919 0.000000
# 2 0.006318 0.027167 0.013124 -0.000004 0.006474 0.000002
# 3 0.030004 0.013124 0.102221 -0.000005 0.038714 0.000000
# 4 -0.000005 -0.000004 -0.000005 -0.542610 -0.000004 -0.213868
# 5 0.016919 0.006474 0.038714 -0.000004 0.040772 0.000000
# 6 0.000000 0.000002 0.000000 -0.213868 0.000000 -0.020052
#
#
# Mechanical properties :
#
#
# Convention : Reuss Voigt Hill
#
# Bulk Modulus (GPa) = 3.92097 8.58120 6.25108
# Shear Modulus (GPa) = -13.17087 20.69371 3.76142
#
# Velocity S-wave (km/s) = -2.42273 3.03681 1.29471
# Velocity P-wave (km/s) = 2.46552 4.01503 2.24073
#
# Compressibility (1/GPa) = 0.25503923
#
# Stress axis : x y z
#
# Youngs Moduli (GPa) = 37.37232 36.80999 9.78270
#
# Poissons Ratio (x) = -0.23258 -0.29352
# Poissons Ratio (y) = -0.23613 -0.12839
# Poissons Ratio (z) = -1.12133 -0.48310
#
# Static dielectric constant tensor:
#      x y z
#    x 1.830710 0.000000 -0.030620 
#    y 0.000000 1.861280 0.000000 
#    z -0.030620 0.000000 1.848910 
# 
# From -- ./inp_files/275073.got.cif
#   From: 2010.05.17/outbox.cif.g08.bks.cpg/sg12_138_cif.got.tgz:275073.got - 2010.06.03 13:09:07.
