data_PCOD9220353
_publ_section_title
;
Structure prediction by ZEFSAII (Michael W. Deem and Ramdas Pophale) SiO2 
 PCOD9220353
Probable space group: C 2/M
;
_chemical_formula_sum "Si O2"
_cell_formula_units_Z 50
_cell_length_a 14.508253
_cell_length_b 21.609131
_cell_length_c 11.816917
_cell_angle_alpha 90.000000
_cell_angle_beta 40.834199
_cell_angle_gamma 90.000000
_cell_volume 2422.420679
_symmetry_space_group_name_H-M "C 2/M"
_symmetry_group_IT_number 12
_symmetry_cell_setting 'monoclinic'
loop_
_space_group_symop_operation_xyz
x,y,z
-x,y,-z
-x,-y,-z
x,-y,z
1/2+x,1/2+y,z
1/2-x,1/2+y,-z
1/2-x,1/2-y,-z
1/2+x,1/2-y,z
loop_
_atom_site_type_symbol
_atom_site_label
_atom_site_fract_x
_atom_site_fract_y
_atom_site_fract_z
Si Si1 0.943754 0.130814 0.170790
Si Si2 0.276007 0.323513 0.965892
Si Si3 0.341945 0.652197 0.650030
Si Si4 0.801303 0.279868 0.572963
Si Si5 0.500000 0.000000 0.500000
Si Si6 0.524505 0.109623 0.327143
Si Si7 0.751762 0.568341 0.460501
O O1 0.833358 0.186048 0.248025
O O2 0.855379 0.087955 0.339495
O O3 0.074951 0.159079 0.116795
O O4 0.000000 0.103957 0.000000
O O5 0.281314 0.345840 0.831384
O O6 0.250000 0.250000 0.000000
O O7 0.152318 0.360108 0.142786
O O8 0.500000 0.625799 0.500000
O O9 0.349074 0.722557 0.601890
O O10 0.255495 0.615542 0.636067
O O11 0.750000 0.250000 0.500000
O O12 0.924801 0.331300 0.453093
O O13 0.415347 0.942540 0.642985
O O14 0.408652 0.070266 0.365458
O O15 0.715827 0.500000 0.454807
#
# Coordination Sequence:
#
# PCOD9220353 Si02
#       7
#     8   8   8   8   2   8   8
#     4  11  24  42  66 103 138 177 229 295 359 425
#     4  12  26  43  69 112 142 175 239 303 365 432
#     4  12  23  44  72 102 141 187 234 300 373 431
#     4  11  21  42  72  98 141 186 234 294 369 433
#     4  12  28  48  76 100 156 204 246 294 370 436
#     4  11  26  45  70 106 141 192 244 299 359 440
#     4  11  25  49  70  95 138 193 242 286 363 441
#
# _framework density 20.640512000000001
#
# number of rings (size 3 to 8) (size 9 to 14) (size 15 to 20)
#    0.000    0.640    5.600    2.880    7.840    1.280 
#    2.880    0.800    0.000    0.000    0.000    0.000 
#    0.000    0.000    0.000    0.000    0.000    0.000 
#
# Total GULP energy -139381.543693 kJ/mol
# GULP energy per Si atom -5575.261748 kJ/mol
# Density = 2.059353 g / cm^3
# Si number density = 20.640512 Si / 1000 Ang^3
#
#
#
# Elastic Constant Matrix: (Units=GPa)
#
#
# Indices 1 2 3 4 5 6 
#
# 1 26.4972 1.2540 14.7099 -0.0005 0.4724 -0.0008
# 2 1.2540 130.5458 39.2657 -0.0004 9.4535 -0.0005
# 3 14.7099 39.2657 119.3492 -0.0011 5.4763 -0.0012
# 4 -0.0005 -0.0004 -0.0011 -13.7265 0.0007 -19.6249
# 5 0.4724 9.4535 5.4763 0.0007 39.1670 0.0010
# 6 -0.0008 -0.0005 -0.0012 -19.6249 0.0010 -11.2778
#
#
#
# Elastic Compliance Matrix: (Units=1/GPa)
#
#
# Indices 1 2 3 4 5 6 
#
# 1 0.040692 0.001242 -0.005423 -0.000001 -0.000032 0.000000
# 2 0.001242 0.008650 -0.002921 0.000000 -0.001694 0.000000
# 3 -0.005423 -0.002921 0.010037 0.000000 -0.000633 0.000000
# 4 -0.000001 0.000000 0.000000 0.048963 0.000001 -0.085203
# 5 -0.000032 -0.001694 -0.000633 0.000001 0.026030 0.000000
# 6 0.000000 0.000000 0.000000 -0.085203 0.000000 0.059595
#
#
# Mechanical properties :
#
#
# Convention : Reuss Voigt Hill
#
# Bulk Modulus (GPa) = 22.13551 42.98348 32.55950
# Shear Modulus (GPa) = 22.39872 17.57671 19.98771
#
# Velocity S-wave (km/s) = 3.29778 2.92132 3.11525
# Velocity P-wave (km/s) = 5.02475 5.67881 5.36176
#
# Compressibility (1/GPa) = 0.04517627
#
# Stress axis : x y z
#
# Youngs Moduli (GPa) = 24.57489 115.61358 99.62957
#
# Poissons Ratio (x) = -0.14365 0.54025
# Poissons Ratio (y) = -0.03053 0.29102
# Poissons Ratio (z) = 0.13326 0.33772
#
# Static dielectric constant tensor:
#      x y z
#    x 1.821710 0.000000 0.034690 
#    y 0.000000 1.745500 0.000010 
#    z 0.034690 0.000010 1.672320 
# 
# From -- ./inp_files/148860.got.cif
#   From: 2010.05.17/outbox.cif.g08.bks.cpg/sg12_75_cif.got.tgz:148860.got - 2010.06.03 13:09:07.
