data_PCOD9220100
_publ_section_title
;
Structure prediction by ZEFSAII (Michael W. Deem and Ramdas Pophale) SiO2 
 PCOD9220100
Probable space group: C 2/M
;
_chemical_formula_sum "Si O2"
_cell_formula_units_Z 48
_cell_length_a 18.007809
_cell_length_b 28.723683
_cell_length_c 10.341072
_cell_angle_alpha 90.000000
_cell_angle_beta 29.460579
_cell_angle_gamma 90.000000
_cell_volume 2630.733313
_symmetry_space_group_name_H-M "C 2/M"
_symmetry_group_IT_number 12
_symmetry_cell_setting 'monoclinic'
loop_
_space_group_symop_operation_xyz
x,y,z
-x,y,-z
-x,-y,-z
x,-y,z
1/2+x,1/2+y,z
1/2-x,1/2+y,-z
1/2-x,1/2-y,-z
1/2+x,1/2-y,z
loop_
_atom_site_type_symbol
_atom_site_label
_atom_site_fract_x
_atom_site_fract_y
_atom_site_fract_z
Si Si1 0.108210 0.350633 0.960291
Si Si2 0.832252 0.775701 0.499999
Si Si3 0.668485 0.949301 0.802463
Si Si4 0.470949 0.550699 0.197536
Si Si5 0.912671 0.319546 0.499999
Si Si6 0.431499 0.649367 0.960293
O O1 0.219466 0.308862 0.751344
O O2 0.183912 0.401547 0.858501
O O3 0.000000 0.353742 0.000000
O O4 0.008169 0.340092 0.236486
O O5 0.750000 0.750000 0.500000
O O6 0.891398 0.734656 0.499999
O O7 0.970811 0.808862 0.248653
O O8 0.793314 0.946211 0.499999
O O9 0.692222 0.000000 0.831582
O O10 0.500000 0.950271 0.000000
O O11 0.523805 0.500000 0.168417
O O12 0.542414 0.598453 0.141497
O O13 0.500000 0.549729 0.000000
O O14 0.000000 0.327016 0.500000
O O15 0.744656 0.340092 0.763511
O O16 0.500000 0.646258 0.000000
#
# Coordination Sequence:
#
# PCOD9220100 Si02
#       6
#     8   8   8   8   8   8
#     4  11  21  38  63  90 121 165 206 248 305 366
#     4  12  22  38  61  93 119 163 213 249 300 364
#     4   9  18  32  54  90 125 153 196 255 307 354
#     4   9  18  32  54  90 125 153 196 255 307 354
#     4  12  28  42  59  92 131 160 202 261 307 359
#     4  11  21  38  63  90 121 165 206 248 305 366
#
# _framework density 18.245863
#
# number of rings (size 3 to 8) (size 9 to 14) (size 15 to 20)
#    0.000    1.333    5.000    1.000    7.000    2.667 
#    0.000    0.000    0.000    2.000    0.000    2.333 
#    0.000    0.000    0.000    0.000    0.000    0.000 
#
# Total GULP energy -133733.103737 kJ/mol
# GULP energy per Si atom -5572.212656 kJ/mol
# Density = 1.820433 g / cm^3
# Si number density = 18.245863 Si / 1000 Ang^3
#
#
#
# Elastic Constant Matrix: (Units=GPa)
#
#
# Indices 1 2 3 4 5 6 
#
# 1 77.9896 29.8860 47.9474 0.0000 0.0719 0.0005
# 2 29.8860 182.0791 89.4464 0.0000 -7.6138 -0.0002
# 3 47.9474 89.4464 168.9244 0.0000 -11.6955 0.0001
# 4 0.0000 0.0000 0.0000 47.7445 0.0000 26.9837
# 5 0.0719 -7.6138 -11.6955 0.0000 16.2466 -0.0003
# 6 0.0005 -0.0002 0.0001 26.9837 -0.0003 258.7847
#
#
#
# Elastic Compliance Matrix: (Units=1/GPa)
#
#
# Indices 1 2 3 4 5 6 
#
# 1 0.015757 -0.000563 -0.004418 0.000000 -0.003514 0.000000
# 2 -0.000563 0.007450 -0.003729 0.000000 0.000810 0.000000
# 3 -0.004418 -0.003729 0.009502 0.000000 0.005112 0.000000
# 4 0.000000 0.000000 0.000000 0.022256 0.000000 -0.002321
# 5 -0.003514 0.000810 0.005112 0.000000 0.065627 0.000000
# 6 0.000000 0.000000 0.000000 -0.002321 0.000000 0.004106
#
#
# Mechanical properties :
#
#
# Convention : Reuss Voigt Hill
#
# Bulk Modulus (GPa) = 65.40195 84.83920 75.12058
# Shear Modulus (GPa) = 33.96388 82.00271 57.98330
#
# Velocity S-wave (km/s) = 4.31914 6.71124 5.64339
# Velocity P-wave (km/s) = 7.79717 10.32730 9.15011
#
# Compressibility (1/GPa) = 0.01529006
#
# Stress axis : x y z
#
# Youngs Moduli (GPa) = 63.46321 134.22241 105.23840
#
# Poissons Ratio (x) = 0.07558 0.46490
# Poissons Ratio (y) = 0.03574 0.39244
# Poissons Ratio (z) = 0.28036 0.50053
#
# Static dielectric constant tensor:
#      x y z
#    x 1.612780 0.000000 -0.008830 
#    y 0.000000 1.717690 0.000000 
#    z -0.008830 0.000000 1.681850 
# 
# From -- ./inp_files/80578.got.cif
#   From: 2010.05.17/outbox.cif.g08.bks.cpg/sg12_41_cif.got.tgz:80578.got - 2010.06.03 13:09:07.
