data_PCOD9220823
_publ_section_title
;
Structure prediction by ZEFSAII (Michael W. Deem and Ramdas Pophale) SiO2 
 PCOD9220823
Probable space group: C 2/M
;
_chemical_formula_sum "Si O2"
_cell_formula_units_Z 48
_cell_length_a 29.790343
_cell_length_b 16.203125
_cell_length_c 11.897864
_cell_angle_alpha 90.000000
_cell_angle_beta 26.426763
_cell_angle_gamma 90.000000
_cell_volume 2555.968672
_symmetry_space_group_name_H-M "C 2/M"
_symmetry_group_IT_number 12
_symmetry_cell_setting 'monoclinic'
loop_
_space_group_symop_operation_xyz
x,y,z
-x,y,-z
-x,-y,-z
x,-y,z
1/2+x,1/2+y,z
1/2-x,1/2+y,-z
1/2-x,1/2-y,-z
1/2+x,1/2-y,z
loop_
_atom_site_type_symbol
_atom_site_label
_atom_site_fract_x
_atom_site_fract_y
_atom_site_fract_z
Si Si1 0.563135 0.649968 0.529796
Si Si2 0.534089 0.911018 0.056420
Si Si3 0.663447 0.500000 0.712682
Si Si4 0.858420 0.676287 0.549965
Si Si5 0.566128 0.500000 0.687267
Si Si6 0.354025 0.400110 0.899791
Si Si7 0.204159 0.665976 0.565399
O O1 0.602875 0.739937 0.478174
O O2 0.588571 0.582198 0.566601
O O3 0.614703 0.621209 0.297922
O O4 0.442394 0.641722 0.777202
O O5 0.450204 0.888507 0.334794
O O6 0.576677 0.000000 0.987874
O O7 0.500000 0.915018 0.000000
O O8 0.622998 0.847886 0.845865
O O9 0.630908 0.500000 0.655389
O O10 0.727724 0.582848 0.596120
O O11 0.554568 0.500000 0.017604
O O12 0.839733 0.686195 0.458765
O O13 0.755861 0.637875 0.829065
O O14 0.355407 0.500000 0.913208
O O15 0.250000 0.750000 0.500000
#
# Coordination Sequence:
#
# PCOD9220823 Si02
#       7
#     8   8   4   8   4   8   8
#     4  11  22  42  63  96 124 163 208 271 316 374
#     4   9  19  37  56  81 117 157 202 249 300 367
#     4  11  24  38  63  91 127 174 214 255 315 393
#     4  11  24  36  65  90 128 160 209 261 315 370
#     4  11  22  39  60  89 131 160 210 265 318 364
#     4  11  22  42  69  93 121 164 217 264 319 382
#     4  11  23  39  58  90 127 168 210 253 316 383
#
# _framework density 18.779572999999999
#
# number of rings (size 3 to 8) (size 9 to 14) (size 15 to 20)
#    0.000    1.333    2.500    3.500    7.000    0.000 
#    0.000    0.000    0.000    0.000    0.000    4.667 
#    0.000    0.000    0.000    0.000    0.000    0.000 
#
# Total GULP energy -133741.687507 kJ/mol
# GULP energy per Si atom -5572.570313 kJ/mol
# Density = 1.873683 g / cm^3
# Si number density = 18.779573 Si / 1000 Ang^3
#
#
#
# Elastic Constant Matrix: (Units=GPa)
#
#
# Indices 1 2 3 4 5 6 
#
# 1 70.9007 42.1468 15.7205 0.0000 2.2086 0.0000
# 2 42.1468 130.4103 52.7541 0.0000 -14.4086 0.0000
# 3 15.7205 52.7541 125.6279 0.0000 -9.4723 0.0000
# 4 0.0000 0.0000 0.0000 24.1274 0.0000 -9.2851
# 5 2.2086 -14.4086 -9.4723 0.0000 22.6623 0.0000
# 6 0.0000 0.0000 0.0000 -9.2851 0.0000 33.3982
#
#
#
# Elastic Compliance Matrix: (Units=1/GPa)
#
#
# Indices 1 2 3 4 5 6 
#
# 1 0.018168 -0.006535 0.000025 0.000000 -0.005915 0.000000
# 2 -0.006535 0.012031 -0.003727 0.000000 0.006728 0.000000
# 3 0.000025 -0.003727 0.009647 0.000000 0.001660 0.000000
# 4 0.000000 0.000000 0.000000 0.046412 0.000000 0.012903
# 5 -0.005915 0.006728 0.001660 0.000000 0.049674 0.000000
# 6 0.000000 0.000000 0.000000 0.012903 0.000000 0.033529
#
#
# Mechanical properties :
#
#
# Convention : Reuss Voigt Hill
#
# Bulk Modulus (GPa) = 51.62257 60.90907 56.26582
# Shear Modulus (GPa) = 25.45906 30.45877 27.95891
#
# Velocity S-wave (km/s) = 3.68595 4.03166 3.86267
# Velocity P-wave (km/s) = 6.75746 7.36047 7.06540
#
# Compressibility (1/GPa) = 0.01937137
#
# Stress axis : x y z
#
# Youngs Moduli (GPa) = 55.04240 83.11652 103.65715
#
# Poissons Ratio (x) = 0.54318 -0.00257
# Poissons Ratio (y) = 0.35971 0.38634
# Poissons Ratio (z) = -0.00137 0.30979
#
# Static dielectric constant tensor:
#      x y z
#    x 1.778480 0.000000 -0.154150 
#    y 0.000000 1.609750 0.000000 
#    z -0.154150 0.000000 1.814170 
# 
# From -- ./inp_files/189388.got.cif
#   From: 2010.05.17/outbox.cif.g08.bks.cpg/sg12_95_cif.got.tgz:189388.got - 2010.06.03 13:09:07.
