data_PCOD9220070
_publ_section_title
;
Structure prediction by ZEFSAII (Michael W. Deem and Ramdas Pophale) SiO2 
 PCOD9220070
Probable space group: C 2/M
;
_chemical_formula_sum "Si O2"
_cell_formula_units_Z 48
_cell_length_a 9.645493
_cell_length_b 22.727480
_cell_length_c 12.882478
_cell_angle_alpha 90.000000
_cell_angle_beta 60.397704
_cell_angle_gamma 90.000000
_cell_volume 2455.456760
_symmetry_space_group_name_H-M "C 2/M"
_symmetry_group_IT_number 12
_symmetry_cell_setting 'monoclinic'
loop_
_space_group_symop_operation_xyz
x,y,z
-x,y,-z
-x,-y,-z
x,-y,z
1/2+x,1/2+y,z
1/2-x,1/2+y,-z
1/2-x,1/2-y,-z
1/2+x,1/2-y,z
loop_
_atom_site_type_symbol
_atom_site_label
_atom_site_fract_x
_atom_site_fract_y
_atom_site_fract_z
Si Si1 0.172728 0.756602 0.418456
Si Si2 0.675568 0.569668 0.485713
Si Si3 0.182535 0.854313 0.692627
Si Si4 0.135230 0.359071 0.754275
Si Si5 0.731132 0.173444 0.119920
Si Si6 0.833260 0.813368 0.852186
O O1 0.250000 0.750000 0.500000
O O2 0.171010 0.691375 0.373886
O O3 0.287140 0.798418 0.313747
O O4 0.000000 0.782563 0.500000
O O5 0.500000 0.580038 0.500000
O O6 0.696017 0.500000 0.490181
O O7 0.690829 0.600080 0.593993
O O8 0.801961 0.594865 0.354739
O O9 0.194775 0.864022 0.812232
O O10 0.011810 0.821988 0.743514
O O11 0.218482 0.360038 0.836183
O O12 0.947142 0.351270 0.830689
O O13 0.717361 0.244743 0.144263
O O14 0.826070 0.172210 0.976799
#
# Coordination Sequence:
#
# PCOD9220070 Si02
#       6
#     8   8   8   8   8   8
#     4  12  21  31  53  89 125 154 187 238 303 369
#     4  11  25  43  65  87 113 159 210 260 310 359
#     4  12  22  37  61  88 124 160 200 244 301 364
#     4  12  21  37  60  88 123 161 200 245 301 365
#     4  11  23  35  58  94 133 159 194 240 301 360
#     4  11  21  38  58  90 130 170 194 231 291 374
#
# _framework density 19.548297999999999
#
# number of rings (size 3 to 8) (size 9 to 14) (size 15 to 20)
#    0.000    0.500    6.667    3.500    0.000    2.667 
#    0.000    1.667    0.000    6.000    0.000    0.000 
#    0.000    0.000    0.000    0.000    0.000    0.000 
#
# Total GULP energy -133810.857292 kJ/mol
# GULP energy per Si atom -5575.452387 kJ/mol
# Density = 1.950381 g / cm^3
# Si number density = 19.548298 Si / 1000 Ang^3
#
#
#
# Elastic Constant Matrix: (Units=GPa)
#
#
# Indices 1 2 3 4 5 6 
#
# 1 57.7142 8.7689 19.6174 0.0000 4.1796 0.0000
# 2 8.7689 92.1582 47.4088 0.0000 6.4414 0.0000
# 3 19.6174 47.4088 116.7817 0.0000 19.3627 0.0000
# 4 0.0000 0.0000 0.0000 9.4358 0.0000 -0.3345
# 5 4.1796 6.4414 19.3627 0.0000 48.5151 0.0000
# 6 0.0000 0.0000 0.0000 -0.3345 0.0000 19.2165
#
#
#
# Elastic Compliance Matrix: (Units=1/GPa)
#
#
# Indices 1 2 3 4 5 6 
#
# 1 0.018386 -0.000210 -0.002940 0.000000 -0.000383 0.000000
# 2 -0.000210 0.013726 -0.005609 0.000000 0.000434 0.000000
# 3 -0.002940 -0.005609 0.011960 0.000000 -0.003775 0.000000
# 4 0.000000 0.000000 0.000000 0.106044 0.000000 0.001846
# 5 -0.000383 0.000434 -0.003775 0.000000 0.022094 0.000000
# 6 0.000000 0.000000 0.000000 0.001846 0.000000 0.052071
#
#
# Mechanical properties :
#
#
# Convention : Reuss Voigt Hill
#
# Bulk Modulus (GPa) = 37.65977 46.47160 42.06569
# Shear Modulus (GPa) = 19.94817 28.15742 24.05279
#
# Velocity S-wave (km/s) = 3.19792 3.79938 3.51155
# Velocity P-wave (km/s) = 5.73955 6.56288 6.16497
#
# Compressibility (1/GPa) = 0.02655353
#
# Stress axis : x y z
#
# Youngs Moduli (GPa) = 54.39024 72.85479 83.61403
#
# Poissons Ratio (x) = 0.01533 0.24579
# Poissons Ratio (y) = 0.01145 0.46898
# Poissons Ratio (z) = 0.15989 0.40863
#
# Static dielectric constant tensor:
#      x y z
#    x 1.687400 0.000000 0.064950 
#    y 0.000000 2.515170 0.000000 
#    z 0.064950 0.000000 1.746350 
# 
# From -- ./inp_files/122440.got.cif
#   From: 2010.05.17/outbox.cif.g08.bks.cpg/sg12_62_cif.got.tgz:122440.got - 2010.06.03 13:09:07.
