data_PCOD9220989
_publ_section_title
;
Structure prediction by ZEFSAII (Michael W. Deem and Ramdas Pophale) SiO2 
 PCOD9220989
Probable space group: C 2/M
;
_chemical_formula_sum "Si O2"
_cell_formula_units_Z 42
_cell_length_a 8.217811
_cell_length_b 15.804794
_cell_length_c 19.938682
_cell_angle_alpha 90.000000
_cell_angle_beta 52.111258
_cell_angle_gamma 90.000000
_cell_volume 2043.765844
_symmetry_space_group_name_H-M "C 2/M"
_symmetry_group_IT_number 12
_symmetry_cell_setting 'monoclinic'
loop_
_space_group_symop_operation_xyz
x,y,z
-x,y,-z
-x,-y,-z
x,-y,z
1/2+x,1/2+y,z
1/2-x,1/2+y,-z
1/2-x,1/2-y,-z
1/2+x,1/2-y,z
loop_
_atom_site_type_symbol
_atom_site_label
_atom_site_fract_x
_atom_site_fract_y
_atom_site_fract_z
Si Si1 0.382860 0.343414 0.199300
Si Si2 0.943460 0.164162 0.589165
Si Si3 0.493033 0.000000 0.890177
Si Si4 0.782379 0.646755 0.616943
Si Si5 0.845552 0.000000 0.914289
Si Si6 0.500000 0.000000 0.500000
Si Si7 0.962804 0.653550 0.222780
O O1 0.358400 0.369419 0.282997
O O2 0.523055 0.413649 0.127757
O O3 0.160313 0.344006 0.220838
O O4 0.448562 0.244933 0.189301
O O5 0.897527 0.264338 0.595430
O O6 0.736791 0.134240 0.679908
O O7 0.000000 0.132664 0.500000
O O8 0.134459 0.147774 0.589799
O O9 0.675554 0.000000 0.898360
O O10 0.512790 0.081679 0.838514
O O11 0.278351 0.000000 0.984785
O O12 0.944686 0.573418 0.568372
#
# Coordination Sequence:
#
# PCOD9220989 Si02
#       7
#     8   8   4   8   4   2   8
#     4  11  23  43  69  97 133 178 215 270 331 393
#     4  11  22  40  67  87 125 176 222 264 313 384
#     4  11  25  46  70 101 131 168 217 273 331 394
#     4  11  23  40  63  89 127 168 218 270 320 377
#     4  11  24  45  73  97 134 171 213 269 329 402
#     4  12  26  34  58  86 124 162 208 274 316 374
#     4  11  24  42  69  98 134 173 221 273 329 387
#
# _framework density 20.5503
#
# number of rings (size 3 to 8) (size 9 to 14) (size 15 to 20)
#    0.000    0.952    0.952    8.571    2.667    3.048 
#    0.000    0.952    0.000    0.000    0.000    0.000 
#    0.000    0.000    0.000    0.000    0.000    0.000 
#
# Total GULP energy -117128.732468 kJ/mol
# GULP energy per Si atom -5577.558689 kJ/mol
# Density = 2.050353 g / cm^3
# Si number density = 20.550300 Si / 1000 Ang^3
#
#
#
# Elastic Constant Matrix: (Units=GPa)
#
#
# Indices 1 2 3 4 5 6 
#
# 1 117.6558 30.8431 41.8186 -0.0001 1.5798 0.0001
# 2 30.8431 89.7854 96.4148 -0.0001 -3.1529 0.0003
# 3 41.8186 96.4148 172.7312 0.0000 -8.2034 0.0001
# 4 -0.0001 -0.0001 0.0000 49.1177 0.0001 0.0272
# 5 1.5798 -3.1529 -8.2034 0.0001 30.9431 -0.0001
# 6 0.0001 0.0003 0.0001 0.0272 -0.0001 23.6677
#
#
#
# Elastic Compliance Matrix: (Units=1/GPa)
#
#
# Indices 1 2 3 4 5 6 
#
# 1 0.009468 -0.001934 -0.001261 0.000000 -0.001015 0.000000
# 2 -0.001934 0.028249 -0.015351 0.000000 -0.001093 0.000000
# 3 -0.001261 -0.015351 0.014778 0.000000 0.002418 0.000000
# 4 0.000000 0.000000 0.000000 0.020359 0.000000 -0.000023
# 5 -0.001015 -0.001093 0.002418 0.000000 0.032899 0.000000
# 6 0.000000 0.000000 0.000000 -0.000023 0.000000 0.042252
#
#
# Mechanical properties :
#
#
# Convention : Reuss Voigt Hill
#
# Bulk Modulus (GPa) = 64.92594 79.81394 72.36994
# Shear Modulus (GPa) = 26.28375 34.81876 30.55125
#
# Velocity S-wave (km/s) = 3.58019 4.12068 3.85990
# Velocity P-wave (km/s) = 6.98230 7.84618 7.42682
#
# Compressibility (1/GPa) = 0.01540216
#
# Stress axis : x y z
#
# Youngs Moduli (GPa) = 105.61693 35.40007 67.66725
#
# Poissons Ratio (x) = 0.06847 0.08532
# Poissons Ratio (y) = 0.20429 1.03878
# Poissons Ratio (z) = 0.13316 0.54344
#
# Static dielectric constant tensor:
#      x y z
#    x 1.734710 0.000000 -0.029860 
#    y 0.000000 1.712650 0.000000 
#    z -0.029860 0.000000 1.758010 
# 
# From -- ./inp_files/255712.got.cif
#   From: 2010.05.17/outbox.cif.g08.bks.cpg/sg12_128_cif.got.tgz:255712.got - 2010.06.03 13:09:07.
