data_PCOD9220716
_publ_section_title
;
Structure prediction by ZEFSAII (Michael W. Deem and Ramdas Pophale) SiO2 
 PCOD9220716
Probable space group: C 2/M
;
_chemical_formula_sum "Si O2"
_cell_formula_units_Z 58
_cell_length_a 19.609976
_cell_length_b 9.346643
_cell_length_c 20.363773
_cell_angle_alpha 90.000000
_cell_angle_beta 43.595616
_cell_angle_gamma 90.000000
_cell_volume 2573.745660
_symmetry_space_group_name_H-M "C 2/M"
_symmetry_group_IT_number 12
_symmetry_cell_setting 'monoclinic'
loop_
_space_group_symop_operation_xyz
x,y,z
-x,y,-z
-x,-y,-z
x,-y,z
1/2+x,1/2+y,z
1/2-x,1/2+y,-z
1/2-x,1/2-y,-z
1/2+x,1/2-y,z
loop_
_atom_site_type_symbol
_atom_site_label
_atom_site_fract_x
_atom_site_fract_y
_atom_site_fract_z
Si Si1 0.546414 0.163970 0.859950
Si Si2 0.332370 0.162285 0.359856
Si Si3 0.030004 0.341193 0.614770
Si Si4 0.719139 0.335629 0.804476
Si Si5 0.867163 0.168892 0.784056
Si Si6 0.500000 0.500000 0.500000
Si Si7 0.852425 0.269044 0.586037
Si Si8 0.144831 0.327813 0.077152
O O1 0.592348 0.163777 0.754246
O O2 0.615111 0.270046 0.853116
O O3 0.431610 0.201162 0.928849
O O4 0.554900 0.000000 0.878697
O O5 0.387455 0.199295 0.388592
O O6 0.239705 0.250590 0.399966
O O7 0.296970 0.000000 0.393012
O O8 0.990172 0.500000 0.661307
O O9 0.071159 0.352257 0.513086
O O10 0.951315 0.214063 0.673967
O O11 0.710255 0.500000 0.831705
O O12 0.765907 0.234607 0.827331
O O13 0.798165 0.328570 0.688694
O O14 0.897547 0.255744 0.827534
O O15 0.861211 0.000000 0.798335
O O16 0.411484 0.623873 0.559554
O O17 0.154133 0.500000 0.076264
O O18 0.250000 0.250000 0.000000
#
# Coordination Sequence:
#
# PCOD9220716 Si02
#       8
#     8   8   8   8   8   2   8   8
#     4   9  19  39  66  95 128 173 211 259 322 387
#     4   9  17  35  58  84 120 163 211 264 321 375
#     4  11  22  38  60  85 124 166 215 274 329 375
#     4  11  24  41  64  92 133 173 221 275 326 385
#     4  12  26  42  65  96 128 170 219 267 322 388
#     4  12  24  36  54  76 120 164 224 270 316 376
#     4  11  23  36  56  86 124 172 221 270 320 377
#     4  11  23  45  74 104 137 167 206 259 322 390
#
# _framework density 22.535250999999999
#
# number of rings (size 3 to 8) (size 9 to 14) (size 15 to 20)
#    0.000    1.379    2.069    3.724    4.828    1.103 
#    0.000    3.448    0.000    4.138    0.000    0.000 
#    0.000    0.000    0.000    0.000    0.000    0.000 
#
# Total GULP energy -161717.486507 kJ/mol
# GULP energy per Si atom -5576.465052 kJ/mol
# Density = 2.248396 g / cm^3
# Si number density = 22.535251 Si / 1000 Ang^3
#
#
#
# Elastic Constant Matrix: (Units=GPa)
#
#
# Indices 1 2 3 4 5 6 
#
# 1 106.0329 52.8240 -4.5410 0.0000 -15.6791 0.0000
# 2 52.8240 141.5255 11.7746 0.0000 -22.8369 0.0000
# 3 -4.5410 11.7746 43.5994 0.0000 -17.1954 0.0000
# 4 0.0000 0.0000 0.0000 3.3396 0.0000 -11.2821
# 5 -15.6791 -22.8369 -17.1954 0.0000 26.3128 0.0000
# 6 0.0000 0.0000 0.0000 -11.2821 0.0000 23.5592
#
#
#
# Elastic Compliance Matrix: (Units=1/GPa)
#
#
# Indices 1 2 3 4 5 6 
#
# 1 0.012791 -0.003980 0.005457 0.000000 0.007734 0.000000
# 2 -0.003980 0.009476 -0.000897 0.000000 0.005266 0.000000
# 3 0.005457 -0.000897 0.033307 0.000000 0.024240 0.000000
# 4 0.000000 0.000000 0.000000 -0.484694 0.000000 -0.232111
# 5 0.007734 0.005266 0.024240 0.000000 0.063024 0.000000
# 6 0.000000 0.000000 0.000000 -0.232111 0.000000 -0.068708
#
#
# Mechanical properties :
#
#
# Convention : Reuss Voigt Hill
#
# Bulk Modulus (GPa) = 17.62591 45.69701 31.66146
# Shear Modulus (GPa) = -11.98889 26.04901 7.03006
#
# Velocity S-wave (km/s) = -2.30903 3.40358 1.76815
# Velocity P-wave (km/s) = 0.85420 5.98062 4.27185
#
# Compressibility (1/GPa) = 0.05673466
#
# Stress axis : x y z
#
# Youngs Moduli (GPa) = 78.17783 105.53039 30.02400
#
# Poissons Ratio (x) = 0.42006 -0.16385
# Poissons Ratio (y) = 0.31118 0.02692
# Poissons Ratio (z) = -0.42665 0.09462
#
# Static dielectric constant tensor:
#      x y z
#    x 1.870890 0.000000 0.036090 
#    y 0.000000 1.723230 0.000000 
#    z 0.036090 0.000000 2.005850 
# 
# From -- ./inp_files/346451.got.cif
#   From: 2010.05.17/outbox.cif.g08.bks.cpg/sg12_174_cif.got.tgz:346451.got - 2010.06.03 13:09:07.
