data_PCOD9220452
_publ_section_title
;
Structure prediction by ZEFSAII (Michael W. Deem and Ramdas Pophale) SiO2 
 PCOD9220452
Probable space group: C 2/M
;
_chemical_formula_sum "Si O2"
_cell_formula_units_Z 40
_cell_length_a 28.175744
_cell_length_b 8.151497
_cell_length_c 11.950438
_cell_angle_alpha 90.000000
_cell_angle_beta 53.134897
_cell_angle_gamma 90.000000
_cell_volume 2195.906431
_symmetry_space_group_name_H-M "C 2/M"
_symmetry_group_IT_number 12
_symmetry_cell_setting 'monoclinic'
loop_
_space_group_symop_operation_xyz
x,y,z
-x,y,-z
-x,-y,-z
x,-y,z
1/2+x,1/2+y,z
1/2-x,1/2+y,-z
1/2-x,1/2-y,-z
1/2+x,1/2-y,z
loop_
_atom_site_type_symbol
_atom_site_label
_atom_site_fract_x
_atom_site_fract_y
_atom_site_fract_z
Si Si1 0.054813 0.799718 0.570080
Si Si2 0.780727 0.302292 0.287120
Si Si3 0.577325 0.302078 0.284569
Si Si4 0.340451 0.301794 0.422169
Si Si5 0.303254 0.804578 0.004817
O O1 0.078347 0.750692 0.413683
O O2 0.099462 0.743911 0.603285
O O3 0.986279 0.747253 0.674704
O O4 0.054743 0.000000 0.571455
O O5 0.778435 0.500000 0.286518
O O6 0.716710 0.245495 0.424519
O O7 0.828785 0.253241 0.312214
O O8 0.794160 0.239562 0.143925
O O9 0.577379 0.500000 0.284503
O O10 0.634071 0.245070 0.136452
O O11 0.340544 0.500000 0.423615
O O12 0.301197 0.000000 0.014136
O O13 0.250000 0.750000 0.000000
#
# Coordination Sequence:
#
# PCOD9220452 Si02
#       5
#     8   8   8   8   8
#     4   8  15  30  53  76  98 129 164 200 243 287
#     4   9  19  33  48  70  99 127 157 198 246 289
#     4   9  17  32  53  75 100 129 163 200 241 290
#     4   9  16  30  52  73  93 123 165 203 235 282
#     4  11  22  35  51  72 100 130 160 198 246 294
#
# _framework density 18.215710999999999
#
# number of rings (size 3 to 8) (size 9 to 14) (size 15 to 20)
#    0.000    2.800    0.000    3.000    0.000    4.800 
#    0.000    9.000    0.000    6.000    0.000    0.000 
#    0.000    0.000    0.000    0.000    0.000    0.000 
#
# Total GULP energy -111522.649906 kJ/mol
# GULP energy per Si atom -5576.132495 kJ/mol
# Density = 1.817425 g / cm^3
# Si number density = 18.215711 Si / 1000 Ang^3
#
#
#
# Elastic Constant Matrix: (Units=GPa)
#
#
# Indices 1 2 3 4 5 6 
#
# 1 198.6990 13.2122 101.5136 0.0000 11.8955 0.0000
# 2 13.2122 9.1940 13.1419 0.0000 0.8277 0.0000
# 3 101.5136 13.1419 145.2607 0.0000 10.3401 0.0000
# 4 0.0000 0.0000 0.0000 26.3799 0.0000 -0.6487
# 5 11.8955 0.8277 10.3401 0.0000 19.9644 0.0000
# 6 0.0000 0.0000 0.0000 -0.6487 0.0000 22.7541
#
#
#
# Elastic Compliance Matrix: (Units=1/GPa)
#
#
# Indices 1 2 3 4 5 6 
#
# 1 0.008028 -0.004066 -0.005102 0.000000 -0.001972 0.000000
# 2 -0.004066 0.126990 -0.008768 0.000000 0.001699 0.000000
# 3 -0.005102 -0.008768 0.011422 0.000000 -0.002512 0.000000
# 4 0.000000 0.000000 0.000000 0.037934 0.000000 0.001082
# 5 -0.001972 0.001699 -0.002512 0.000000 0.052495 0.000000
# 6 0.000000 0.000000 0.000000 0.001082 0.000000 0.043979
#
#
# Mechanical properties :
#
#
# Convention : Reuss Voigt Hill
#
# Bulk Modulus (GPa) = 9.04428 67.65435 38.34932
# Shear Modulus (GPa) = 14.14123 28.83874 21.48998
#
# Velocity S-wave (km/s) = 2.78928 3.98324 3.43848
# Velocity P-wave (km/s) = 3.91782 7.64043 6.07147
#
# Compressibility (1/GPa) = 0.11056713
#
# Stress axis : x y z
#
# Youngs Moduli (GPa) = 124.56999 7.87461 87.55346
#
# Poissons Ratio (x) = 0.03202 0.44668
# Poissons Ratio (y) = 0.50650 0.76771
# Poissons Ratio (z) = 0.63553 0.06905
#
# Static dielectric constant tensor:
#      x y z
#    x 1.673870 0.000000 -0.029170 
#    y 0.000000 1.651770 0.000000 
#    z -0.029170 0.000000 1.633350 
# 
# From -- ./inp_files/162351.got.cif
#   From: 2010.05.17/outbox.cif.g08.bks.cpg/sg12_82_cif.got.tgz:162351.got - 2010.06.03 13:09:07.
