data_PCOD9220603
_publ_section_title
;
Structure prediction by ZEFSAII (Michael W. Deem and Ramdas Pophale) SiO2 
 PCOD9220603
Probable space group: C 2/M
;
_chemical_formula_sum "Si O2"
_cell_formula_units_Z 48
_cell_length_a 14.531363
_cell_length_b 8.648910
_cell_length_c 30.787400
_cell_angle_alpha 90.000000
_cell_angle_beta 44.928970
_cell_angle_gamma 90.000000
_cell_volume 2732.666797
_symmetry_space_group_name_H-M "C 2/M"
_symmetry_group_IT_number 12
_symmetry_cell_setting 'monoclinic'
loop_
_space_group_symop_operation_xyz
x,y,z
-x,y,-z
-x,-y,-z
x,-y,z
1/2+x,1/2+y,z
1/2-x,1/2+y,-z
1/2-x,1/2-y,-z
1/2+x,1/2-y,z
loop_
_atom_site_type_symbol
_atom_site_label
_atom_site_fract_x
_atom_site_fract_y
_atom_site_fract_z
Si Si1 0.349762 0.813949 0.668248
Si Si2 0.154858 0.686879 0.230094
Si Si3 0.854503 0.686051 0.331752
Si Si4 0.852731 0.686743 0.431512
Si Si5 0.359681 0.815457 0.093546
Si Si6 0.146831 0.185371 0.000001
O O1 0.318923 0.770397 0.728404
O O2 0.246790 0.750001 0.668807
O O3 0.498302 0.764300 0.608597
O O4 0.348202 0.000000 0.667230
O O5 0.166006 0.500000 0.222662
O O6 0.253552 0.766112 0.164298
O O7 0.004134 0.729603 0.271596
O O8 0.849888 0.500000 0.332770
O O9 0.824092 0.735700 0.391403
O O10 0.849781 0.500000 0.433479
O O11 0.750000 0.750000 0.500000
O O12 0.323584 0.746449 0.058435
O O13 0.369680 0.000000 0.086880
O O14 0.501109 0.746450 0.058437
O O15 0.147506 0.000000 0.000001
O O16 0.250000 0.250000 0.000000
#
# Coordination Sequence:
#
# PCOD9220603 Si02
#       6
#     8   8   8   8   8   8
#     4   9  19  35  54  75 103 136 174 216 262 311
#     4   9  19  37  55  74 105 143 176 215 264 314
#     4   9  19  35  54  75 103 136 174 216 262 311
#     4   9  19  35  52  74 103 137 171 211 260 312
#     4  11  22  37  57  84 113 143 180 221 267 322
#     4  11  22  39  60  82 110 145 182 223 268 316
#
# _framework density 17.565259000000001
#
# number of rings (size 3 to 8) (size 9 to 14) (size 15 to 20)
#    0.000    2.333    0.000    6.000    0.000    4.667 
#    0.000   10.000    0.000    0.000    0.000    0.000 
#    0.000    0.000    0.000    0.000    0.000    0.000 
#
# Total GULP energy -133946.273607 kJ/mol
# GULP energy per Si atom -5581.094734 kJ/mol
# Density = 1.752528 g / cm^3
# Si number density = 17.565259 Si / 1000 Ang^3
#
#
#
# Elastic Constant Matrix: (Units=GPa)
#
#
# Indices 1 2 3 4 5 6 
#
# 1 201.3920 60.7479 104.8680 0.0000 -0.9984 0.0000
# 2 60.7479 87.9589 62.1802 0.0000 0.0153 0.0000
# 3 104.8680 62.1802 186.3527 0.0000 0.8196 0.0000
# 4 0.0000 0.0000 0.0000 31.1400 0.0000 -0.0577
# 5 -0.9984 0.0153 0.8196 0.0000 5.1299 0.0000
# 6 0.0000 0.0000 0.0000 -0.0577 0.0000 36.1224
#
#
#
# Elastic Compliance Matrix: (Units=1/GPa)
#
#
# Indices 1 2 3 4 5 6 
#
# 1 0.007567 -0.002892 -0.003302 0.000000 0.002009 0.000000
# 2 -0.002892 0.015987 -0.003707 0.000000 -0.000018 0.000000
# 3 -0.003302 -0.003707 0.008470 0.000000 -0.001985 0.000000
# 4 0.000000 0.000000 0.000000 0.032113 0.000000 0.000051
# 5 0.002009 -0.000018 -0.001985 0.000000 0.195642 0.000000
# 6 0.000000 0.000000 0.000000 0.000051 0.000000 0.027684
#
#
# Mechanical properties :
#
#
# Convention : Reuss Voigt Hill
#
# Bulk Modulus (GPa) = 81.82045 103.47731 92.64888
# Shear Modulus (GPa) = 16.05967 31.00563 23.53265
#
# Velocity S-wave (km/s) = 3.02700 4.20595 3.66420
# Velocity P-wave (km/s) = 7.67456 9.08982 8.41201
#
# Compressibility (1/GPa) = 0.01222188
#
# Stress axis : x y z
#
# Youngs Moduli (GPa) = 132.14695 62.55176 118.06400
#
# Poissons Ratio (x) = 0.18091 0.38987
# Poissons Ratio (y) = 0.38220 0.43762
# Poissons Ratio (z) = 0.43638 0.23186
#
# Static dielectric constant tensor:
#      x y z
#    x 1.578600 0.000000 0.000000 
#    y 0.000000 1.594790 0.000000 
#    z 0.000000 0.000000 1.578290 
# 
# From -- ./inp_files/374904.got.cif
#   From: 2010.05.17/outbox.cif.g08.bks.cpg/sg12_188_cif.got.tgz:374904.got - 2010.06.03 13:09:07.
