data_PCOD9220372
_publ_section_title
;
Structure prediction by ZEFSAII (Michael W. Deem and Ramdas Pophale) SiO2 
 PCOD9220372
Probable space group: C 2/M
;
_chemical_formula_sum "Si O2"
_cell_formula_units_Z 52
_cell_length_a 19.261137
_cell_length_b 19.652427
_cell_length_c 9.119890
_cell_angle_alpha 90.000000
_cell_angle_beta 131.584833
_cell_angle_gamma 90.000000
_cell_volume 2582.106236
_symmetry_space_group_name_H-M "C 2/M"
_symmetry_group_IT_number 12
_symmetry_cell_setting 'monoclinic'
loop_
_space_group_symop_operation_xyz
x,y,z
-x,y,-z
-x,-y,-z
x,-y,z
1/2+x,1/2+y,z
1/2-x,1/2+y,-z
1/2-x,1/2-y,-z
1/2+x,1/2-y,z
loop_
_atom_site_type_symbol
_atom_site_label
_atom_site_fract_x
_atom_site_fract_y
_atom_site_fract_z
Si Si1 0.108333 0.387888 0.107186
Si Si2 0.150228 0.135349 0.986402
Si Si3 0.601681 0.259347 0.693408
Si Si4 0.767234 0.255577 0.699094
Si Si5 0.107252 0.000000 0.104207
Si Si6 0.167631 0.386322 0.881041
Si Si7 0.795099 0.500000 0.565993
Si Si8 0.397912 0.000000 0.417036
O O1 0.153066 0.312673 0.172180
O O2 0.177733 0.434150 0.300512
O O3 0.116471 0.413145 0.951435
O O4 0.000000 0.389574 0.000000
O O5 0.086801 0.183375 0.797040
O O6 0.197624 0.185675 0.173773
O O7 0.117646 0.068739 0.023953
O O8 0.222357 0.110302 0.962979
O O9 0.500000 0.239379 0.500000
O O10 0.673862 0.275207 0.661385
O O11 0.644454 0.192549 0.828217
O O12 0.750000 0.250000 0.500000
O O13 0.192784 0.000000 0.344940
O O14 0.000000 0.000000 0.000000
O O15 0.144090 0.431238 0.708023
O O16 0.873476 0.500000 0.550489
O O17 0.500000 0.000000 0.500000
#
# Coordination Sequence:
#
# PCOD9220372 Si02
#       8
#     8   8   8   8   4   8   4   4
#     4  12  25  41  67 104 144 179 227 287 353 414
#     4  11  22  49  67  92 134 181 231 284 352 409
#     4  11  24  42  69 100 138 179 244 286 342 424
#     4  11  24  40  69 101 139 186 228 290 355 405
#     4  12  28  49  76  99 137 184 236 295 361 422
#     4  11  21  44  66  95 137 185 219 279 345 409
#     4  12  26  45  64 106 139 175 228 286 347 429
#     4  12  23  38  70  95 132 182 223 265 337 406
#
# _framework density 20.138598000000002
#
# number of rings (size 3 to 8) (size 9 to 14) (size 15 to 20)
#    0.000    0.615    4.615    3.923    4.308    3.077 
#    0.000    0.385    0.000    0.000    0.000    0.000 
#    0.000    0.000    0.000    0.000    0.000    0.000 
#
# Total GULP energy -144970.352899 kJ/mol
# GULP energy per Si atom -5575.782804 kJ/mol
# Density = 2.009276 g / cm^3
# Si number density = 20.138598 Si / 1000 Ang^3
#
#
#
# Elastic Constant Matrix: (Units=GPa)
#
#
# Indices 1 2 3 4 5 6 
#
# 1 136.9592 43.0142 50.9532 0.0000 -1.8178 0.0000
# 2 43.0142 113.6348 10.6600 0.0000 -5.2043 0.0000
# 3 50.9532 10.6600 44.4304 0.0000 -10.8813 0.0000
# 4 0.0000 0.0000 0.0000 48.9524 0.0000 -1.0300
# 5 -1.8178 -5.2043 -10.8813 0.0000 41.7626 0.0000
# 6 0.0000 0.0000 0.0000 -1.0300 0.0000 26.3295
#
#
#
# Elastic Compliance Matrix: (Units=1/GPa)
#
#
# Indices 1 2 3 4 5 6 
#
# 1 0.014998 -0.004259 -0.017249 0.000000 -0.004372 0.000000
# 2 -0.004259 0.010226 0.002882 0.000000 0.001840 0.000000
# 3 -0.017249 0.002882 0.044330 0.000000 0.011159 0.000000
# 4 0.000000 0.000000 0.000000 0.020445 0.000000 0.000800
# 5 -0.004372 0.001840 0.011159 0.000000 0.026891 0.000000
# 6 0.000000 0.000000 0.000000 0.000800 0.000000 0.038011
#
#
# Mechanical properties :
#
#
# Convention : Reuss Voigt Hill
#
# Bulk Modulus (GPa) = 30.95865 56.03103 43.49484
# Shear Modulus (GPa) = 24.63990 36.10204 30.37097
#
# Velocity S-wave (km/s) = 3.50167 4.23860 3.88764
# Velocity P-wave (km/s) = 5.63517 7.19982 6.46500
#
# Compressibility (1/GPa) = 0.03230116
#
# Stress axis : x y z
#
# Youngs Moduli (GPa) = 66.67381 97.78636 22.55811
#
# Poissons Ratio (x) = 0.41652 0.38911
# Poissons Ratio (y) = 0.28399 -0.06501
# Poissons Ratio (z) = 1.15007 -0.28180
#
# Static dielectric constant tensor:
#      x y z
#    x 1.532090 0.000000 -0.222690 
#    y 0.000000 1.760450 0.000000 
#    z -0.222690 0.000000 1.496420 
# 
# From -- ./inp_files/78121.got.cif
#   From: 2010.05.17/outbox.cif.g08.bks.cpg/sg12_40_cif.got.tgz:78121.got - 2010.06.03 13:09:07.
