data_PCOD9220676
_publ_section_title
;
Structure prediction by ZEFSAII (Michael W. Deem and Ramdas Pophale) SiO2 
 PCOD9220676
Probable space group: C 2/M
;
_chemical_formula_sum "Si O2"
_cell_formula_units_Z 56
_cell_length_a 14.490651
_cell_length_b 18.086551
_cell_length_c 12.054960
_cell_angle_alpha 90.000000
_cell_angle_beta 121.189291
_cell_angle_gamma 90.000000
_cell_volume 2702.773658
_symmetry_space_group_name_H-M "C 2/M"
_symmetry_group_IT_number 12
_symmetry_cell_setting 'monoclinic'
loop_
_space_group_symop_operation_xyz
x,y,z
-x,y,-z
-x,-y,-z
x,-y,z
1/2+x,1/2+y,z
1/2-x,1/2+y,-z
1/2-x,1/2-y,-z
1/2+x,1/2-y,z
loop_
_atom_site_type_symbol
_atom_site_label
_atom_site_fract_x
_atom_site_fract_y
_atom_site_fract_z
Si Si1 0.656733 0.194157 0.484264
Si Si2 0.097670 0.804622 0.145656
Si Si3 0.126975 0.637745 0.883129
Si Si4 0.724593 0.915391 0.725373
Si Si5 0.469081 0.280977 0.287707
Si Si6 0.246685 0.662279 0.177766
Si Si7 0.601967 0.083987 0.249979
O O1 0.750000 0.250000 0.500000
O O2 0.683206 0.143918 0.607691
O O3 0.550215 0.244233 0.424975
O O4 0.630910 0.136907 0.369924
O O5 0.160973 0.880809 0.167209
O O6 0.182103 0.736691 0.178453
O O7 0.046696 0.808330 0.236792
O O8 0.000000 0.793407 0.000000
O O9 0.154653 0.588412 0.793913
O O10 0.101325 0.717269 0.815441
O O11 0.015774 0.608671 0.866441
O O12 0.218249 0.647410 0.031754
O O13 0.728679 0.000000 0.687401
O O14 0.374807 0.332716 0.274875
O O15 0.191495 0.597837 0.213485
O O16 0.597797 0.000000 0.283456
#
# Coordination Sequence:
#
# PCOD9220676 Si02
#       7
#     8   8   8   8   8   8   8
#     4  11  23  46  69  93 125 174 230 276 321 386
#     4  12  21  41  68  98 130 171 225 275 327 388
#     4  11  22  39  67  99 134 171 216 271 328 389
#     4  12  26  43  65  98 139 176 215 271 341 405
#     4  11  22  37  67 101 122 163 222 281 319 377
#     4  12  21  41  69 100 132 171 222 277 326 388
#     4  11  24  41  64  98 137 175 217 271 333 392
#
# _framework density 20.719456000000001
#
# number of rings (size 3 to 8) (size 9 to 14) (size 15 to 20)
#    0.000    0.571    7.143    2.571    0.000    4.286 
#    0.000    4.286    0.000    0.857    0.000    0.000 
#    0.000    0.000    0.000    0.000    0.000    0.000 
#
# Total GULP energy -156455.568370 kJ/mol
# GULP energy per Si atom -5587.698870 kJ/mol
# Density = 2.067230 g / cm^3
# Si number density = 20.719456 Si / 1000 Ang^3
#
#
#
# Elastic Constant Matrix: (Units=GPa)
#
#
# Indices 1 2 3 4 5 6 
#
# 1 111.8394 30.6646 32.7592 0.0000 -0.8156 0.0000
# 2 30.6646 86.0275 26.3937 0.0000 4.2961 0.0000
# 3 32.7592 26.3937 79.2918 0.0000 5.7066 0.0000
# 4 0.0000 0.0000 0.0000 9.3933 0.0000 -4.8156
# 5 -0.8156 4.2961 5.7066 0.0000 30.2041 0.0000
# 6 0.0000 0.0000 0.0000 -4.8156 0.0000 16.6450
#
#
#
# Elastic Compliance Matrix: (Units=1/GPa)
#
#
# Indices 1 2 3 4 5 6 
#
# 1 0.010780 -0.002800 -0.003620 0.000000 0.001373 0.000000
# 2 -0.002800 0.013706 -0.003305 0.000000 -0.001401 0.000000
# 3 -0.003620 -0.003305 0.015390 0.000000 -0.002535 0.000000
# 4 0.000000 0.000000 0.000000 0.124998 0.000000 0.036163
# 5 0.001373 -0.001401 -0.002535 0.000000 0.033823 0.000000
# 6 0.000000 0.000000 0.000000 0.036163 0.000000 0.070541
#
#
# Mechanical properties :
#
#
# Convention : Reuss Voigt Hill
#
# Bulk Modulus (GPa) = 48.95892 50.75485 49.85688
# Shear Modulus (GPa) = 16.92066 23.73789 20.32928
#
# Velocity S-wave (km/s) = 2.86082 3.38846 3.13576
# Velocity P-wave (km/s) = 5.88159 6.31334 6.10129
#
# Compressibility (1/GPa) = 0.02042529
#
# Stress axis : x y z
#
# Youngs Moduli (GPa) = 92.76754 72.95980 64.97798
#
# Poissons Ratio (x) = 0.20431 0.23524
# Poissons Ratio (y) = 0.25977 0.21473
# Poissons Ratio (z) = 0.33585 0.24110
#
# Static dielectric constant tensor:
#      x y z
#    x 1.820410 0.000000 -0.006500 
#    y 0.000000 1.720770 0.000000 
#    z -0.006500 0.000000 1.768530 
# 
# From -- ./inp_files/146238.got.cif
#   From: 2010.05.17/outbox.cif.g08.bks.cpg/sg12_74_cif.got.tgz:146238.got - 2010.06.03 13:09:07.
