data_PCOD9220777
_publ_section_title
;
Structure prediction by ZEFSAII (Michael W. Deem and Ramdas Pophale) SiO2 
 PCOD9220777
Probable space group: C 2/M
;
_chemical_formula_sum "Si O2"
_cell_formula_units_Z 64
_cell_length_a 30.637862
_cell_length_b 8.589010
_cell_length_c 19.440661
_cell_angle_alpha 90.000000
_cell_angle_beta 139.508603
_cell_angle_gamma 90.000000
_cell_volume 3321.854798
_symmetry_space_group_name_H-M "C 2/M"
_symmetry_group_IT_number 12
_symmetry_cell_setting 'monoclinic'
loop_
_space_group_symop_operation_xyz
x,y,z
-x,y,-z
-x,-y,-z
x,-y,z
1/2+x,1/2+y,z
1/2-x,1/2+y,-z
1/2-x,1/2-y,-z
1/2+x,1/2-y,z
loop_
_atom_site_type_symbol
_atom_site_label
_atom_site_fract_x
_atom_site_fract_y
_atom_site_fract_z
Si Si1 0.429813 0.186568 0.121472
Si Si2 0.400509 0.813681 0.462867
Si Si3 0.695515 0.187520 0.526533
Si Si4 0.531771 0.685555 0.689040
Si Si5 0.660737 0.812064 0.331008
Si Si6 0.018781 0.309858 0.099110
Si Si7 0.841936 0.184509 0.252277
Si Si8 0.781502 0.816300 0.967281
O O1 0.469357 0.253600 0.234576
O O2 0.464957 0.236798 0.092623
O O3 0.432485 0.000000 0.128361
O O4 0.353083 0.241283 0.035832
O O5 0.351201 0.766232 0.466166
O O6 0.474868 0.764591 0.574723
O O7 0.376580 0.731803 0.364865
O O8 0.397434 0.000000 0.450569
O O9 0.664827 0.237818 0.416060
O O10 0.770772 0.252646 0.621206
O O11 0.698686 0.000000 0.529486
O O12 0.522831 0.500000 0.676549
O O13 0.604678 0.721373 0.744020
O O14 0.592792 0.759185 0.212477
O O15 0.661064 0.000000 0.330489
O O16 0.019260 0.500000 0.098683
O O17 0.000000 0.257062 0.000000
O O18 0.773370 0.275862 0.156417
O O19 0.828573 0.000000 0.234508
O O20 0.790592 0.000000 0.985854
O O21 0.750000 0.750000 0.000000
#
# Coordination Sequence:
#
# PCOD9220777 Si02
#       8
#     8   8   8   8   8   8   8   8
#     4  11  22  38  64  92 121 161 205 251 304 361
#     4  11  23  38  58  86 122 158 196 244 301 365
#     4   9  19  35  54  81 114 148 189 239 294 352
#     4  11  23  39  60  85 118 156 201 253 299 357
#     4   9  17  33  58  83 110 148 193 239 286 348
#     4   9  19  36  58  87 120 153 194 244 299 358
#     4  11  24  41  60  85 119 158 199 248 300 355
#     4  12  24  41  64  90 121 157 202 252 299 355
#
# _framework density 19.266345000000001
#
# number of rings (size 3 to 8) (size 9 to 14) (size 15 to 20)
#    0.000    1.625    1.250    3.750    0.000    7.000 
#    0.000    5.000    0.000    2.625    0.000    0.000 
#    0.000    0.000    0.000    0.000    0.000    0.000 
#
# Total GULP energy -178857.950669 kJ/mol
# GULP energy per Si atom -5589.310958 kJ/mol
# Density = 1.922249 g / cm^3
# Si number density = 19.266345 Si / 1000 Ang^3
#
#
#
# Elastic Constant Matrix: (Units=GPa)
#
#
# Indices 1 2 3 4 5 6 
#
# 1 29.9773 6.3467 31.8594 0.0000 3.5009 0.0000
# 2 6.3467 11.5417 -5.5098 0.0000 -1.9380 0.0000
# 3 31.8594 -5.5098 109.4549 0.0000 2.5249 0.0000
# 4 0.0000 0.0000 0.0000 31.6553 0.0000 5.2367
# 5 3.5009 -1.9380 2.5249 0.0000 26.4488 0.0000
# 6 0.0000 0.0000 0.0000 5.2367 0.0000 24.2091
#
#
#
# Elastic Compliance Matrix: (Units=1/GPa)
#
#
# Indices 1 2 3 4 5 6 
#
# 1 0.069129 -0.050514 -0.022417 0.000000 -0.010711 0.000000
# 2 -0.050514 0.126677 0.020757 0.000000 0.013987 0.000000
# 3 -0.022417 0.020757 0.016639 0.000000 0.002900 0.000000
# 4 0.000000 0.000000 0.000000 0.032763 0.000000 -0.007087
# 5 -0.010711 0.013987 0.002900 0.000000 0.039975 0.000000
# 6 0.000000 0.000000 0.000000 -0.007087 0.000000 0.042840
#
#
# Mechanical properties :
#
#
# Convention : Reuss Voigt Hill
#
# Bulk Modulus (GPa) = 9.25089 24.04074 16.64581
# Shear Modulus (GPa) = 10.67459 24.34782 17.51120
#
# Velocity S-wave (km/s) = 2.35639 3.55878 3.01807
# Velocity P-wave (km/s) = 3.49506 5.42142 4.56109
#
# Compressibility (1/GPa) = 0.10809775
#
# Stress axis : x y z
#
# Youngs Moduli (GPa) = 14.46576 7.89409 60.09891
#
# Poissons Ratio (x) = 0.39876 1.34725
# Poissons Ratio (y) = 0.73072 -1.24749
# Poissons Ratio (z) = 0.32428 -0.16386
#
# Static dielectric constant tensor:
#      x y z
#    x 1.655800 0.000000 -0.006020 
#    y 0.000000 1.650820 0.000000 
#    z -0.006020 0.000000 1.658590 
# 
# From -- ./inp_files/295865.got.cif
#   From: 2010.05.17/outbox.cif.g08.bks.cpg/sg12_148_cif.got.tgz:295865.got - 2010.06.03 13:09:07.
