data_PCOD9220638
_publ_section_title
;
Structure prediction by ZEFSAII (Michael W. Deem and Ramdas Pophale) SiO2 
 PCOD9220638
Probable space group: C 2/M
;
_chemical_formula_sum "Si O2"
_cell_formula_units_Z 40
_cell_length_a 25.251634
_cell_length_b 8.582020
_cell_length_c 8.187041
_cell_angle_alpha 90.000000
_cell_angle_beta 95.698338
_cell_angle_gamma 90.000000
_cell_volume 1765.446519
_symmetry_space_group_name_H-M "C 2/M"
_symmetry_group_IT_number 12
_symmetry_cell_setting 'monoclinic'
loop_
_space_group_symop_operation_xyz
x,y,z
-x,y,-z
-x,-y,-z
x,-y,z
1/2+x,1/2+y,z
1/2-x,1/2+y,-z
1/2-x,1/2-y,-z
1/2+x,1/2-y,z
loop_
_atom_site_type_symbol
_atom_site_label
_atom_site_fract_x
_atom_site_fract_y
_atom_site_fract_z
Si Si1 0.943339 0.324357 0.893902
Si Si2 0.163299 0.820137 0.046753
Si Si3 0.630287 0.813256 0.705272
Si Si4 0.195681 0.687015 0.407115
Si Si5 0.987223 0.828271 0.310723
O O1 0.922618 0.500000 0.908503
O O2 0.899221 0.203802 0.932506
O O3 0.964873 0.287028 0.723451
O O4 0.000000 0.309374 0.000000
O O5 0.188704 0.748279 0.219535
O O6 0.178287 0.000000 0.038160
O O7 0.168050 0.741347 0.868676
O O8 0.651892 0.765969 0.532246
O O9 0.571611 0.744101 0.720547
O O10 0.627269 0.000000 0.709565
O O11 0.195444 0.500000 0.400246
O O12 0.250000 0.750000 0.500000
O O13 0.000000 0.852621 0.500000
O O14 0.989630 0.000000 0.228180
#
# Coordination Sequence:
#
# PCOD9220638 Si02
#       5
#     8   8   8   8   8
#     4  11  22  37  60  90 128 171 213 259 312 376
#     4  12  25  42  69 100 135 176 220 272 329 391
#     4  11  24  43  67  96 130 172 220 270 327 392
#     4  11  26  48  73  99 131 169 218 277 336 396
#     4  11  23  37  58  91 129 170 216 266 320 384
#
# _framework density 22.657159
#
# number of rings (size 3 to 8) (size 9 to 14) (size 15 to 20)
#    0.000    0.800    2.000    5.400    0.000    9.600 
#    0.000    0.000    0.000    0.000    0.000    0.000 
#    0.000    0.000    0.000    0.000    0.000    0.000 
#
# Total GULP energy -111632.660502 kJ/mol
# GULP energy per Si atom -5581.633025 kJ/mol
# Density = 2.260559 g / cm^3
# Si number density = 22.657159 Si / 1000 Ang^3
#
#
#
# Elastic Constant Matrix: (Units=GPa)
#
#
# Indices 1 2 3 4 5 6 
#
# 1 50.3003 1.4062 10.0982 0.0000 9.4021 0.0000
# 2 1.4062 59.4322 21.9698 0.0000 16.1350 0.0000
# 3 10.0982 21.9698 124.6217 0.0000 29.3926 0.0000
# 4 0.0000 0.0000 0.0000 38.7650 0.0000 6.3839
# 5 9.4021 16.1350 29.3926 0.0000 30.2035 0.0000
# 6 0.0000 0.0000 0.0000 6.3839 0.0000 25.9043
#
#
#
# Elastic Compliance Matrix: (Units=1/GPa)
#
#
# Indices 1 2 3 4 5 6 
#
# 1 0.021233 0.001550 -0.000311 0.000000 -0.007135 0.000000
# 2 0.001550 0.019953 -0.001318 0.000000 -0.009859 0.000000
# 3 -0.000311 -0.001318 0.010504 0.000000 -0.009421 0.000000
# 4 0.000000 0.000000 0.000000 0.026888 0.000000 -0.006626
# 5 -0.007135 -0.009859 -0.009421 0.000000 0.049765 0.000000
# 6 0.000000 0.000000 0.000000 -0.006626 0.000000 0.040237
#
#
# Mechanical properties :
#
#
# Convention : Reuss Voigt Hill
#
# Bulk Modulus (GPa) = 19.40542 33.47804 26.44173
# Shear Modulus (GPa) = 26.89406 32.36656 29.63031
#
# Velocity S-wave (km/s) = 3.44903 3.78370 3.62023
# Velocity P-wave (km/s) = 4.94413 5.82207 5.40097
#
# Compressibility (1/GPa) = 0.05153198
#
# Stress axis : x y z
#
# Youngs Moduli (GPa) = 47.09562 50.11784 95.20372
#
# Poissons Ratio (x) = -0.07766 0.02960
# Poissons Ratio (y) = -0.07298 0.12546
# Poissons Ratio (z) = 0.01464 0.06605
#
# Static dielectric constant tensor:
#      x y z
#    x 1.813670 0.000000 0.040090 
#    y 0.000000 1.806960 0.000000 
#    z 0.040090 0.000000 1.895870 
# 
# From -- ./inp_files/101185.got.cif
#   From: 2010.05.17/outbox.cif.g08.bks.cpg/sg12_51_cif.got.tgz:101185.got - 2010.06.03 13:09:07.
