data_PCOD9220000
_publ_section_title
;
Structure prediction by ZEFSAII (Michael W. Deem and Ramdas Pophale) SiO2 
 PCOD9220000
Probable space group: C 2/M
;
_chemical_formula_sum "Si O2"
_cell_formula_units_Z 56
_cell_length_a 15.272821
_cell_length_b 8.562595
_cell_length_c 25.130897
_cell_angle_alpha 90.000000
_cell_angle_beta 62.998044
_cell_angle_gamma 90.000000
_cell_volume 2928.235385
_symmetry_space_group_name_H-M "C 2/M"
_symmetry_group_IT_number 12
_symmetry_cell_setting 'monoclinic'
loop_
_space_group_symop_operation_xyz
x,y,z
-x,y,-z
-x,-y,-z
x,-y,z
1/2+x,1/2+y,z
1/2-x,1/2+y,-z
1/2-x,1/2-y,-z
1/2+x,1/2-y,z
loop_
_atom_site_type_symbol
_atom_site_label
_atom_site_fract_x
_atom_site_fract_y
_atom_site_fract_z
Si Si1 0.823226 0.187749 0.934327
Si Si2 0.741461 0.312579 0.846818
Si Si3 0.477497 0.690040 0.066394
Si Si4 0.724636 0.311634 0.637473
Si Si5 0.180400 0.186839 0.285776
Si Si6 0.536149 0.688302 0.618271
Si Si7 0.844272 0.687086 0.506350
O O1 0.795145 0.253545 0.884881
O O2 0.932756 0.236061 0.920987
O O3 0.817839 0.000000 0.935236
O O4 0.750000 0.250000 0.000000
O O5 0.742515 0.500000 0.845837
O O6 0.628311 0.258372 0.883929
O O7 0.789469 0.250438 0.779861
O O8 0.475672 0.500000 0.065277
O O9 0.500000 0.743133 0.000000
O O10 0.722562 0.500000 0.641578
O O11 0.743691 0.242260 0.689918
O O12 0.624022 0.263363 0.634847
O O13 0.817090 0.266327 0.574003
O O14 0.070576 0.240801 0.332626
O O15 0.179136 0.000000 0.284568
O O16 0.538056 0.500000 0.616139
O O17 0.563785 0.748558 0.551759
O O18 0.846743 0.500000 0.503710
O O19 0.750000 0.750000 0.500000
#
# Coordination Sequence:
#
# PCOD9220000 Si02
#       7
#     8   8   8   8   8   8   8
#     4  11  21  37  62  90 118 148 185 229 279 335
#     4  11  23  41  61  83 115 153 193 234 281 342
#     4   9  18  36  61  86 114 150 184 217 275 344
#     4   9  19  37  58  81 111 150 192 234 285 344
#     4  11  24  40  57  82 115 152 194 240 286 339
#     4   9  20  38  58  80 114 155 193 234 290 350
#     4   9  17  31  55  85 115 147 190 241 291 342
#
# _framework density 19.124147000000001
#
# number of rings (size 3 to 8) (size 9 to 14) (size 15 to 20)
#    0.000    2.143    1.429    2.571    0.000    5.714 
#    0.000   12.143    0.000    0.000    0.000    0.000 
#    0.000    0.000    0.000    0.000    0.000    0.000 
#
# Total GULP energy -156297.879886 kJ/mol
# GULP energy per Si atom -5582.067139 kJ/mol
# Density = 1.908062 g / cm^3
# Si number density = 19.124147 Si / 1000 Ang^3
#
#
#
# Elastic Constant Matrix: (Units=GPa)
#
#
# Indices 1 2 3 4 5 6 
#
# 1 92.9375 12.4271 31.4626 0.0000 3.4209 0.0000
# 2 12.4271 23.4156 16.0203 0.0000 2.9927 0.0000
# 3 31.4626 16.0203 107.7301 0.0000 9.6355 0.0000
# 4 0.0000 0.0000 0.0000 35.1567 0.0000 3.0927
# 5 3.4209 2.9927 9.6355 0.0000 36.2804 0.0000
# 6 0.0000 0.0000 0.0000 3.0927 0.0000 25.2043
#
#
#
# Elastic Compliance Matrix: (Units=1/GPa)
#
#
# Indices 1 2 3 4 5 6 
#
# 1 0.012362 -0.004553 -0.002932 0.000000 -0.000011 0.000000
# 2 -0.004553 0.049377 -0.005825 0.000000 -0.002097 0.000000
# 3 -0.002932 -0.005825 0.011204 0.000000 -0.002218 0.000000
# 4 0.000000 0.000000 0.000000 0.028754 0.000000 -0.003528
# 5 -0.000011 -0.002097 -0.002218 0.000000 0.028326 0.000000
# 6 0.000000 0.000000 0.000000 -0.003528 0.000000 0.040109
#
#
# Mechanical properties :
#
#
# Convention : Reuss Voigt Hill
#
# Bulk Modulus (GPa) = 21.58874 38.21148 29.90011
# Shear Modulus (GPa) = 23.56347 30.27315 26.91831
#
# Velocity S-wave (km/s) = 3.51398 3.98299 3.75581
# Velocity P-wave (km/s) = 5.27042 6.41688 5.87170
#
# Compressibility (1/GPa) = 0.04632043
#
# Stress axis : x y z
#
# Youngs Moduli (GPa) = 80.89441 20.25255 89.25777
#
# Poissons Ratio (x) = 0.09221 0.26172
# Poissons Ratio (y) = 0.36832 0.51996
# Poissons Ratio (z) = 0.23720 0.11798
#
# Static dielectric constant tensor:
#      x y z
#    x 1.666200 0.000000 -0.016930 
#    y 0.000000 1.677060 0.000000 
#    z -0.016930 0.000000 1.648350 
# 
# From -- ./inp_files/338560.got.cif
#   From: 2010.05.17/outbox.cif.g08.bks.cpg/sg12_170_cif.got.tgz:338560.got - 2010.06.03 13:09:07.
