data_PCOD9220459
_publ_section_title
;
Structure prediction by ZEFSAII (Michael W. Deem and Ramdas Pophale) SiO2 
 PCOD9220459
Probable space group: C 2/M
;
_chemical_formula_sum "Si O2"
_cell_formula_units_Z 56
_cell_length_a 14.060983
_cell_length_b 22.268348
_cell_length_c 9.292198
_cell_angle_alpha 90.000000
_cell_angle_beta 114.721194
_cell_angle_gamma 90.000000
_cell_volume 2642.877619
_symmetry_space_group_name_H-M "C 2/M"
_symmetry_group_IT_number 12
_symmetry_cell_setting 'monoclinic'
loop_
_space_group_symop_operation_xyz
x,y,z
-x,y,-z
-x,-y,-z
x,-y,z
1/2+x,1/2+y,z
1/2-x,1/2+y,-z
1/2-x,1/2-y,-z
1/2+x,1/2-y,z
loop_
_atom_site_type_symbol
_atom_site_label
_atom_site_fract_x
_atom_site_fract_y
_atom_site_fract_z
Si Si1 0.827476 0.817771 0.422182
Si Si2 0.733982 0.068260 0.998063
Si Si3 0.499154 0.072104 0.838044
Si Si4 0.570077 0.220046 0.675980
Si Si5 0.715168 0.693612 0.079169
Si Si6 0.390073 0.245373 0.748071
Si Si7 0.775667 0.567599 0.659570
O O1 0.900897 0.789476 0.345500
O O2 0.708513 0.799559 0.303766
O O3 0.861583 0.784719 0.589084
O O4 0.817467 0.888005 0.439832
O O5 0.722092 0.066955 0.164035
O O6 0.768123 0.000000 0.978305
O O7 0.617155 0.079029 0.859114
O O8 0.797862 0.128417 0.000028
O O9 0.392977 0.088884 0.688394
O O10 0.485765 0.000000 0.844487
O O11 0.500000 0.901000 0.000000
O O12 0.500000 0.196951 0.500000
O O13 0.682302 0.189208 0.753311
O O14 0.501350 0.216639 0.776828
O O15 0.619300 0.714782 0.116086
O O16 0.750000 0.750000 0.000000
O O17 0.758725 0.500000 0.597320
#
# Coordination Sequence:
#
# PCOD9220459 Si02
#       7
#     8   8   8   8   8   8   8
#     4   9  17  32  54  76  96 130 176 215 264 318
#     4   9  17  30  47  71 107 142 170 214 267 316
#     4   7  12  23  39  64  95 129 163 197 248 307
#     4   9  19  36  56  75 102 140 172 219 278 316
#     4  11  22  35  52  82 108 138 186 220 257 320
#     4   9  19  34  51  73 103 134 170 219 265 310
#     4   9  16  28  49  75 102 133 172 217 262 313
#
# _framework density 21.189025999999998
#
# number of rings (size 3 to 8) (size 9 to 14) (size 15 to 20)
#    0.000    3.000    0.000    4.286    2.000    0.571 
#    2.571    0.714    0.000    5.143    0.000    3.000 
#    0.000    0.000    0.000    0.000    0.000    0.000 
#
# Total GULP energy -155911.234329 kJ/mol
# GULP energy per Si atom -5568.258369 kJ/mol
# Density = 2.114080 g / cm^3
# Si number density = 21.189026 Si / 1000 Ang^3
#
#
#
# Elastic Constant Matrix: (Units=GPa)
#
#
# Indices 1 2 3 4 5 6 
#
# 1 82.3400 10.2799 0.7383 0.0000 -15.4962 0.0000
# 2 10.2799 97.6293 0.2488 0.0000 -10.4238 0.0000
# 3 0.7383 0.2488 23.8228 0.0000 4.5125 0.0000
# 4 0.0000 0.0000 0.0000 19.9844 0.0000 1.7894
# 5 -15.4962 -10.4238 4.5125 0.0000 26.3404 0.0000
# 6 0.0000 0.0000 0.0000 1.7894 0.0000 27.2229
#
#
#
# Elastic Compliance Matrix: (Units=1/GPa)
#
#
# Indices 1 2 3 4 5 6 
#
# 1 0.013781 -0.000568 -0.001978 0.000000 0.008221 0.000000
# 2 -0.000568 0.010739 -0.000864 0.000000 0.004063 0.000000
# 3 -0.001978 -0.000864 0.043752 0.000000 -0.009001 0.000000
# 4 0.000000 0.000000 0.000000 0.050335 0.000000 -0.003309
# 5 0.008221 0.004063 -0.009001 0.000000 0.045951 0.000000
# 6 0.000000 0.000000 0.000000 -0.003309 0.000000 0.036951
#
#
# Mechanical properties :
#
#
# Convention : Reuss Voigt Hill
#
# Bulk Modulus (GPa) = 16.27352 25.14737 20.71045
# Shear Modulus (GPa) = 21.85181 27.54454 24.69818
#
# Velocity S-wave (km/s) = 3.21484 3.60938 3.41781
# Velocity P-wave (km/s) = 4.63434 5.40963 5.03692
#
# Compressibility (1/GPa) = 0.06144950
#
# Stress axis : x y z
#
# Youngs Moduli (GPa) = 72.56530 93.12103 22.85614
#
# Poissons Ratio (x) = 0.05291 0.04522
# Poissons Ratio (y) = 0.04123 0.01975
# Poissons Ratio (z) = 0.14357 0.08048
#
# Static dielectric constant tensor:
#      x y z
#    x 1.814350 0.000000 0.013690 
#    y 0.000000 1.839920 0.000000 
#    z 0.013690 0.000000 1.823920 
# 
# From -- ./inp_files/148387.got.cif
#   From: 2010.05.17/outbox.cif.g08.bks.cpg/sg12_75_cif.got.tgz:148387.got - 2010.06.03 13:09:07.
