data_PCOD9220720
_publ_section_title
;
Structure prediction by ZEFSAII (Michael W. Deem and Ramdas Pophale) SiO2 
 PCOD9220720
Probable space group: C 2/M
;
_chemical_formula_sum "Si O2"
_cell_formula_units_Z 44
_cell_length_a 8.595662
_cell_length_b 18.637617
_cell_length_c 17.870326
_cell_angle_alpha 90.000000
_cell_angle_beta 47.288429
_cell_angle_gamma 90.000000
_cell_volume 2103.575531
_symmetry_space_group_name_H-M "C 2/M"
_symmetry_group_IT_number 12
_symmetry_cell_setting 'monoclinic'
loop_
_space_group_symop_operation_xyz
x,y,z
-x,y,-z
-x,-y,-z
x,-y,z
1/2+x,1/2+y,z
1/2-x,1/2+y,-z
1/2-x,1/2-y,-z
1/2+x,1/2-y,z
loop_
_atom_site_type_symbol
_atom_site_label
_atom_site_fract_x
_atom_site_fract_y
_atom_site_fract_z
Si Si1 0.290137 0.000000 0.519685
Si Si2 0.174276 0.000000 0.297314
Si Si3 0.765877 0.116506 0.590028
Si Si4 0.000000 0.624966 0.000000
Si Si5 0.654182 0.154552 0.213098
Si Si6 0.979283 0.262492 0.888496
Si Si7 0.793833 0.000000 0.887786
Si Si8 0.340443 0.500000 0.123853
O O1 0.500000 0.000000 0.500000
O O2 0.269567 0.934266 0.469427
O O3 0.076732 0.000000 0.637080
O O4 0.221431 0.931988 0.337145
O O5 0.261995 0.000000 0.183357
O O6 0.544773 0.158193 0.666343
O O7 0.000000 0.150108 0.500000
O O8 0.919559 0.676773 0.091411
O O9 0.812410 0.570572 0.041407
O O10 0.567722 0.200718 0.173285
O O11 0.705560 0.073251 0.170401
O O12 0.872230 0.193301 0.165615
O O13 0.750000 0.250000 0.000000
O O14 0.031236 0.000000 0.839576
O O15 0.500000 0.500000 0.000000
#
# Coordination Sequence:
#
# PCOD9220720 Si02
#       8
#     4   4   8   4   8   8   4   4
#     4   9  18  34  63  98 136 168 211 281 348 406
#     4   9  18  35  61  92 137 173 208 281 347 402
#     4   9  20  41  62  94 133 176 222 277 348 403
#     4  11  22  38  60  89 138 172 218 273 328 388
#     4  12  25  42  71  92 135 181 229 272 345 402
#     4  12  23  43  64  94 133 186 224 263 334 417
#     4  11  23  35  62 102 128 167 230 282 320 386
#     4  12  25  40  62 101 137 170 227 293 329 390
#
# _framework density 20.916767
#
# number of rings (size 3 to 8) (size 9 to 14) (size 15 to 20)
#    0.000    1.273    1.818    6.545    2.545    2.182 
#    0.000    0.909    0.000    0.000    0.000    0.000 
#    0.000    0.000    0.000    0.000    0.000    0.000 
#
# Total GULP energy -122671.558235 kJ/mol
# GULP energy per Si atom -5575.979920 kJ/mol
# Density = 2.086916 g / cm^3
# Si number density = 20.916767 Si / 1000 Ang^3
#
#
#
# Elastic Constant Matrix: (Units=GPa)
#
#
# Indices 1 2 3 4 5 6 
#
# 1 92.8718 26.1628 29.0446 0.0000 -19.4653 -0.0001
# 2 26.1628 100.2187 36.1495 0.0000 -22.2371 0.0000
# 3 29.0446 36.1495 109.0798 0.0000 -28.7422 0.0000
# 4 0.0000 0.0000 0.0000 10.8862 0.0000 -3.2694
# 5 -19.4653 -22.2371 -28.7422 0.0000 47.0164 0.0000
# 6 -0.0001 0.0000 0.0000 -3.2694 0.0000 -0.9178
#
#
#
# Elastic Compliance Matrix: (Units=1/GPa)
#
#
# Indices 1 2 3 4 5 6 
#
# 1 0.012551 -0.001899 -0.001883 0.000000 0.003147 0.000000
# 2 -0.001899 0.012172 -0.002644 0.000000 0.003354 0.000000
# 3 -0.001883 -0.002644 0.011933 0.000000 0.005264 0.000000
# 4 0.000000 0.000000 0.000000 0.044381 0.000000 -0.158091
# 5 0.003147 0.003354 0.005264 0.000000 0.027376 0.000000
# 6 0.000000 0.000000 0.000000 -0.158091 0.000000 -0.526399
#
#
# Mechanical properties :
#
#
# Convention : Reuss Voigt Hill
#
# Bulk Modulus (GPa) = 42.01341 53.87603 47.94472
# Shear Modulus (GPa) = -12.58817 25.45118 6.43151
#
# Velocity S-wave (km/s) = -2.45587 3.49203 1.75542
# Velocity P-wave (km/s) = 3.47676 6.48631 5.20385
#
# Compressibility (1/GPa) = 0.02380192
#
# Stress axis : x y z
#
# Youngs Moduli (GPa) = 79.67465 82.15574 83.80421
#
# Poissons Ratio (x) = 0.15601 0.15784
# Poissons Ratio (y) = 0.15130 0.22161
# Poissons Ratio (z) = 0.15007 0.21725
#
# Static dielectric constant tensor:
#      x y z
#    x 1.784080 0.000000 0.163220 
#    y 0.000000 1.785610 0.000000 
#    z 0.163220 0.000000 0.649420 
# 
# From -- ./inp_files/256915.got.cif
#   From: 2010.05.17/outbox.cif.g08.bks.cpg/sg12_129_cif.got.tgz:256915.got - 2010.06.03 13:09:07.
