data_PCOD9220782
_publ_section_title
;
Structure prediction by ZEFSAII (Michael W. Deem and Ramdas Pophale) SiO2 
 PCOD9220782
Probable space group: C 2/M
;
_chemical_formula_sum "Si O2"
_cell_formula_units_Z 64
_cell_length_a 15.183751
_cell_length_b 8.227770
_cell_length_c 34.489228
_cell_angle_alpha 90.000000
_cell_angle_beta 46.102754
_cell_angle_gamma 90.000000
_cell_volume 3104.770972
_symmetry_space_group_name_H-M "C 2/M"
_symmetry_group_IT_number 12
_symmetry_cell_setting 'monoclinic'
loop_
_space_group_symop_operation_xyz
x,y,z
-x,y,-z
-x,-y,-z
x,-y,z
1/2+x,1/2+y,z
1/2-x,1/2+y,-z
1/2-x,1/2-y,-z
1/2+x,1/2-y,z
loop_
_atom_site_type_symbol
_atom_site_label
_atom_site_fract_x
_atom_site_fract_y
_atom_site_fract_z
Si Si1 0.246893 0.311862 0.606527
Si Si2 0.101407 0.309801 0.374178
Si Si3 0.801648 0.195999 0.888857
Si Si4 0.706111 0.698927 0.197272
Si Si5 0.639341 0.805188 0.506383
Si Si6 0.360415 0.195959 0.994394
Si Si7 0.022063 0.191069 0.318894
Si Si8 0.478763 0.196769 0.122718
O O1 0.264407 0.500000 0.609351
O O2 0.281591 0.215043 0.634586
O O3 0.333546 0.260717 0.544545
O O4 0.107665 0.278334 0.636999
O O5 0.083609 0.500000 0.371478
O O6 0.099706 0.218222 0.334124
O O7 0.986328 0.251033 0.435246
O O8 0.807405 0.254467 0.843013
O O9 0.683281 0.253629 0.949964
O O10 0.922348 0.240885 0.876579
O O11 0.794214 0.000000 0.889630
O O12 0.704392 0.500000 0.197826
O O13 0.598667 0.751965 0.258649
O O14 0.839855 0.748750 0.171682
O O15 0.750000 0.750000 0.500000
O O16 0.637032 0.000000 0.504632
O O17 0.366083 0.000000 0.994759
O O18 0.250000 0.250000 0.000000
O O19 0.478603 0.248059 0.933823
O O20 0.997342 0.000000 0.321783
O O21 0.483098 0.000000 0.122515
#
# Coordination Sequence:
#
# PCOD9220782 Si02
#       8
#     8   8   8   8   8   8   8   8
#     4  12  25  41  63  91 121 156 196 238 287 344
#     4  11  24  42  64  91 120 153 193 237 287 345
#     4   9  17  32  52  77 108 141 180 223 276 335
#     4   9  20  36  55  79 107 142 186 234 280 332
#     4  11  22  38  64  94 127 158 190 233 286 342
#     4   8  14  25  47  75 104 138 173 218 272 332
#     4  11  23  41  61  82 114 154 197 246 294 339
#     4   9  17  32  52  77 108 140 179 225 278 334
#
# _framework density 20.613437999999999
#
# number of rings (size 3 to 8) (size 9 to 14) (size 15 to 20)
#    0.000    2.000    1.250    2.625    0.000    4.500 
#    0.000    8.125    0.000    0.000    0.000    8.750 
#    0.000    0.000    0.000    0.000    0.000    0.000 
#
# Total GULP energy -178657.340273 kJ/mol
# GULP energy per Si atom -5583.041884 kJ/mol
# Density = 2.056652 g / cm^3
# Si number density = 20.613438 Si / 1000 Ang^3
#
#
#
# Elastic Constant Matrix: (Units=GPa)
#
#
# Indices 1 2 3 4 5 6 
#
# 1 41.4586 -12.4758 -6.8015 0.0002 11.5454 0.0000
# 2 -12.4758 17.3101 8.1514 0.0010 -7.5024 0.0026
# 3 -6.8015 8.1514 88.1473 -0.0001 9.4690 -0.0008
# 4 0.0002 0.0010 -0.0001 14.7734 0.0000 3.5345
# 5 11.5454 -7.5024 9.4690 0.0000 18.5136 -0.0004
# 6 0.0000 0.0026 -0.0008 3.5345 -0.0004 22.3886
#
#
#
# Elastic Compliance Matrix: (Units=1/GPa)
#
#
# Indices 1 2 3 4 5 6 
#
# 1 0.033920 0.016139 0.002851 -0.000001 -0.016072 -0.000002
# 2 0.016139 0.087395 -0.010116 -0.000004 0.030525 -0.000009
# 3 0.002851 -0.010116 0.013895 0.000000 -0.012984 0.000001
# 4 -0.000001 -0.000004 0.000000 0.070346 -0.000002 -0.011106
# 5 -0.016072 0.030525 -0.012984 -0.000002 0.083047 -0.000002
# 6 -0.000002 -0.000009 0.000001 -0.011106 -0.000002 0.046419
#
#
# Mechanical properties :
#
#
# Convention : Reuss Voigt Hill
#
# Bulk Modulus (GPa) = 6.53768 13.85158 10.19463
# Shear Modulus (GPa) = 13.57740 21.67126 17.62433
#
# Velocity S-wave (km/s) = 2.56924 3.24592 2.92720
# Velocity P-wave (km/s) = 3.46118 4.55876 4.04735
#
# Compressibility (1/GPa) = 0.15295951
#
# Stress axis : x y z
#
# Youngs Moduli (GPa) = 29.48076 11.44236 71.96908
#
# Poissons Ratio (x) = -0.18467 -0.20521
# Poissons Ratio (y) = -0.47579 0.72800
# Poissons Ratio (z) = -0.08406 0.11575
#
# Static dielectric constant tensor:
#      x y z
#    x 1.707630 0.000000 -0.004690 
#    y 0.000000 1.734830 0.000000 
#    z -0.004690 0.000000 1.748880 
# 
# From -- ./inp_files/375391.got.cif
#   From: 2010.05.17/outbox.cif.g08.bks.cpg/sg12_188_cif.got.tgz:375391.got - 2010.06.03 13:09:07.
