data_PCOD9220027
_publ_section_title
;
Structure prediction by ZEFSAII (Michael W. Deem and Ramdas Pophale) SiO2 
 PCOD9220027
Probable space group: C 2/M
;
_chemical_formula_sum "Si O2"
_cell_formula_units_Z 48
_cell_length_a 23.179788
_cell_length_b 14.429248
_cell_length_c 24.098042
_cell_angle_alpha 90.000000
_cell_angle_beta 18.304982
_cell_angle_gamma 90.000000
_cell_volume 2531.443834
_symmetry_space_group_name_H-M "C 2/M"
_symmetry_group_IT_number 12
_symmetry_cell_setting 'monoclinic'
loop_
_space_group_symop_operation_xyz
x,y,z
-x,y,-z
-x,-y,-z
x,-y,z
1/2+x,1/2+y,z
1/2-x,1/2+y,-z
1/2-x,1/2-y,-z
1/2+x,1/2-y,z
loop_
_atom_site_type_symbol
_atom_site_label
_atom_site_fract_x
_atom_site_fract_y
_atom_site_fract_z
Si Si1 0.051596 0.200842 0.803729
Si Si2 0.568204 0.394396 0.378434
Si Si3 0.908998 0.826631 0.355725
Si Si4 0.298561 0.902654 0.359891
Si Si5 0.821766 0.259415 0.799418
Si Si6 0.922499 0.389153 0.508263
O O1 0.034516 0.153033 0.758705
O O2 0.089540 0.309594 0.754680
O O3 0.223113 0.156739 0.679716
O O4 0.867574 0.197882 0.007217
O O5 0.500000 0.359077 0.500000
O O6 0.640077 0.500000 0.318233
O O7 0.378519 0.398482 0.517839
O O8 0.698241 0.324022 0.226969
O O9 0.750000 0.750000 0.500000
O O10 0.798929 0.902532 0.491077
O O11 0.072568 0.785514 0.244175
O O12 0.400190 0.000000 0.258279
O O13 0.947433 0.335990 0.654450
O O14 0.915566 0.500000 0.504868
O O15 0.000000 0.375005 0.500000
#
# Coordination Sequence:
#
# PCOD9220027 Si02
#       6
#     8   8   8   8   8   8
#     4  11  22  38  62  90 121 154 198 254 307 362
#     4   9  17  33  57  83 119 159 190 225 282 357
#     4   9  17  37  59  86 120 157 192 237 294 361
#     4   9  18  33  56  85 119 156 188 228 289 362
#     4  11  21  37  64  91 119 153 198 248 308 361
#     4  11  25  45  63  83 117 161 212 264 310 357
#
# _framework density 18.961511000000002
#
# number of rings (size 3 to 8) (size 9 to 14) (size 15 to 20)
#    0.000    2.000    5.000    1.000    0.000    2.667 
#    0.000    1.667    0.000    7.000    0.000    0.000 
#    0.000    0.000    0.000    0.000    0.000    0.000 
#
# Total GULP energy -133693.902457 kJ/mol
# GULP energy per Si atom -5570.579269 kJ/mol
# Density = 1.891835 g / cm^3
# Si number density = 18.961511 Si / 1000 Ang^3
#
#
#
# Elastic Constant Matrix: (Units=GPa)
#
#
# Indices 1 2 3 4 5 6 
#
# 1 101.2440 22.0817 38.7370 0.0039 13.5959 0.0096
# 2 22.0817 81.0355 16.2402 0.0145 -8.0744 0.0112
# 3 38.7370 16.2402 120.6774 0.0068 2.2825 0.0050
# 4 0.0039 0.0145 0.0068 20.3614 0.0026 27.7365
# 5 13.5959 -8.0744 2.2825 0.0026 17.2118 0.0004
# 6 0.0096 0.0112 0.0050 27.7365 0.0004 95.3923
#
#
#
# Elastic Compliance Matrix: (Units=1/GPa)
#
#
# Indices 1 2 3 4 5 6 
#
# 1 0.013888 -0.004300 -0.003643 0.000007 -0.012505 -0.000003
# 2 -0.004300 0.014708 -0.000796 -0.000015 0.010402 0.000003
# 3 -0.003643 -0.000796 0.009540 -0.000003 0.001239 0.000001
# 4 0.000007 -0.000015 -0.000003 0.081322 -0.000024 -0.023645
# 5 -0.012505 0.010402 0.001239 -0.000024 0.072693 0.000007
# 6 -0.000003 0.000003 0.000001 -0.023645 0.000007 0.017358
#
#
# Mechanical properties :
#
#
# Convention : Reuss Voigt Hill
#
# Bulk Modulus (GPa) = 48.40742 50.78606 49.59674
# Shear Modulus (GPa) = 21.37912 41.65298 31.51605
#
# Velocity S-wave (km/s) = 3.36147 4.69199 4.08132
# Velocity P-wave (km/s) = 6.37579 7.49633 6.95865
#
# Compressibility (1/GPa) = 0.02065799
#
# Stress axis : x y z
#
# Youngs Moduli (GPa) = 72.00435 67.98995 104.82717
#
# Poissons Ratio (x) = 0.29238 0.38186
# Poissons Ratio (y) = 0.30964 0.08341
# Poissons Ratio (z) = 0.26230 0.05410
#
# Static dielectric constant tensor:
#      x y z
#    x 1.711570 -0.000100 0.029230 
#    y -0.000100 1.480040 -0.000050 
#    z 0.029230 -0.000050 1.626210 
# 
# From -- ./inp_files/349612.got.cif
#   From: 2010.05.17/outbox.cif.g08.bks.cpg/sg12_175_cif.got.tgz:349612.got - 2010.06.03 13:09:07.
