data_PCOD9220747
_publ_section_title
;
Structure prediction by ZEFSAII (Michael W. Deem and Ramdas Pophale) SiO2 
 PCOD9220747
Probable space group: C 2/M
;
_chemical_formula_sum "Si O2"
_cell_formula_units_Z 64
_cell_length_a 18.339224
_cell_length_b 18.839401
_cell_length_c 14.451706
_cell_angle_alpha 90.000000
_cell_angle_beta 40.038370
_cell_angle_gamma 90.000000
_cell_volume 3212.040655
_symmetry_space_group_name_H-M "C 2/M"
_symmetry_group_IT_number 12
_symmetry_cell_setting 'monoclinic'
loop_
_space_group_symop_operation_xyz
x,y,z
-x,y,-z
-x,-y,-z
x,-y,z
1/2+x,1/2+y,z
1/2-x,1/2+y,-z
1/2-x,1/2-y,-z
1/2+x,1/2-y,z
loop_
_atom_site_type_symbol
_atom_site_label
_atom_site_fract_x
_atom_site_fract_y
_atom_site_fract_z
Si Si1 0.661361 0.652187 0.320316
Si Si2 0.652343 0.583153 0.516693
Si Si3 0.909629 0.084354 0.806068
Si Si4 0.870051 0.319051 0.608829
Si Si5 0.168449 0.316775 0.569135
Si Si6 0.223925 0.825681 0.918205
Si Si7 0.383057 0.081590 0.058686
Si Si8 0.414047 0.803708 0.881971
O O1 0.611354 0.610175 0.455941
O O2 0.627751 0.625884 0.250797
O O3 0.637471 0.734405 0.361627
O O4 0.792871 0.630159 0.198921
O O5 0.672478 0.500000 0.491236
O O6 0.544087 0.597445 0.687427
O O7 0.765118 0.621471 0.441861
O O8 0.893553 0.000000 0.808855
O O9 0.838481 0.114762 0.960489
O O10 0.844174 0.332883 0.527134
O O11 0.774458 0.349366 0.770975
O O12 0.000000 0.341864 0.500000
O O13 0.250000 0.250000 0.500000
O O14 0.045152 0.297297 0.728908
O O15 0.335375 0.801370 0.867654
O O16 0.137559 0.758531 0.002891
O O17 0.343624 0.000000 0.089117
O O18 0.500000 0.081870 0.000000
O O19 0.398823 0.120296 0.945650
#
# Coordination Sequence:
#
# PCOD9220747 Si02
#       8
#     8   8   8   8   8   8   8   8
#     4  12  21  37  64  97 132 166 203 259 325 393
#     4  11  24  42  63  95 134 171 211 264 323 387
#     4  11  23  41  67  96 129 170 215 263 322 389
#     4  12  24  42  67  95 129 168 214 269 315 378
#     4  12  25  42  64  94 128 173 218 262 318 381
#     4  11  22  41  63  93 122 165 216 269 308 369
#     4  11  23  37  56  91 134 170 201 249 323 391
#     4  11  22  38  62  88 128 169 211 257 314 372
#
# _framework density 19.925027
#
# number of rings (size 3 to 8) (size 9 to 14) (size 15 to 20)
#    0.000    0.625    5.000    4.500    0.000    2.500 
#    0.000    2.500    0.000    2.250    0.000    0.000 
#    0.000    0.000    0.000    0.000    0.000    0.000 
#
# Total GULP energy -178810.243122 kJ/mol
# GULP energy per Si atom -5587.820098 kJ/mol
# Density = 1.987968 g / cm^3
# Si number density = 19.925027 Si / 1000 Ang^3
#
#
#
# Elastic Constant Matrix: (Units=GPa)
#
#
# Indices 1 2 3 4 5 6 
#
# 1 85.7806 16.1461 39.6535 0.0000 4.4483 0.0000
# 2 16.1461 61.1338 16.2720 0.0000 0.5354 0.0000
# 3 39.6535 16.2720 146.6120 0.0000 -4.9962 0.0000
# 4 0.0000 0.0000 0.0000 24.4008 0.0000 -2.3594
# 5 4.4483 0.5354 -4.9962 0.0000 38.1847 0.0000
# 6 0.0000 0.0000 0.0000 -2.3594 0.0000 21.0698
#
#
#
# Elastic Compliance Matrix: (Units=1/GPa)
#
#
# Indices 1 2 3 4 5 6 
#
# 1 0.013906 -0.002715 -0.003529 0.000000 -0.002044 0.000000
# 2 -0.002715 0.017395 -0.001199 0.000000 -0.000084 0.000000
# 3 -0.003529 -0.001199 0.007958 0.000000 0.001469 0.000000
# 4 0.000000 0.000000 0.000000 0.041431 0.000000 0.004639
# 5 -0.002044 -0.000084 0.001469 0.000000 0.026620 0.000000
# 6 0.000000 0.000000 0.000000 0.004639 0.000000 0.047981
#
#
# Mechanical properties :
#
#
# Convention : Reuss Voigt Hill
#
# Bulk Modulus (GPa) = 41.03148 48.62996 44.83072
# Shear Modulus (GPa) = 28.04220 31.49471 29.76846
#
# Velocity S-wave (km/s) = 3.75558 3.98007 3.86945
# Velocity P-wave (km/s) = 6.28041 6.75135 6.52013
#
# Compressibility (1/GPa) = 0.02437153
#
# Stress axis : x y z
#
# Youngs Moduli (GPa) = 71.90993 57.48898 125.65253
#
# Poissons Ratio (x) = 0.15611 0.44348
# Poissons Ratio (y) = 0.19527 0.15066
# Poissons Ratio (z) = 0.25380 0.06893
#
# Static dielectric constant tensor:
#      x y z
#    x 1.570590 0.000000 0.011700 
#    y 0.000000 1.704320 0.000000 
#    z 0.011700 0.000000 1.761950 
# 
# From -- ./inp_files/226816.got.cif
#   From: 2010.05.17/outbox.cif.g08.bks.cpg/sg12_114_cif.got.tgz:226816.got - 2010.06.03 13:09:07.
