data_PCOD9220746
_publ_section_title
;
Structure prediction by ZEFSAII (Michael W. Deem and Ramdas Pophale) SiO2 
 PCOD9220746
Probable space group: C 2/M
;
_chemical_formula_sum "Si O2"
_cell_formula_units_Z 36
_cell_length_a 7.053478
_cell_length_b 15.068957
_cell_length_c 18.325818
_cell_angle_alpha 90.000000
_cell_angle_beta 136.056041
_cell_angle_gamma 90.000000
_cell_volume 1351.701654
_symmetry_space_group_name_H-M "C 2/M"
_symmetry_group_IT_number 12
_symmetry_cell_setting 'monoclinic'
loop_
_space_group_symop_operation_xyz
x,y,z
-x,y,-z
-x,-y,-z
x,-y,z
1/2+x,1/2+y,z
1/2-x,1/2+y,-z
1/2-x,1/2-y,-z
1/2+x,1/2-y,z
loop_
_atom_site_type_symbol
_atom_site_label
_atom_site_fract_x
_atom_site_fract_y
_atom_site_fract_z
Si Si1 0.811944 0.396580 0.019603
Si Si2 0.169817 0.848708 0.753648
Si Si3 0.310226 0.351463 0.797259
Si Si4 0.242784 0.856205 0.481151
Si Si5 0.596258 0.000000 0.352660
O O1 0.740290 0.500000 0.004755
O O2 0.019053 0.372233 0.141130
O O3 0.531572 0.346444 0.923953
O O4 0.000000 0.383973 0.000000
O O5 0.169429 0.742825 0.748861
O O6 0.982037 0.875064 0.770997
O O7 0.023857 0.882786 0.640310
O O8 0.084231 0.424672 0.740664
O O9 0.500000 0.872373 0.500000
O O10 0.250000 0.750000 0.500000
O O11 0.281655 0.920886 0.559494
#
# Coordination Sequence:
#
# PCOD9220746 Si02
#       5
#     8   8   8   8   4
#     4   9  19  33  60  92 115 148 201 250 292 350
#     4  11  22  38  62  88 119 155 197 248 293 356
#     4  11  22  40  64  86 121 154 201 244 306 348
#     4  12  24  40  63  89 122 159 202 244 295 354
#     4  12  23  38  64  88 121 158 204 242 296 353
#
# _framework density 26.633099000000001
#
# number of rings (size 3 to 8) (size 9 to 14) (size 15 to 20)
#    0.000    1.111    5.556    1.000    3.111    0.000 
#    0.000    0.556    2.444    1.333    0.000    0.000 
#    0.000    0.000    0.000    0.000    0.000    0.000 
#
# Total GULP energy -100487.571607 kJ/mol
# GULP energy per Si atom -5582.642867 kJ/mol
# Density = 2.657248 g / cm^3
# Si number density = 26.633099 Si / 1000 Ang^3
#
#
#
# Elastic Constant Matrix: (Units=GPa)
#
#
# Indices 1 2 3 4 5 6 
#
# 1 119.8319 7.2598 53.8323 0.0001 2.9755 0.0000
# 2 7.2598 71.0085 36.9552 0.0000 -7.4206 0.0000
# 3 53.8323 36.9552 254.9593 0.0003 -6.4206 0.0001
# 4 0.0001 0.0000 0.0003 62.3551 0.0001 13.2547
# 5 2.9755 -7.4206 -6.4206 0.0001 42.2214 0.0000
# 6 0.0000 0.0000 0.0001 13.2547 0.0000 -13.7605
#
#
#
# Elastic Compliance Matrix: (Units=1/GPa)
#
#
# Indices 1 2 3 4 5 6 
#
# 1 0.009258 -0.000018 -0.001976 0.000000 -0.000956 0.000000
# 2 -0.000018 0.015468 -0.002178 0.000000 0.002389 0.000000
# 3 -0.001976 -0.002178 0.004667 0.000000 0.000466 0.000000
# 4 0.000000 0.000000 0.000000 0.013312 0.000000 0.012822
# 5 -0.000956 0.002389 0.000466 0.000000 0.024243 0.000000
# 6 0.000000 0.000000 0.000000 0.012822 0.000000 -0.060321
#
#
# Mechanical properties :
#
#
# Convention : Reuss Voigt Hill
#
# Bulk Modulus (GPa) = 47.51046 71.32158 59.41602
# Shear Modulus (GPa) = 227.41794 41.34669 134.38232
#
# Velocity S-wave (km/s) = 9.25065 3.94440 7.11101
# Velocity P-wave (km/s) = 11.48813 6.89795 9.47520
#
# Compressibility (1/GPa) = 0.02104800
#
# Stress axis : x y z
#
# Youngs Moduli (GPa) = 108.01947 64.65048 214.27627
#
# Poissons Ratio (x) = 0.00116 0.42344
# Poissons Ratio (y) = 0.00194 0.46670
# Poissons Ratio (z) = 0.21346 0.14081
#
# Static dielectric constant tensor:
#      x y z
#    x 2.216130 0.000000 -0.050020 
#    y 0.000000 1.915060 0.000000 
#    z -0.050020 0.000000 2.087100 
# 
# From -- ./inp_files/240832.got.cif
#   From: 2010.05.17/outbox.cif.g08.bks.cpg/sg12_121_cif.got.tgz:240832.got - 2010.06.03 13:09:07.
