data_PCOD9220093
_publ_section_title
;
Structure prediction by ZEFSAII (Michael W. Deem and Ramdas Pophale) SiO2 
 PCOD9220093
Probable space group: C 2/M
;
_chemical_formula_sum "Si O2"
_cell_formula_units_Z 56
_cell_length_a 20.837829
_cell_length_b 8.203544
_cell_length_c 18.193385
_cell_angle_alpha 90.000000
_cell_angle_beta 62.896468
_cell_angle_gamma 90.000000
_cell_volume 2768.519758
_symmetry_space_group_name_H-M "C 2/M"
_symmetry_group_IT_number 12
_symmetry_cell_setting 'monoclinic'
loop_
_space_group_symop_operation_xyz
x,y,z
-x,y,-z
-x,-y,-z
x,-y,z
1/2+x,1/2+y,z
1/2-x,1/2+y,-z
1/2-x,1/2-y,-z
1/2+x,1/2-y,z
loop_
_atom_site_type_symbol
_atom_site_label
_atom_site_fract_x
_atom_site_fract_y
_atom_site_fract_z
Si Si1 0.664975 0.699166 0.783199
Si Si2 0.072852 0.192981 0.691672
Si Si3 0.912988 0.306584 0.751301
Si Si4 0.828992 0.804274 0.933731
Si Si5 0.081820 0.800990 0.971613
Si Si6 0.827130 0.693752 0.490608
Si Si7 0.326803 0.199542 0.656976
O O1 0.664326 0.500000 0.784089
O O2 0.613740 0.755076 0.743223
O O3 0.633039 0.752205 0.877918
O O4 0.746798 0.749268 0.724619
O O5 0.111275 0.259732 0.598949
O O6 0.988552 0.230461 0.735674
O O7 0.083269 0.000000 0.685733
O O8 0.923347 0.500000 0.741262
O O9 0.852935 0.268930 0.843731
O O10 0.884807 0.246424 0.686927
O O11 0.831204 0.000000 0.927499
O O12 0.750000 0.750000 0.000000
O O13 0.885446 0.750855 0.967443
O O14 0.081259 0.000000 0.971814
O O15 0.000000 0.747295 0.000000
O O16 0.824266 0.500000 0.497156
O O17 0.750000 0.750000 0.500000
O O18 0.839227 0.756532 0.567188
O O19 0.327784 0.000000 0.656569
#
# Coordination Sequence:
#
# PCOD9220093 Si02
#       7
#     8   8   8   8   8   8   8
#     4   9  16  31  56  82 108 147 198 239 277 342
#     4  11  22  38  61  88 121 155 192 243 300 351
#     4  11  23  40  61  86 118 156 201 244 290 349
#     4  11  22  38  61  87 118 155 196 243 297 351
#     4   9  17  30  53  83 110 145 196 240 276 336
#     4  11  21  38  62  89 118 151 197 243 294 351
#     4   9  19  36  59  83 110 154 202 239 280 354
#
# _framework density 20.227416000000002
#
# number of rings (size 3 to 8) (size 9 to 14) (size 15 to 20)
#    0.000    1.857    1.429    3.429    0.000    5.143 
#    0.000    5.714    0.000   10.286    0.000    0.000 
#    0.000    0.000    0.000    0.000    0.000    0.000 
#
# Total GULP energy -156459.037615 kJ/mol
# GULP energy per Si atom -5587.822772 kJ/mol
# Density = 2.018138 g / cm^3
# Si number density = 20.227416 Si / 1000 Ang^3
#
#
#
# Elastic Constant Matrix: (Units=GPa)
#
#
# Indices 1 2 3 4 5 6 
#
# 1 61.2192 -6.4128 -20.0814 0.0000 15.9050 0.0001
# 2 -6.4128 13.9287 -5.5582 0.0000 6.6830 0.0005
# 3 -20.0814 -5.5582 67.3972 0.0000 15.9946 0.0000
# 4 0.0000 0.0000 0.0000 25.3176 0.0000 -4.8635
# 5 15.9050 6.6830 15.9946 0.0000 39.6215 0.0000
# 6 0.0001 0.0005 0.0000 -4.8635 0.0000 23.9834
#
#
#
# Elastic Compliance Matrix: (Units=1/GPa)
#
#
# Indices 1 2 3 4 5 6 
#
# 1 0.033859 0.036765 0.019705 0.000000 -0.027748 -0.000001
# 2 0.036765 0.125516 0.032993 -0.000001 -0.049248 -0.000003
# 3 0.019705 0.032993 0.029449 0.000000 -0.025363 -0.000001
# 4 0.000000 -0.000001 0.000000 0.041099 0.000000 0.008334
# 5 -0.027748 -0.049248 -0.025363 0.000000 0.054923 0.000001
# 6 -0.000001 -0.000003 -0.000001 0.008334 0.000001 0.043386
#
#
# Mechanical properties :
#
#
# Convention : Reuss Voigt Hill
#
# Bulk Modulus (GPa) = 2.71923 8.71559 5.71741
# Shear Modulus (GPa) = 18.39001 29.42434 23.90717
#
# Velocity S-wave (km/s) = 3.01850 3.81816 3.44163
# Velocity P-wave (km/s) = 3.67365 4.87401 4.31577
#
# Compressibility (1/GPa) = 0.36775108
#
# Stress axis : x y z
#
# Youngs Moduli (GPa) = 29.53439 7.96713 33.95719
#
# Poissons Ratio (x) = -0.29291 -0.66914
# Poissons Ratio (y) = -1.08584 -1.12035
# Poissons Ratio (z) = -0.58199 -0.26286
#
# Static dielectric constant tensor:
#      x y z
#    x 1.700180 0.000000 0.023560 
#    y 0.000000 1.719350 0.000000 
#    z 0.023560 0.000000 1.694020 
# 
# From -- ./inp_files/280864.got.cif
#   From: 2010.05.17/outbox.cif.g08.bks.cpg/sg12_141_cif.got.tgz:280864.got - 2010.06.03 13:09:07.
