data_PCOD9220079
_publ_section_title
;
Structure prediction by ZEFSAII (Michael W. Deem and Ramdas Pophale) SiO2 
 PCOD9220079
Probable space group: C 2/M
;
_chemical_formula_sum "Si O2"
_cell_formula_units_Z 56
_cell_length_a 10.007097
_cell_length_b 20.643658
_cell_length_c 16.118248
_cell_angle_alpha 90.000000
_cell_angle_beta 98.656625
_cell_angle_gamma 90.000000
_cell_volume 3291.825227
_symmetry_space_group_name_H-M "C 2/M"
_symmetry_group_IT_number 12
_symmetry_cell_setting 'monoclinic'
loop_
_space_group_symop_operation_xyz
x,y,z
-x,y,-z
-x,-y,-z
x,-y,z
1/2+x,1/2+y,z
1/2-x,1/2+y,-z
1/2-x,1/2-y,-z
1/2+x,1/2-y,z
loop_
_atom_site_type_symbol
_atom_site_label
_atom_site_fract_x
_atom_site_fract_y
_atom_site_fract_z
Si Si1 0.245221 0.122414 0.337789
Si Si2 0.073336 0.873164 0.659455
Si Si3 0.144596 0.500000 0.555553
Si Si4 0.138225 0.744737 0.561484
Si Si5 0.189770 0.922344 0.149647
Si Si6 0.654457 0.921377 0.001705
Si Si7 0.381998 0.577839 0.156237
Si Si8 0.364354 0.500000 0.434164
O O1 0.317249 0.187671 0.373078
O O2 0.235739 0.112020 0.238399
O O3 0.090303 0.122485 0.356487
O O4 0.323749 0.062610 0.386096
O O5 0.119045 0.810007 0.613398
O O6 0.115843 0.880488 0.759455
O O7 0.133779 0.935901 0.620472
O O8 0.245694 0.500000 0.488150
O O9 0.000000 0.500000 0.500000
O O10 0.250000 0.750000 0.500000
O O11 0.000000 0.730296 0.500000
O O12 0.027887 0.912653 0.125698
O O13 0.208517 0.000000 0.162353
O O14 0.275991 0.901102 0.078221
O O15 0.756881 0.904838 0.085737
O O16 0.650595 0.000000 0.999243
O O17 0.500000 0.898827 0.000000
O O18 0.374833 0.500000 0.175151
O O19 0.500000 0.500000 0.500000
#
# Coordination Sequence:
#
# PCOD9220079 Si02
#       8
#     8   8   4   8   8   8   8   4
#     4  11  21  39  60  82 116 148 195 243 285 340
#     4  11  21  38  60  87 108 150 200 241 281 338
#     4  12  24  38  54  87 116 143 185 244 303 336
#     4  12  24  41  58  80 115 155 199 236 287 347
#     4   9  17  32  57  82 108 147 186 229 277 333
#     4   9  17  31  49  80 122 150 171 214 283 349
#     4   9  17  32  56  84 110 140 189 232 274 334
#     4  12  20  36  64  79 110 147 191 240 291 336
#
# _framework density 17.011838999999998
#
# number of rings (size 3 to 8) (size 9 to 14) (size 15 to 20)
#    0.000    1.571    4.286    2.143    0.000    1.714 
#    5.143    0.000    0.000    0.857    0.000    0.000 
#    0.000    0.000    0.000    0.000    0.000    0.000 
#
# Total GULP energy -156243.805595 kJ/mol
# GULP energy per Si atom -5580.135914 kJ/mol
# Density = 1.697312 g / cm^3
# Si number density = 17.011839 Si / 1000 Ang^3
#
#
#
# Elastic Constant Matrix: (Units=GPa)
#
#
# Indices 1 2 3 4 5 6 
#
# 1 131.6276 22.5390 74.0598 0.0000 19.0011 0.0000
# 2 22.5390 68.9163 31.0455 0.0000 18.6593 0.0000
# 3 74.0598 31.0455 105.3647 0.0000 13.6877 0.0000
# 4 0.0000 0.0000 0.0000 22.8111 0.0000 -0.8919
# 5 19.0011 18.6593 13.6877 0.0000 23.7363 0.0000
# 6 0.0000 0.0000 0.0000 -0.8919 0.0000 19.8409
#
#
#
# Elastic Compliance Matrix: (Units=1/GPa)
#
#
# Indices 1 2 3 4 5 6 
#
# 1 0.013342 0.001475 -0.008944 0.000000 -0.006682 0.000000
# 2 0.001475 0.020153 -0.005149 0.000000 -0.014054 0.000000
# 3 -0.008944 -0.005149 0.017122 0.000000 0.001334 0.000000
# 4 0.000000 0.000000 0.000000 0.043915 0.000000 0.001974
# 5 -0.006682 -0.014054 0.001334 0.000000 0.057757 0.000000
# 6 0.000000 0.000000 0.000000 0.001974 0.000000 0.050490
#
#
# Mechanical properties :
#
#
# Convention : Reuss Voigt Hill
#
# Bulk Modulus (GPa) = 39.40251 62.35526 50.87889
# Shear Modulus (GPa) = 21.14401 25.16197 23.15299
#
# Velocity S-wave (km/s) = 3.52930 3.85006 3.69317
# Velocity P-wave (km/s) = 6.31031 7.51649 6.93966
#
# Compressibility (1/GPa) = 0.02537910
#
# Stress axis : x y z
#
# Youngs Moduli (GPa) = 74.95319 49.62148 58.40608
#
# Poissons Ratio (x) = -0.07319 0.52240
# Poissons Ratio (y) = -0.11056 0.30073
# Poissons Ratio (z) = 0.67040 0.25550
#
# Static dielectric constant tensor:
#      x y z
#    x 1.589730 0.000000 -0.002250 
#    y 0.000000 1.573860 0.000000 
#    z -0.002250 0.000000 1.567780 
# 
# From -- ./inp_files/197564.got.cif
#   From: 2010.05.17/outbox.cif.g08.bks.cpg/sg12_99_cif.got.tgz:197564.got - 2010.06.03 13:09:07.
