data_PCOD9220095
_publ_section_title
;
Structure prediction by ZEFSAII (Michael W. Deem and Ramdas Pophale) SiO2 
 PCOD9220095
Probable space group: C 2/M
;
_chemical_formula_sum "Si O2"
_cell_formula_units_Z 40
_cell_length_a 9.375388
_cell_length_b 18.958272
_cell_length_c 25.050418
_cell_angle_alpha 90.000000
_cell_angle_beta 150.940279
_cell_angle_gamma 90.000000
_cell_volume 2162.668005
_symmetry_space_group_name_H-M "C 2/M"
_symmetry_group_IT_number 12
_symmetry_cell_setting 'monoclinic'
loop_
_space_group_symop_operation_xyz
x,y,z
-x,y,-z
-x,-y,-z
x,-y,z
1/2+x,1/2+y,z
1/2-x,1/2+y,-z
1/2-x,1/2-y,-z
1/2+x,1/2-y,z
loop_
_atom_site_type_symbol
_atom_site_label
_atom_site_fract_x
_atom_site_fract_y
_atom_site_fract_z
Si Si1 0.723435 0.580555 0.522475
Si Si2 0.835534 0.583322 0.090551
Si Si3 0.265114 0.820702 0.969545
Si Si4 0.227640 0.168364 0.689503
Si Si5 0.878880 0.685274 0.286703
O O1 0.500000 0.578025 0.500000
O O2 0.797433 0.500000 0.532730
O O3 0.547754 0.621122 0.418777
O O4 0.995738 0.626599 0.632047
O O5 0.893091 0.500000 0.110299
O O6 0.055729 0.624073 0.201704
O O7 0.500000 0.595155 0.000000
O O8 0.856615 0.616379 0.038738
O O9 0.945690 0.833015 0.839939
O O10 0.500000 0.810387 0.000000
O O11 0.250000 0.750000 0.000000
O O12 0.131973 0.239301 0.688001
O O13 0.408257 0.187737 0.695040
#
# Coordination Sequence:
#
# PCOD9220095 Si02
#       5
#     8   8   8   8   8
#     4   9  20  38  60  87 117 154 200 246 295 350
#     4  11  23  39  61  89 121 159 201 246 303 360
#     4  12  23  39  62  90 124 159 199 244 297 355
#     4  11  21  38  62  91 118 156 199 249 297 352
#     4  11  22  36  63  89 118 156 201 245 294 353
#
# _framework density 18.495673
#
# number of rings (size 3 to 8) (size 9 to 14) (size 15 to 20)
#    0.000    1.200    4.000    3.000    0.000    2.000 
#    0.000    0.000    0.000    1.200    0.000    0.000 
#    0.000    0.000    0.000    0.000    0.000    0.000 
#
# Total GULP energy -111797.726914 kJ/mol
# GULP energy per Si atom -5589.886346 kJ/mol
# Density = 1.845358 g / cm^3
# Si number density = 18.495673 Si / 1000 Ang^3
#
#
#
# Elastic Constant Matrix: (Units=GPa)
#
#
# Indices 1 2 3 4 5 6 
#
# 1 100.7906 65.3624 45.0255 -0.0011 -9.0537 -0.0013
# 2 65.3624 163.9747 102.0752 0.0032 -15.1299 0.0040
# 3 45.0255 102.0752 181.5463 0.0055 -19.7131 0.0031
# 4 -0.0011 0.0032 0.0055 26.9657 0.0009 6.8444
# 5 -9.0537 -15.1299 -19.7131 0.0009 24.0202 0.0014
# 6 -0.0013 0.0040 0.0031 6.8444 0.0014 17.4199
#
#
#
# Elastic Compliance Matrix: (Units=1/GPa)
#
#
# Indices 1 2 3 4 5 6 
#
# 1 0.013467 -0.004998 -0.000352 0.000001 0.001639 0.000002
# 2 -0.004998 0.011303 -0.004992 0.000000 0.001139 -0.000002
# 3 -0.000352 -0.004992 0.008834 -0.000001 0.003973 0.000000
# 4 0.000001 0.000000 -0.000001 0.041192 -0.000001 -0.016185
# 5 0.001639 0.001139 0.003973 -0.000001 0.046227 -0.000004
# 6 0.000002 -0.000002 0.000000 -0.016185 -0.000004 0.063765
#
#
# Mechanical properties :
#
#
# Convention : Reuss Voigt Hill
#
# Bulk Modulus (GPa) = 77.39727 96.80419 87.10073
# Shear Modulus (GPa) = 23.83460 29.27107 26.55284
#
# Velocity S-wave (km/s) = 3.59368 3.98249 3.79307
# Velocity P-wave (km/s) = 7.69132 8.57901 8.14727
#
# Compressibility (1/GPa) = 0.01292035
#
# Stress axis : x y z
#
# Youngs Moduli (GPa) = 74.25505 88.46831 113.20158
#
# Poissons Ratio (x) = 0.44215 0.03984
# Poissons Ratio (y) = 0.37111 0.56513
# Poissons Ratio (z) = 0.02614 0.44166
#
# Static dielectric constant tensor:
#      x y z
#    x 1.622680 0.000000 -0.001330 
#    y 0.000000 1.616760 0.000000 
#    z -0.001330 0.000000 1.626210 
# 
# From -- ./inp_files/118884.got.cif
#   From: 2010.05.17/outbox.cif.g08.bks.cpg/sg12_60_cif.got.tgz:118884.got - 2010.06.03 13:09:07.
