data_PCOD9220057
_publ_section_title
;
Structure prediction by ZEFSAII (Michael W. Deem and Ramdas Pophale) SiO2 
 PCOD9220057
Probable space group: C 2/M
;
_chemical_formula_sum "Si O2"
_cell_formula_units_Z 64
_cell_length_a 13.963482
_cell_length_b 17.674815
_cell_length_c 22.341493
_cell_angle_alpha 90.000000
_cell_angle_beta 138.015153
_cell_angle_gamma 90.000000
_cell_volume 3688.451669
_symmetry_space_group_name_H-M "C 2/M"
_symmetry_group_IT_number 12
_symmetry_cell_setting 'monoclinic'
loop_
_space_group_symop_operation_xyz
x,y,z
-x,y,-z
-x,-y,-z
x,-y,z
1/2+x,1/2+y,z
1/2-x,1/2+y,-z
1/2-x,1/2-y,-z
1/2+x,1/2-y,z
loop_
_atom_site_type_symbol
_atom_site_label
_atom_site_fract_x
_atom_site_fract_y
_atom_site_fract_z
Si Si1 0.265861 0.089772 0.409990
Si Si2 0.475886 0.335334 0.245890
Si Si3 0.700186 0.587621 0.047833
Si Si4 0.581819 0.856814 0.946920
Si Si5 0.490311 0.690910 0.878124
Si Si6 0.691040 0.087675 0.122031
Si Si7 0.035949 0.589073 0.614826
Si Si8 0.179165 0.317274 0.785099
O O1 0.379721 0.106854 0.515213
O O2 0.351918 0.100451 0.387594
O O3 0.126379 0.141673 0.344717
O O4 0.229101 0.000000 0.396179
O O5 0.495967 0.338456 0.183272
O O6 0.354779 0.394239 0.210712
O O7 0.410885 0.253842 0.232745
O O8 0.669453 0.500000 0.045688
O O9 0.819710 0.595918 0.051579
O O10 0.766514 0.630258 0.135489
O O11 0.562780 0.631618 0.957394
O O12 0.573390 0.770161 0.922912
O O13 0.421892 0.889575 0.879586
O O14 0.649664 0.863133 0.044503
O O15 0.326342 0.705970 0.820112
O O16 0.670663 0.000000 0.097438
O O17 0.038813 0.500000 0.630766
O O18 0.083682 0.636940 0.693592
#
# Coordination Sequence:
#
# PCOD9220057 Si02
#       8
#     8   8   8   8   8   8   8   8
#     4   9  19  37  63  87 111 141 182 234 285 336
#     4  12  22  37  58  84 114 148 187 231 284 336
#     4  12  25  38  56  82 114 157 197 233 280 333
#     4  11  21  38  55  77 111 151 193 236 274 325
#     4  12  24  39  55  78 118 155 189 235 276 331
#     4  11  22  35  57  83 108 147 196 241 278 319
#     4   9  19  38  61  86 113 144 182 230 283 336
#     4  12  24  38  58  82 117 152 188 232 280 343
#
# _framework density 17.351454
#
# number of rings (size 3 to 8) (size 9 to 14) (size 15 to 20)
#    0.000    1.000    5.000    4.500    1.750    2.500 
#    0.000    0.000    0.000    0.000    0.000    0.000 
#    0.000    6.000    0.000    0.000    0.000    0.000 
#
# Total GULP energy -178760.889251 kJ/mol
# GULP energy per Si atom -5586.277789 kJ/mol
# Density = 1.731196 g / cm^3
# Si number density = 17.351454 Si / 1000 Ang^3
#
#
#
# Elastic Constant Matrix: (Units=GPa)
#
#
# Indices 1 2 3 4 5 6 
#
# 1 67.6550 12.0925 40.3415 0.0000 14.2246 0.0000
# 2 12.0925 77.6883 55.1169 0.0000 12.2852 0.0000
# 3 40.3415 55.1169 122.1299 0.0000 12.3311 0.0000
# 4 0.0000 0.0000 0.0000 33.7310 0.0000 -0.3366
# 5 14.2246 12.2852 12.3311 0.0000 31.6728 0.0000
# 6 0.0000 0.0000 0.0000 -0.3366 0.0000 9.9028
#
#
#
# Elastic Compliance Matrix: (Units=1/GPa)
#
#
# Indices 1 2 3 4 5 6 
#
# 1 0.020168 0.003283 -0.007391 0.000000 -0.007454 0.000000
# 2 0.003283 0.020016 -0.009561 0.000000 -0.005516 0.000000
# 3 -0.007391 -0.009561 0.014817 0.000000 0.001259 0.000000
# 4 0.000000 0.000000 0.000000 0.029656 0.000000 0.001008
# 5 -0.007454 -0.005516 0.001259 0.000000 0.036570 0.000000
# 6 0.000000 0.000000 0.000000 0.001008 0.000000 0.101016
#
#
# Mechanical properties :
#
#
# Convention : Reuss Voigt Hill
#
# Bulk Modulus (GPa) = 36.14795 53.61945 44.88370
# Shear Modulus (GPa) = 19.31976 25.72279 22.52128
#
# Velocity S-wave (km/s) = 3.34044 3.85445 3.60661
# Velocity P-wave (km/s) = 5.97964 7.12587 6.57777
#
# Compressibility (1/GPa) = 0.02766408
#
# Stress axis : x y z
#
# Youngs Moduli (GPa) = 49.58268 49.95952 67.49019
#
# Poissons Ratio (x) = -0.16402 0.49882
# Poissons Ratio (y) = -0.16278 0.64526
# Poissons Ratio (z) = 0.36646 0.47765
#
# Static dielectric constant tensor:
#      x y z
#    x 1.600750 0.000000 0.018420 
#    y 0.000000 1.582860 0.000000 
#    z 0.018420 0.000000 1.574210 
# 
# From -- ./inp_files/340194.got.cif
#   From: 2010.05.17/outbox.cif.g08.bks.cpg/sg12_171_cif.got.tgz:340194.got - 2010.06.03 13:09:07.
