data_PCOD9220406
_publ_section_title
;
Structure prediction by ZEFSAII (Michael W. Deem and Ramdas Pophale) SiO2 
 PCOD9220406
Probable space group: C 2/M
;
_chemical_formula_sum "Si O2"
_cell_formula_units_Z 56
_cell_length_a 23.472433
_cell_length_b 7.663907
_cell_length_c 17.234616
_cell_angle_alpha 90.000000
_cell_angle_beta 82.234453
_cell_angle_gamma 90.000000
_cell_volume 3071.912018
_symmetry_space_group_name_H-M "C 2/M"
_symmetry_group_IT_number 12
_symmetry_cell_setting 'monoclinic'
loop_
_space_group_symop_operation_xyz
x,y,z
-x,y,-z
-x,-y,-z
x,-y,z
1/2+x,1/2+y,z
1/2-x,1/2+y,-z
1/2-x,1/2-y,-z
1/2+x,1/2-y,z
loop_
_atom_site_type_symbol
_atom_site_label
_atom_site_fract_x
_atom_site_fract_y
_atom_site_fract_z
Si Si1 0.125201 0.285577 0.230226
Si Si2 0.714959 0.208649 0.904180
Si Si3 0.793779 0.793709 0.423116
Si Si4 0.750987 0.210275 0.265929
Si Si5 0.658735 0.800123 0.062204
Si Si6 0.919365 0.708396 0.460979
Si Si7 0.959236 0.286572 0.621426
O O1 0.125718 0.500000 0.227796
O O2 0.186190 0.230670 0.256783
O O3 0.123742 0.222959 0.141088
O O4 0.073879 0.229010 0.295654
O O5 0.708649 0.242579 0.814361
O O6 0.775488 0.295120 0.917635
O O7 0.721058 0.000000 0.914337
O O8 0.666655 0.272929 0.973888
O O9 0.750000 0.750000 0.500000
O O10 0.773017 0.720151 0.344127
O O11 0.858182 0.745460 0.435232
O O12 0.792678 0.000000 0.414652
O O13 0.748402 0.000000 0.269730
O O14 0.639475 0.000000 0.057077
O O15 0.925176 0.500000 0.463880
O O16 0.926022 0.769262 0.548934
O O17 0.974892 0.771149 0.402485
O O18 0.958528 0.500000 0.623374
#
# Coordination Sequence:
#
# PCOD9220406 Si02
#       7
#     8   8   8   8   8   8   8
#     4   8  12  22  41  62  83 110 144 175 207 252
#     4   9  15  23  37  58  84 113 144 178 215 255
#     4  11  22  34  48  66  89 117 147 180 219 261
#     4   9  18  30  43  60  85 117 147 175 213 261
#     4   8  14  23  36  57  86 116 143 175 215 258
#     4   9  17  30  47  67  89 114 148 183 214 254
#     4   8  14  26  46  67  87 115 147 179 215 258
#
# _framework density 18.229689
#
# number of rings (size 3 to 8) (size 9 to 14) (size 15 to 20)
#    0.000    3.143    0.000    3.429    0.000    4.000 
#    0.000    1.429    0.000    3.429    0.000    1.000 
#    0.000    8.000    0.000    0.000    0.000    0.000 
#
# Total GULP energy -155879.219240 kJ/mol
# GULP energy per Si atom -5567.114973 kJ/mol
# Density = 1.818820 g / cm^3
# Si number density = 18.229689 Si / 1000 Ang^3
#
#
#
# Elastic Constant Matrix: (Units=GPa)
#
#
# Indices 1 2 3 4 5 6 
#
# 1 67.9587 -0.9862 64.3875 0.0000 -11.6681 0.0000
# 2 -0.9862 32.6640 -3.0573 0.0000 -2.0315 0.0000
# 3 64.3875 -3.0573 195.7532 0.0000 -30.4197 0.0000
# 4 0.0000 0.0000 0.0000 14.8378 0.0000 2.0612
# 5 -11.6681 -2.0315 -30.4197 0.0000 27.5441 0.0000
# 6 0.0000 0.0000 0.0000 2.0612 0.0000 14.4564
#
#
#
# Elastic Compliance Matrix: (Units=1/GPa)
#
#
# Indices 1 2 3 4 5 6 
#
# 1 0.021432 0.000108 -0.006803 0.000000 0.001573 0.000000
# 2 0.000108 0.030921 0.000976 0.000000 0.003405 0.000000
# 3 -0.006803 0.000976 0.008360 0.000000 0.006422 0.000000
# 4 0.000000 0.000000 0.000000 0.068757 0.000000 -0.009803
# 5 0.001573 0.003405 0.006422 0.000000 0.044316 0.000000
# 6 0.000000 0.000000 0.000000 -0.009803 0.000000 0.070571
#
#
# Mechanical properties :
#
#
# Convention : Reuss Voigt Hill
#
# Bulk Modulus (GPa) = 20.29402 46.34042 33.31722
# Shear Modulus (GPa) = 18.36752 27.10314 22.73533
#
# Velocity S-wave (km/s) = 3.17765 3.86003 3.53535
# Velocity P-wave (km/s) = 4.96184 6.73364 5.91447
#
# Compressibility (1/GPa) = 0.04927560
#
# Stress axis : x y z
#
# Youngs Moduli (GPa) = 46.65833 32.34028 119.62419
#
# Poissons Ratio (x) = -0.00350 0.81385
# Poissons Ratio (y) = -0.00505 -0.11681
# Poissons Ratio (z) = 0.31743 -0.03158
#
# Static dielectric constant tensor:
#      x y z
#    x 1.579990 0.000000 -0.010150 
#    y 0.000000 1.701520 0.000000 
#    z -0.010150 0.000000 1.696310 
# 
# From -- ./inp_files/280209.got.cif
#   From: 2010.05.17/outbox.cif.g08.bks.cpg/sg12_141_cif.got.tgz:280209.got - 2010.06.03 13:09:07.
