data_PCOD9220261
_publ_section_title
;
Structure prediction by ZEFSAII (Michael W. Deem and Ramdas Pophale) SiO2 
 PCOD9220261
Probable space group: C 2/M
;
_chemical_formula_sum "Si O2"
_cell_formula_units_Z 34
_cell_length_a 4.985763
_cell_length_b 24.632704
_cell_length_c 11.955443
_cell_angle_alpha 90.000000
_cell_angle_beta 98.424331
_cell_angle_gamma 90.000000
_cell_volume 1452.439266
_symmetry_space_group_name_H-M "C 2/M"
_symmetry_group_IT_number 12
_symmetry_cell_setting 'monoclinic'
loop_
_space_group_symop_operation_xyz
x,y,z
-x,y,-z
-x,-y,-z
x,-y,z
1/2+x,1/2+y,z
1/2-x,1/2+y,-z
1/2-x,1/2-y,-z
1/2+x,1/2-y,z
loop_
_atom_site_type_symbol
_atom_site_label
_atom_site_fract_x
_atom_site_fract_y
_atom_site_fract_z
Si Si1 0.988292 0.403105 0.828022
Si Si2 0.238692 0.396064 0.424092
Si Si3 0.500000 0.000000 0.000000
Si Si4 0.991963 0.828215 0.125114
Si Si5 0.540822 0.719547 0.649409
O O1 0.877471 0.420434 0.698703
O O2 0.071882 0.452826 0.910498
O O3 0.744956 0.372538 0.876898
O O4 0.231275 0.360013 0.827999
O O5 0.500000 0.422960 0.500000
O O6 0.351086 0.337107 0.390738
O O7 0.000000 0.392125 0.500000
O O8 0.928104 0.784348 0.215222
O O9 0.000000 0.807156 0.000000
O O10 0.227304 0.732653 0.614010
#
# Coordination Sequence:
#
# PCOD9220261 Si02
#       5
#     8   8   2   8   8
#     4  11  24  41  68 101 128 163 217 263 333 390
#     4  11  23  43  65  89 134 182 213 263 324 377
#     4  12  24  46  76 106 124 158 212 284 312 402
#     4  11  21  41  61  91 138 174 206 266 334 388
#     4  11  23  37  60  96 127 171 232 268 304 368
#
# _framework density 23.408895999999999
#
# number of rings (size 3 to 8) (size 9 to 14) (size 15 to 20)
#    0.000    0.941    2.353    7.059    0.000    5.647 
#    0.000    1.176    0.000    0.000    0.000    0.000 
#    0.000    0.000    0.000    0.000    0.000    0.000 
#
# Total GULP energy -94859.887008 kJ/mol
# GULP energy per Si atom -5579.993353 kJ/mol
# Density = 2.335562 g / cm^3
# Si number density = 23.408896 Si / 1000 Ang^3
#
#
#
# Elastic Constant Matrix: (Units=GPa)
#
#
# Indices 1 2 3 4 5 6 
#
# 1 133.6132 11.5386 42.6349 0.0000 -1.4639 0.0000
# 2 11.5386 43.2072 38.5667 0.0000 -2.0029 0.0000
# 3 42.6349 38.5667 138.8768 0.0000 -34.7519 0.0000
# 4 0.0000 0.0000 0.0000 14.9121 0.0000 -9.9009
# 5 -1.4639 -2.0029 -34.7519 0.0000 37.7289 0.0000
# 6 0.0000 0.0000 0.0000 -9.9009 0.0000 -23.2161
#
#
#
# Elastic Compliance Matrix: (Units=1/GPa)
#
#
# Indices 1 2 3 4 5 6 
#
# 1 0.008521 0.000762 -0.003554 0.000000 -0.002902 0.000000
# 2 0.000762 0.032874 -0.011591 0.000000 -0.008901 0.000000
# 3 -0.003554 -0.011591 0.014713 0.000000 0.012799 0.000000
# 4 0.000000 0.000000 0.000000 0.052261 0.000000 -0.022288
# 5 -0.002902 -0.008901 0.012799 0.000000 0.037709 0.000000
# 6 0.000000 0.000000 0.000000 -0.022288 0.000000 -0.033568
#
#
# Mechanical properties :
#
#
# Convention : Reuss Voigt Hill
#
# Bulk Modulus (GPa) = 36.57222 55.68641 46.12932
# Shear Modulus (GPa) = 33.24725 20.74877 26.99801
#
# Velocity S-wave (km/s) = 3.77275 2.98041 3.39974
# Velocity P-wave (km/s) = 5.88518 5.97361 5.92956
#
# Compressibility (1/GPa) = 0.02734316
#
# Stress axis : x y z
#
# Youngs Moduli (GPa) = 117.36217 30.41927 67.96655
#
# Poissons Ratio (x) = -0.02318 0.24153
# Poissons Ratio (y) = -0.08943 0.78777
# Poissons Ratio (z) = 0.41707 0.35258
#
# Static dielectric constant tensor:
#      x y z
#    x 1.882690 0.000000 0.053130 
#    y 0.000000 1.718800 0.000000 
#    z 0.053130 0.000000 1.953090 
# 
# From -- ./inp_files/115044.got.cif
#   From: 2010.05.17/outbox.cif.g08.bks.cpg/sg12_58_cif.got.tgz:115044.got - 2010.06.03 13:09:07.
