data_PCOD9220829
_publ_section_title
;
Structure prediction by ZEFSAII (Michael W. Deem and Ramdas Pophale) SiO2 
 PCOD9220829
Probable space group: C 2/M
;
_chemical_formula_sum "Si O2"
_cell_formula_units_Z 42
_cell_length_a 21.604216
_cell_length_b 7.448397
_cell_length_c 14.093641
_cell_angle_alpha 90.000000
_cell_angle_beta 61.496804
_cell_angle_gamma 90.000000
_cell_volume 1993.011859
_symmetry_space_group_name_H-M "C 2/M"
_symmetry_group_IT_number 12
_symmetry_cell_setting 'monoclinic'
loop_
_space_group_symop_operation_xyz
x,y,z
-x,y,-z
-x,-y,-z
x,-y,z
1/2+x,1/2+y,z
1/2-x,1/2+y,-z
1/2-x,1/2-y,-z
1/2+x,1/2-y,z
loop_
_atom_site_type_symbol
_atom_site_label
_atom_site_fract_x
_atom_site_fract_y
_atom_site_fract_z
Si Si1 0.500000 0.000000 0.500000
Si Si2 0.720168 0.714216 0.917910
Si Si3 0.797235 0.281516 0.671478
Si Si4 0.924272 0.796066 0.452536
Si Si5 0.079359 0.219093 0.925328
Si Si6 0.843682 0.782711 0.323599
O O1 0.515397 0.842697 0.567985
O O2 0.717498 0.500000 0.908780
O O3 0.770794 0.776286 0.794861
O O4 0.640470 0.778103 0.954115
O O5 0.750000 0.750000 0.000000
O O6 0.803424 0.500000 0.666191
O O7 0.870764 0.209498 0.580774
O O8 0.735491 0.225178 0.643522
O O9 0.877651 0.729651 0.397591
O O10 0.947893 0.000000 0.418077
O O11 0.107939 0.270535 0.800695
O O12 0.077520 0.000000 0.929532
O O13 0.000000 0.281967 0.000000
O O14 0.841213 0.000000 0.325863
#
# Coordination Sequence:
#
# PCOD9220829 Si02
#       6
#     2   8   8   8   8   8
#     4  12  26  44  56  78 134 156 184 242 288 358
#     4   9  18  32  53  80 114 152 190 238 290 341
#     4   9  17  35  58  82 115 150 193 250 297 334
#     4  11  22  39  61  86 113 157 198 233 290 353
#     4   8  14  29  52  80 110 145 187 236 288 340
#     4   8  16  31  56  85 112 143 195 247 286 344
#
# _framework density 21.073633000000001
#
# number of rings (size 3 to 8) (size 9 to 14) (size 15 to 20)
#    0.000    2.857    0.952    3.143    0.000    0.762 
#    5.143    0.000    2.095    0.571    0.000    0.000 
#    0.000    0.000    0.000    0.000    0.000    0.000 
#
# Total GULP energy -116908.594432 kJ/mol
# GULP energy per Si atom -5567.075925 kJ/mol
# Density = 2.102567 g / cm^3
# Si number density = 21.073633 Si / 1000 Ang^3
#
#
#
# Elastic Constant Matrix: (Units=GPa)
#
#
# Indices 1 2 3 4 5 6 
#
# 1 93.4978 15.9865 55.4480 0.0000 21.2456 0.0000
# 2 15.9865 87.0662 1.0203 0.0000 7.3643 0.0000
# 3 55.4480 1.0203 65.1718 0.0000 15.9743 0.0000
# 4 0.0000 0.0000 0.0000 13.8999 0.0000 8.0948
# 5 21.2456 7.3643 15.9743 0.0000 41.6320 0.0000
# 6 0.0000 0.0000 0.0000 8.0948 0.0000 25.1584
#
#
#
# Elastic Compliance Matrix: (Units=1/GPa)
#
#
# Indices 1 2 3 4 5 6 
#
# 1 0.023481 -0.003746 -0.018924 0.000000 -0.004059 0.000000
# 2 -0.003746 0.012265 0.003376 0.000000 -0.001553 0.000000
# 3 -0.018924 0.003376 0.032199 0.000000 -0.003295 0.000000
# 4 0.000000 0.000000 0.000000 0.088531 0.000000 -0.028485
# 5 -0.004059 -0.001553 -0.003295 0.000000 0.027630 0.000000
# 6 0.000000 0.000000 0.000000 -0.028485 0.000000 0.048913
#
#
# Mechanical properties :
#
#
# Convention : Reuss Voigt Hill
#
# Bulk Modulus (GPa) = 34.06356 43.40503 38.73430
# Shear Modulus (GPa) = 17.76861 27.69014 22.72938
#
# Velocity S-wave (km/s) = 2.90689 3.62881 3.28772
# Velocity P-wave (km/s) = 5.24078 6.18055 5.72997
#
# Compressibility (1/GPa) = 0.02935688
#
# Stress axis : x y z
#
# Youngs Moduli (GPa) = 42.58752 81.53148 31.05653
#
# Poissons Ratio (x) = 0.30544 0.58772
# Poissons Ratio (y) = 0.15955 -0.10485
# Poissons Ratio (z) = 0.80593 -0.27525
#
# Static dielectric constant tensor:
#      x y z
#    x 1.795140 0.000000 0.000560 
#    y 0.000000 1.833010 0.000000 
#    z 0.000560 0.000000 1.740250 
# 
# From -- ./inp_files/229161.got.cif
#   From: 2010.05.17/outbox.cif.g08.bks.cpg/sg12_115_cif.got.tgz:229161.got - 2010.06.03 13:09:07.
