data_PCOD9220734
_publ_section_title
;
Structure prediction by ZEFSAII (Michael W. Deem and Ramdas Pophale) SiO2 
 PCOD9220734
Probable space group: C 2/M
;
_chemical_formula_sum "Si O2"
_cell_formula_units_Z 52
_cell_length_a 20.418387
_cell_length_b 21.497994
_cell_length_c 11.440281
_cell_angle_alpha 90.000000
_cell_angle_beta 148.806187
_cell_angle_gamma 90.000000
_cell_volume 2600.944105
_symmetry_space_group_name_H-M "C 2/M"
_symmetry_group_IT_number 12
_symmetry_cell_setting 'monoclinic'
loop_
_space_group_symop_operation_xyz
x,y,z
-x,y,-z
-x,-y,-z
x,-y,z
1/2+x,1/2+y,z
1/2-x,1/2+y,-z
1/2-x,1/2-y,-z
1/2+x,1/2-y,z
loop_
_atom_site_type_symbol
_atom_site_label
_atom_site_fract_x
_atom_site_fract_y
_atom_site_fract_z
Si Si1 0.077590 0.176540 0.737988
Si Si2 0.794223 0.432905 0.353548
Si Si3 0.805158 0.157087 0.632980
Si Si4 0.367652 0.192076 0.101243
Si Si5 0.011137 0.072558 0.821077
Si Si6 0.140596 0.712894 0.178193
Si Si7 0.500000 0.889089 0.500000
O O1 0.062624 0.240621 0.786380
O O2 0.033336 0.116079 0.741464
O O3 0.000000 0.180737 0.500000
O O4 0.227526 0.181475 0.941091
O O5 0.819203 0.500000 0.445969
O O6 0.804108 0.379268 0.464025
O O7 0.882899 0.425735 0.376516
O O8 0.648770 0.429401 0.091028
O O9 0.850510 0.212170 0.789017
O O10 0.745722 0.186683 0.426178
O O11 0.911187 0.108604 0.750504
O O12 0.451374 0.150088 0.314760
O O13 0.343430 0.185973 0.926689
O O14 0.974440 0.000000 0.743311
O O15 0.000000 0.694674 0.000000
#
# Coordination Sequence:
#
# PCOD9220734 Si02
#       7
#     8   8   8   8   8   8   4
#     4  11  22  38  61  91 128 165 207 260 322 379
#     4  11  23  40  64  91 126 170 218 264 312 382
#     4  11  23  40  67  95 128 166 212 268 329 384
#     4  11  23  38  63  93 126 164 207 264 324 384
#     4  11  23  41  64  93 128 170 219 265 315 382
#     4  11  23  39  64  97 131 163 208 268 331 389
#     4  12  23  42  64  94 129 168 216 268 318 386
#
# _framework density 19.992740000000001
#
# number of rings (size 3 to 8) (size 9 to 14) (size 15 to 20)
#    0.000    0.923    2.308    5.769    2.154    4.000 
#    0.000    0.000    0.000   11.077    0.000    0.000 
#    0.000    0.000    0.000    0.000    0.000    0.000 
#
# Total GULP energy -145040.009899 kJ/mol
# GULP energy per Si atom -5578.461919 kJ/mol
# Density = 1.994724 g / cm^3
# Si number density = 19.992740 Si / 1000 Ang^3
#
#
#
# Elastic Constant Matrix: (Units=GPa)
#
#
# Indices 1 2 3 4 5 6 
#
# 1 107.1300 43.9544 16.5450 0.0000 2.7996 0.0000
# 2 43.9544 100.5234 27.7948 0.0000 7.6284 0.0000
# 3 16.5450 27.7948 66.0652 0.0000 -5.0531 0.0000
# 4 0.0000 0.0000 0.0000 12.1613 0.0000 3.5394
# 5 2.7996 7.6284 -5.0531 0.0000 39.7388 0.0000
# 6 0.0000 0.0000 0.0000 3.5394 0.0000 54.2776
#
#
#
# Elastic Compliance Matrix: (Units=1/GPa)
#
#
# Indices 1 2 3 4 5 6 
#
# 1 0.011418 -0.004755 -0.000859 0.000000 -0.000001 0.000000
# 2 -0.004755 0.013553 -0.004730 0.000000 -0.002868 0.000000
# 3 -0.000859 -0.004730 0.017587 0.000000 0.003205 0.000000
# 4 0.000000 0.000000 0.000000 0.083819 0.000000 -0.005466
# 5 -0.000001 -0.002868 0.003205 0.000000 0.026122 0.000000
# 6 0.000000 0.000000 0.000000 -0.005466 0.000000 0.018780
#
#
# Mechanical properties :
#
#
# Convention : Reuss Voigt Hill
#
# Bulk Modulus (GPa) = 45.72711 50.03409 47.88060
# Shear Modulus (GPa) = 25.09314 33.59718 29.34516
#
# Velocity S-wave (km/s) = 3.54660 4.10380 3.83533
# Velocity P-wave (km/s) = 6.30021 6.89459 6.60409
#
# Compressibility (1/GPa) = 0.02186886
#
# Stress axis : x y z
#
# Youngs Moduli (GPa) = 87.58037 73.78600 56.86017
#
# Poissons Ratio (x) = 0.35085 0.04884
# Poissons Ratio (y) = 0.41645 0.26897
# Poissons Ratio (z) = 0.07523 0.34904
#
# Static dielectric constant tensor:
#      x y z
#    x 1.747390 0.000000 0.000470 
#    y 0.000000 1.748470 0.000000 
#    z 0.000470 0.000000 1.704350 
# 
# From -- ./inp_files/169866.got.cif
#   From: 2010.05.17/outbox.cif.g08.bks.cpg/sg12_85_cif.got.tgz:169866.got - 2010.06.03 13:09:07.
