data_PCOD9220663
_publ_section_title
;
Structure prediction by ZEFSAII (Michael W. Deem and Ramdas Pophale) SiO2 
 PCOD9220663
Probable space group: C 2/M
;
_chemical_formula_sum "Si O2"
_cell_formula_units_Z 56
_cell_length_a 29.498947
_cell_length_b 8.894054
_cell_length_c 11.456881
_cell_angle_alpha 90.000000
_cell_angle_beta 112.245446
_cell_angle_gamma 90.000000
_cell_volume 2782.160801
_symmetry_space_group_name_H-M "C 2/M"
_symmetry_group_IT_number 12
_symmetry_cell_setting 'monoclinic'
loop_
_space_group_symop_operation_xyz
x,y,z
-x,y,-z
-x,-y,-z
x,-y,z
1/2+x,1/2+y,z
1/2-x,1/2+y,-z
1/2-x,1/2-y,-z
1/2+x,1/2-y,z
loop_
_atom_site_type_symbol
_atom_site_label
_atom_site_fract_x
_atom_site_fract_y
_atom_site_fract_z
Si Si1 0.050213 0.825614 0.620399
Si Si2 0.076651 0.679578 0.134068
Si Si3 0.303467 0.677229 0.066618
Si Si4 0.148249 0.321725 0.660463
Si Si5 0.734420 0.321407 0.606824
Si Si6 0.521775 0.179871 0.835707
Si Si7 0.176309 0.175389 0.178372
O O1 0.092357 0.729898 0.599602
O O2 0.041110 0.765526 0.742049
O O3 0.000000 0.814179 0.500000
O O4 0.065625 0.000000 0.639934
O O5 0.084991 0.500000 0.150413
O O6 0.127602 0.765645 0.193555
O O7 0.034274 0.720031 0.185156
O O8 0.053494 0.709150 0.983250
O O9 0.299137 0.500000 0.091269
O O10 0.332121 0.763016 0.195488
O O11 0.250000 0.750000 0.000000
O O12 0.329651 0.690378 0.966872
O O13 0.153089 0.500000 0.657879
O O14 0.182922 0.244571 0.599172
O O15 0.732231 0.500000 0.597597
O O16 0.750000 0.250000 0.500000
O O17 0.776377 0.269770 0.738139
O O18 0.523621 0.000000 0.816716
O O19 0.185265 0.000000 0.213395
#
# Coordination Sequence:
#
# PCOD9220663 Si02
#       7
#     8   8   8   8   8   8   8
#     4  11  25  43  63  89 123 164 211 262 315 370
#     4   9  19  36  60  90 124 160 199 251 315 371
#     4  11  22  37  62  94 130 167 207 257 312 372
#     4  12  25  43  67  95 128 165 210 261 317 377
#     4  12  26  45  67  89 122 163 207 255 308 372
#     4   9  19  38  62  89 121 158 204 256 311 374
#     4  11  23  38  59  92 128 163 208 253 306 372
#
# _framework density 20.128240000000002
#
# number of rings (size 3 to 8) (size 9 to 14) (size 15 to 20)
#    0.000    1.286    1.429    5.571    0.000    7.429 
#    0.000    4.286    0.000    0.000    0.000    0.000 
#    0.000    0.000    0.000    0.000    0.000    0.000 
#
# Total GULP energy -156657.267621 kJ/mol
# GULP energy per Si atom -5594.902415 kJ/mol
# Density = 2.008243 g / cm^3
# Si number density = 20.128240 Si / 1000 Ang^3
#
#
#
# Elastic Constant Matrix: (Units=GPa)
#
#
# Indices 1 2 3 4 5 6 
#
# 1 128.0334 69.8428 16.8756 0.0000 -9.8233 0.0000
# 2 69.8428 147.2520 34.0200 0.0000 -11.5678 0.0000
# 3 16.8756 34.0200 38.0647 0.0000 -17.7723 0.0000
# 4 0.0000 0.0000 0.0000 31.3275 0.0000 -2.8903
# 5 -9.8233 -11.5678 -17.7723 0.0000 26.7722 0.0000
# 6 0.0000 0.0000 0.0000 -2.8903 0.0000 35.5364
#
#
#
# Elastic Compliance Matrix: (Units=1/GPa)
#
#
# Indices 1 2 3 4 5 6 
#
# 1 0.010635 -0.005069 0.000891 0.000000 0.002303 0.000000
# 2 -0.005069 0.011049 -0.009082 0.000000 -0.003115 0.000000
# 3 0.000891 -0.009082 0.046827 0.000000 0.027488 0.000000
# 4 0.000000 0.000000 0.000000 0.032162 0.000000 0.002616
# 5 0.002303 -0.003115 0.027488 0.000000 0.055099 0.000000
# 6 0.000000 0.000000 0.000000 0.002616 0.000000 0.028353
#
#
# Mechanical properties :
#
#
# Convention : Reuss Voigt Hill
#
# Bulk Modulus (GPa) = 23.81452 61.64741 42.73097
# Shear Modulus (GPa) = 22.25763 31.56799 26.91281
#
# Velocity S-wave (km/s) = 3.32895 3.96453 3.66056
# Velocity P-wave (km/s) = 5.16071 7.18683 6.25633
#
# Compressibility (1/GPa) = 0.04199119
#
# Stress axis : x y z
#
# Youngs Moduli (GPa) = 94.02914 90.50648 21.35521
#
# Poissons Ratio (x) = 0.45879 -0.01903
# Poissons Ratio (y) = 0.47665 0.19394
# Poissons Ratio (z) = -0.08379 0.82196
#
# Static dielectric constant tensor:
#      x y z
#    x 1.705150 0.000000 0.000150 
#    y 0.000000 1.674240 0.000000 
#    z 0.000150 0.000000 1.725740 
# 
# From -- ./inp_files/181031.got.cif
#   From: 2010.05.17/outbox.cif.g08.bks.cpg/sg12_91_cif.got.tgz:181031.got - 2010.06.03 13:09:07.
