data_PCOD9220699
_publ_section_title
;
Structure prediction by ZEFSAII (Michael W. Deem and Ramdas Pophale) SiO2 
 PCOD9220699
Probable space group: C 2/M
;
_chemical_formula_sum "Si O2"
_cell_formula_units_Z 56
_cell_length_a 9.780840
_cell_length_b 17.409995
_cell_length_c 26.131433
_cell_angle_alpha 90.000000
_cell_angle_beta 137.788928
_cell_angle_gamma 90.000000
_cell_volume 2989.642269
_symmetry_space_group_name_H-M "C 2/M"
_symmetry_group_IT_number 12
_symmetry_cell_setting 'monoclinic'
loop_
_space_group_symop_operation_xyz
x,y,z
-x,y,-z
-x,-y,-z
x,-y,z
1/2+x,1/2+y,z
1/2-x,1/2+y,-z
1/2-x,1/2-y,-z
1/2+x,1/2-y,z
loop_
_atom_site_type_symbol
_atom_site_label
_atom_site_fract_x
_atom_site_fract_y
_atom_site_fract_z
Si Si1 0.828374 0.093952 0.492528
Si Si2 0.136654 0.406621 0.658383
Si Si3 0.256766 0.089174 0.420799
Si Si4 0.091530 0.869823 0.171137
Si Si5 0.154446 0.416675 0.090274
Si Si6 0.207302 0.083679 0.090106
Si Si7 0.922597 0.712743 0.085857
O O1 0.601005 0.115041 0.411422
O O2 0.848977 0.121591 0.557362
O O3 0.000000 0.119471 0.500000
O O4 0.834659 0.000000 0.495901
O O5 0.143351 0.500000 0.659253
O O6 0.254602 0.378334 0.639736
O O7 0.241674 0.379031 0.738881
O O8 0.500000 0.088987 0.500000
O O9 0.192177 0.000000 0.399603
O O10 0.158543 0.906906 0.136197
O O11 0.882014 0.906826 0.132983
O O12 0.038711 0.782312 0.143957
O O13 0.139958 0.500000 0.112945
O O14 0.078978 0.342661 0.099881
O O15 0.000000 0.419299 0.000000
O O16 0.322583 0.157075 0.100009
O O17 0.306936 0.000000 0.109665
O O18 0.000000 0.082622 0.000000
O O19 0.750000 0.750000 0.000000
#
# Coordination Sequence:
#
# PCOD9220699 Si02
#       7
#     8   8   8   8   8   8   8
#     4   8  13  24  47  77 109 151 194 231 280 347
#     4   9  17  30  46  75 116 152 193 242 290 343
#     4   7  11  22  42  67 102 146 185 222 271 339
#     4  12  23  35  59  84 117 157 198 245 303 352
#     4  11  22  38  59  83 110 147 198 247 295 357
#     4  11  22  38  59  83 111 149 197 247 303 359
#     4  12  23  39  58  82 113 148 193 249 304 359
#
# _framework density 18.731338000000001
#
# number of rings (size 3 to 8) (size 9 to 14) (size 15 to 20)
#    0.000    2.000    2.857    4.286    0.000    2.286 
#    0.000    1.429    0.000    3.429    0.000    0.000 
#    0.000   59.429    0.000    7.429    0.000   11.429 
#
# Total GULP energy -156069.867917 kJ/mol
# GULP energy per Si atom -5573.923854 kJ/mol
# Density = 1.868870 g / cm^3
# Si number density = 18.731338 Si / 1000 Ang^3
#
#
#
# Elastic Constant Matrix: (Units=GPa)
#
#
# Indices 1 2 3 4 5 6 
#
# 1 161.5580 37.5088 63.2904 0.0000 -18.4205 0.0000
# 2 37.5088 94.6019 22.7721 0.0000 -3.5499 0.0000
# 3 63.2904 22.7721 96.1426 0.0002 -27.1168 0.0001
# 4 0.0000 0.0000 0.0002 16.8356 0.0001 -5.7638
# 5 -18.4205 -3.5499 -27.1168 0.0001 28.5049 0.0000
# 6 0.0000 0.0000 0.0001 -5.7638 0.0000 29.4708
#
#
#
# Elastic Compliance Matrix: (Units=1/GPa)
#
#
# Indices 1 2 3 4 5 6 
#
# 1 0.008762 -0.002229 -0.005086 0.000000 0.000546 0.000000
# 2 -0.002229 0.011827 -0.001810 0.000000 -0.001690 0.000000
# 3 -0.005086 -0.001810 0.018023 0.000000 0.013634 0.000000
# 4 0.000000 0.000000 0.000000 0.063661 0.000000 0.012450
# 5 0.000546 -0.001690 0.013634 0.000000 0.048194 0.000000
# 6 0.000000 0.000000 0.000000 0.012450 0.000000 0.036367
#
#
# Mechanical properties :
#
#
# Convention : Reuss Voigt Hill
#
# Bulk Modulus (GPa) = 49.11323 66.60500 57.85912
# Shear Modulus (GPa) = 23.59918 30.21101 26.90509
#
# Velocity S-wave (km/s) = 3.55332 4.02040 3.79406
# Velocity P-wave (km/s) = 6.56594 7.56219 7.08161
#
# Compressibility (1/GPa) = 0.02036111
#
# Stress axis : x y z
#
# Youngs Moduli (GPa) = 114.12931 84.55314 55.48356
#
# Poissons Ratio (x) = 0.18849 0.28218
# Poissons Ratio (y) = 0.25443 0.10045
# Poissons Ratio (z) = 0.58045 0.15307
#
# Static dielectric constant tensor:
#      x y z
#    x 1.663560 0.000000 -0.014820 
#    y 0.000000 1.670620 0.000000 
#    z -0.014820 0.000000 1.689480 
# 
# From -- ./inp_files/356714.got.cif
#   From: 2010.05.17/outbox.cif.g08.bks.cpg/sg12_179_cif.got.tgz:356714.got - 2010.06.03 13:09:07.
