data_PCOD9220846
_publ_section_title
;
Structure prediction by ZEFSAII (Michael W. Deem and Ramdas Pophale) SiO2 
 PCOD9220846
Probable space group: C 2/M
;
_chemical_formula_sum "Si O2"
_cell_formula_units_Z 48
_cell_length_a 9.217731
_cell_length_b 26.962576
_cell_length_c 10.905731
_cell_angle_alpha 90.000000
_cell_angle_beta 62.714550
_cell_angle_gamma 90.000000
_cell_volume 2408.861499
_symmetry_space_group_name_H-M "C 2/M"
_symmetry_group_IT_number 12
_symmetry_cell_setting 'monoclinic'
loop_
_space_group_symop_operation_xyz
x,y,z
-x,y,-z
-x,-y,-z
x,-y,z
1/2+x,1/2+y,z
1/2-x,1/2+y,-z
1/2-x,1/2-y,-z
1/2+x,1/2-y,z
loop_
_atom_site_type_symbol
_atom_site_label
_atom_site_fract_x
_atom_site_fract_y
_atom_site_fract_z
Si Si1 0.469787 0.342986 0.823133
Si Si2 0.991021 0.272063 0.149918
Si Si3 0.775329 0.360208 0.860127
Si Si4 0.344255 0.395519 0.625970
Si Si5 0.983700 0.441742 0.151254
Si Si6 0.193698 0.208770 0.426256
O O1 0.461925 0.283462 0.831027
O O2 0.654369 0.356394 0.791774
O O3 0.414706 0.367038 0.718097
O O4 0.345420 0.361040 0.976119
O O5 0.806727 0.280932 0.265198
O O6 0.108849 0.312214 0.167741
O O7 0.000000 0.277241 0.000000
O O8 0.889101 0.408119 0.823761
O O9 0.500000 0.420180 0.500000
O O10 0.196194 0.429040 0.728515
O O11 0.281005 0.350317 0.563466
O O12 0.017282 0.500000 0.148912
O O13 0.000000 0.428044 0.000000
O O14 0.250000 0.250000 0.500000
O O15 0.000000 0.215097 0.500000
#
# Coordination Sequence:
#
# PCOD9220846 Si02
#       6
#     8   8   8   8   8   8
#     4  11  24  37  61  96 134 169 212 262 333 379
#     4  12  22  35  64  93 127 173 220 259 317 390
#     4  11  22  39  62  96 129 164 214 276 322 385
#     4  11  23  44  63  91 134 173 215 266 317 399
#     4  11  23  43  73  99 124 166 220 277 337 384
#     4  11  25  40  57  89 133 178 215 257 320 385
#
# _framework density 19.926425999999999
#
# number of rings (size 3 to 8) (size 9 to 14) (size 15 to 20)
#    0.000    0.833    5.000    4.000    4.667    0.333 
#    0.000    3.333    0.000    1.000    0.000    0.000 
#    0.000    0.000    0.000    0.000    0.000    0.000 
#
# Total GULP energy -134138.009883 kJ/mol
# GULP energy per Si atom -5589.083745 kJ/mol
# Density = 1.988107 g / cm^3
# Si number density = 19.926426 Si / 1000 Ang^3
#
#
#
# Elastic Constant Matrix: (Units=GPa)
#
#
# Indices 1 2 3 4 5 6 
#
# 1 108.2556 52.1804 31.3903 0.0000 -14.8081 0.0000
# 2 52.1804 85.4361 10.4203 0.0000 -4.5709 0.0000
# 3 31.3903 10.4203 113.5261 0.0000 -34.0940 0.0000
# 4 0.0000 0.0000 0.0000 21.6409 0.0000 -7.3776
# 5 -14.8081 -4.5709 -34.0940 0.0000 33.7645 0.0000
# 6 0.0000 0.0000 0.0000 -7.3776 0.0000 13.5430
#
#
#
# Elastic Compliance Matrix: (Units=1/GPa)
#
#
# Indices 1 2 3 4 5 6 
#
# 1 0.014300 -0.008298 -0.002363 0.000000 0.002762 0.000000
# 2 -0.008298 0.016665 0.000501 0.000000 -0.000877 0.000000
# 3 -0.002363 0.000501 0.013097 0.000000 0.012256 0.000000
# 4 0.000000 0.000000 0.000000 0.056748 0.000000 0.030913
# 5 0.002762 -0.000877 0.012256 0.000000 0.043085 0.000000
# 6 0.000000 0.000000 0.000000 0.030913 0.000000 0.090679
#
#
# Mechanical properties :
#
#
# Convention : Reuss Voigt Hill
#
# Bulk Modulus (GPa) = 42.11805 55.02219 48.57012
# Shear Modulus (GPa) = 19.02549 28.00481 23.51515
#
# Velocity S-wave (km/s) = 3.09331 3.75295 3.43898
# Velocity P-wave (km/s) = 5.82587 6.81558 6.34007
#
# Compressibility (1/GPa) = 0.02374279
#
# Stress axis : x y z
#
# Youngs Moduli (GPa) = 69.92994 60.00780 76.35600
#
# Poissons Ratio (x) = 0.49793 0.18041
# Poissons Ratio (y) = 0.58027 -0.03829
# Poissons Ratio (z) = 0.16523 -0.03009
#
# Static dielectric constant tensor:
#      x y z
#    x 1.730470 0.000000 0.024940 
#    y 0.000000 1.686980 0.000000 
#    z 0.024940 0.000000 1.767710 
# 
# From -- ./inp_files/123489.got.cif
#   From: 2010.05.17/outbox.cif.g08.bks.cpg/sg12_62_cif.got.tgz:123489.got - 2010.06.03 13:09:07.
