data_PCOD9220942
_publ_section_title
;
Structure prediction by ZEFSAII (Michael W. Deem and Ramdas Pophale) SiO2 
 PCOD9220942
Probable space group: C 2/M
;
_chemical_formula_sum "Si O2"
_cell_formula_units_Z 40
_cell_length_a 7.212189
_cell_length_b 29.256415
_cell_length_c 11.427102
_cell_angle_alpha 90.000000
_cell_angle_beta 136.328974
_cell_angle_gamma 90.000000
_cell_volume 1664.939713
_symmetry_space_group_name_H-M "C 2/M"
_symmetry_group_IT_number 12
_symmetry_cell_setting 'monoclinic'
loop_
_space_group_symop_operation_xyz
x,y,z
-x,y,-z
-x,-y,-z
x,-y,z
1/2+x,1/2+y,z
1/2-x,1/2+y,-z
1/2-x,1/2-y,-z
1/2+x,1/2-y,z
loop_
_atom_site_type_symbol
_atom_site_label
_atom_site_fract_x
_atom_site_fract_y
_atom_site_fract_z
Si Si1 0.996316 0.213951 0.625313
Si Si2 0.560351 0.888369 0.662271
Si Si3 0.430423 0.552411 0.134390
Si Si4 0.660572 0.947968 0.252198
Si Si5 0.840131 0.200041 0.806485
O O1 0.253044 0.247275 0.756751
O O2 0.000000 0.189808 0.500000
O O3 0.750000 0.250000 0.500000
O O4 0.968811 0.188456 0.737331
O O5 0.500000 0.895675 0.500000
O O6 0.346594 0.912431 0.647095
O O7 0.593019 0.834910 0.701688
O O8 0.850410 0.912590 0.812069
O O9 0.527800 0.500000 0.162583
O O10 0.369109 0.560050 0.243304
O O11 0.138068 0.555288 0.941494
O O12 0.693021 0.000000 0.309322
O O13 0.000000 0.194157 0.000000
#
# Coordination Sequence:
#
# PCOD9220942 Si02
#       5
#     8   8   8   8   8
#     4   9  19  39  63  87 118 152 186 242 304 356
#     4  12  24  37  56  88 125 160 198 252 306 354
#     4   9  19  38  61  86 116 156 204 251 303 360
#     4   9  19  38  62  85 116 157 203 252 302 360
#     4  11  22  40  63  89 119 157 205 243 292 368
#
# _framework density 24.024894
#
# number of rings (size 3 to 8) (size 9 to 14) (size 15 to 20)
#    0.000    2.000    0.000    6.000    0.000    4.000 
#   10.800    2.000    0.000    0.000    0.000    0.000 
#    0.000    0.000    0.000    0.000    0.000    0.000 
#
# Total GULP energy -111819.486912 kJ/mol
# GULP energy per Si atom -5590.974346 kJ/mol
# Density = 2.397021 g / cm^3
# Si number density = 24.024894 Si / 1000 Ang^3
#
#
#
# Elastic Constant Matrix: (Units=GPa)
#
#
# Indices 1 2 3 4 5 6 
#
# 1 107.6954 44.3874 42.4698 0.0000 -40.7312 0.0000
# 2 44.3874 76.5297 14.1634 0.0000 -20.5226 0.0000
# 3 42.4698 14.1634 118.6752 0.0000 -43.8914 0.0000
# 4 0.0000 0.0000 0.0000 29.4752 0.0000 -5.3967
# 5 -40.7312 -20.5226 -43.8914 0.0000 56.4073 0.0000
# 6 0.0000 0.0000 0.0000 -5.3967 0.0000 -0.8000
#
#
#
# Elastic Compliance Matrix: (Units=1/GPa)
#
#
# Indices 1 2 3 4 5 6 
#
# 1 0.015614 -0.006741 -0.002135 0.000000 0.007161 0.000000
# 2 -0.006741 0.017398 0.001231 0.000000 0.002420 0.000000
# 3 -0.002135 0.001231 0.012130 0.000000 0.008345 0.000000
# 4 0.000000 0.000000 0.000000 0.015179 0.000000 -0.102396
# 5 0.007161 0.002420 0.008345 0.000000 0.030273 0.000000
# 6 0.000000 0.000000 0.000000 -0.102396 0.000000 -0.559255
#
#
# Mechanical properties :
#
#
# Convention : Reuss Voigt Hill
#
# Bulk Modulus (GPa) = 33.49804 56.10461 44.80132
# Shear Modulus (GPa) = -11.27593 30.47515 9.59961
#
# Velocity S-wave (km/s) = -2.16878 3.56544 2.00109
# Velocity P-wave (km/s) = 2.77522 6.35242 4.90179
#
# Compressibility (1/GPa) = 0.02985250
#
# Stress axis : x y z
#
# Youngs Moduli (GPa) = 64.04567 57.47913 82.44288
#
# Poissons Ratio (x) = 0.38745 0.17599
# Poissons Ratio (y) = 0.43171 -0.10149
# Poissons Ratio (z) = 0.13672 -0.07076
#
# Static dielectric constant tensor:
#      x y z
#    x 1.939480 0.000000 -0.006280 
#    y 0.000000 1.888310 0.000000 
#    z -0.006280 0.000000 1.948930 
# 
# From -- ./inp_files/125463.got.cif
#   From: 2010.05.17/outbox.cif.g08.bks.cpg/sg12_63_cif.got.tgz:125463.got - 2010.06.03 13:09:07.
