data_PCOD9220559
_publ_section_title
;
Structure prediction by ZEFSAII (Michael W. Deem and Ramdas Pophale) SiO2 
 PCOD9220559
Probable space group: C 2/M
;
_chemical_formula_sum "Si O2"
_cell_formula_units_Z 64
_cell_length_a 23.118909
_cell_length_b 14.944832
_cell_length_c 16.824198
_cell_angle_alpha 90.000000
_cell_angle_beta 29.517639
_cell_angle_gamma 90.000000
_cell_volume 2863.965610
_symmetry_space_group_name_H-M "C 2/M"
_symmetry_group_IT_number 12
_symmetry_cell_setting 'monoclinic'
loop_
_space_group_symop_operation_xyz
x,y,z
-x,y,-z
-x,-y,-z
x,-y,z
1/2+x,1/2+y,z
1/2-x,1/2+y,-z
1/2-x,1/2-y,-z
1/2+x,1/2-y,z
loop_
_atom_site_type_symbol
_atom_site_label
_atom_site_fract_x
_atom_site_fract_y
_atom_site_fract_z
Si Si1 0.369000 0.763404 0.807616
Si Si2 0.995253 0.761329 0.916351
Si Si3 0.324522 0.398277 0.353409
Si Si4 0.231692 0.595496 0.719317
Si Si5 0.752270 0.718757 0.777296
Si Si6 0.949218 0.397255 0.469746
Si Si7 0.529735 0.596658 0.656232
Si Si8 0.911658 0.601038 0.275656
O O1 0.326773 0.765424 0.767058
O O2 0.457100 0.849674 0.701227
O O3 0.447586 0.679026 0.736854
O O4 0.250000 0.750000 0.000000
O O5 0.110937 0.822784 0.773453
O O6 0.001938 0.683830 0.841904
O O7 0.000000 0.724007 0.000000
O O8 0.876877 0.819532 0.047936
O O9 0.332130 0.500000 0.313108
O O10 0.400368 0.395825 0.344466
O O11 0.189775 0.379783 0.538410
O O12 0.200716 0.500000 0.795221
O O13 0.220192 0.683085 0.784400
O O14 0.367764 0.594832 0.531574
O O15 0.159015 0.599408 0.724124
O O16 0.830618 0.660987 0.622947
O O17 0.927195 0.500000 0.472993
O O18 0.000000 0.399715 0.500000
O O19 0.467760 0.500000 0.729770
O O20 0.957766 0.500000 0.232746
#
# Coordination Sequence:
#
# PCOD9220559 Si02
#       8
#     8   8   8   8   8   8   8   8
#     4  11  22  36  59  88 117 149 193 246 288 351
#     4  12  23  35  58  88 119 157 196 248 301 339
#     4   9  20  39  61  84 113 153 199 241 288 354
#     4   9  17  33  58  85 113 148 191 235 288 354
#     4  11  22  37  55  87 119 152 198 241 290 347
#     4   9  20  40  62  81 112 159 200 234 282 348
#     4   9  18  35  60  85 113 149 186 232 294 356
#     4   9  19  38  61  84 114 158 202 238 288 358
#
# _framework density 22.346636
#
# number of rings (size 3 to 8) (size 9 to 14) (size 15 to 20)
#    0.000    2.125    2.500    2.625    0.000    2.500 
#    0.000    3.750    0.000    5.250    0.000    0.000 
#    0.000    0.000    0.000    0.000    0.000    0.000 
#
# Total GULP energy -178660.538474 kJ/mol
# GULP energy per Si atom -5583.141827 kJ/mol
# Density = 2.229577 g / cm^3
# Si number density = 22.346636 Si / 1000 Ang^3
#
#
#
# Elastic Constant Matrix: (Units=GPa)
#
#
# Indices 1 2 3 4 5 6 
#
# 1 48.2285 21.4257 12.4990 0.0000 -2.3441 0.0000
# 2 21.4257 126.9336 70.1512 0.0000 6.7028 0.0000
# 3 12.4990 70.1512 119.3889 0.0000 1.8652 0.0000
# 4 0.0000 0.0000 0.0000 3.9304 0.0000 3.3087
# 5 -2.3441 6.7028 1.8652 0.0000 32.0234 0.0000
# 6 0.0000 0.0000 0.0000 3.3087 0.0000 22.5291
#
#
#
# Elastic Compliance Matrix: (Units=1/GPa)
#
#
# Indices 1 2 3 4 5 6 
#
# 1 0.022610 -0.003876 -0.000128 0.000000 0.002474 0.000000
# 2 -0.003876 0.012467 -0.006880 0.000000 -0.002492 0.000000
# 3 -0.000128 -0.006880 0.012421 0.000000 0.000707 0.000000
# 4 0.000000 0.000000 0.000000 0.290318 0.000000 -0.042637
# 5 0.002474 -0.002492 0.000707 0.000000 0.031889 0.000000
# 6 0.000000 0.000000 0.000000 -0.042637 0.000000 0.050649
#
#
# Mechanical properties :
#
#
# Convention : Reuss Voigt Hill
#
# Bulk Modulus (GPa) = 38.86778 55.85587 47.36182
# Shear Modulus (GPa) = 11.09388 24.39493 17.74440
#
# Velocity S-wave (km/s) = 2.23052 3.30761 2.82095
# Velocity P-wave (km/s) = 4.90556 6.29575 5.64363
#
# Compressibility (1/GPa) = 0.02572825
#
# Stress axis : x y z
#
# Youngs Moduli (GPa) = 44.22799 80.21438 80.50763
#
# Poissons Ratio (x) = 0.31094 0.01031
# Poissons Ratio (y) = 0.17144 0.55393
# Poissons Ratio (z) = 0.00566 0.55191
#
# Static dielectric constant tensor:
#      x y z
#    x 1.857560 0.000000 0.001200 
#    y 0.000000 1.849130 0.000000 
#    z 0.001200 0.000000 1.927650 
# 
# From -- ./inp_files/330376.got.cif
#   From: 2010.05.17/outbox.cif.g08.bks.cpg/sg12_166_cif.got.tgz:330376.got - 2010.06.03 13:09:07.
