data_PCOD9220903
_publ_section_title
;
Structure prediction by ZEFSAII (Michael W. Deem and Ramdas Pophale) SiO2 
 PCOD9220903
Probable space group: C 2/M
;
_chemical_formula_sum "Si O2"
_cell_formula_units_Z 64
_cell_length_a 21.666146
_cell_length_b 15.001585
_cell_length_c 15.906150
_cell_angle_alpha 90.000000
_cell_angle_beta 34.661665
_cell_angle_gamma 90.000000
_cell_volume 2940.285528
_symmetry_space_group_name_H-M "C 2/M"
_symmetry_group_IT_number 12
_symmetry_cell_setting 'monoclinic'
loop_
_space_group_symop_operation_xyz
x,y,z
-x,y,-z
-x,-y,-z
x,-y,z
1/2+x,1/2+y,z
1/2-x,1/2+y,-z
1/2-x,1/2-y,-z
1/2+x,1/2-y,z
loop_
_atom_site_type_symbol
_atom_site_label
_atom_site_fract_x
_atom_site_fract_y
_atom_site_fract_z
Si Si1 0.392470 0.902082 0.947025
Si Si2 0.828470 0.681520 0.859288
Si Si3 0.518360 0.600605 0.109472
Si Si4 0.307953 0.724103 0.600783
Si Si5 0.844496 0.900458 0.708973
Si Si6 0.015630 0.163510 0.298418
Si Si7 0.249192 0.604944 0.232341
Si Si8 0.935966 0.284088 0.158055
O O1 0.357058 0.897397 0.890203
O O2 0.487615 0.832912 0.859938
O O3 0.429643 0.000000 0.930722
O O4 0.278722 0.882898 0.121165
O O5 0.792838 0.645662 0.809418
O O6 0.934081 0.741515 0.733623
O O7 0.750000 0.750000 0.000000
O O8 0.475830 0.500000 0.152982
O O9 0.551967 0.622694 0.168341
O O10 0.438214 0.679504 0.175875
O O11 0.621146 0.607668 0.931671
O O12 0.360685 0.674608 0.621960
O O13 0.388547 0.687738 0.438810
O O14 0.291400 0.827020 0.649408
O O15 0.187797 0.688197 0.714626
O O16 0.929874 0.895958 0.689515
O O17 0.847901 0.000000 0.668817
O O18 0.220093 0.500000 0.276290
O O19 0.000000 0.300304 0.000000
#
# Coordination Sequence:
#
# PCOD9220903 Si02
#       8
#     8   8   8   8   8   8   8   8
#     4  11  22  39  66  98 124 164 218 270 320 379
#     4  12  19  38  67  95 126 168 211 269 325 384
#     4  11  23  42  71  99 125 167 225 282 322 375
#     4  12  26  42  63  96 136 179 209 265 327 390
#     4  11  22  39  66  97 128 162 209 267 323 385
#     4  12  24  40  67  95 133 164 214 264 340 382
#     4  11  22  40  68 102 132 170 219 270 326 387
#     4  12  23  43  67  93 129 172 223 265 318 392
#
# _framework density 21.766594000000001
#
# number of rings (size 3 to 8) (size 9 to 14) (size 15 to 20)
#    0.000    0.500    7.500    1.125    0.000    5.500 
#    0.000    1.875    0.000    0.000    0.000    0.000 
#    0.000    0.000    0.000    0.000    0.000    0.000 
#
# Total GULP energy -178583.195375 kJ/mol
# GULP energy per Si atom -5580.724855 kJ/mol
# Density = 2.171705 g / cm^3
# Si number density = 21.766594 Si / 1000 Ang^3
#
#
#
# Elastic Constant Matrix: (Units=GPa)
#
#
# Indices 1 2 3 4 5 6 
#
# 1 68.8923 15.5204 8.9858 0.0000 -14.7436 0.0000
# 2 15.5204 106.8202 29.8432 0.0000 0.4356 0.0000
# 3 8.9858 29.8432 63.9729 0.0000 -24.5961 0.0000
# 4 0.0000 0.0000 0.0000 14.4555 0.0000 2.6464
# 5 -14.7436 0.4356 -24.5961 0.0000 29.0046 0.0000
# 6 0.0000 0.0000 0.0000 2.6464 0.0000 4.7683
#
#
#
# Elastic Compliance Matrix: (Units=1/GPa)
#
#
# Indices 1 2 3 4 5 6 
#
# 1 0.017470 -0.003714 0.004027 0.000000 0.012351 0.000000
# 2 -0.003714 0.012466 -0.009038 0.000000 -0.009740 0.000000
# 3 0.004027 -0.009038 0.029856 0.000000 0.027501 0.000000
# 4 0.000000 0.000000 0.000000 0.077002 0.000000 -0.042736
# 5 0.012351 -0.009740 0.027501 0.000000 0.064223 0.000000
# 6 0.000000 0.000000 0.000000 -0.042736 0.000000 0.233435
#
#
# Mechanical properties :
#
#
# Convention : Reuss Voigt Hill
#
# Bulk Modulus (GPa) = 23.61704 38.70934 31.16319
# Shear Modulus (GPa) = 10.72927 22.00142 16.36535
#
# Velocity S-wave (km/s) = 2.22260 3.18274 2.74497
# Velocity P-wave (km/s) = 4.17855 5.59722 4.93909
#
# Compressibility (1/GPa) = 0.04234231
#
# Stress axis : x y z
#
# Youngs Moduli (GPa) = 57.24060 80.21862 33.49452
#
# Poissons Ratio (x) = 0.29792 -0.13490
# Poissons Ratio (y) = 0.21258 0.30273
# Poissons Ratio (z) = -0.23053 0.72504
#
# Static dielectric constant tensor:
#      x y z
#    x 1.859820 0.000000 0.011210 
#    y 0.000000 1.797530 0.000000 
#    z 0.011210 0.000000 1.890060 
# 
# From -- ./inp_files/290070.got.cif
#   From: 2010.05.17/outbox.cif.g08.bks.cpg/sg12_146_cif.got.tgz:290070.got - 2010.06.03 13:09:07.
