data_PCOD9220982
_publ_section_title
;
Structure prediction by ZEFSAII (Michael W. Deem and Ramdas Pophale) SiO2 
 PCOD9220982
Probable space group: C 2/M
;
_chemical_formula_sum "Si O2"
_cell_formula_units_Z 48
_cell_length_a 11.636940
_cell_length_b 26.792830
_cell_length_c 13.572825
_cell_angle_alpha 90.000000
_cell_angle_beta 33.174983
_cell_angle_gamma 90.000000
_cell_volume 2315.645041
_symmetry_space_group_name_H-M "C 2/M"
_symmetry_group_IT_number 12
_symmetry_cell_setting 'monoclinic'
loop_
_space_group_symop_operation_xyz
x,y,z
-x,y,-z
-x,-y,-z
x,-y,z
1/2+x,1/2+y,z
1/2-x,1/2+y,-z
1/2-x,1/2-y,-z
1/2+x,1/2-y,z
loop_
_atom_site_type_symbol
_atom_site_label
_atom_site_fract_x
_atom_site_fract_y
_atom_site_fract_z
Si Si1 0.848618 0.054845 0.272193
Si Si2 0.151103 0.212974 0.487324
Si Si3 0.440347 0.054732 0.705915
Si Si4 0.517530 0.864395 0.809029
Si Si5 0.776261 0.445505 0.217979
Si Si6 0.913596 0.872386 0.781331
O O1 0.653106 0.055645 0.488798
O O2 0.748752 0.055647 0.235737
O O3 0.973251 0.105575 0.203863
O O4 0.955903 0.000000 0.206176
O O5 0.250000 0.250000 0.500000
O O6 0.358354 0.185996 0.296858
O O7 0.000000 0.228222 0.500000
O O8 0.025546 0.170753 0.639968
O O9 0.434206 0.103903 0.776294
O O10 0.435044 0.000000 0.762201
O O11 0.687974 0.903229 0.728283
O O12 0.322630 0.856959 0.021871
O O13 0.726584 0.500000 0.291258
O O14 0.603998 0.423264 0.269302
O O15 0.000000 0.448309 0.000000
#
# Coordination Sequence:
#
# PCOD9220982 Si02
#       6
#     8   8   8   8   8   8
#     4   9  18  33  56  91 137 183 222 260 311 388
#     4  12  28  50  72  95 124 168 223 290 356 404
#     4   9  18  33  56  91 137 183 222 260 311 388
#     4  11  22  40  66  95 129 167 214 268 330 397
#     4   9  18  33  59  97 136 167 199 244 307 393
#     4  11  22  40  66  95 129 167 214 268 330 397
#
# _framework density 20.728565
#
# number of rings (size 3 to 8) (size 9 to 14) (size 15 to 20)
#    0.000    1.833    3.333    2.000    0.000    4.667 
#    0.000    2.500    0.000    0.000    0.000    0.000 
#    0.000    0.000    0.000    0.000    0.000    0.000 
#
# Total GULP energy -133780.571428 kJ/mol
# GULP energy per Si atom -5574.190476 kJ/mol
# Density = 2.068139 g / cm^3
# Si number density = 20.728565 Si / 1000 Ang^3
#
#
#
# Elastic Constant Matrix: (Units=GPa)
#
#
# Indices 1 2 3 4 5 6 
#
# 1 97.0250 39.4125 2.9512 0.0000 -11.5412 0.0000
# 2 39.4125 71.6632 7.3647 0.0000 -13.4023 0.0000
# 3 2.9512 7.3647 59.1548 0.0000 -13.0865 0.0000
# 4 0.0000 0.0000 0.0000 19.6196 0.0000 -0.3512
# 5 -11.5412 -13.4023 -13.0865 0.0000 16.1541 0.0000
# 6 0.0000 0.0000 0.0000 -0.3512 0.0000 34.5526
#
#
#
# Elastic Compliance Matrix: (Units=1/GPa)
#
#
# Indices 1 2 3 4 5 6 
#
# 1 0.013583 -0.006618 0.001314 0.000000 0.005278 0.000000
# 2 -0.006618 0.019810 0.000553 0.000000 0.012155 0.000000
# 3 0.001314 0.000553 0.020809 0.000000 0.018255 0.000000
# 4 0.000000 0.000000 0.000000 0.050979 0.000000 0.000518
# 5 0.005278 0.012155 0.018255 0.000000 0.090548 0.000000
# 6 0.000000 0.000000 0.000000 0.000518 0.000000 0.028947
#
#
# Mechanical properties :
#
#
# Convention : Reuss Voigt Hill
#
# Bulk Modulus (GPa) = 22.37171 36.36666 29.36918
# Shear Modulus (GPa) = 20.07408 25.93956 23.00682
#
# Velocity S-wave (km/s) = 3.11533 3.54134 3.33514
# Velocity P-wave (km/s) = 4.87406 5.85694 5.38796
#
# Compressibility (1/GPa) = 0.04469931
#
# Stress axis : x y z
#
# Youngs Moduli (GPa) = 73.62265 50.47862 48.05657
#
# Poissons Ratio (x) = 0.33407 -0.06314
# Poissons Ratio (y) = 0.48724 -0.02657
# Poissons Ratio (z) = -0.09673 -0.02791
#
# Static dielectric constant tensor:
#      x y z
#    x 1.916170 0.000000 0.001680 
#    y 0.000000 1.725400 0.000000 
#    z 0.001680 0.000000 1.782360 
# 
# From -- ./inp_files/209280.got.cif
#   From: 2010.05.17/outbox.cif.g08.bks.cpg/sg12_105_cif.got.tgz:209280.got - 2010.06.03 13:09:07.
