data_PCOD9220965
_publ_section_title
;
Structure prediction by ZEFSAII (Michael W. Deem and Ramdas Pophale) SiO2 
 PCOD9220965
Probable space group: C 2/M
;
_chemical_formula_sum "Si O2"
_cell_formula_units_Z 42
_cell_length_a 8.790679
_cell_length_b 17.601029
_cell_length_c 13.769068
_cell_angle_alpha 90.000000
_cell_angle_beta 109.786719
_cell_angle_gamma 90.000000
_cell_volume 2004.637482
_symmetry_space_group_name_H-M "C 2/M"
_symmetry_group_IT_number 12
_symmetry_cell_setting 'monoclinic'
loop_
_space_group_symop_operation_xyz
x,y,z
-x,y,-z
-x,-y,-z
x,-y,z
1/2+x,1/2+y,z
1/2-x,1/2+y,-z
1/2-x,1/2-y,-z
1/2+x,1/2-y,z
loop_
_atom_site_type_symbol
_atom_site_label
_atom_site_fract_x
_atom_site_fract_y
_atom_site_fract_z
Si Si1 0.985984 0.688031 0.208978
Si Si2 0.000000 0.000000 0.500000
Si Si3 0.713397 0.375580 0.647427
Si Si4 0.857698 0.292080 0.397009
Si Si5 0.411504 0.588130 0.705480
Si Si6 0.873966 0.172059 0.885957
O O1 0.110447 0.620446 0.263870
O O2 0.080982 0.752695 0.168977
O O3 0.927010 0.713337 0.302854
O O4 0.813293 0.672498 0.121016
O O5 0.861882 0.065573 0.444365
O O6 0.707595 0.292253 0.597855
O O7 0.584952 0.384404 0.706900
O O8 0.723236 0.357020 0.368498
O O9 0.000000 0.311620 0.500000
O O10 0.395455 0.500000 0.671025
O O11 0.395344 0.601824 0.816572
O O12 0.000000 0.168760 0.000000
#
# Coordination Sequence:
#
# PCOD9220965 Si02
#       6
#     8   2   8   8   8   8
#     4  11  22  40  65 100 131 172 228 280 327 402
#     4  12  28  36  68 102 136 188 224 270 332 396
#     4  12  22  42  63  95 134 177 226 266 327 395
#     4  11  23  39  67  94 134 180 224 266 330 403
#     4  11  24  43  63  95 138 177 220 282 339 394
#     4  11  22  42  71 100 131 174 227 285 349 399
#
# _framework density 20.951419999999999
#
# number of rings (size 3 to 8) (size 9 to 14) (size 15 to 20)
#    0.000    0.762    7.619    0.571    2.667    2.286 
#    6.857    0.000    0.000    1.143    0.000    0.000 
#    0.000    0.000    0.000    0.000    0.000    0.000 
#
# Total GULP energy -117017.055298 kJ/mol
# GULP energy per Si atom -5572.240728 kJ/mol
# Density = 2.090373 g / cm^3
# Si number density = 20.951420 Si / 1000 Ang^3
#
#
#
# Elastic Constant Matrix: (Units=GPa)
#
#
# Indices 1 2 3 4 5 6 
#
# 1 144.8278 57.8105 46.4328 0.0000 44.0781 0.0000
# 2 57.8105 126.8794 26.2531 0.0000 26.5797 0.0000
# 3 46.4328 26.2531 101.6511 0.0000 53.3585 0.0000
# 4 0.0000 0.0000 0.0000 17.8003 0.0000 3.6758
# 5 44.0781 26.5797 53.3585 0.0000 46.3109 0.0000
# 6 0.0000 0.0000 0.0000 3.6758 0.0000 21.7283
#
#
#
# Elastic Compliance Matrix: (Units=1/GPa)
#
#
# Indices 1 2 3 4 5 6 
#
# 1 0.010733 -0.003094 0.000826 0.000000 -0.009392 0.000000
# 2 -0.003094 0.009889 0.000741 0.000000 -0.003584 0.000000
# 3 0.000826 0.000741 0.025063 0.000000 -0.030088 0.000000
# 4 0.000000 0.000000 0.000000 0.058213 0.000000 -0.009848
# 5 -0.009392 -0.003584 -0.030088 0.000000 0.067257 0.000000
# 6 0.000000 0.000000 0.000000 -0.009848 0.000000 0.047689
#
#
# Mechanical properties :
#
#
# Convention : Reuss Voigt Hill
#
# Bulk Modulus (GPa) = 23.45685 70.48347 46.97016
# Shear Modulus (GPa) = 21.17682 33.35869 27.26775
#
# Velocity S-wave (km/s) = 3.18269 3.99456 3.61151
# Velocity P-wave (km/s) = 4.97254 7.41551 6.31332
#
# Compressibility (1/GPa) = 0.04263146
#
# Stress axis : x y z
#
# Youngs Moduli (GPa) = 93.16792 101.12478 39.89985
#
# Poissons Ratio (x) = 0.31287 -0.03297
# Poissons Ratio (y) = 0.28825 -0.02956
# Poissons Ratio (z) = -0.07699 -0.07491
#
# Static dielectric constant tensor:
#      x y z
#    x 1.647300 0.000000 0.165760 
#    y 0.000000 1.756120 0.000000 
#    z 0.165760 0.000000 1.592620 
# 
# From -- ./inp_files/195653.got.cif
#   From: 2010.05.17/outbox.cif.g08.bks.cpg/sg12_98_cif.got.tgz:195653.got - 2010.06.03 13:09:07.
