data_PCOD9220879
_publ_section_title
;
Structure prediction by ZEFSAII (Michael W. Deem and Ramdas Pophale) SiO2 
 PCOD9220879
Probable space group: C 2/M
;
_chemical_formula_sum "Si O2"
_cell_formula_units_Z 40
_cell_length_a 24.605605
_cell_length_b 10.475516
_cell_length_c 17.670575
_cell_angle_alpha 90.000000
_cell_angle_beta 22.247033
_cell_angle_gamma 90.000000
_cell_volume 1724.414054
_symmetry_space_group_name_H-M "C 2/M"
_symmetry_group_IT_number 12
_symmetry_cell_setting 'monoclinic'
loop_
_space_group_symop_operation_xyz
x,y,z
-x,y,-z
-x,-y,-z
x,-y,z
1/2+x,1/2+y,z
1/2-x,1/2+y,-z
1/2-x,1/2-y,-z
1/2+x,1/2-y,z
loop_
_atom_site_type_symbol
_atom_site_label
_atom_site_fract_x
_atom_site_fract_y
_atom_site_fract_z
Si Si1 0.521194 0.000000 0.755238
Si Si2 0.830305 0.000000 0.277786
Si Si3 0.329342 0.000000 0.279711
Si Si4 0.014586 0.000000 0.763416
Si Si5 0.165023 0.747376 0.000914
Si Si6 0.973101 0.150174 0.625163
Si Si7 0.718149 0.751998 0.752019
O O1 0.671682 0.000000 0.518679
O O2 0.560860 0.000000 0.792876
O O3 0.429646 0.125109 0.856748
O O4 0.942126 0.000000 0.202974
O O5 0.836190 0.874079 0.219277
O O6 0.169164 0.000000 0.523166
O O7 0.342655 0.875728 0.211345
O O8 0.919948 0.875117 0.868377
O O9 0.323955 0.723612 0.828707
O O10 0.183258 0.749922 0.885813
O O11 0.000000 0.144866 0.500000
O O12 0.109879 0.227536 0.478930
O O13 0.967704 0.000000 0.655294
#
# Coordination Sequence:
#
# PCOD9220879 Si02
#       7
#     4   4   4   4   8   8   8
#     4  11  23  40  61  86 120 163 204 243 296 357
#     4  11  25  42  57  86 132 163 188 245 312 353
#     4  11  23  40  61  86 120 163 204 243 296 357
#     4  11  25  42  57  86 132 163 188 245 312 353
#     4  11  22  39  65  90 117 157 203 248 294 353
#     4   9  18  37  62  90 121 150 192 254 305 340
#     4  11  22  39  65  90 117 157 203 248 294 353
#
# _framework density 23.196285
#
# number of rings (size 3 to 8) (size 9 to 14) (size 15 to 20)
#    0.000    1.400    2.000    3.600    0.000    8.800 
#    0.000    9.000    0.000    0.000    0.000    0.000 
#    0.000    0.000    0.000    0.000    0.000    0.000 
#
# Total GULP energy -112132.434900 kJ/mol
# GULP energy per Si atom -5606.621745 kJ/mol
# Density = 2.314349 g / cm^3
# Si number density = 23.196285 Si / 1000 Ang^3
#
#
#
# Elastic Constant Matrix: (Units=GPa)
#
#
# Indices 1 2 3 4 5 6 
#
# 1 86.2426 46.2026 32.0076 0.0000 -10.0485 0.0000
# 2 46.2026 209.8193 64.9893 0.0000 -15.3097 0.0000
# 3 32.0076 64.9893 159.6891 -0.0001 -20.3535 0.0000
# 4 0.0000 0.0000 -0.0001 79.3919 0.0000 0.0255
# 5 -10.0485 -15.3097 -20.3535 0.0000 53.3293 0.0000
# 6 0.0000 0.0000 0.0000 0.0255 0.0000 27.6315
#
#
#
# Elastic Compliance Matrix: (Units=1/GPa)
#
#
# Indices 1 2 3 4 5 6 
#
# 1 0.013626 -0.002417 -0.001586 0.000000 0.001268 0.000000
# 2 -0.002417 0.005911 -0.001853 0.000000 0.000534 0.000000
# 3 -0.001586 -0.001853 0.007598 0.000000 0.002069 0.000000
# 4 0.000000 0.000000 0.000000 0.012596 0.000000 -0.000012
# 5 0.001268 0.000534 0.002069 0.000000 0.019933 0.000000
# 6 0.000000 0.000000 0.000000 -0.000012 0.000000 0.036191
#
#
# Mechanical properties :
#
#
# Convention : Reuss Voigt Hill
#
# Bulk Modulus (GPa) = 64.83570 82.46111 73.64841
# Shear Modulus (GPa) = 44.36230 52.90731 48.63481
#
# Velocity S-wave (km/s) = 4.37793 4.78101 4.58390
# Velocity P-wave (km/s) = 7.31892 8.13043 7.73532
#
# Compressibility (1/GPa) = 0.01542360
#
# Stress axis : x y z
#
# Youngs Moduli (GPa) = 73.38741 169.17132 131.61415
#
# Poissons Ratio (x) = 0.40884 0.20874
# Poissons Ratio (y) = 0.17736 0.24391
# Poissons Ratio (z) = 0.11639 0.31351
#
# Static dielectric constant tensor:
#      x y z
#    x 1.881560 0.000000 0.033120 
#    y 0.000000 1.774060 0.000000 
#    z 0.033120 0.000000 1.872250 
# 
# From -- ./inp_files/329423.got.cif
#   From: 2010.05.17/outbox.cif.g08.bks.cpg/sg12_165_cif.got.tgz:329423.got - 2010.06.03 13:09:07.
