data_PCOD9220380
_publ_section_title
;
Structure prediction by ZEFSAII (Michael W. Deem and Ramdas Pophale) SiO2 
 PCOD9220380
Probable space group: C 2/M
;
_chemical_formula_sum "Si O2"
_cell_formula_units_Z 32
_cell_length_a 9.799235
_cell_length_b 27.544498
_cell_length_c 13.888647
_cell_angle_alpha 90.000000
_cell_angle_beta 153.282006
_cell_angle_gamma 90.000000
_cell_volume 1685.438213
_symmetry_space_group_name_H-M "C 2/M"
_symmetry_group_IT_number 12
_symmetry_cell_setting 'monoclinic'
loop_
_space_group_symop_operation_xyz
x,y,z
-x,y,-z
-x,-y,-z
x,-y,z
1/2+x,1/2+y,z
1/2-x,1/2+y,-z
1/2-x,1/2-y,-z
1/2+x,1/2-y,z
loop_
_atom_site_type_symbol
_atom_site_label
_atom_site_fract_x
_atom_site_fract_y
_atom_site_fract_z
Si Si1 0.220883 0.079950 0.049598
Si Si2 0.697058 0.740657 0.353913
Si Si3 0.232626 0.500000 0.409608
Si Si4 0.357865 0.500000 0.704477
Si Si5 0.896610 0.324684 0.044394
O O1 0.338623 0.126962 0.068357
O O2 0.507026 0.046359 0.260105
O O3 0.000000 0.092155 0.000000
O O4 0.016806 0.046483 0.851630
O O5 0.750000 0.750000 0.500000
O O6 0.623778 0.789553 0.246968
O O7 0.000000 0.718405 0.500000
O O8 0.415049 0.705297 0.161080
O O9 0.500000 0.500000 0.500000
O O10 0.394013 0.500000 0.613770
O O11 0.000000 0.500000 0.500000
O O12 0.000000 0.334400 0.000000
#
# Coordination Sequence:
#
# PCOD9220380 Si02
#       5
#     8   8   4   4   8
#     4  11  25  42  65  95 128 166 214 260 313 379
#     4  11  24  45  66  89 129 172 208 257 318 378
#     4  11  25  43  65  95 127 169 213 261 314 372
#     4  11  21  45  67  86 129 171 211 256 311 375
#     4  11  26  42  64  98 130 161 213 267 314 376
#
# _framework density 18.986160000000002
#
# number of rings (size 3 to 8) (size 9 to 14) (size 15 to 20)
#    0.000    1.000    5.000    0.750    7.000    5.000 
#    0.000    0.000    0.000    0.000    0.000    0.000 
#    0.000    0.000    0.000    0.000    0.000    0.000 
#
# Total GULP energy -89423.158363 kJ/mol
# GULP energy per Si atom -5588.947398 kJ/mol
# Density = 1.894295 g / cm^3
# Si number density = 18.986160 Si / 1000 Ang^3
#
#
#
# Elastic Constant Matrix: (Units=GPa)
#
#
# Indices 1 2 3 4 5 6 
#
# 1 179.4738 45.1538 34.2526 0.0000 -12.3423 0.0000
# 2 45.1538 114.2779 17.8385 0.0000 -10.5490 0.0000
# 3 34.2526 17.8385 85.8868 0.0000 -12.0395 0.0000
# 4 0.0000 0.0000 0.0000 2.8204 0.0000 -1.0105
# 5 -12.3423 -10.5490 -12.0395 0.0000 45.1602 0.0000
# 6 0.0000 0.0000 0.0000 -1.0105 0.0000 31.8990
#
#
#
# Elastic Compliance Matrix: (Units=1/GPa)
#
#
# Indices 1 2 3 4 5 6 
#
# 1 0.006570 -0.002207 -0.002059 0.000000 0.000731 0.000000
# 2 -0.002207 0.009909 -0.000974 0.000000 0.001452 0.000000
# 3 -0.002059 -0.000974 0.013044 0.000000 0.002687 0.000000
# 4 0.000000 0.000000 0.000000 0.358628 0.000000 0.011361
# 5 0.000731 0.001452 0.002687 0.000000 0.023399 0.000000
# 6 0.000000 0.000000 0.000000 0.011361 0.000000 0.031709
#
#
# Mechanical properties :
#
#
# Convention : Reuss Voigt Hill
#
# Bulk Modulus (GPa) = 52.51838 63.79203 58.15520
# Shear Modulus (GPa) = 10.86751 34.80217 22.83484
#
# Velocity S-wave (km/s) = 2.39506 4.28603 3.47177
# Velocity P-wave (km/s) = 5.94726 7.62664 6.83870
#
# Compressibility (1/GPa) = 0.01904095
#
# Stress axis : x y z
#
# Youngs Moduli (GPa) = 152.19602 100.92053 76.66614
#
# Poissons Ratio (x) = 0.22275 0.15789
# Poissons Ratio (y) = 0.33592 0.07470
# Poissons Ratio (z) = 0.31344 0.09833
#
# Static dielectric constant tensor:
#      x y z
#    x 1.691490 0.000000 -0.007290 
#    y 0.000000 1.637040 0.000000 
#    z -0.007290 0.000000 1.649730 
# 
# From -- ./inp_files/3767.got.cif
#   From: 2010.05.17/outbox.cif.g08.bks.cpg/sg12_2_cif.got.tgz:3767.got - 2010.06.03 13:09:07.
