data_PCOD9220351
_publ_section_title
;
Structure prediction by ZEFSAII (Michael W. Deem and Ramdas Pophale) SiO2 
 PCOD9220351
Probable space group: C 2/M
;
_chemical_formula_sum "Si O2"
_cell_formula_units_Z 40
_cell_length_a 14.522679
_cell_length_b 11.968342
_cell_length_c 19.353632
_cell_angle_alpha 90.000000
_cell_angle_beta 33.859324
_cell_angle_gamma 90.000000
_cell_volume 1874.216684
_symmetry_space_group_name_H-M "C 2/M"
_symmetry_group_IT_number 12
_symmetry_cell_setting 'monoclinic'
loop_
_space_group_symop_operation_xyz
x,y,z
-x,y,-z
-x,-y,-z
x,-y,z
1/2+x,1/2+y,z
1/2-x,1/2+y,-z
1/2-x,1/2-y,-z
1/2+x,1/2-y,z
loop_
_atom_site_type_symbol
_atom_site_label
_atom_site_fract_x
_atom_site_fract_y
_atom_site_fract_z
Si Si1 0.096849 0.132829 0.369201
Si Si2 0.354829 0.627937 0.033597
Si Si3 0.999724 0.709225 0.306638
Si Si4 0.606373 0.000000 0.548452
Si Si5 0.740451 0.000000 0.317867
Si Si6 0.087490 0.766920 0.793228
O O1 0.019772 0.196650 0.352188
O O2 0.286764 0.173068 0.258102
O O3 0.000000 0.166426 0.500000
O O4 0.085625 0.000000 0.368843
O O5 0.340638 0.500000 0.015381
O O6 0.413695 0.718981 0.940616
O O7 0.500000 0.629200 0.000000
O O8 0.181227 0.659863 0.175992
O O9 0.890554 0.609523 0.406488
O O10 0.931310 0.751102 0.276574
O O11 0.729417 0.000000 0.407811
O O12 0.431762 0.000000 0.615720
O O13 0.829068 0.886131 0.243447
#
# Coordination Sequence:
#
# PCOD9220351 Si02
#       6
#     8   8   8   4   4   8
#     4  11  26  46  65  92 138 182 212 261 330 393
#     4  11  21  42  72  97 127 170 217 279 334 385
#     4  12  25  43  67 101 132 170 223 273 328 390
#     4  11  22  41  69  98 131 173 225 278 324 381
#     4  11  22  41  69  98 131 173 225 278 324 381
#     4  12  25  43  67 101 132 170 223 273 328 390
#
# _framework density 21.342251000000001
#
# number of rings (size 3 to 8) (size 9 to 14) (size 15 to 20)
#    0.000    0.600    6.000    1.800    2.800    3.200 
#    0.000    2.000    0.000    0.000    0.000    0.000 
#    0.000    0.000    0.000    0.000    0.000    0.000 
#
# Total GULP energy -111923.397085 kJ/mol
# GULP energy per Si atom -5596.169854 kJ/mol
# Density = 2.129367 g / cm^3
# Si number density = 21.342251 Si / 1000 Ang^3
#
#
#
# Elastic Constant Matrix: (Units=GPa)
#
#
# Indices 1 2 3 4 5 6 
#
# 1 83.9919 29.6111 -1.8223 -0.0005 27.5251 0.0002
# 2 29.6111 89.2580 25.0700 -0.0010 16.7788 0.0004
# 3 -1.8223 25.0700 92.7109 -0.0020 21.5909 0.0010
# 4 -0.0005 -0.0010 -0.0020 30.2491 0.0007 5.2755
# 5 27.5251 16.7788 21.5909 0.0007 43.0845 -0.0003
# 6 0.0002 0.0004 0.0010 5.2755 -0.0003 2.9269
#
#
#
# Elastic Compliance Matrix: (Units=1/GPa)
#
#
# Indices 1 2 3 4 5 6 
#
# 1 0.017455 -0.004856 0.004316 0.000002 -0.011423 -0.000006
# 2 -0.004856 0.013956 -0.003765 0.000000 -0.000446 -0.000001
# 3 0.004316 -0.003765 0.013801 0.000003 -0.008207 -0.000010
# 4 0.000002 0.000000 0.000003 0.048215 -0.000004 -0.086905
# 5 -0.011423 -0.000446 -0.008207 -0.000004 0.034795 0.000014
# 6 -0.000006 -0.000001 -0.000010 -0.086905 0.000014 0.498303
#
#
# Mechanical properties :
#
#
# Convention : Reuss Voigt Hill
#
# Bulk Modulus (GPa) = 27.32076 41.29760 34.30918
# Shear Modulus (GPa) = 7.72399 29.45891 18.59145
#
# Velocity S-wave (km/s) = 1.90446 3.71928 2.95466
# Velocity P-wave (km/s) = 4.20298 6.15112 5.26789
#
# Compressibility (1/GPa) = 0.03660220
#
# Stress axis : x y z
#
# Youngs Moduli (GPa) = 57.29022 71.65519 72.46087
#
# Poissons Ratio (x) = 0.34793 -0.31277
# Poissons Ratio (y) = 0.27818 0.27284
# Poissons Ratio (z) = -0.24729 0.26981
#
# Static dielectric constant tensor:
#      x y z
#    x 1.751480 0.000000 -0.004450 
#    y 0.000000 1.731120 0.000000 
#    z -0.004450 0.000000 1.822830 
# 
# From -- ./inp_files/140424.got.cif
#   From: 2010.05.17/outbox.cif.g08.bks.cpg/sg12_71_cif.got.tgz:140424.got - 2010.06.03 13:09:07.
