data_PCOD9220826
_publ_section_title
;
Structure prediction by ZEFSAII (Michael W. Deem and Ramdas Pophale) SiO2 
 PCOD9220826
Probable space group: C 2/M
;
_chemical_formula_sum "Si O2"
_cell_formula_units_Z 56
_cell_length_a 19.265561
_cell_length_b 8.930962
_cell_length_c 30.986888
_cell_angle_alpha 90.000000
_cell_angle_beta 147.848902
_cell_angle_gamma 90.000000
_cell_volume 2837.233485
_symmetry_space_group_name_H-M "C 2/M"
_symmetry_group_IT_number 12
_symmetry_cell_setting 'monoclinic'
loop_
_space_group_symop_operation_xyz
x,y,z
-x,y,-z
-x,-y,-z
x,-y,z
1/2+x,1/2+y,z
1/2-x,1/2+y,-z
1/2-x,1/2-y,-z
1/2+x,1/2-y,z
loop_
_atom_site_type_symbol
_atom_site_label
_atom_site_fract_x
_atom_site_fract_y
_atom_site_fract_z
Si Si1 0.555502 0.321739 0.194805
Si Si2 0.310411 0.672680 0.365015
Si Si3 0.264560 0.175337 0.574107
Si Si4 0.851593 0.178441 0.019633
Si Si5 0.955980 0.179692 0.296269
Si Si6 0.317374 0.321663 0.136444
Si Si7 0.505967 0.176842 0.409208
O O1 0.585362 0.500000 0.212651
O O2 0.680828 0.225694 0.272067
O O3 0.491731 0.287641 0.114614
O O4 0.443241 0.292180 0.171793
O O5 0.342949 0.500000 0.372471
O O6 0.280231 0.684991 0.399681
O O7 0.427815 0.774839 0.410544
O O8 0.218987 0.500000 0.428414
O O9 0.400399 0.261479 0.640971
O O10 0.148480 0.248833 0.485770
O O11 0.663429 0.500000 0.987593
O O12 0.750000 0.250000 0.000000
O O13 0.806877 0.241458 0.950137
O O14 0.928916 0.255412 0.327856
O O15 0.857596 0.222021 0.205933
O O16 0.957332 0.000000 0.300657
O O17 0.296221 0.500000 0.123886
O O18 0.516650 0.000000 0.411423
#
# Coordination Sequence:
#
# PCOD9220826 Si02
#       7
#     8   8   8   8   8   8   8
#     4   9  17  32  52  80 113 146 184 224 275 330
#     4  11  23  38  59  85 113 147 187 234 281 332
#     4  11  23  40  61  86 113 143 188 237 282 333
#     4   9  17  28  47  77 113 147 181 226 275 324
#     4  11  22  39  61  84 115 150 188 233 281 334
#     4   9  18  32  53  81 112 146 183 226 277 330
#     4  12  26  41  58  81 112 151 190 231 284 338
#
# _framework density 19.737537
#
# number of rings (size 3 to 8) (size 9 to 14) (size 15 to 20)
#    0.000    1.714    1.429    4.714    0.000    7.429 
#    0.000    0.000    0.000    0.857    0.000    6.000 
#    0.000    0.000    0.000    0.000    0.000    0.000 
#
# Total GULP energy -156433.234339 kJ/mol
# GULP energy per Si atom -5586.901226 kJ/mol
# Density = 1.969261 g / cm^3
# Si number density = 19.737537 Si / 1000 Ang^3
#
#
#
# Elastic Constant Matrix: (Units=GPa)
#
#
# Indices 1 2 3 4 5 6 
#
# 1 35.2744 14.6291 0.6760 0.0000 -10.2786 0.0000
# 2 14.6291 70.2303 43.4447 0.0000 -10.1660 0.0000
# 3 0.6760 43.4447 116.6384 0.0000 -23.2347 0.0000
# 4 0.0000 0.0000 0.0000 33.5397 0.0000 -0.8477
# 5 -10.2786 -10.1660 -23.2347 0.0000 19.4071 0.0000
# 6 0.0000 0.0000 0.0000 -0.8477 0.0000 23.9663
#
#
#
# Elastic Compliance Matrix: (Units=1/GPa)
#
#
# Indices 1 2 3 4 5 6 
#
# 1 0.039990 -0.009898 0.008721 0.000000 0.026436 0.000000
# 2 -0.009898 0.021005 -0.008692 0.000000 -0.004646 0.000000
# 3 0.008721 -0.008692 0.015461 0.000000 0.018576 0.000000
# 4 0.000000 0.000000 0.000000 0.029842 0.000000 0.001056
# 5 0.026436 -0.004646 0.018576 0.000000 0.085335 0.000000
# 6 0.000000 0.000000 0.000000 0.001056 0.000000 0.041763
#
#
# Mechanical properties :
#
#
# Convention : Reuss Voigt Hill
#
# Bulk Modulus (GPa) = 17.63094 37.73809 27.68452
# Shear Modulus (GPa) = 18.37962 26.27552 22.32757
#
# Velocity S-wave (km/s) = 3.05487 3.65258 3.36702
# Velocity P-wave (km/s) = 4.62548 6.07865 5.40116
#
# Compressibility (1/GPa) = 0.05671847
#
# Stress axis : x y z
#
# Youngs Moduli (GPa) = 25.00599 47.60744 64.67942
#
# Poissons Ratio (x) = 0.47124 -0.56409
# Poissons Ratio (y) = 0.24752 0.56219
# Poissons Ratio (z) = -0.21809 0.41380
#
# Static dielectric constant tensor:
#      x y z
#    x 1.705740 0.000000 -0.028440 
#    y 0.000000 1.655570 0.000000 
#    z -0.028440 0.000000 1.713060 
# 
# From -- ./inp_files/275507.got.cif
#   From: 2010.05.17/outbox.cif.g08.bks.cpg/sg12_138_cif.got.tgz:275507.got - 2010.06.03 13:09:07.
