data_PCOD9220971
_publ_section_title
;
Structure prediction by ZEFSAII (Michael W. Deem and Ramdas Pophale) SiO2 
 PCOD9220971
Probable space group: C 2/M
;
_chemical_formula_sum "Si O2"
_cell_formula_units_Z 60
_cell_length_a 22.734597
_cell_length_b 24.015356
_cell_length_c 19.706291
_cell_angle_alpha 90.000000
_cell_angle_beta 162.238837
_cell_angle_gamma 90.000000
_cell_volume 3282.101412
_symmetry_space_group_name_H-M "C 2/M"
_symmetry_group_IT_number 12
_symmetry_cell_setting 'monoclinic'
loop_
_space_group_symop_operation_xyz
x,y,z
-x,y,-z
-x,-y,-z
x,-y,z
1/2+x,1/2+y,z
1/2-x,1/2+y,-z
1/2-x,1/2-y,-z
1/2+x,1/2-y,z
loop_
_atom_site_type_symbol
_atom_site_label
_atom_site_fract_x
_atom_site_fract_y
_atom_site_fract_z
Si Si1 0.000000 0.858689 0.000000
Si Si2 0.372841 0.315649 0.569369
Si Si3 0.009584 0.938530 0.262680
Si Si4 0.436021 0.280419 0.355797
Si Si5 0.121527 0.387419 0.822905
Si Si6 0.293059 0.562791 0.665071
Si Si7 0.341636 0.158281 0.281071
Si Si8 0.949415 0.284642 0.153740
O O1 0.123328 0.896812 0.186176
O O2 0.153805 0.828205 0.119975
O O3 0.398393 0.381238 0.609407
O O4 0.424638 0.302357 0.549179
O O5 0.156194 0.298732 0.349152
O O6 0.515053 0.275784 0.771305
O O7 0.067201 0.938492 0.246552
O O8 0.069600 0.000000 0.354553
O O9 0.783081 0.929108 0.028144
O O10 0.500000 0.302646 0.500000
O O11 0.451139 0.213897 0.378216
O O12 0.219239 0.287672 0.087773
O O13 0.199382 0.372512 0.833531
O O14 0.913241 0.414910 0.586240
O O15 0.098504 0.331818 0.842798
O O16 0.274848 0.500000 0.671578
O O17 0.500000 0.125841 0.500000
#
# Coordination Sequence:
#
# PCOD9220971 Si02
#       8
#     4   8   8   8   8   8   8   8
#     4  12  23  38  56  76 126 174 207 250 292 352
#     4  11  22  40  65  94 126 157 201 255 309 363
#     4  11  23  38  61  90 119 158 206 257 305 357
#     4  11  24  39  60  91 128 156 192 245 306 379
#     4  12  20  39  62  88 117 157 210 258 304 354
#     4  11  24  38  55  86 120 162 214 257 295 350
#     4  11  23  36  56  86 120 163 205 246 296 360
#     4  11  23  37  68  95 121 160 200 256 315 364
#
# _framework density 18.28097
#
# number of rings (size 3 to 8) (size 9 to 14) (size 15 to 20)
#    0.000    0.800    6.667    1.800    0.000    2.667 
#    0.000    0.667    0.000    0.400    0.000    0.933 
#    0.000    0.000    0.000    0.000    0.000    0.000 
#
# Total GULP energy -167336.990548 kJ/mol
# GULP energy per Si atom -5577.899685 kJ/mol
# Density = 1.823936 g / cm^3
# Si number density = 18.280970 Si / 1000 Ang^3
#
#
#
# Elastic Constant Matrix: (Units=GPa)
#
#
# Indices 1 2 3 4 5 6 
#
# 1 107.9807 41.1457 45.0387 0.0018 1.3496 -0.0010
# 2 41.1457 95.1231 8.6519 0.0007 -0.4856 -0.0016
# 3 45.0387 8.6519 86.8892 0.0007 6.5650 -0.0040
# 4 0.0018 0.0007 0.0007 16.4360 0.0009 -13.1213
# 5 1.3496 -0.4856 6.5650 0.0009 30.2476 -0.0018
# 6 -0.0010 -0.0016 -0.0040 -13.1213 -0.0018 19.1569
#
#
#
# Elastic Compliance Matrix: (Units=1/GPa)
#
#
# Indices 1 2 3 4 5 6 
#
# 1 0.014227 -0.005524 -0.006883 -0.000004 0.000770 -0.000004
# 2 -0.005524 0.012758 0.001585 0.000002 0.000107 0.000002
# 3 -0.006883 0.001585 0.015142 0.000005 -0.002954 0.000006
# 4 -0.000004 0.000002 0.000005 0.134252 0.000000 0.091955
# 5 0.000770 0.000107 -0.002954 0.000000 0.033669 0.000003
# 6 -0.000004 0.000002 0.000006 0.091955 0.000003 0.115184
#
#
# Mechanical properties :
#
#
# Convention : Reuss Voigt Hill
#
# Bulk Modulus (GPa) = 48.81924 53.29616 51.05770
# Shear Modulus (GPa) = 14.13613 26.17855 20.15734
#
# Velocity S-wave (km/s) = 2.78379 3.78830 3.32421
# Velocity P-wave (km/s) = 6.09061 6.95357 6.53635
#
# Compressibility (1/GPa) = 0.02048373
#
# Stress axis : x y z
#
# Youngs Moduli (GPa) = 70.28933 78.37916 66.04202
#
# Poissons Ratio (x) = 0.43296 0.45454
# Poissons Ratio (y) = 0.38827 -0.10466
# Poissons Ratio (z) = 0.48378 -0.12422
#
# Static dielectric constant tensor:
#      x y z
#    x 1.640950 0.000000 -0.012400 
#    y 0.000000 1.632850 0.000000 
#    z -0.012400 0.000000 1.674010 
# 
# From -- ./inp_files/286445.got.cif
#   From: 2010.05.17/outbox.cif.g08.bks.cpg/sg12_144_cif.got.tgz:286445.got - 2010.06.03 13:09:07.
