data_PCOD9220481
_publ_section_title
;
Structure prediction by ZEFSAII (Michael W. Deem and Ramdas Pophale) SiO2 
 PCOD9220481
Probable space group: C 2/M
;
_chemical_formula_sum "Si O2"
_cell_formula_units_Z 64
_cell_length_a 16.326686
_cell_length_b 8.875064
_cell_length_c 25.147680
_cell_angle_alpha 90.000000
_cell_angle_beta 70.507499
_cell_angle_gamma 90.000000
_cell_volume 3435.058482
_symmetry_space_group_name_H-M "C 2/M"
_symmetry_group_IT_number 12
_symmetry_cell_setting 'monoclinic'
loop_
_space_group_symop_operation_xyz
x,y,z
-x,y,-z
-x,-y,-z
x,-y,z
1/2+x,1/2+y,z
1/2-x,1/2+y,-z
1/2-x,1/2-y,-z
1/2+x,1/2-y,z
loop_
_atom_site_type_symbol
_atom_site_label
_atom_site_fract_x
_atom_site_fract_y
_atom_site_fract_z
Si Si1 0.807021 0.825386 0.230411
Si Si2 0.725345 0.677550 0.881510
Si Si3 0.965021 0.675822 0.067585
Si Si4 0.523450 0.680091 0.435716
Si Si5 0.505968 0.177646 0.335061
Si Si6 0.173197 0.176098 0.330486
Si Si7 0.399084 0.321661 0.879268
Si Si8 0.523924 0.175167 0.775068
O O1 0.756572 0.805574 0.185845
O O2 0.751059 0.777382 0.293430
O O3 0.891224 0.720931 0.210916
O O4 0.833511 0.000000 0.227962
O O5 0.724382 0.500000 0.893730
O O6 0.629063 0.744629 0.910273
O O7 0.801681 0.756308 0.898127
O O8 0.955251 0.500000 0.084532
O O9 0.037474 0.750472 0.089981
O O10 0.000000 0.684380 0.000000
O O11 0.500000 0.728714 0.500000
O O12 0.509041 0.500000 0.434546
O O13 0.471816 0.763785 0.399397
O O14 0.625045 0.705586 0.397431
O O15 0.592998 0.276824 0.309952
O O16 0.454655 0.199131 0.291847
O O17 0.526712 0.000000 0.335310
O O18 0.195094 0.000000 0.321872
O O19 0.396858 0.500000 0.886049
O O20 0.445763 0.274601 0.814029
O O21 0.501264 0.000000 0.786769
#
# Coordination Sequence:
#
# PCOD9220481 Si02
#       8
#     8   8   8   8   8   8   8   8
#     4  11  22  35  55  84 118 153 196 247 302 360
#     4  11  24  42  65  94 127 166 208 255 309 369
#     4  11  25  46  70  96 127 164 209 259 310 368
#     4   8  16  31  51  76 107 145 190 239 292 353
#     4   9  18  31  49  78 108 141 186 236 287 344
#     4   9  18  31  50  76 107 145 185 231 289 349
#     4  12  25  41  65  95 127 167 209 254 310 369
#     4  11  22  36  56  82 120 158 195 247 304 363
#
# _framework density 18.631415000000001
#
# number of rings (size 3 to 8) (size 9 to 14) (size 15 to 20)
#    0.750    1.000    1.250    3.750    0.000    8.250 
#    0.000    0.000    0.000    0.750    0.000    0.000 
#    0.000    0.000    0.000    0.000    0.000    0.000 
#
# Total GULP energy -178247.629718 kJ/mol
# GULP energy per Si atom -5570.238429 kJ/mol
# Density = 1.858901 g / cm^3
# Si number density = 18.631415 Si / 1000 Ang^3
#
#
#
# Elastic Constant Matrix: (Units=GPa)
#
#
# Indices 1 2 3 4 5 6 
#
# 1 105.3137 51.6040 31.8239 0.0000 3.9362 0.0000
# 2 51.6040 107.7803 44.5578 0.0000 6.8971 0.0000
# 3 31.8239 44.5578 90.6555 0.0000 5.6247 0.0000
# 4 0.0000 0.0000 0.0000 26.9271 0.0000 -2.2461
# 5 3.9362 6.8971 5.6247 0.0000 23.3610 0.0000
# 6 0.0000 0.0000 0.0000 -2.2461 0.0000 25.9182
#
#
#
# Elastic Compliance Matrix: (Units=1/GPa)
#
#
# Indices 1 2 3 4 5 6 
#
# 1 0.012645 -0.005289 -0.001831 0.000000 -0.000128 0.000000
# 2 -0.005289 0.013958 -0.004876 0.000000 -0.002056 0.000000
# 3 -0.001831 -0.004876 0.014174 0.000000 -0.001664 0.000000
# 4 0.000000 0.000000 0.000000 0.037408 0.000000 0.003242
# 5 -0.000128 -0.002056 -0.001664 0.000000 0.043836 0.000000
# 6 0.000000 0.000000 0.000000 0.003242 0.000000 0.038864
#
#
# Mechanical properties :
#
#
# Convention : Reuss Voigt Hill
#
# Bulk Modulus (GPa) = 59.58261 62.19121 60.88691
# Shear Modulus (GPa) = 26.25056 26.95884 26.60470
#
# Velocity S-wave (km/s) = 3.75766 3.80801 3.78292
# Velocity P-wave (km/s) = 7.13272 7.26546 7.19940
#
# Compressibility (1/GPa) = 0.01678342
#
# Stress axis : x y z
#
# Youngs Moduli (GPa) = 79.08054 71.64394 70.55349
#
# Poissons Ratio (x) = 0.37893 0.12922
# Poissons Ratio (y) = 0.41826 0.34403
# Poissons Ratio (z) = 0.14483 0.34935
#
# Static dielectric constant tensor:
#      x y z
#    x 1.644290 0.000000 -0.002750 
#    y 0.000000 1.623880 0.000000 
#    z -0.002750 0.000000 1.683820 
# 
# From -- ./inp_files/359731.got.cif
#   From: 2010.05.17/outbox.cif.g08.bks.cpg/sg12_180_cif.got.tgz:359731.got - 2010.06.03 13:09:07.
