data_PCOD9220595
_publ_section_title
;
Structure prediction by ZEFSAII (Michael W. Deem and Ramdas Pophale) SiO2 
 PCOD9220595
Probable space group: C 2/M
;
_chemical_formula_sum "Si O2"
_cell_formula_units_Z 48
_cell_length_a 15.308757
_cell_length_b 8.553315
_cell_length_c 27.484231
_cell_angle_alpha 90.000000
_cell_angle_beta 135.667080
_cell_angle_gamma 90.000000
_cell_volume 2514.937965
_symmetry_space_group_name_H-M "C 2/M"
_symmetry_group_IT_number 12
_symmetry_cell_setting 'monoclinic'
loop_
_space_group_symop_operation_xyz
x,y,z
-x,y,-z
-x,-y,-z
x,-y,z
1/2+x,1/2+y,z
1/2-x,1/2+y,-z
1/2-x,1/2-y,-z
1/2+x,1/2-y,z
loop_
_atom_site_type_symbol
_atom_site_label
_atom_site_fract_x
_atom_site_fract_y
_atom_site_fract_z
Si Si1 0.121717 0.185663 0.925628
Si Si2 0.802081 0.310265 0.433373
Si Si3 0.984370 0.812574 0.676163
Si Si4 0.149161 0.315524 0.829327
Si Si5 0.078044 0.313918 0.080172
Si Si6 0.030259 0.689179 0.590765
O O1 0.120630 0.228989 0.868538
O O2 0.006342 0.261328 0.908345
O O3 0.118633 0.000000 0.930643
O O4 0.250000 0.250000 0.000000
O O5 0.802124 0.500000 0.434557
O O6 0.660268 0.257564 0.382486
O O7 0.864239 0.266090 0.406573
O O8 0.897861 0.260695 0.513893
O O9 0.056397 0.738745 0.750037
O O10 0.045173 0.762636 0.649379
O O11 0.986292 0.000000 0.681541
O O12 0.139429 0.500000 0.833420
O O13 0.289884 0.271748 0.869798
O O14 0.099482 0.500000 0.090214
O O15 0.000000 0.278645 0.000000
O O16 0.030479 0.500000 0.594782
#
# Coordination Sequence:
#
# PCOD9220595 Si02
#       6
#     8   8   8   8   8   8
#     4  12  24  41  66  94 123 157 198 247 301 362
#     4   8  17  34  59  85 115 156 199 244 296 359
#     4  11  22  37  56  84 122 158 196 248 309 364
#     4  12  26  43  62  88 122 164 209 254 307 363
#     4  11  23  41  67  94 121 153 196 250 305 363
#     4   9  17  35  60  86 114 153 204 247 293 359
#
# _framework density 19.085958000000002
#
# number of rings (size 3 to 8) (size 9 to 14) (size 15 to 20)
#    0.000    1.500    1.667    5.500    0.000    2.000 
#    0.000    9.167    0.000    0.000    0.000    0.000 
#    0.000    0.000    0.000    0.000    0.000    0.000 
#
# Total GULP energy -134170.703985 kJ/mol
# GULP energy per Si atom -5590.445999 kJ/mol
# Density = 1.904252 g / cm^3
# Si number density = 19.085958 Si / 1000 Ang^3
#
#
#
# Elastic Constant Matrix: (Units=GPa)
#
#
# Indices 1 2 3 4 5 6 
#
# 1 72.1202 -17.3664 14.7780 0.0000 -11.5448 0.0000
# 2 -17.3664 33.3448 2.1843 0.0000 2.2113 0.0000
# 3 14.7780 2.1843 47.4620 0.0000 -21.6977 0.0000
# 4 0.0000 0.0000 0.0000 14.4292 0.0000 -2.6762
# 5 -11.5448 2.2113 -21.6977 0.0000 28.5443 0.0000
# 6 0.0000 0.0000 0.0000 -2.6762 0.0000 33.5357
#
#
#
# Elastic Compliance Matrix: (Units=1/GPa)
#
#
# Indices 1 2 3 4 5 6 
#
# 1 0.017478 0.009207 -0.004537 0.000000 0.002907 0.000000
# 2 0.009207 0.035440 -0.006208 0.000000 -0.003741 0.000000
# 3 -0.004537 -0.006208 0.033945 0.000000 0.024449 0.000000
# 4 0.000000 0.000000 0.000000 0.070345 0.000000 0.005614
# 5 0.002907 -0.003741 0.024449 0.000000 0.055083 0.000000
# 6 0.000000 0.000000 0.000000 0.005614 0.000000 0.030267
#
#
# Mechanical properties :
#
#
# Convention : Reuss Voigt Hill
#
# Bulk Modulus (GPa) = 11.93499 16.90208 14.41854
# Shear Modulus (GPa) = 18.27743 25.52391 21.90067
#
# Velocity S-wave (km/s) = 3.09793 3.66090 3.39112
# Velocity P-wave (km/s) = 4.36613 5.17151 4.78579
#
# Compressibility (1/GPa) = 0.08378725
#
# Stress axis : x y z
#
# Youngs Moduli (GPa) = 57.21560 28.21707 29.45967
#
# Poissons Ratio (x) = -0.25980 0.13365
# Poissons Ratio (y) = -0.52679 0.18288
# Poissons Ratio (z) = 0.25957 0.17517
#
# Static dielectric constant tensor:
#      x y z
#    x 1.641860 0.000000 0.007970 
#    y 0.000000 1.639960 0.000000 
#    z 0.007970 0.000000 1.637660 
# 
# From -- ./inp_files/375157.got.cif
#   From: 2010.05.17/outbox.cif.g08.bks.cpg/sg12_188_cif.got.tgz:375157.got - 2010.06.03 13:09:07.
