data_PCOD9220993
_publ_section_title
;
Structure prediction by ZEFSAII (Michael W. Deem and Ramdas Pophale) SiO2 
 PCOD9220993
Probable space group: C 2/M
;
_chemical_formula_sum "Si O2"
_cell_formula_units_Z 56
_cell_length_a 17.717994
_cell_length_b 17.628415
_cell_length_c 8.821955
_cell_angle_alpha 90.000000
_cell_angle_beta 103.310713
_cell_angle_gamma 90.000000
_cell_volume 2681.427893
_symmetry_space_group_name_H-M "C 2/M"
_symmetry_group_IT_number 12
_symmetry_cell_setting 'monoclinic'
loop_
_space_group_symop_operation_xyz
x,y,z
-x,y,-z
-x,-y,-z
x,-y,z
1/2+x,1/2+y,z
1/2-x,1/2+y,-z
1/2-x,1/2-y,-z
1/2+x,1/2-y,z
loop_
_atom_site_type_symbol
_atom_site_label
_atom_site_fract_x
_atom_site_fract_y
_atom_site_fract_z
Si Si1 0.572332 0.140382 0.645069
Si Si2 0.691953 0.193484 0.206537
Si Si3 0.786359 0.589190 0.492101
Si Si4 0.868359 0.203192 0.273105
Si Si5 0.914691 0.415501 0.026791
Si Si6 0.977708 0.910240 0.165649
Si Si7 0.370749 0.664851 0.631949
O O1 0.500000 0.131775 0.500000
O O2 0.649219 0.126746 0.583850
O O3 0.576856 0.223978 0.719619
O O4 0.574498 0.085480 0.788269
O O5 0.706228 0.130512 0.343387
O O6 0.778064 0.218158 0.194581
O O7 0.647655 0.263038 0.268628
O O8 0.642284 0.150422 0.056886
O O9 0.799074 0.500000 0.509770
O O10 0.701980 0.608258 0.386809
O O11 0.902436 0.135266 0.188325
O O12 0.872600 0.187600 0.455831
O O13 0.888210 0.500000 0.965916
O O14 0.000000 0.401904 0.000000
O O15 0.049925 0.876172 0.290968
O O16 0.968442 0.000000 0.187367
O O17 0.000000 0.898518 0.000000
#
# Coordination Sequence:
#
# PCOD9220993 Si02
#       7
#     8   8   8   8   8   8   8
#     4  12  24  41  67  99 132 179 227 279 340 404
#     4  11  23  44  69 100 134 178 227 282 342 409
#     4  11  22  40  67  96 133 174 220 282 344 404
#     4  11  24  43  71 101 134 172 231 281 337 407
#     4  11  27  44  63  97 137 177 225 277 340 407
#     4  11  27  45  66 100 139 180 226 282 346 404
#     4  11  22  44  68 100 133 176 229 284 336 417
#
# _framework density 20.884395999999999
#
# number of rings (size 3 to 8) (size 9 to 14) (size 15 to 20)
#    0.000    0.857    2.857    4.286    4.000    8.000 
#    0.000    1.429    0.000    0.000    0.000    0.000 
#    0.000    0.000    0.000    0.000    0.000    0.000 
#
# Total GULP energy -156606.168918 kJ/mol
# GULP energy per Si atom -5593.077461 kJ/mol
# Density = 2.083686 g / cm^3
# Si number density = 20.884396 Si / 1000 Ang^3
#
#
#
# Elastic Constant Matrix: (Units=GPa)
#
#
# Indices 1 2 3 4 5 6 
#
# 1 66.2966 1.1226 16.5337 0.0000 -13.7330 0.0000
# 2 1.1226 89.5162 19.2427 0.0000 -12.2527 0.0000
# 3 16.5337 19.2427 82.7741 0.0000 3.4817 0.0000
# 4 0.0000 0.0000 0.0000 32.5462 0.0000 -7.4249
# 5 -13.7330 -12.2527 3.4817 0.0000 11.8194 0.0000
# 6 0.0000 0.0000 0.0000 -7.4249 0.0000 40.9395
#
#
#
# Elastic Compliance Matrix: (Units=1/GPa)
#
#
# Indices 1 2 3 4 5 6 
#
# 1 0.024934 0.006680 -0.008144 0.000000 0.038295 0.000000
# 2 0.006680 0.015989 -0.006151 0.000000 0.026148 0.000000
# 3 -0.008144 -0.006151 0.016002 0.000000 -0.020553 0.000000
# 4 0.000000 0.000000 0.000000 0.032052 0.000000 0.005813
# 5 0.038295 0.026148 -0.020553 0.000000 0.162262 0.000000
# 6 0.000000 0.000000 0.000000 0.005813 0.000000 0.025481
#
#
# Mechanical properties :
#
#
# Convention : Reuss Voigt Hill
#
# Bulk Modulus (GPa) = 23.98414 34.70942 29.34678
# Shear Modulus (GPa) = 16.34798 30.50688 23.42743
#
# Velocity S-wave (km/s) = 2.80086 3.82612 3.35291
# Velocity P-wave (km/s) = 4.68711 6.01455 5.39183
#
# Compressibility (1/GPa) = 0.04169422
#
# Stress axis : x y z
#
# Youngs Moduli (GPa) = 40.10560 62.54437 62.49117
#
# Poissons Ratio (x) = -0.41777 0.50893
# Poissons Ratio (y) = -0.26789 0.38438
# Poissons Ratio (z) = 0.32662 0.38471
#
# Static dielectric constant tensor:
#      x y z
#    x 1.605800 0.000000 0.119370 
#    y 0.000000 1.742280 0.000000 
#    z 0.119370 0.000000 1.624160 
# 
# From -- ./inp_files/76026.got.cif
#   From: 2010.05.17/outbox.cif.g08.bks.cpg/sg12_39_cif.got.tgz:76026.got - 2010.06.03 13:09:07.
