data_PCOD9220427
_publ_section_title
;
Structure prediction by ZEFSAII (Michael W. Deem and Ramdas Pophale) SiO2 
 PCOD9220427
Probable space group: C 2/M
;
_chemical_formula_sum "Si O2"
_cell_formula_units_Z 48
_cell_length_a 18.600313
_cell_length_b 8.978798
_cell_length_c 16.894122
_cell_angle_alpha 90.000000
_cell_angle_beta 74.836851
_cell_angle_gamma 90.000000
_cell_volume 2723.231807
_symmetry_space_group_name_H-M "C 2/M"
_symmetry_group_IT_number 12
_symmetry_cell_setting 'monoclinic'
loop_
_space_group_symop_operation_xyz
x,y,z
-x,y,-z
-x,-y,-z
x,-y,z
1/2+x,1/2+y,z
1/2-x,1/2+y,-z
1/2-x,1/2-y,-z
1/2+x,1/2-y,z
loop_
_atom_site_type_symbol
_atom_site_label
_atom_site_fract_x
_atom_site_fract_y
_atom_site_fract_z
Si Si1 0.684791 0.827530 0.414646
Si Si2 0.807981 0.179268 0.922033
Si Si3 0.023965 0.818737 0.080394
Si Si4 0.900580 0.181503 0.240313
Si Si5 0.266427 0.180803 0.767015
Si Si6 0.141393 0.827373 0.580335
O O1 0.686301 0.770975 0.324041
O O2 0.771759 0.820354 0.416914
O O3 0.637714 0.748839 0.496312
O O4 0.663831 0.000000 0.418800
O O5 0.891543 0.220871 0.924207
O O6 0.792204 0.242635 0.839540
O O7 0.801712 0.000000 0.924663
O O8 0.750000 0.250000 0.000000
O O9 0.966553 0.767263 0.164416
O O10 0.020055 0.000000 0.080967
O O11 0.000000 0.767630 0.000000
O O12 0.820118 0.218105 0.226064
O O13 0.902686 0.234979 0.330875
O O14 0.902676 0.000000 0.243543
O O15 0.270861 0.000000 0.771809
O O16 0.122013 0.000000 0.576198
#
# Coordination Sequence:
#
# PCOD9220427 Si02
#       6
#     8   8   8   8   8   8
#     4   8  14  24  40  65  95 124 152 184 227 275
#     4  11  22  34  51  73  95 121 153 191 235 282
#     4   9  17  30  50  72  91 117 156 196 231 274
#     4   8  14  27  48  72  95 122 160 199 233 271
#     4   9  17  31  51  72  96 126 157 192 233 275
#     4   8  13  22  40  66  93 120 152 193 232 264
#
# _framework density 17.626116
#
# number of rings (size 3 to 8) (size 9 to 14) (size 15 to 20)
#    0.000    3.167    0.000    3.500    0.000    3.333 
#    0.000    2.500    0.000   12.000    0.000    7.000 
#    0.000    0.000    0.000    0.000    0.000    0.000 
#
# Total GULP energy -133637.181799 kJ/mol
# GULP energy per Si atom -5568.215908 kJ/mol
# Density = 1.758600 g / cm^3
# Si number density = 17.626116 Si / 1000 Ang^3
#
#
#
# Elastic Constant Matrix: (Units=GPa)
#
#
# Indices 1 2 3 4 5 6 
#
# 1 78.2109 26.3230 88.3239 0.0000 -1.9860 0.0000
# 2 26.3230 24.3395 52.1862 0.0000 3.8109 0.0000
# 3 88.3239 52.1862 235.8221 0.0000 -0.0386 0.0000
# 4 0.0000 0.0000 0.0000 28.9728 0.0000 4.5941
# 5 -1.9860 3.8109 -0.0386 0.0000 25.4145 0.0000
# 6 0.0000 0.0000 0.0000 4.5941 0.0000 16.1925
#
#
#
# Elastic Compliance Matrix: (Units=1/GPa)
#
#
# Indices 1 2 3 4 5 6 
#
# 1 0.024461 -0.014163 -0.006027 0.000000 0.004026 0.000000
# 2 -0.014163 0.090054 -0.014626 0.000000 -0.014633 0.000000
# 3 -0.006027 -0.014626 0.009735 0.000000 0.001737 0.000000
# 4 0.000000 0.000000 0.000000 0.036141 0.000000 -0.010254
# 5 0.004026 -0.014633 0.001737 0.000000 0.041859 0.000000
# 6 0.000000 0.000000 0.000000 -0.010254 0.000000 0.064666
#
#
# Mechanical properties :
#
#
# Convention : Reuss Voigt Hill
#
# Bulk Modulus (GPa) = 18.30903 74.67097 46.49000
# Shear Modulus (GPa) = 14.09427 25.55192 19.82310
#
# Velocity S-wave (km/s) = 2.83083 3.81157 3.35721
# Velocity P-wave (km/s) = 4.59291 7.86299 6.43900
#
# Compressibility (1/GPa) = 0.05461785
#
# Stress axis : x y z
#
# Youngs Moduli (GPa) = 40.88170 11.10439 102.72541
#
# Poissons Ratio (x) = 0.15727 0.61908
# Poissons Ratio (y) = 0.57901 1.50250
# Poissons Ratio (z) = 0.24638 0.16242
#
# Static dielectric constant tensor:
#      x y z
#    x 1.585650 0.000000 -0.007600 
#    y 0.000000 1.600890 0.000000 
#    z -0.007600 0.000000 1.629410 
# 
# From -- ./inp_files/222406.got.cif
#   From: 2010.05.17/outbox.cif.g08.bks.cpg/sg12_112_cif.got.tgz:222406.got - 2010.06.03 13:09:07.
