data_PCOD9220940
_publ_section_title
;
Structure prediction by ZEFSAII (Michael W. Deem and Ramdas Pophale) SiO2 
 PCOD9220940
Probable space group: C 2/M
;
_chemical_formula_sum "Si O2"
_cell_formula_units_Z 56
_cell_length_a 14.196670
_cell_length_b 14.526829
_cell_length_c 11.096468
_cell_angle_alpha 90.000000
_cell_angle_beta 72.978305
_cell_angle_gamma 90.000000
_cell_volume 2188.205385
_symmetry_space_group_name_H-M "C 2/M"
_symmetry_group_IT_number 12
_symmetry_cell_setting 'monoclinic'
loop_
_space_group_symop_operation_xyz
x,y,z
-x,y,-z
-x,-y,-z
x,-y,z
1/2+x,1/2+y,z
1/2-x,1/2+y,-z
1/2-x,1/2-y,-z
1/2+x,1/2-y,z
loop_
_atom_site_type_symbol
_atom_site_label
_atom_site_fract_x
_atom_site_fract_y
_atom_site_fract_z
Si Si1 0.915135 0.603286 0.339527
Si Si2 0.439167 0.805944 0.906276
Si Si3 0.112157 0.243699 0.468973
Si Si4 0.563878 0.598034 0.152271
Si Si5 0.220552 0.400449 0.826886
Si Si6 0.852064 0.898099 0.344348
Si Si7 0.736364 0.795824 0.190918
O O1 0.953373 0.500000 0.340575
O O2 0.895717 0.655354 0.469550
O O3 0.816865 0.598659 0.295591
O O4 0.989064 0.664204 0.231274
O O5 0.434046 0.694817 0.916857
O O6 0.332400 0.835238 0.889184
O O7 0.500000 0.843853 0.000000
O O8 0.164022 0.177577 0.546772
O O9 0.164878 0.256169 0.322418
O O10 0.000000 0.209318 0.500000
O O11 0.562882 0.500000 0.084292
O O12 0.664050 0.595011 0.190804
O O13 0.467951 0.600147 0.271216
O O14 0.180289 0.500000 0.892282
O O15 0.198633 0.293575 0.872270
O O16 0.801982 0.868538 0.237328
O O17 0.819432 0.000000 0.393311
#
# Coordination Sequence:
#
# PCOD9220940 Si02
#       7
#     8   8   8   8   8   8   8
#     4  11  23  41  64  90 124 162 213 259 309 374
#     4  11  23  43  68  92 126 166 210 263 313 369
#     4  12  22  41  65  90 130 169 206 258 311 372
#     4   9  18  38  64  93 128 162 207 258 309 367
#     4   9  18  35  63  91 122 165 208 255 305 362
#     4  11  23  39  63  95 133 167 203 254 316 382
#     4  11  22  40  62  93 133 165 207 258 308 375
#
# _framework density 25.591747999999999
#
# number of rings (size 3 to 8) (size 9 to 14) (size 15 to 20)
#    0.000    1.429    4.286    1.286    0.000    2.857 
#    0.000    6.429    0.000    6.857    0.000    0.000 
#    0.000    0.000    0.000    0.000    0.000    0.000 
#
# Total GULP energy -156491.823127 kJ/mol
# GULP energy per Si atom -5588.993683 kJ/mol
# Density = 2.553350 g / cm^3
# Si number density = 25.591748 Si / 1000 Ang^3
#
#
#
# Elastic Constant Matrix: (Units=GPa)
#
#
# Indices 1 2 3 4 5 6 
#
# 1 87.5270 28.6374 13.6735 0.0000 34.7724 0.0000
# 2 28.6374 161.0399 30.6348 0.0000 10.8264 0.0000
# 3 13.6735 30.6348 94.4006 0.0000 24.3805 0.0000
# 4 0.0000 0.0000 0.0000 8.0063 0.0000 -0.5838
# 5 34.7724 10.8264 24.3805 0.0000 32.4325 0.0000
# 6 0.0000 0.0000 0.0000 -0.5838 0.0000 -8.2404
#
#
#
# Elastic Compliance Matrix: (Units=1/GPa)
#
#
# Indices 1 2 3 4 5 6 
#
# 1 0.022047 -0.003029 0.004509 0.000000 -0.026016 0.000000
# 2 -0.003029 0.007049 -0.002581 0.000000 0.002835 0.000000
# 3 0.004509 -0.002581 0.014647 0.000000 -0.014983 0.000000
# 4 0.000000 0.000000 0.000000 0.124260 0.000000 -0.008803
# 5 -0.026016 0.002835 -0.014983 0.000000 0.069043 0.000000
# 6 0.000000 0.000000 0.000000 -0.008803 0.000000 -0.120730
#
#
# Mechanical properties :
#
#
# Convention : Reuss Voigt Hill
#
# Bulk Modulus (GPa) = 24.07290 54.31767 39.19528
# Shear Modulus (GPa) = 37.77363 24.44112 31.10737
#
# Velocity S-wave (km/s) = 3.84605 3.09372 3.49022
# Velocity P-wave (km/s) = 5.39905 5.83372 5.62059
#
# Compressibility (1/GPa) = 0.04154048
#
# Stress axis : x y z
#
# Youngs Moduli (GPa) = 45.35678 141.86998 68.27190
#
# Poissons Ratio (x) = 0.42977 -0.30782
# Poissons Ratio (y) = 0.13740 0.17620
# Poissons Ratio (z) = -0.20450 0.36615
#
# Static dielectric constant tensor:
#      x y z
#    x 2.080030 0.000000 -0.055410 
#    y 0.000000 2.031740 0.000000 
#    z -0.055410 0.000000 1.978280 
# 
# From -- ./inp_files/143704.got.cif
#   From: 2010.05.17/outbox.cif.g08.bks.cpg/sg12_72_cif.got.tgz:143704.got - 2010.06.03 13:09:07.
