data_PCOD9220537
_publ_section_title
;
Structure prediction by ZEFSAII (Michael W. Deem and Ramdas Pophale) SiO2 
 PCOD9220537
Probable space group: C 2/M
;
_chemical_formula_sum "Si O2"
_cell_formula_units_Z 40
_cell_length_a 8.405243
_cell_length_b 29.792192
_cell_length_c 7.920635
_cell_angle_alpha 90.000000
_cell_angle_beta 109.439230
_cell_angle_gamma 90.000000
_cell_volume 1870.346737
_symmetry_space_group_name_H-M "C 2/M"
_symmetry_group_IT_number 12
_symmetry_cell_setting 'monoclinic'
loop_
_space_group_symop_operation_xyz
x,y,z
-x,y,-z
-x,-y,-z
x,-y,z
1/2+x,1/2+y,z
1/2-x,1/2+y,-z
1/2-x,1/2-y,-z
1/2+x,1/2-y,z
loop_
_atom_site_type_symbol
_atom_site_label
_atom_site_fract_x
_atom_site_fract_y
_atom_site_fract_z
Si Si1 0.811053 0.114696 0.496943
Si Si2 0.667994 0.552854 0.169219
Si Si3 0.577808 0.731788 0.866693
Si Si4 0.537218 0.949433 0.308402
Si Si5 0.785216 0.291481 0.633637
O O1 0.831452 0.087608 0.677412
O O2 0.688710 0.084871 0.334730
O O3 0.718711 0.162754 0.471717
O O4 0.000000 0.119987 0.500000
O O5 0.666823 0.500000 0.224487
O O6 0.856078 0.559264 0.157028
O O7 0.500000 0.559290 0.000000
O O8 0.635878 0.705771 0.720510
O O9 0.458893 0.774331 0.779495
O O10 0.500000 0.705757 0.000000
O O11 0.750000 0.750000 0.000000
O O12 0.500000 0.947682 0.500000
O O13 0.590988 0.000000 0.287167
O O14 0.750000 0.250000 0.500000
#
# Coordination Sequence:
#
# PCOD9220537 Si02
#       5
#     8   8   8   8   8
#     4  11  22  36  56  89 123 158 203 253 310 374
#     4   9  19  39  64  89 121 162 206 252 309 377
#     4   9  20  40  63  83 111 156 206 256 312 367
#     4   8  16  33  57  83 113 154 200 244 300 372
#     4  11  22  39  60  88 123 160 207 257 309 371
#
# _framework density 21.386410000000001
#
# number of rings (size 3 to 8) (size 9 to 14) (size 15 to 20)
#    0.000    2.400    0.000    3.600    0.000    6.400 
#    0.000   19.000    0.000    3.600    0.000    0.000 
#    0.000    0.000    0.000    0.000    0.000    0.600 
#
# Total GULP energy -111438.051202 kJ/mol
# GULP energy per Si atom -5571.902560 kJ/mol
# Density = 2.133773 g / cm^3
# Si number density = 21.386410 Si / 1000 Ang^3
#
#
#
# Elastic Constant Matrix: (Units=GPa)
#
#
# Indices 1 2 3 4 5 6 
#
# 1 82.1922 41.7538 47.5424 0.0000 36.7376 0.0000
# 2 41.7538 128.8026 63.3245 0.0000 29.6655 0.0000
# 3 47.5424 63.3245 108.7446 0.0000 33.9688 0.0000
# 4 0.0000 0.0000 0.0000 24.3482 0.0000 5.3385
# 5 36.7376 29.6655 33.9688 0.0000 50.4960 0.0000
# 6 0.0000 0.0000 0.0000 5.3385 0.0000 21.5584
#
#
#
# Elastic Compliance Matrix: (Units=1/GPa)
#
#
# Indices 1 2 3 4 5 6 
#
# 1 0.020592 -0.001989 -0.004469 0.000000 -0.010807 0.000000
# 2 -0.001989 0.011368 -0.005211 0.000000 -0.001726 0.000000
# 3 -0.004469 -0.005211 0.015461 0.000000 -0.004088 0.000000
# 4 0.000000 0.000000 0.000000 0.043429 0.000000 -0.010754
# 5 -0.010807 -0.001726 -0.004088 0.000000 0.031430 0.000000
# 6 0.000000 0.000000 0.000000 -0.010754 0.000000 0.049049
#
#
# Mechanical properties :
#
#
# Convention : Reuss Voigt Hill
#
# Bulk Modulus (GPa) = 41.52247 69.44233 55.48240
# Shear Modulus (GPa) = 24.66759 30.42177 27.54468
#
# Velocity S-wave (km/s) = 3.39989 3.77567 3.59270
# Velocity P-wave (km/s) = 5.90507 7.17972 6.57337
#
# Compressibility (1/GPa) = 0.02408335
#
# Stress axis : x y z
#
# Youngs Moduli (GPa) = 48.56161 87.96473 64.67847
#
# Poissons Ratio (x) = 0.17500 0.28902
# Poissons Ratio (y) = 0.09661 0.33705
# Poissons Ratio (z) = 0.21700 0.45840
#
# Static dielectric constant tensor:
#      x y z
#    x 1.521780 0.000000 0.568200 
#    y 0.000000 1.744260 0.000000 
#    z 0.568200 0.000000 0.829800 
# 
# From -- ./inp_files/41868.got.cif
#   From: 2010.05.17/outbox.cif.g08.bks.cpg/sg12_21_cif.got.tgz:41868.got - 2010.06.03 13:09:07.
