data_PCOD9220191
_publ_section_title
;
Structure prediction by ZEFSAII (Michael W. Deem and Ramdas Pophale) SiO2 
 PCOD9220191
Probable space group: C 2/M
;
_chemical_formula_sum "Si O2"
_cell_formula_units_Z 54
_cell_length_a 16.656551
_cell_length_b 17.326218
_cell_length_c 9.194436
_cell_angle_alpha 90.000000
_cell_angle_beta 129.913337
_cell_angle_gamma 90.000000
_cell_volume 2035.252364
_symmetry_space_group_name_H-M "C 2/M"
_symmetry_group_IT_number 12
_symmetry_cell_setting 'monoclinic'
loop_
_space_group_symop_operation_xyz
x,y,z
-x,y,-z
-x,-y,-z
x,-y,z
1/2+x,1/2+y,z
1/2-x,1/2+y,-z
1/2-x,1/2-y,-z
1/2+x,1/2-y,z
loop_
_atom_site_type_symbol
_atom_site_label
_atom_site_fract_x
_atom_site_fract_y
_atom_site_fract_z
Si Si1 0.922107 0.225280 0.739126
Si Si2 0.770629 0.084167 0.606688
Si Si3 0.656573 0.121095 0.745621
Si Si4 0.581267 0.000000 0.883517
Si Si5 0.360194 0.704597 0.329669
Si Si6 0.401091 0.628093 0.099237
Si Si7 0.341101 0.129007 0.805239
Si Si8 0.000000 0.000000 0.000000
O O1 0.843140 0.159338 0.711021
O O2 0.894876 0.216257 0.536182
O O3 0.900328 0.309052 0.775034
O O4 0.043748 0.205326 0.896788
O O5 0.670702 0.093532 0.595073
O O6 0.732052 0.084359 0.397002
O O7 0.824510 0.000000 0.704137
O O8 0.626799 0.210296 0.720753
O O9 0.586889 0.066961 0.762280
O O10 0.778865 0.113203 0.935061
O O11 0.598314 0.068075 0.027745
O O12 0.411639 0.639786 0.285910
O O13 0.239259 0.679639 0.193195
O O14 0.465902 0.565922 0.085178
#
# Coordination Sequence:
#
# PCOD9220191 Si02
#       8
#     8   8   8   4   8   8   8   2
#     4  11  24  44  69 100 144 190 239 286 363 421
#     4  11  21  39  68  99 137 186 233 287 350 421
#     4  12  23  41  69 106 140 180 240 294 349 414
#     4  12  25  36  69 110 141 181 235 295 356 405
#     4  11  23  45  71  98 132 189 248 293 332 428
#     4  12  27  42  67 103 145 187 231 280 362 431
#     4  11  22  44  67 100 138 188 242 292 343 422
#     4  12  30  44  60 102 166 190 208 282 384 432
#
# _framework density 26.532337999999999
#
# number of rings (size 3 to 8) (size 9 to 14) (size 15 to 20)
#    0.000    0.593    5.926    3.111    3.111    0.000 
#    1.333    0.741    0.000    1.778    0.000    3.111 
#    0.000    0.000    0.000    0.000    0.000    0.000 
#
# Total GULP energy -150452.400309 kJ/mol
# GULP energy per Si atom -5572.311123 kJ/mol
# Density = 2.647195 g / cm^3
# Si number density = 26.532338 Si / 1000 Ang^3
#
#
#
# Elastic Constant Matrix: (Units=GPa)
#
#
# Indices 1 2 3 4 5 6 
#
# 1 90.1452 51.9033 45.5328 0.0000 -13.8067 0.0000
# 2 51.9033 198.6169 55.0567 0.0000 -25.4660 0.0000
# 3 45.5328 55.0567 98.6916 0.0000 -46.5530 0.0000
# 4 0.0000 0.0000 0.0000 50.3583 0.0000 -17.6496
# 5 -13.8067 -25.4660 -46.5530 0.0000 43.4764 0.0000
# 6 0.0000 0.0000 0.0000 -17.6496 0.0000 32.3328
#
#
#
# Elastic Compliance Matrix: (Units=1/GPa)
#
#
# Indices 1 2 3 4 5 6 
#
# 1 0.016057 -0.002518 -0.008676 0.000000 -0.005666 0.000000
# 2 -0.002518 0.006351 -0.002028 0.000000 0.000749 0.000000
# 3 -0.008676 -0.002028 0.027089 0.000000 0.025063 0.000000
# 4 0.000000 0.000000 0.000000 0.024556 0.000000 0.013404
# 5 -0.005666 0.000749 0.025063 0.000000 0.048477 0.000000
# 6 0.000000 0.000000 0.000000 0.013404 0.000000 0.038245
#
#
# Mechanical properties :
#
#
# Convention : Reuss Voigt Hill
#
# Bulk Modulus (GPa) = 43.37799 76.93769 60.15784
# Shear Modulus (GPa) = 25.65357 40.89754 33.27556
#
# Velocity S-wave (km/s) = 3.11284 3.93035 3.54524
# Velocity P-wave (km/s) = 5.41335 7.04681 6.28339
#
# Compressibility (1/GPa) = 0.02305316
#
# Stress axis : x y z
#
# Youngs Moduli (GPa) = 62.27624 157.45658 36.91490
#
# Poissons Ratio (x) = 0.39640 0.32029
# Poissons Ratio (y) = 0.15678 0.07488
# Poissons Ratio (z) = 0.54034 0.31938
#
# Static dielectric constant tensor:
#      x y z
#    x 2.058940 0.000000 -0.050210 
#    y 0.000000 2.706790 0.000000 
#    z -0.050210 0.000000 2.116070 
# 
# From -- ./inp_files/76048.got.cif
#   From: 2010.05.17/outbox.cif.g08.bks.cpg/sg12_39_cif.got.tgz:76048.got - 2010.06.03 13:09:07.
