data_PCOD9220495
_publ_section_title
;
Structure prediction by ZEFSAII (Michael W. Deem and Ramdas Pophale) SiO2 
 PCOD9220495
Probable space group: C 2/M
;
_chemical_formula_sum "Si O2"
_cell_formula_units_Z 44
_cell_length_a 9.561726
_cell_length_b 17.534777
_cell_length_c 15.970313
_cell_angle_alpha 90.000000
_cell_angle_beta 127.336902
_cell_angle_gamma 90.000000
_cell_volume 2128.935232
_symmetry_space_group_name_H-M "C 2/M"
_symmetry_group_IT_number 12
_symmetry_cell_setting 'monoclinic'
loop_
_space_group_symop_operation_xyz
x,y,z
-x,y,-z
-x,-y,-z
x,-y,z
1/2+x,1/2+y,z
1/2-x,1/2+y,-z
1/2-x,1/2-y,-z
1/2+x,1/2-y,z
loop_
_atom_site_type_symbol
_atom_site_label
_atom_site_fract_x
_atom_site_fract_y
_atom_site_fract_z
Si Si1 0.090815 0.340062 0.906354
Si Si2 0.144808 0.582172 0.624554
Si Si3 0.500000 0.639604 0.500000
Si Si4 0.737672 0.202213 0.120738
Si Si5 0.887990 0.619786 0.681779
Si Si6 0.078940 0.200850 0.345423
O O1 0.213552 0.284807 0.897591
O O2 0.934880 0.288400 0.886984
O O3 0.981587 0.395396 0.805609
O O4 0.197870 0.357076 0.030401
O O5 0.238739 0.500000 0.660166
O O6 0.273653 0.649774 0.645420
O O7 0.000000 0.580795 0.500000
O O8 0.029024 0.591070 0.665638
O O9 0.683541 0.596567 0.592444
O O10 0.557086 0.686881 0.437206
O O11 0.895224 0.177393 0.236852
O O12 0.885520 0.711484 0.665325
#
# Coordination Sequence:
#
# PCOD9220495 Si02
#       6
#     8   8   4   8   8   8
#     4   9  18  32  51  81 118 151 190 242 296 343
#     4  11  25  43  57  81 127 167 190 231 302 362
#     4  12  20  32  53  88 113 138 194 246 284 330
#     4   9  18  32  51  81 118 151 190 242 296 343
#     4  11  22  35  59  88 116 154 196 246 288 344
#     4  11  22  35  59  88 116 154 196 246 288 344
#
# _framework density 20.667607
#
# number of rings (size 3 to 8) (size 9 to 14) (size 15 to 20)
#    0.000    1.636    3.636    1.636   10.182    0.000 
#    0.000    1.818    0.000    2.182    0.000    2.545 
#    0.000    0.000    0.000    0.000    0.000    0.000 
#
# Total GULP energy -122541.524916 kJ/mol
# GULP energy per Si atom -5570.069314 kJ/mol
# Density = 2.062057 g / cm^3
# Si number density = 20.667607 Si / 1000 Ang^3
#
#
#
# Elastic Constant Matrix: (Units=GPa)
#
#
# Indices 1 2 3 4 5 6 
#
# 1 87.7366 9.4596 7.2855 0.0000 2.7414 0.0000
# 2 9.4596 61.5382 -2.5141 0.0000 2.9405 0.0000
# 3 7.2855 -2.5141 141.9355 0.0000 15.8892 0.0000
# 4 0.0000 0.0000 0.0000 -197.8043 0.0000 52.1003
# 5 2.7414 2.9405 15.8892 0.0000 30.8764 0.0000
# 6 0.0000 0.0000 0.0000 52.1003 0.0000 0.0043
#
#
#
# Elastic Compliance Matrix: (Units=1/GPa)
#
#
# Indices 1 2 3 4 5 6 
#
# 1 0.011655 -0.001787 -0.000566 0.000000 -0.000573 0.000000
# 2 -0.001787 0.016631 0.000579 0.000000 -0.001723 0.000000
# 3 -0.000566 0.000579 0.007518 0.000000 -0.003874 0.000000
# 4 0.000000 0.000000 0.000000 -0.000002 0.000000 0.019188
# 5 -0.000573 -0.001723 -0.003874 0.000000 0.034596 0.000000
# 6 0.000000 0.000000 0.000000 0.019188 0.000000 0.072849
#
#
# Mechanical properties :
#
#
# Convention : Reuss Voigt Hill
#
# Bulk Modulus (GPa) = 31.00111 35.51913 33.26012
# Shear Modulus (GPa) = 31.73650 -14.91944 8.40853
#
# Velocity S-wave (km/s) = 3.92288 -2.68969 2.01923
# Velocity P-wave (km/s) = 5.96247 2.75269 4.64373
#
# Compressibility (1/GPa) = 0.03225691
#
# Stress axis : x y z
#
# Youngs Moduli (GPa) = 85.79745 60.12933 133.00650
#
# Poissons Ratio (x) = 0.10747 0.07524
# Poissons Ratio (y) = 0.15335 -0.07704
# Poissons Ratio (z) = 0.04854 -0.03483
#
# Static dielectric constant tensor:
#      x y z
#    x 1.645790 0.000000 0.008600 
#    y 0.000000 1.751110 0.000000 
#    z 0.008600 0.000000 1.862850 
# 
# From -- ./inp_files/196072.got.cif
#   From: 2010.05.17/outbox.cif.g08.bks.cpg/sg12_99_cif.got.tgz:196072.got - 2010.06.03 13:09:07.
