data_PCOD9220609
_publ_section_title
;
Structure prediction by ZEFSAII (Michael W. Deem and Ramdas Pophale) SiO2 
 PCOD9220609
Probable space group: C 2/M
;
_chemical_formula_sum "Si O2"
_cell_formula_units_Z 64
_cell_length_a 30.571470
_cell_length_b 13.742074
_cell_length_c 11.551010
_cell_angle_alpha 90.000000
_cell_angle_beta 143.199753
_cell_angle_gamma 90.000000
_cell_volume 2906.932845
_symmetry_space_group_name_H-M "C 2/M"
_symmetry_group_IT_number 12
_symmetry_cell_setting 'monoclinic'
loop_
_space_group_symop_operation_xyz
x,y,z
-x,y,-z
-x,-y,-z
x,-y,z
1/2+x,1/2+y,z
1/2-x,1/2+y,-z
1/2-x,1/2-y,-z
1/2+x,1/2-y,z
loop_
_atom_site_type_symbol
_atom_site_label
_atom_site_fract_x
_atom_site_fract_y
_atom_site_fract_z
Si Si1 0.774828 0.617830 0.982287
Si Si2 0.531660 0.607625 0.198363
Si Si3 0.304615 0.386642 0.965893
Si Si4 0.698681 0.115088 0.218213
Si Si5 0.595719 0.726107 0.995017
Si Si6 0.853522 0.613382 0.495940
Si Si7 0.929075 0.382083 0.419664
Si Si8 0.834146 0.202517 0.610125
O O1 0.773160 0.500000 0.984704
O O2 0.765688 0.643583 0.829859
O O3 0.714507 0.650240 0.946102
O O4 0.855789 0.644801 0.195307
O O5 0.519126 0.500000 0.220938
O O6 0.616421 0.631467 0.364902
O O7 0.500000 0.607776 0.000000
O O8 0.486427 0.690045 0.168589
O O9 0.326275 0.500000 0.015209
O O10 0.364695 0.325357 0.027369
O O11 0.227026 0.382434 0.733616
O O12 0.617615 0.160614 0.042130
O O13 0.751165 0.167576 0.420950
O O14 0.697586 0.000000 0.230763
O O15 0.636409 0.689097 0.198025
O O16 0.865576 0.500000 0.556030
O O17 0.911130 0.640663 0.516158
O O18 0.852125 0.690711 0.596816
O O19 0.933696 0.500000 0.428121
O O20 0.000000 0.344841 0.500000
#
# Coordination Sequence:
#
# PCOD9220609 Si02
#       8
#     8   8   8   8   8   8   8   8
#     4   8  17  33  51  78 113 145 183 232 288 343
#     4   9  20  39  61  80 107 149 192 237 280 327
#     4   9  17  33  57  82 109 139 186 242 282 323
#     4  11  23  37  56  84 120 156 182 231 302 350
#     4  11  22  37  57  87 108 145 202 245 272 334
#     4   9  18  32  53  82 113 147 184 234 289 328
#     4   8  14  28  51  77 107 145 190 234 271 326
#     4  11  22  39  56  84 119 150 195 235 282 354
#
# _framework density 22.016334000000001
#
# number of rings (size 3 to 8) (size 9 to 14) (size 15 to 20)
#    0.000    2.500    1.250    2.625    0.000    3.500 
#    0.000    1.875    0.000    2.250    0.000    3.500 
#    0.000    0.000    0.000    0.000    0.000    0.000 
#
# Total GULP energy -178671.866456 kJ/mol
# GULP energy per Si atom -5583.495827 kJ/mol
# Density = 2.196622 g / cm^3
# Si number density = 22.016334 Si / 1000 Ang^3
#
#
#
# Elastic Constant Matrix: (Units=GPa)
#
#
# Indices 1 2 3 4 5 6 
#
# 1 101.0209 23.7761 7.2271 0.0000 3.8508 0.0000
# 2 23.7761 102.1170 8.3100 0.0000 1.7919 0.0000
# 3 7.2271 8.3100 19.6280 0.0000 1.1367 0.0000
# 4 0.0000 0.0000 0.0000 19.6611 0.0000 3.0615
# 5 3.8508 1.7919 1.1367 0.0000 32.2496 0.0000
# 6 0.0000 0.0000 0.0000 3.0615 0.0000 33.4646
#
#
#
# Elastic Compliance Matrix: (Units=1/GPa)
#
#
# Indices 1 2 3 4 5 6 
#
# 1 0.010673 -0.002228 -0.002926 0.000000 -0.001047 0.000000
# 2 -0.002228 0.010613 -0.003661 0.000000 -0.000195 0.000000
# 3 -0.002926 -0.003661 0.053653 0.000000 -0.001338 0.000000
# 4 0.000000 0.000000 0.000000 0.051597 0.000000 -0.004720
# 5 -0.001047 -0.000195 -0.001338 0.000000 0.031191 0.000000
# 6 0.000000 0.000000 0.000000 -0.004720 0.000000 0.030314
#
#
# Mechanical properties :
#
#
# Convention : Reuss Voigt Hill
#
# Bulk Modulus (GPa) = 17.44985 33.48804 25.46895
# Shear Modulus (GPa) = 22.24461 29.30526 25.77493
#
# Velocity S-wave (km/s) = 3.18208 3.65234 3.42529
# Velocity P-wave (km/s) = 4.63076 5.74715 5.21889
#
# Compressibility (1/GPa) = 0.05730709
#
# Stress axis : x y z
#
# Youngs Moduli (GPa) = 93.69737 94.22473 18.63845
#
# Poissons Ratio (x) = 0.20998 0.05453
# Poissons Ratio (y) = 0.20880 0.06824
# Poissons Ratio (z) = 0.27412 0.34500
#
# Static dielectric constant tensor:
#      x y z
#    x 1.842240 0.000000 -0.028430 
#    y 0.000000 1.829400 0.000000 
#    z -0.028430 0.000000 1.776220 
# 
# From -- ./inp_files/189495.got.cif
#   From: 2010.05.17/outbox.cif.g08.bks.cpg/sg12_95_cif.got.tgz:189495.got - 2010.06.03 13:09:07.
