data_PCOD9220910
_publ_section_title
;
Structure prediction by ZEFSAII (Michael W. Deem and Ramdas Pophale) SiO2 
 PCOD9220910
Probable space group: C 2/M
;
_chemical_formula_sum "Si O2"
_cell_formula_units_Z 40
_cell_length_a 11.390651
_cell_length_b 15.195105
_cell_length_c 10.043258
_cell_angle_alpha 90.000000
_cell_angle_beta 88.163297
_cell_angle_gamma 90.000000
_cell_volume 1737.415483
_symmetry_space_group_name_H-M "C 2/M"
_symmetry_group_IT_number 12
_symmetry_cell_setting 'monoclinic'
loop_
_space_group_symop_operation_xyz
x,y,z
-x,y,-z
-x,-y,-z
x,-y,z
1/2+x,1/2+y,z
1/2-x,1/2+y,-z
1/2-x,1/2-y,-z
1/2+x,1/2-y,z
loop_
_atom_site_type_symbol
_atom_site_label
_atom_site_fract_x
_atom_site_fract_y
_atom_site_fract_z
Si Si1 0.870868 0.607580 0.961793
Si Si2 0.260698 0.896911 0.688763
Si Si3 0.888969 0.645576 0.432057
Si Si4 0.015340 0.164672 0.649848
Si Si5 0.284151 0.600945 0.790913
O O1 0.871878 0.500000 0.967217
O O2 0.834835 0.631204 0.813963
O O3 0.773507 0.636334 0.071935
O O4 0.000000 0.638212 0.000000
O O5 0.297464 0.843387 0.556424
O O6 0.122801 0.883754 0.717392
O O7 0.282626 0.000000 0.661108
O O8 0.942027 0.735577 0.372652
O O9 0.819620 0.600761 0.315231
O O10 0.000000 0.599957 0.500000
O O11 0.000000 0.127365 0.500000
O O12 0.893860 0.154472 0.730897
O O13 0.322964 0.500000 0.809310
#
# Coordination Sequence:
#
# PCOD9220910 Si02
#       5
#     8   8   8   8   8
#     4   9  20  40  65  98 135 165 211 282 333 375
#     4  11  22  39  67  97 127 173 226 270 323 392
#     4  11  24  39  65  91 133 173 218 267 330 384
#     4  11  24  40  64  93 141 173 211 272 336 378
#     4  11  23  42  70  98 129 174 222 270 326 387
#
# _framework density 23.022703
#
# number of rings (size 3 to 8) (size 9 to 14) (size 15 to 20)
#    0.000    1.400    2.000    3.000    2.800    4.800 
#    0.000    4.000    8.800    0.000    0.000    0.000 
#    0.000    0.000    0.000    0.000    0.000    0.000 
#
# Total GULP energy -111925.570125 kJ/mol
# GULP energy per Si atom -5596.278506 kJ/mol
# Density = 2.297030 g / cm^3
# Si number density = 23.022703 Si / 1000 Ang^3
#
#
#
# Elastic Constant Matrix: (Units=GPa)
#
#
# Indices 1 2 3 4 5 6 
#
# 1 96.2529 45.5529 11.7851 0.0000 -6.7463 0.0000
# 2 45.5529 81.7102 43.0325 0.0000 -13.9700 0.0000
# 3 11.7851 43.0325 101.4163 0.0000 -13.1785 0.0000
# 4 0.0000 0.0000 0.0000 51.4765 0.0000 18.8835
# 5 -6.7463 -13.9700 -13.1785 0.0000 49.1181 0.0000
# 6 0.0000 0.0000 0.0000 18.8835 0.0000 40.9837
#
#
#
# Elastic Compliance Matrix: (Units=1/GPa)
#
#
# Indices 1 2 3 4 5 6 
#
# 1 0.014500 -0.009273 0.002244 0.000000 -0.000044 0.000000
# 2 -0.009273 0.022067 -0.007912 0.000000 0.002880 0.000000
# 3 0.002244 -0.007912 0.013163 0.000000 0.001590 0.000000
# 4 0.000000 0.000000 0.000000 0.023378 0.000000 -0.010771
# 5 -0.000044 0.002880 0.001590 0.000000 0.021599 0.000000
# 6 0.000000 0.000000 0.000000 -0.010771 0.000000 0.029363
#
#
# Mechanical properties :
#
#
# Convention : Reuss Voigt Hill
#
# Bulk Modulus (GPa) = 50.38007 53.34671 51.86339
# Shear Modulus (GPa) = 31.13969 40.24959 35.69464
#
# Velocity S-wave (km/s) = 3.68171 4.18575 3.94180
# Velocity P-wave (km/s) = 6.32484 6.82513 6.57974
#
# Compressibility (1/GPa) = 0.01984912
#
# Stress axis : x y z
#
# Youngs Moduli (GPa) = 68.96546 45.31666 75.96953
#
# Poissons Ratio (x) = 0.42022 -0.17048
# Poissons Ratio (y) = 0.63951 0.60104
# Poissons Ratio (z) = -0.15476 0.35853
#
# Static dielectric constant tensor:
#      x y z
#    x 1.857950 0.000000 -0.012680 
#    y 0.000000 1.879080 0.000000 
#    z -0.012680 0.000000 1.835440 
# 
# From -- ./inp_files/46961.got.cif
#   From: 2010.05.17/outbox.cif.g08.bks.cpg/sg12_24_cif.got.tgz:46961.got - 2010.06.03 13:09:07.
