data_PCOD9220520
_publ_section_title
;
Structure prediction by ZEFSAII (Michael W. Deem and Ramdas Pophale) SiO2 
 PCOD9220520
Probable space group: C 2/M
;
_chemical_formula_sum "Si O2"
_cell_formula_units_Z 56
_cell_length_a 19.821689
_cell_length_b 8.877011
_cell_length_c 23.821598
_cell_angle_alpha 90.000000
_cell_angle_beta 128.692376
_cell_angle_gamma 90.000000
_cell_volume 3271.589313
_symmetry_space_group_name_H-M "C 2/M"
_symmetry_group_IT_number 12
_symmetry_cell_setting 'monoclinic'
loop_
_space_group_symop_operation_xyz
x,y,z
-x,y,-z
-x,-y,-z
x,-y,z
1/2+x,1/2+y,z
1/2-x,1/2+y,-z
1/2-x,1/2-y,-z
1/2+x,1/2-y,z
loop_
_atom_site_type_symbol
_atom_site_label
_atom_site_fract_x
_atom_site_fract_y
_atom_site_fract_z
Si Si1 0.247191 0.820267 0.060171
Si Si2 0.672069 0.819309 0.496159
Si Si3 0.440059 0.318591 0.651046
Si Si4 0.285332 0.319278 0.654655
Si Si5 0.216182 0.679965 0.223669
Si Si6 0.900027 0.318534 0.939585
Si Si7 0.634249 0.318522 0.785689
O O1 0.161766 0.762013 0.047972
O O2 0.326897 0.760890 0.139386
O O3 0.248048 0.000000 0.057818
O O4 0.250000 0.750000 0.000000
O O5 0.750000 0.750000 0.500000
O O6 0.587300 0.753645 0.422537
O O7 0.699563 0.778721 0.573932
O O8 0.672647 0.000000 0.491866
O O9 0.435200 0.500000 0.643057
O O10 0.368763 0.272748 0.660712
O O11 0.536004 0.277949 0.720520
O O12 0.288041 0.500000 0.659677
O O13 0.286935 0.252967 0.717249
O O14 0.215604 0.500000 0.230146
O O15 0.136496 0.720799 0.141160
O O16 0.302073 0.720197 0.232899
O O17 0.889847 0.500000 0.940822
O O18 0.000000 0.280715 0.000000
O O19 0.639305 0.500000 0.796215
#
# Coordination Sequence:
#
# PCOD9220520 Si02
#       7
#     8   8   8   8   8   8   8
#     4  11  22  36  55  78 105 138 175 213 256 305
#     4   9  17  30  48  71  99 131 167 207 252 298
#     4   9  18  33  53  75  99 129 166 211 256 297
#     4   9  18  31  48  72 100 129 162 204 251 295
#     4   9  18  32  51  73  98 131 165 200 247 300
#     4   9  19  37  57  77 104 135 169 213 261 308
#     4   9  19  37  55  73 101 134 169 209 255 304
#
# _framework density 17.117063000000002
#
# number of rings (size 3 to 8) (size 9 to 14) (size 15 to 20)
#    0.000    2.714    0.000    3.429    0.000    7.143 
#    0.000    3.571    0.000    4.286    0.000    0.000 
#    0.000    0.000    0.000    0.000    0.000    0.000 
#
# Total GULP energy -156064.531625 kJ/mol
# GULP energy per Si atom -5573.733272 kJ/mol
# Density = 1.707810 g / cm^3
# Si number density = 17.117063 Si / 1000 Ang^3
#
#
#
# Elastic Constant Matrix: (Units=GPa)
#
#
# Indices 1 2 3 4 5 6 
#
# 1 72.6549 38.0631 104.7320 0.0000 3.9484 0.0000
# 2 38.0631 41.9537 67.2999 0.0000 2.2682 0.0000
# 3 104.7320 67.2999 206.5612 0.0000 -0.7668 0.0000
# 4 0.0000 0.0000 0.0000 34.9003 0.0000 -5.2217
# 5 3.9484 2.2682 -0.7668 0.0000 34.4480 0.0000
# 6 0.0000 0.0000 0.0000 -5.2217 0.0000 23.9169
#
#
#
# Elastic Compliance Matrix: (Units=1/GPa)
#
#
# Indices 1 2 3 4 5 6 
#
# 1 0.054510 -0.009953 -0.024418 0.000000 -0.006136 0.000000
# 2 -0.009953 0.052214 -0.011975 0.000000 -0.002564 0.000000
# 3 -0.024418 -0.011975 0.021138 0.000000 0.004058 0.000000
# 4 0.000000 0.000000 0.000000 0.029621 0.000000 0.006467
# 5 -0.006136 -0.002564 0.004058 0.000000 0.029992 0.000000
# 6 0.000000 0.000000 0.000000 0.006467 0.000000 0.043223
#
#
# Mechanical properties :
#
#
# Convention : Reuss Voigt Hill
#
# Bulk Modulus (GPa) = 28.43320 82.37331 55.40325
# Shear Modulus (GPa) = 14.92034 26.05804 20.48919
#
# Velocity S-wave (km/s) = 2.95560 3.90595 3.46353
# Velocity P-wave (km/s) = 5.31926 8.28070 6.95933
#
# Compressibility (1/GPa) = 0.03517016
#
# Stress axis : x y z
#
# Youngs Moduli (GPa) = 18.34532 19.15195 47.30771
#
# Poissons Ratio (x) = 0.19063 1.15515
# Poissons Ratio (y) = 0.18260 0.56650
# Poissons Ratio (z) = 0.44795 0.22934
#
# Static dielectric constant tensor:
#      x y z
#    x 1.566860 0.000000 0.016930 
#    y 0.000000 1.577090 0.000000 
#    z 0.016930 0.000000 1.589430 
# 
# From -- ./inp_files/320250.got.cif
#   From: 2010.05.17/outbox.cif.g08.bks.cpg/sg12_161_cif.got.tgz:320250.got - 2010.06.03 13:09:07.
