data_PCOD9220523
_publ_section_title
;
Structure prediction by ZEFSAII (Michael W. Deem and Ramdas Pophale) SiO2 
 PCOD9220523
Probable space group: C 2/M
;
_chemical_formula_sum "Si O2"
_cell_formula_units_Z 44
_cell_length_a 29.989409
_cell_length_b 7.303015
_cell_length_c 7.840594
_cell_angle_alpha 90.000000
_cell_angle_beta 109.769379
_cell_angle_gamma 90.000000
_cell_volume 1615.984348
_symmetry_space_group_name_H-M "C 2/M"
_symmetry_group_IT_number 12
_symmetry_cell_setting 'monoclinic'
loop_
_space_group_symop_operation_xyz
x,y,z
-x,y,-z
-x,-y,-z
x,-y,z
1/2+x,1/2+y,z
1/2-x,1/2+y,-z
1/2-x,1/2-y,-z
1/2+x,1/2-y,z
loop_
_atom_site_type_symbol
_atom_site_label
_atom_site_fract_x
_atom_site_fract_y
_atom_site_fract_z
Si Si1 0.602982 0.784796 0.181782
Si Si2 0.954621 0.000000 0.671270
Si Si3 0.719404 0.715423 0.627879
Si Si4 0.041491 0.716690 0.752031
Si Si5 0.308227 0.222615 0.924058
Si Si6 0.630531 0.211881 0.681649
O O1 0.582255 0.658107 0.300585
O O2 0.654996 0.732682 0.179759
O O3 0.601491 0.000000 0.224521
O O4 0.569032 0.764429 0.968997
O O5 0.995716 0.840624 0.696407
O O6 0.714492 0.500000 0.640027
O O7 0.750000 0.750000 0.500000
O O8 0.755584 0.790557 0.818461
O O9 0.666189 0.788178 0.569177
O O10 0.029871 0.500000 0.715358
O O11 0.078697 0.790875 0.655253
O O12 0.306387 0.000000 0.926761
O O13 0.334292 0.288353 0.127200
O O14 0.621927 0.000000 0.711800
#
# Coordination Sequence:
#
# PCOD9220523 Si02
#       6
#     8   4   8   8   8   8
#     4   9  17  30  45  70 108 146 181 222 269 325
#     4  12  19  26  46  78 111 148 187 222 269 328
#     4  11  22  36  55  80 108 142 182 229 280 335
#     4   9  18  29  45  71 109 146 179 221 272 325
#     4   8  17  35  55  76 109 147 182 223 279 332
#     4   9  18  35  55  78 108 144 182 227 277 330
#
# _framework density 27.227986000000001
#
# number of rings (size 3 to 8) (size 9 to 14) (size 15 to 20)
#    0.000    2.545    0.000    5.455    1.273    1.455 
#    4.909    0.000    0.000    0.000    0.000    2.545 
#    0.000    7.273    0.000    0.000    0.000    0.000 
#
# Total GULP energy -122723.216221 kJ/mol
# GULP energy per Si atom -5578.328010 kJ/mol
# Density = 2.716601 g / cm^3
# Si number density = 27.227986 Si / 1000 Ang^3
#
#
#
# Elastic Constant Matrix: (Units=GPa)
#
#
# Indices 1 2 3 4 5 6 
#
# 1 275.0810 66.2413 21.1552 0.0000 2.9199 0.0000
# 2 66.2413 150.4166 -18.1760 0.0000 -0.9064 0.0000
# 3 21.1552 -18.1760 62.1547 0.0000 1.8881 0.0000
# 4 0.0000 0.0000 0.0000 -55.0071 0.0000 12.4533
# 5 2.9199 -0.9064 1.8881 0.0000 53.2496 0.0000
# 6 0.0000 0.0000 0.0000 12.4533 0.0000 15.6390
#
#
#
# Elastic Compliance Matrix: (Units=1/GPa)
#
#
# Indices 1 2 3 4 5 6 
#
# 1 0.004318 -0.002156 -0.002094 0.000000 -0.000199 0.000000
# 2 -0.002156 0.007968 0.003059 0.000000 0.000145 0.000000
# 3 -0.002094 0.003059 0.017710 0.000000 -0.000461 0.000000
# 4 0.000000 0.000000 0.000000 -0.015403 0.000000 0.012265
# 5 -0.000199 0.000145 -0.000461 0.000000 0.018809 0.000000
# 6 0.000000 0.000000 0.000000 0.012265 0.000000 0.054176
#
#
# Mechanical properties :
#
#
# Convention : Reuss Voigt Hill
#
# Bulk Modulus (GPa) = 36.21127 69.56591 52.88859
# Shear Modulus (GPa) = 50.42181 30.67177 40.54679
#
# Velocity S-wave (km/s) = 4.30797 3.35995 3.86315
# Velocity P-wave (km/s) = 6.17033 6.37630 6.27416
#
# Compressibility (1/GPa) = 0.02761571
#
# Stress axis : x y z
#
# Youngs Moduli (GPa) = 231.61479 125.50114 56.46456
#
# Poissons Ratio (x) = 0.27053 0.11823
# Poissons Ratio (y) = 0.49927 -0.17275
# Poissons Ratio (z) = 0.48496 -0.38396
#
# Static dielectric constant tensor:
#      x y z
#    x 2.081010 0.000000 -0.039180 
#    y 0.000000 1.877230 0.000000 
#    z -0.039180 0.000000 2.340230 
# 
# From -- ./inp_files/108222.got.cif
#   From: 2010.05.17/outbox.cif.g08.bks.cpg/sg12_55_cif.got.tgz:108222.got - 2010.06.03 13:09:07.
