data_PCOD9220004
_publ_section_title
;
Structure prediction by ZEFSAII (Michael W. Deem and Ramdas Pophale) SiO2 
 PCOD9220004
Probable space group: C 2/M
;
_chemical_formula_sum "Si O2"
_cell_formula_units_Z 56
_cell_length_a 15.247167
_cell_length_b 7.800889
_cell_length_c 25.084155
_cell_angle_alpha 90.000000
_cell_angle_beta 61.779525
_cell_angle_gamma 90.000000
_cell_volume 2628.905350
_symmetry_space_group_name_H-M "C 2/M"
_symmetry_group_IT_number 12
_symmetry_cell_setting 'monoclinic'
loop_
_space_group_symop_operation_xyz
x,y,z
-x,y,-z
-x,-y,-z
x,-y,z
1/2+x,1/2+y,z
1/2-x,1/2+y,-z
1/2-x,1/2-y,-z
1/2+x,1/2-y,z
loop_
_atom_site_type_symbol
_atom_site_label
_atom_site_fract_x
_atom_site_fract_y
_atom_site_fract_z
Si Si1 0.450432 0.703117 0.138799
Si Si2 0.079982 0.209778 0.432403
Si Si3 0.269511 0.288760 0.117638
Si Si4 0.497785 0.301544 0.657760
Si Si5 0.219703 0.705081 0.568965
Si Si6 0.051501 0.300559 0.210002
Si Si7 0.095450 0.197772 0.012889
O O1 0.451910 0.500000 0.127545
O O2 0.349304 0.765827 0.140089
O O3 0.465502 0.726889 0.196926
O O4 0.547805 0.776814 0.079770
O O5 0.189405 0.260172 0.419650
O O6 0.000000 0.265225 0.500000
O O7 0.051983 0.271328 0.381604
O O8 0.075735 0.000000 0.433024
O O9 0.269256 0.500000 0.117174
O O10 0.159370 0.227219 0.162884
O O11 0.314088 0.229041 0.047892
O O12 0.468972 0.500000 0.669974
O O13 0.615616 0.287441 0.614396
O O14 0.468229 0.219560 0.721979
O O15 0.208901 0.500000 0.576131
O O16 0.250000 0.750000 0.500000
O O17 0.053968 0.500000 0.196715
O O18 0.122587 0.000000 0.016138
O O19 0.000000 0.196879 0.000000
#
# Coordination Sequence:
#
# PCOD9220004 Si02
#       7
#     8   8   8   8   8   8   8
#     4   9  17  33  57  81 106 142 188 231 274 332
#     4   9  18  36  61  86 113 144 175 215 271 323
#     4   8  16  32  54  78 108 145 185 231 277 327
#     4  11  23  41  60  80 110 148 190 230 271 326
#     4  11  21  37  62  91 119 146 177 217 269 323
#     4  11  23  37  52  77 113 148 183 228 280 330
#     4   7  11  24  50  80 104 134 181 231 276 323
#
# _framework density 21.301641
#
# number of rings (size 3 to 8) (size 9 to 14) (size 15 to 20)
#    0.000    2.571    1.429    3.000    0.000    1.714 
#    0.000    7.857    0.000    4.714    0.000    0.000 
#    0.000    0.000    0.000    0.000    0.000    0.000 
#
# Total GULP energy -156256.121402 kJ/mol
# GULP energy per Si atom -5580.575764 kJ/mol
# Density = 2.125316 g / cm^3
# Si number density = 21.301641 Si / 1000 Ang^3
#
#
#
# Elastic Constant Matrix: (Units=GPa)
#
#
# Indices 1 2 3 4 5 6 
#
# 1 90.2350 -2.8098 24.6372 0.0000 17.7264 0.0000
# 2 -2.8098 29.0373 -6.0980 0.0000 2.7234 0.0000
# 3 24.6372 -6.0980 74.1411 0.0000 17.8179 0.0000
# 4 0.0000 0.0000 0.0000 1.4146 0.0000 -1.3924
# 5 17.7264 2.7234 17.8179 0.0000 36.0140 0.0000
# 6 0.0000 0.0000 0.0000 -1.3924 0.0000 9.8631
#
#
#
# Elastic Compliance Matrix: (Units=1/GPa)
#
#
# Indices 1 2 3 4 5 6 
#
# 1 0.012910 0.001080 -0.003013 0.000000 -0.004946 0.000000
# 2 0.001080 0.035827 0.003821 0.000000 -0.005131 0.000000
# 3 -0.003013 0.003821 0.016475 0.000000 -0.006957 0.000000
# 4 0.000000 0.000000 0.000000 0.821010 0.000000 0.115903
# 5 -0.004946 -0.005131 -0.006957 0.000000 0.034031 0.000000
# 6 0.000000 0.000000 0.000000 0.115903 0.000000 0.117750
#
#
# Mechanical properties :
#
#
# Convention : Reuss Voigt Hill
#
# Bulk Modulus (GPa) = 14.49502 24.98578 19.74040
# Shear Modulus (GPa) = 4.72937 21.30394 13.01666
#
# Velocity S-wave (km/s) = 1.49165 3.16588 2.47465
# Velocity P-wave (km/s) = 3.12827 5.01186 4.17761
#
# Compressibility (1/GPa) = 0.06898921
#
# Stress axis : x y z
#
# Youngs Moduli (GPa) = 77.45996 27.91212 60.69758
#
# Poissons Ratio (x) = -0.03016 0.18286
# Poissons Ratio (y) = -0.08369 -0.23192
# Poissons Ratio (z) = 0.23335 -0.10665
#
# Static dielectric constant tensor:
#      x y z
#    x 1.778860 0.000000 0.001010 
#    y 0.000000 1.810420 0.000000 
#    z 0.001010 0.000000 1.762050 
# 
# From -- ./inp_files/337884.got.cif
#   From: 2010.05.17/outbox.cif.g08.bks.cpg/sg12_169_cif.got.tgz:337884.got - 2010.06.03 13:09:07.
