data_PCOD9220606
_publ_section_title
;
Structure prediction by ZEFSAII (Michael W. Deem and Ramdas Pophale) SiO2 
 PCOD9220606
Probable space group: C 2/M
;
_chemical_formula_sum "Si O2"
_cell_formula_units_Z 40
_cell_length_a 24.972717
_cell_length_b 22.207600
_cell_length_c 4.925041
_cell_angle_alpha 90.000000
_cell_angle_beta 49.915654
_cell_angle_gamma 90.000000
_cell_volume 2089.748265
_symmetry_space_group_name_H-M "C 2/M"
_symmetry_group_IT_number 12
_symmetry_cell_setting 'monoclinic'
loop_
_space_group_symop_operation_xyz
x,y,z
-x,y,-z
-x,-y,-z
x,-y,z
1/2+x,1/2+y,z
1/2-x,1/2+y,-z
1/2-x,1/2-y,-z
1/2+x,1/2-y,z
loop_
_atom_site_type_symbol
_atom_site_label
_atom_site_fract_x
_atom_site_fract_y
_atom_site_fract_z
Si Si1 0.754205 0.352846 0.523868
Si Si2 0.275886 0.569025 0.851998
Si Si3 0.817654 0.246835 0.583333
Si Si4 0.568109 0.565354 0.586575
Si Si5 0.452517 0.697008 0.421611
O O1 0.769090 0.398421 0.231188
O O2 0.816194 0.309252 0.423694
O O3 0.696849 0.306773 0.584009
O O4 0.728918 0.391868 0.860175
O O5 0.255712 0.500000 0.963994
O O6 0.357912 0.569011 0.496744
O O7 0.883747 0.231970 0.551977
O O8 0.750000 0.250000 0.000000
O O9 0.570795 0.500000 0.430167
O O10 0.565684 0.628057 0.433105
O O11 0.500000 0.563827 0.000000
O O12 0.500000 0.725270 0.500000
O O13 0.500000 0.692387 0.000000
#
# Coordination Sequence:
#
# PCOD9220606 Si02
#       5
#     8   8   8   8   8
#     4  11  22  37  61  83 112 153 200 239 306 351
#     4  11  22  37  57  85 119 151 199 252 294 341
#     4  11  23  39  64  84 117 159 205 242 300 363
#     4   9  19  34  51  72 109 160 205 238 277 326
#     4  11  25  37  55  82 120 153 200 249 289 335
#
# _framework density 19.141062000000002
#
# number of rings (size 3 to 8) (size 9 to 14) (size 15 to 20)
#    0.000    1.400    4.000    0.600    8.400    0.400 
#    0.000    4.000    0.000    0.000    0.000    0.000 
#    0.000   16.000    0.000    0.000    0.000    0.000 
#
# Total GULP energy -111646.790830 kJ/mol
# GULP energy per Si atom -5582.339542 kJ/mol
# Density = 1.909750 g / cm^3
# Si number density = 19.141062 Si / 1000 Ang^3
#
#
#
# Elastic Constant Matrix: (Units=GPa)
#
#
# Indices 1 2 3 4 5 6 
#
# 1 156.6092 76.4989 36.8464 0.0000 -3.1908 0.0000
# 2 76.4989 142.7784 39.8547 0.0000 0.3010 0.0000
# 3 36.8464 39.8547 59.3538 0.0000 10.4991 0.0000
# 4 0.0000 0.0000 0.0000 22.7858 0.0000 -5.4967
# 5 -3.1908 0.3010 10.4991 0.0000 31.5842 0.0000
# 6 0.0000 0.0000 0.0000 -5.4967 0.0000 33.3596
#
#
#
# Elastic Compliance Matrix: (Units=1/GPa)
#
#
# Indices 1 2 3 4 5 6 
#
# 1 0.009165 -0.003967 -0.003396 0.000000 0.002093 0.000000
# 2 -0.003967 0.010452 -0.004746 0.000000 0.001077 0.000000
# 3 -0.003396 -0.004746 0.023583 0.000000 -0.008137 0.000000
# 4 0.000000 0.000000 0.000000 0.045704 0.000000 0.007531
# 5 0.002093 0.001077 -0.008137 0.000000 0.034567 0.000000
# 6 0.000000 0.000000 0.000000 0.007531 0.000000 0.031217
#
#
# Mechanical properties :
#
#
# Convention : Reuss Voigt Hill
#
# Bulk Modulus (GPa) = 52.68334 73.90462 63.29398
# Shear Modulus (GPa) = 26.99321 31.24867 29.12094
#
# Velocity S-wave (km/s) = 3.75937 4.04486 3.90473
# Velocity P-wave (km/s) = 6.81376 7.77874 7.31219
#
# Compressibility (1/GPa) = 0.01898133
#
# Stress axis : x y z
#
# Youngs Moduli (GPa) = 109.11594 95.67762 42.40425
#
# Poissons Ratio (x) = 0.37953 0.14400
# Poissons Ratio (y) = 0.43284 0.20126
# Poissons Ratio (z) = 0.37054 0.45410
#
# Static dielectric constant tensor:
#      x y z
#    x 1.698890 0.000000 0.022480 
#    y 0.000000 1.717630 0.000000 
#    z 0.022480 0.000000 1.689630 
# 
# From -- ./inp_files/15879.got.cif
#   From: 2010.05.17/outbox.cif.g08.bks.cpg/sg12_8_cif.got.tgz:15879.got - 2010.06.03 13:09:07.
