data_PCOD9220933
_publ_section_title
;
Structure prediction by ZEFSAII (Michael W. Deem and Ramdas Pophale) SiO2 
 PCOD9220933
Probable space group: C 2/M
;
_chemical_formula_sum "Si O2"
_cell_formula_units_Z 48
_cell_length_a 19.224660
_cell_length_b 16.184942
_cell_length_c 8.897050
_cell_angle_alpha 90.000000
_cell_angle_beta 115.118610
_cell_angle_gamma 90.000000
_cell_volume 2506.520098
_symmetry_space_group_name_H-M "C 2/M"
_symmetry_group_IT_number 12
_symmetry_cell_setting 'monoclinic'
loop_
_space_group_symop_operation_xyz
x,y,z
-x,y,-z
-x,-y,-z
x,-y,z
1/2+x,1/2+y,z
1/2-x,1/2+y,-z
1/2-x,1/2-y,-z
1/2+x,1/2-y,z
loop_
_atom_site_type_symbol
_atom_site_label
_atom_site_fract_x
_atom_site_fract_y
_atom_site_fract_z
Si Si1 0.179457 0.322523 0.088622
Si Si2 0.561403 0.723529 0.186698
Si Si3 0.931634 0.338372 0.543367
Si Si4 0.849486 0.782975 0.235511
Si Si5 0.101416 0.500000 0.984038
Si Si6 0.987261 0.905665 0.308879
Si Si7 0.561973 0.000000 0.297736
O O1 0.134509 0.268031 0.174889
O O2 0.269551 0.324791 0.210281
O O3 0.147345 0.413786 0.023987
O O4 0.168243 0.274702 0.922205
O O5 0.533295 0.789160 0.284091
O O6 0.556176 0.638690 0.278680
O O7 0.500000 0.713146 0.000000
O O8 0.881241 0.274163 0.400873
O O9 0.900023 0.420961 0.588451
O O10 0.000000 0.365964 0.500000
O O11 0.911093 0.849407 0.231423
O O12 0.074768 0.500000 0.132653
O O13 0.032406 0.500000 0.796451
O O14 0.000000 0.906379 0.500000
O O15 0.976908 0.000000 0.248361
#
# Coordination Sequence:
#
# PCOD9220933 Si02
#       7
#     8   8   8   8   4   8   4
#     4  11  25  40  65  93 127 174 203 259 324 383
#     4  12  20  39  65  89 124 160 212 259 313 380
#     4  12  21  38  63  93 124 164 206 262 311 374
#     4  11  23  44  63  89 129 168 212 257 325 383
#     4  11  22  40  60  98 129 161 214 258 312 390
#     4  11  23  41  67  92 117 163 218 267 308 369
#     4  11  23  34  64  96 126 160 212 262 311 373
#
# _framework density 19.150054999999998
#
# number of rings (size 3 to 8) (size 9 to 14) (size 15 to 20)
#    0.000    0.667    6.667    2.250    1.167    1.667 
#    0.000    0.000    3.667    0.000    0.000    0.000 
#    0.000    0.000    0.000    0.000    0.000    0.000 
#
# Total GULP energy -133667.029355 kJ/mol
# GULP energy per Si atom -5569.459556 kJ/mol
# Density = 1.910647 g / cm^3
# Si number density = 19.150055 Si / 1000 Ang^3
#
#
#
# Elastic Constant Matrix: (Units=GPa)
#
#
# Indices 1 2 3 4 5 6 
#
# 1 80.5650 38.4419 5.7870 0.0000 -0.1095 0.0000
# 2 38.4419 153.2964 23.3233 0.0000 2.6645 0.0000
# 3 5.7870 23.3233 68.5810 0.0000 -14.3807 0.0000
# 4 0.0000 0.0000 0.0000 28.2407 0.0000 -7.5487
# 5 -0.1095 2.6645 -14.3807 0.0000 27.2589 0.0000
# 6 0.0000 0.0000 0.0000 -7.5487 0.0000 22.2021
#
#
#
# Elastic Compliance Matrix: (Units=1/GPa)
#
#
# Indices 1 2 3 4 5 6 
#
# 1 0.014105 -0.003563 0.000120 0.000000 0.000468 0.000000
# 2 -0.003563 0.007893 -0.002865 0.000000 -0.002297 0.000000
# 3 0.000120 -0.002865 0.017545 0.000000 0.009537 0.000000
# 4 0.000000 0.000000 0.000000 0.038950 0.000000 0.013243
# 5 0.000468 -0.002297 0.009537 0.000000 0.041943 0.000000
# 6 0.000000 0.000000 0.000000 0.013243 0.000000 0.049543
#
#
# Mechanical properties :
#
#
# Convention : Reuss Voigt Hill
#
# Bulk Modulus (GPa) = 37.13991 48.61630 42.87810
# Shear Modulus (GPa) = 26.09993 31.19969 28.64981
#
# Velocity S-wave (km/s) = 3.69578 4.04074 3.87210
# Velocity P-wave (km/s) = 6.13579 6.87112 6.51384
#
# Compressibility (1/GPa) = 0.02692521
#
# Stress axis : x y z
#
# Youngs Moduli (GPa) = 70.89861 126.69848 56.99509
#
# Poissons Ratio (x) = 0.45147 -0.00683
# Poissons Ratio (y) = 0.25264 0.16331
# Poissons Ratio (z) = -0.00850 0.36302
#
# Static dielectric constant tensor:
#      x y z
#    x 1.733920 0.000000 -0.005600 
#    y 0.000000 1.693290 0.000000 
#    z -0.005600 0.000000 1.670090 
# 
# From -- ./inp_files/85982.got.cif
#   From: 2010.05.17/outbox.cif.g08.bks.cpg/sg12_43_cif.got.tgz:85982.got - 2010.06.03 13:09:07.
