data_PCOD9220686
_publ_section_title
;
Structure prediction by ZEFSAII (Michael W. Deem and Ramdas Pophale) SiO2 
 PCOD9220686
Probable space group: C 2/M
;
_chemical_formula_sum "Si O2"
_cell_formula_units_Z 48
_cell_length_a 15.526518
_cell_length_b 26.238871
_cell_length_c 15.980583
_cell_angle_alpha 90.000000
_cell_angle_beta 161.566043
_cell_angle_gamma 90.000000
_cell_volume 2058.682062
_symmetry_space_group_name_H-M "C 2/M"
_symmetry_group_IT_number 12
_symmetry_cell_setting 'monoclinic'
loop_
_space_group_symop_operation_xyz
x,y,z
-x,y,-z
-x,-y,-z
x,-y,z
1/2+x,1/2+y,z
1/2-x,1/2+y,-z
1/2-x,1/2-y,-z
1/2+x,1/2-y,z
loop_
_atom_site_type_symbol
_atom_site_label
_atom_site_fract_x
_atom_site_fract_y
_atom_site_fract_z
Si Si1 0.274407 0.261608 0.222463
Si Si2 0.655453 0.059439 0.058991
Si Si3 0.392722 0.304385 0.616168
Si Si4 0.925223 0.589574 0.519945
Si Si5 0.251322 0.587678 0.461891
Si Si6 0.088049 0.843378 0.968495
O O1 0.500000 0.253529 0.500000
O O2 0.409762 0.295344 0.277619
O O3 0.182754 0.207036 0.103075
O O4 0.000000 0.287552 0.000000
O O5 0.944768 0.082369 0.295885
O O6 0.714366 0.000000 0.130501
O O7 0.500000 0.079160 0.000000
O O8 0.454522 0.064090 0.794372
O O9 0.250000 0.250000 0.500000
O O10 0.193698 0.351515 0.415300
O O11 0.565328 0.323592 0.853486
O O12 0.780214 0.567071 0.470834
O O13 0.000000 0.562563 0.500000
O O14 0.200770 0.612750 0.813077
O O15 0.714255 0.633881 0.295570
#
# Coordination Sequence:
#
# PCOD9220686 Si02
#       6
#     8   8   8   8   8   8
#     4  12  24  36  53  80 116 164 222 275 325 380
#     4  11  25  48  77 105 134 173 225 290 361 421
#     4  11  25  42  60  89 135 182 219 269 335 402
#     4  11  22  38  63  93 128 169 217 270 321 384
#     4  11  24  43  69 101 134 176 226 278 338 413
#     4  11  22  38  57  79 117 175 234 269 306 375
#
# _framework density 23.315888000000001
#
# number of rings (size 3 to 8) (size 9 to 14) (size 15 to 20)
#    0.000    0.833    0.000    9.500    0.000    8.667 
#    0.000    0.000    0.000    3.000    0.000    0.000 
#    0.000    0.000    0.000    0.000    0.000    0.000 
#
# Total GULP energy -134123.199688 kJ/mol
# GULP energy per Si atom -5588.466654 kJ/mol
# Density = 2.326282 g / cm^3
# Si number density = 23.315888 Si / 1000 Ang^3
#
#
#
# Elastic Constant Matrix: (Units=GPa)
#
#
# Indices 1 2 3 4 5 6 
#
# 1 153.0382 6.5044 23.6023 0.0029 -9.9129 -0.0002
# 2 6.5044 61.9480 3.6248 0.0002 0.0061 -0.0002
# 3 23.6023 3.6248 123.4668 -0.0022 -4.2541 -0.0016
# 4 0.0029 0.0002 -0.0022 22.1521 0.0001 -5.1367
# 5 -9.9129 0.0061 -4.2541 0.0001 32.4305 -0.0004
# 6 -0.0002 -0.0002 -0.0016 -5.1367 -0.0004 21.5382
#
#
#
# Elastic Compliance Matrix: (Units=1/GPa)
#
#
# Indices 1 2 3 4 5 6 
#
# 1 0.006877 -0.000650 -0.001229 -0.000001 0.001941 0.000000
# 2 -0.000650 0.016232 -0.000361 0.000000 -0.000249 0.000000
# 3 -0.001229 -0.000361 0.008370 0.000001 0.000722 0.000001
# 4 -0.000001 0.000000 0.000001 0.047785 0.000000 0.011396
# 5 0.001941 -0.000249 0.000722 0.000000 0.031523 0.000001
# 6 0.000000 0.000000 0.000001 0.011396 0.000001 0.049147
#
#
# Mechanical properties :
#
#
# Convention : Reuss Voigt Hill
#
# Bulk Modulus (GPa) = 37.03824 45.10179 41.07001
# Shear Modulus (GPa) = 28.83276 35.53892 32.18584
#
# Velocity S-wave (km/s) = 3.52037 3.90838 3.71944
# Velocity P-wave (km/s) = 5.69595 6.30500 6.00820
#
# Compressibility (1/GPa) = 0.02699912
#
# Stress axis : x y z
#
# Youngs Moduli (GPa) = 145.40842 61.60669 119.47853
#
# Poissons Ratio (x) = 0.04007 0.14680
# Poissons Ratio (y) = 0.09457 0.04311
# Poissons Ratio (z) = 0.17866 0.02223
#
# Static dielectric constant tensor:
#      x y z
#    x 1.695540 -0.000080 0.877160 
#    y -0.000080 1.874240 0.000230 
#    z 0.877160 0.000230 -0.703510 
# 
# From -- ./inp_files/219593.got.cif
#   From: 2010.05.17/outbox.cif.g08.bks.cpg/sg12_110_cif.got.tgz:219593.got - 2010.06.03 13:09:07.
