data_PCOD9220805
_publ_section_title
;
Structure prediction by ZEFSAII (Michael W. Deem and Ramdas Pophale) SiO2 
 PCOD9220805
Probable space group: C 2/M
;
_chemical_formula_sum "Si O2"
_cell_formula_units_Z 40
_cell_length_a 13.650452
_cell_length_b 22.830644
_cell_length_c 7.971039
_cell_angle_alpha 90.000000
_cell_angle_beta 123.192868
_cell_angle_gamma 90.000000
_cell_volume 2078.828437
_symmetry_space_group_name_H-M "C 2/M"
_symmetry_group_IT_number 12
_symmetry_cell_setting 'monoclinic'
loop_
_space_group_symop_operation_xyz
x,y,z
-x,y,-z
-x,-y,-z
x,-y,z
1/2+x,1/2+y,z
1/2-x,1/2+y,-z
1/2-x,1/2-y,-z
1/2+x,1/2-y,z
loop_
_atom_site_type_symbol
_atom_site_label
_atom_site_fract_x
_atom_site_fract_y
_atom_site_fract_z
Si Si1 0.447976 0.256089 0.266990
Si Si2 0.136342 0.065523 0.830837
Si Si3 0.134541 0.931422 0.424431
Si Si4 0.817741 0.195972 0.653117
Si Si5 0.760116 0.673047 0.043736
O O1 0.500000 0.246204 0.500000
O O2 0.547430 0.286008 0.249589
O O3 0.389850 0.197331 0.138385
O O4 0.336009 0.299044 0.171521
O O5 0.139859 0.068907 0.631970
O O6 0.001783 0.078771 0.753812
O O7 0.158201 0.000000 0.904678
O O8 0.234972 0.105524 0.002764
O O9 0.199161 0.871509 0.426856
O O10 0.164633 0.000000 0.402982
O O11 0.750000 0.250000 0.500000
O O12 0.779631 0.193766 0.809829
#
# Coordination Sequence:
#
# PCOD9220805 Si02
#       5
#     8   8   8   8   8
#     4  11  22  39  54  80 121 150 190 233 289 343
#     4   9  18  35  58  82 111 152 192 235 290 344
#     4   9  19  35  56  81 117 152 186 236 293 344
#     4  12  23  36  58  89 121 153 189 240 286 343
#     4  11  23  35  59  85 113 155 188 240 288 337
#
# _framework density 19.241607999999999
#
# number of rings (size 3 to 8) (size 9 to 14) (size 15 to 20)
#    0.000    1.600    4.000    3.000    2.800    0.800 
#    0.000    2.000    0.000    1.800    0.000    2.800 
#    0.000    0.000    0.000    0.000    0.000    0.000 
#
# Total GULP energy -111445.186935 kJ/mol
# GULP energy per Si atom -5572.259347 kJ/mol
# Density = 1.919781 g / cm^3
# Si number density = 19.241608 Si / 1000 Ang^3
#
#
#
# Elastic Constant Matrix: (Units=GPa)
#
#
# Indices 1 2 3 4 5 6 
#
# 1 40.2288 33.9347 8.2222 0.0000 4.8755 0.0000
# 2 33.9347 167.3043 41.9367 0.0000 10.1408 0.0000
# 3 8.2222 41.9367 63.4216 0.0000 14.7212 0.0000
# 4 0.0000 0.0000 0.0000 43.4972 0.0000 3.7204
# 5 4.8755 10.1408 14.7212 0.0000 7.1230 0.0000
# 6 0.0000 0.0000 0.0000 3.7204 0.0000 26.1002
#
#
#
# Elastic Compliance Matrix: (Units=1/GPa)
#
#
# Indices 1 2 3 4 5 6 
#
# 1 0.032155 -0.006492 0.005935 0.000000 -0.025031 0.000000
# 2 -0.006492 0.008478 -0.005755 0.000000 0.004268 0.000000
# 3 0.005935 -0.005755 0.034298 0.000000 -0.066753 0.000000
# 4 0.000000 0.000000 0.000000 0.023274 0.000000 -0.003318
# 5 -0.025031 0.004268 -0.066753 0.000000 0.289406 0.000000
# 6 0.000000 0.000000 0.000000 -0.003318 0.000000 0.038787
#
#
# Mechanical properties :
#
#
# Convention : Reuss Voigt Hill
#
# Bulk Modulus (GPa) = 16.04997 48.79354 32.42176
# Shear Modulus (GPa) = 10.87450 27.80150 19.33800
#
# Velocity S-wave (km/s) = 2.37988 3.80526 3.17363
# Velocity P-wave (km/s) = 3.98888 6.68731 5.50596
#
# Compressibility (1/GPa) = 0.06230540
#
# Stress axis : x y z
#
# Youngs Moduli (GPa) = 31.09912 117.95483 29.15650
#
# Poissons Ratio (x) = 0.76582 -0.17303
# Poissons Ratio (y) = 0.20191 0.16779
# Poissons Ratio (z) = -0.18456 0.67880
#
# Static dielectric constant tensor:
#      x y z
#    x 1.692290 0.000000 -0.009700 
#    y 0.000000 1.771220 0.000000 
#    z -0.009700 0.000000 1.691080 
# 
# From -- ./inp_files/62565.got.cif
#   From: 2010.05.17/outbox.cif.g08.bks.cpg/sg12_32_cif.got.tgz:62565.got - 2010.06.03 13:09:07.
