data_PCOD9220820
_publ_section_title
;
Structure prediction by ZEFSAII (Michael W. Deem and Ramdas Pophale) SiO2 
 PCOD9220820
Probable space group: C 2/M
;
_chemical_formula_sum "Si O2"
_cell_formula_units_Z 44
_cell_length_a 4.941518
_cell_length_b 26.769807
_cell_length_c 16.735103
_cell_angle_alpha 90.000000
_cell_angle_beta 62.524278
_cell_angle_gamma 90.000000
_cell_volume 1964.077781
_symmetry_space_group_name_H-M "C 2/M"
_symmetry_group_IT_number 12
_symmetry_cell_setting 'monoclinic'
loop_
_space_group_symop_operation_xyz
x,y,z
-x,y,-z
-x,-y,-z
x,-y,z
1/2+x,1/2+y,z
1/2-x,1/2+y,-z
1/2-x,1/2-y,-z
1/2+x,1/2-y,z
loop_
_atom_site_type_symbol
_atom_site_label
_atom_site_fract_x
_atom_site_fract_y
_atom_site_fract_z
Si Si1 0.890222 0.112367 0.165794
Si Si2 0.284081 0.827707 0.589268
Si Si3 0.328783 0.892287 0.360602
Si Si4 0.508991 0.941921 0.903073
Si Si5 0.346712 0.000000 0.431727
Si Si6 0.084781 0.783053 0.786141
O O1 0.579988 0.117981 0.258987
O O2 0.755391 0.090174 0.102599
O O3 0.036339 0.167242 0.153698
O O4 0.148750 0.075862 0.166446
O O5 0.500000 0.794981 0.500000
O O6 0.548196 0.866294 0.577178
O O7 0.193182 0.796874 0.681023
O O8 0.986933 0.863059 0.613499
O O9 0.371747 0.950656 0.373888
O O10 0.463929 0.000000 0.887937
O O11 0.500000 0.936784 0.000000
O O12 0.500000 0.000000 0.500000
O O13 0.000000 0.000000 0.500000
O O14 0.351569 0.761466 0.803944
#
# Coordination Sequence:
#
# PCOD9220820 Si02
#       6
#     8   8   8   8   4   8
#     4  11  23  43  66  94 132 169 209 263 318 381
#     4  11  22  39  60  84 125 163 218 276 331 368
#     4  11  23  38  57  87 121 172 215 262 310 382
#     4  11  24  42  70 103 134 165 201 254 321 389
#     4  12  24  36  54  82 121 168 217 260 304 360
#     4  11  23  41  65  93 125 169 222 268 326 379
#
# _framework density 22.402372
#
# number of rings (size 3 to 8) (size 9 to 14) (size 15 to 20)
#    0.000    0.909    0.000    9.818    2.545    2.182 
#    0.000    0.000    0.000   10.909    0.000    0.000 
#    0.000    0.000    0.000    0.000    0.000    0.000 
#
# Total GULP energy -122583.048201 kJ/mol
# GULP energy per Si atom -5571.956736 kJ/mol
# Density = 2.235138 g / cm^3
# Si number density = 22.402372 Si / 1000 Ang^3
#
#
#
# Elastic Constant Matrix: (Units=GPa)
#
#
# Indices 1 2 3 4 5 6 
#
# 1 74.5749 5.9929 15.6731 0.0000 -3.8092 0.0000
# 2 5.9929 81.9056 5.8651 0.0000 11.4384 0.0000
# 3 15.6731 5.8651 42.2139 0.0000 -2.7606 0.0000
# 4 0.0000 0.0000 0.0000 -1.3216 0.0000 42.5554
# 5 -3.8092 11.4384 -2.7606 0.0000 26.7581 0.0000
# 6 0.0000 0.0000 0.0000 42.5554 0.0000 65.7927
#
#
#
# Elastic Compliance Matrix: (Units=1/GPa)
#
#
# Indices 1 2 3 4 5 6 
#
# 1 0.014678 -0.000978 -0.005185 0.000000 0.001973 0.000000
# 2 -0.000978 0.013252 -0.001870 0.000000 -0.005997 0.000000
# 3 -0.005185 -0.001870 0.026053 0.000000 0.002749 0.000000
# 4 0.000000 0.000000 0.000000 -0.034666 0.000000 0.022422
# 5 0.001973 -0.005997 0.002749 0.000000 0.040500 0.000000
# 6 0.000000 0.000000 0.000000 0.022422 0.000000 0.000696
#
#
# Mechanical properties :
#
#
# Convention : Reuss Voigt Hill
#
# Bulk Modulus (GPa) = 26.37302 28.19518 27.28410
# Shear Modulus (GPa) = 56.04102 29.65672 42.84887
#
# Velocity S-wave (km/s) = 5.00699 3.64238 4.37818
# Velocity P-wave (km/s) = 6.72492 5.50476 6.14520
#
# Compressibility (1/GPa) = 0.03791754
#
# Stress axis : x y z
#
# Youngs Moduli (GPa) = 68.12740 75.45915 38.38257
#
# Poissons Ratio (x) = 0.07382 0.19901
# Poissons Ratio (y) = 0.06664 0.07178
# Poissons Ratio (z) = 0.35323 0.14112
#
# Static dielectric constant tensor:
#      x y z
#    x 1.819800 0.000000 0.044650 
#    y 0.000000 1.856200 0.000000 
#    z 0.044650 0.000000 1.931380 
# 
# From -- ./inp_files/253211.got.cif
#   From: 2010.05.17/outbox.cif.g08.bks.cpg/sg12_127_cif.got.tgz:253211.got - 2010.06.03 13:09:07.
