data_PCOD9220824
_publ_section_title
;
Structure prediction by ZEFSAII (Michael W. Deem and Ramdas Pophale) SiO2 
 PCOD9220824
Probable space group: C 2/M
;
_chemical_formula_sum "Si O2"
_cell_formula_units_Z 40
_cell_length_a 8.964496
_cell_length_b 28.344398
_cell_length_c 13.397828
_cell_angle_alpha 90.000000
_cell_angle_beta 146.405354
_cell_angle_gamma 90.000000
_cell_volume 1883.644528
_symmetry_space_group_name_H-M "C 2/M"
_symmetry_group_IT_number 12
_symmetry_cell_setting 'monoclinic'
loop_
_space_group_symop_operation_xyz
x,y,z
-x,y,-z
-x,-y,-z
x,-y,z
1/2+x,1/2+y,z
1/2-x,1/2+y,-z
1/2-x,1/2-y,-z
1/2+x,1/2-y,z
loop_
_atom_site_type_symbol
_atom_site_label
_atom_site_fract_x
_atom_site_fract_y
_atom_site_fract_z
Si Si1 0.957391 0.789845 0.580535
Si Si2 0.206292 0.123051 0.380239
Si Si3 0.702790 0.945798 0.382917
Si Si4 0.973100 0.287138 0.100740
Si Si5 0.852362 0.391552 0.027012
O O1 0.750000 0.750000 0.500000
O O2 0.928180 0.830386 0.645856
O O3 0.000000 0.818691 0.500000
O O4 0.240003 0.763118 0.719736
O O5 0.500000 0.135273 0.500000
O O6 0.273007 0.085971 0.504876
O O7 0.969037 0.104661 0.173948
O O8 0.000000 0.944373 0.500000
O O9 0.639111 0.000000 0.372752
O O10 0.487945 0.926585 0.181933
O O11 0.750000 0.250000 0.000000
O O12 0.911890 0.339135 0.106697
O O13 0.000000 0.296038 0.000000
O O14 0.000000 0.396803 0.000000
#
# Coordination Sequence:
#
# PCOD9220824 Si02
#       5
#     8   8   8   8   8
#     4  12  24  40  65  96 135 179 229 283 339 409
#     4  12  26  45  69 102 144 187 231 288 353 414
#     4  11  24  45  76 107 133 179 238 291 356 425
#     4  11  22  39  60  91 130 172 220 272 330 398
#     4  11  22  45  70  98 142 180 231 288 346 415
#
# _framework density 21.235429
#
# number of rings (size 3 to 8) (size 9 to 14) (size 15 to 20)
#    0.000    0.600    6.000    3.600    2.800    2.400 
#    0.000    1.000    0.000    0.000    0.000    0.000 
#    0.000    0.000    0.000    0.000    0.000    0.000 
#
# Total GULP energy -111363.374973 kJ/mol
# GULP energy per Si atom -5568.168749 kJ/mol
# Density = 2.118710 g / cm^3
# Si number density = 21.235429 Si / 1000 Ang^3
#
#
#
# Elastic Constant Matrix: (Units=GPa)
#
#
# Indices 1 2 3 4 5 6 
#
# 1 71.3374 35.1879 51.2930 0.0000 21.0251 0.0000
# 2 35.1879 129.4238 48.3341 0.0000 -0.4342 0.0000
# 3 51.2930 48.3341 165.6008 0.0000 23.9879 0.0000
# 4 0.0000 0.0000 0.0000 25.4454 0.0000 3.3065
# 5 21.0251 -0.4342 23.9879 0.0000 39.7131 0.0000
# 6 0.0000 0.0000 0.0000 3.3065 0.0000 20.9071
#
#
#
# Elastic Compliance Matrix: (Units=1/GPa)
#
#
# Indices 1 2 3 4 5 6 
#
# 1 0.021883 -0.004424 -0.004166 0.000000 -0.009117 0.000000
# 2 -0.004424 0.009683 -0.001984 0.000000 0.003647 0.000000
# 3 -0.004166 -0.001984 0.008320 0.000000 -0.002841 0.000000
# 4 0.000000 0.000000 0.000000 0.040124 0.000000 -0.006346
# 5 -0.009117 0.003647 -0.002841 0.000000 0.031764 0.000000
# 6 0.000000 0.000000 0.000000 -0.006346 0.000000 0.048834
#
#
# Mechanical properties :
#
#
# Convention : Reuss Voigt Hill
#
# Bulk Modulus (GPa) = 53.37136 70.66579 62.01858
# Shear Modulus (GPa) = 26.59560 32.64960 29.62260
#
# Velocity S-wave (km/s) = 3.54279 3.92536 3.73897
# Velocity P-wave (km/s) = 6.47479 7.34126 6.92160
#
# Compressibility (1/GPa) = 0.01873664
#
# Stress axis : x y z
#
# Youngs Moduli (GPa) = 45.69809 103.27837 120.19801
#
# Poissons Ratio (x) = 0.45693 0.50074
# Poissons Ratio (y) = 0.20218 0.23846
# Poissons Ratio (z) = 0.19038 0.20489
#
# Static dielectric constant tensor:
#      x y z
#    x 1.974440 0.000000 -0.515400 
#    y 0.000000 1.686450 0.000000 
#    z -0.515400 0.000000 2.755290 
# 
# From -- ./inp_files/68454.got.cif
#   From: 2010.05.17/outbox.cif.g08.bks.cpg/sg12_35_cif.got.tgz:68454.got - 2010.06.03 13:09:07.
