data_PCOD9220789
_publ_section_title
;
Structure prediction by ZEFSAII (Michael W. Deem and Ramdas Pophale) SiO2 
 PCOD9220789
Probable space group: C 2/M
;
_chemical_formula_sum "Si O2"
_cell_formula_units_Z 52
_cell_length_a 11.533537
_cell_length_b 23.710795
_cell_length_c 11.995326
_cell_angle_alpha 90.000000
_cell_angle_beta 127.990238
_cell_angle_gamma 90.000000
_cell_volume 2585.298113
_symmetry_space_group_name_H-M "C 2/M"
_symmetry_group_IT_number 12
_symmetry_cell_setting 'monoclinic'
loop_
_space_group_symop_operation_xyz
x,y,z
-x,y,-z
-x,-y,-z
x,-y,z
1/2+x,1/2+y,z
1/2-x,1/2+y,-z
1/2-x,1/2-y,-z
1/2+x,1/2-y,z
loop_
_atom_site_type_symbol
_atom_site_label
_atom_site_fract_x
_atom_site_fract_y
_atom_site_fract_z
Si Si1 0.155147 0.100254 0.641439
Si Si2 0.118950 0.819734 0.172013
Si Si3 0.406970 0.000000 0.252608
Si Si4 0.423695 0.399050 0.163303
Si Si5 0.911908 0.688798 0.831173
Si Si6 0.155907 0.625357 0.850655
Si Si7 0.893758 0.000000 0.785563
Si Si8 0.241863 0.500000 0.458272
O O1 0.116618 0.076301 0.740975
O O2 0.271475 0.149085 0.734440
O O3 0.000000 0.120344 0.500000
O O4 0.222200 0.053914 0.597781
O O5 0.137042 0.753684 0.203546
O O6 0.261524 0.853082 0.211943
O O7 0.044923 0.849617 0.234498
O O8 0.000000 0.824211 0.000000
O O9 0.398051 0.060572 0.185849
O O10 0.257650 0.000000 0.236564
O O11 0.572377 0.000000 0.398676
O O12 0.501987 0.446430 0.134858
O O13 0.278603 0.375042 0.019861
O O14 0.027678 0.668469 0.806483
O O15 0.000000 0.680846 0.000000
O O16 0.842714 0.000000 0.626733
#
# Coordination Sequence:
#
# PCOD9220789 Si02
#       8
#     8   8   4   8   8   8   4   4
#     4  12  24  42  64  89 127 169 211 259 315 382
#     4   9  22  38  65  96 127 164 209 260 318 382
#     4  12  24  40  65  94 130 161 209 272 324 377
#     4  11  22  38  65  95 125 163 206 260 321 378
#     4  11  23  41  67  95 126 169 214 263 314 371
#     4  11  22  40  64 100 130 159 208 267 325 378
#     4  12  23  42  65  88 128 170 211 255 323 387
#     4  12  25  43  61  90 118 176 219 253 313 383
#
# _framework density 20.113733
#
# number of rings (size 3 to 8) (size 9 to 14) (size 15 to 20)
#    0.000    0.923    6.154    1.385    2.154    2.462 
#    0.000    2.308    3.385    0.000    0.000    0.000 
#    0.000    0.000    0.000    0.000    0.000    0.000 
#
# Total GULP energy -145118.715691 kJ/mol
# GULP energy per Si atom -5581.489065 kJ/mol
# Density = 2.006795 g / cm^3
# Si number density = 20.113733 Si / 1000 Ang^3
#
#
#
# Elastic Constant Matrix: (Units=GPa)
#
#
# Indices 1 2 3 4 5 6 
#
# 1 86.5721 11.2721 11.5688 0.0000 15.7419 0.0000
# 2 11.2721 99.0626 5.6483 0.0000 11.9156 0.0000
# 3 11.5688 5.6483 33.7610 0.0000 12.2721 0.0000
# 4 0.0000 0.0000 0.0000 5.6378 0.0000 -3.7447
# 5 15.7419 11.9156 12.2721 0.0000 35.4397 0.0000
# 6 0.0000 0.0000 0.0000 -3.7447 0.0000 25.8959
#
#
#
# Elastic Compliance Matrix: (Units=1/GPa)
#
#
# Indices 1 2 3 4 5 6 
#
# 1 0.012825 -0.000765 -0.002619 0.000000 -0.004533 0.000000
# 2 -0.000765 0.010574 -0.000387 0.000000 -0.003082 0.000000
# 3 -0.002619 -0.000387 0.034448 0.000000 -0.010635 0.000000
# 4 0.000000 0.000000 0.000000 0.196223 0.000000 0.028375
# 5 -0.004533 -0.003082 -0.010635 0.000000 0.034949 0.000000
# 6 0.000000 0.000000 0.000000 0.028375 0.000000 0.042719
#
#
# Mechanical properties :
#
#
# Convention : Reuss Voigt Hill
#
# Bulk Modulus (GPa) = 19.87843 30.70823 25.29333
# Shear Modulus (GPa) = 14.04303 26.12179 20.08241
#
# Velocity S-wave (km/s) = 2.64518 3.60766 3.16324
# Velocity P-wave (km/s) = 4.38563 5.71438 5.09352
#
# Compressibility (1/GPa) = 0.05030577
#
# Stress axis : x y z
#
# Youngs Moduli (GPa) = 77.97376 94.56823 29.02917
#
# Poissons Ratio (x) = 0.07232 0.07603
# Poissons Ratio (y) = 0.05963 0.01123
# Poissons Ratio (z) = 0.20422 0.03658
#
# Static dielectric constant tensor:
#      x y z
#    x 1.739650 0.000000 -0.019910 
#    y 0.000000 1.722380 0.000000 
#    z -0.019910 0.000000 1.699460 
# 
# From -- ./inp_files/133366.got.cif
#   From: 2010.05.17/outbox.cif.g08.bks.cpg/sg12_67_cif.got.tgz:133366.got - 2010.06.03 13:09:07.
