data_PCOD9220554
_publ_section_title
;
Structure prediction by ZEFSAII (Michael W. Deem and Ramdas Pophale) SiO2 
 PCOD9220554
Probable space group: C 2/M
;
_chemical_formula_sum "Si O2"
_cell_formula_units_Z 40
_cell_length_a 25.934874
_cell_length_b 8.699896
_cell_length_c 8.263025
_cell_angle_alpha 90.000000
_cell_angle_beta 96.454339
_cell_angle_gamma 90.000000
_cell_volume 1852.575196
_symmetry_space_group_name_H-M "C 2/M"
_symmetry_group_IT_number 12
_symmetry_cell_setting 'monoclinic'
loop_
_space_group_symop_operation_xyz
x,y,z
-x,y,-z
-x,-y,-z
x,-y,z
1/2+x,1/2+y,z
1/2-x,1/2+y,-z
1/2-x,1/2-y,-z
1/2+x,1/2-y,z
loop_
_atom_site_type_symbol
_atom_site_label
_atom_site_fract_x
_atom_site_fract_y
_atom_site_fract_z
Si Si1 0.027352 0.324586 0.675233
Si Si2 0.695038 0.815892 0.425035
Si Si3 0.653117 0.184711 0.054585
Si Si4 0.138416 0.181737 0.713770
Si Si5 0.952268 0.167927 0.863891
O O1 0.046002 0.500000 0.686037
O O2 0.077412 0.219190 0.717634
O O3 0.000000 0.284649 0.500000
O O4 0.977527 0.302722 0.769968
O O5 0.750000 0.750000 0.500000
O O6 0.685154 0.779305 0.230995
O O7 0.654821 0.748938 0.544173
O O8 0.693794 0.000000 0.437628
O O9 0.599155 0.270876 0.072126
O O10 0.647240 0.000000 0.044770
O O11 0.668239 0.243683 0.879732
O O12 0.147450 0.000000 0.718264
O O13 0.942561 0.000000 0.780635
O O14 0.000000 0.144270 0.000000
#
# Coordination Sequence:
#
# PCOD9220554 Si02
#       5
#     8   8   8   8   8
#     4  11  23  38  59  89 127 172 218 264 316 379
#     4  11  26  48  72  99 129 167 217 274 335 393
#     4  11  24  43  69  98 132 175 221 269 323 388
#     4  12  25  42  67  98 132 172 217 269 328 389
#     4  11  22  36  58  92 129 167 211 257 312 375
#
# _framework density 21.591564999999999
#
# number of rings (size 3 to 8) (size 9 to 14) (size 15 to 20)
#    0.000    0.800    2.000    5.400    0.000   11.200 
#    0.000    0.000    0.000    0.000    0.000    0.000 
#    0.000    0.000    0.000    0.000    0.000    0.000 
#
# Total GULP energy -111528.847749 kJ/mol
# GULP energy per Si atom -5576.442387 kJ/mol
# Density = 2.154242 g / cm^3
# Si number density = 21.591565 Si / 1000 Ang^3
#
#
#
# Elastic Constant Matrix: (Units=GPa)
#
#
# Indices 1 2 3 4 5 6 
#
# 1 48.3454 -2.4628 14.3123 0.0000 20.2674 0.0000
# 2 -2.4628 118.7164 33.5474 0.0000 6.9809 0.0000
# 3 14.3123 33.5474 123.9779 0.0000 28.9912 0.0000
# 4 0.0000 0.0000 0.0000 27.7848 0.0000 -1.3265
# 5 20.2674 6.9809 28.9912 0.0000 38.9993 0.0000
# 6 0.0000 0.0000 0.0000 -1.3265 0.0000 40.4619
#
#
#
# Elastic Compliance Matrix: (Units=1/GPa)
#
#
# Indices 1 2 3 4 5 6 
#
# 1 0.026673 0.001431 -0.000200 0.000000 -0.013969 0.000000
# 2 0.001431 0.009200 -0.002536 0.000000 -0.000505 0.000000
# 3 -0.000200 -0.002536 0.010464 0.000000 -0.007221 0.000000
# 4 0.000000 0.000000 0.000000 0.036047 0.000000 0.001182
# 5 -0.013969 -0.000505 -0.007221 0.000000 0.038359 0.000000
# 6 0.000000 0.000000 0.000000 0.001182 0.000000 0.024753
#
#
# Mechanical properties :
#
#
# Convention : Reuss Voigt Hill
#
# Bulk Modulus (GPa) = 22.86981 42.42596 32.64788
# Shear Modulus (GPa) = 30.73493 37.82539 34.28016
#
# Velocity S-wave (km/s) = 3.77698 4.19006 3.98887
# Velocity P-wave (km/s) = 5.44388 6.56512 6.03061
#
# Compressibility (1/GPa) = 0.04372578
#
# Stress axis : x y z
#
# Youngs Moduli (GPa) = 37.49162 108.70042 95.56685
#
# Poissons Ratio (x) = -0.15558 0.01911
# Poissons Ratio (y) = -0.05366 0.24240
# Poissons Ratio (z) = 0.00750 0.27572
#
# Static dielectric constant tensor:
#      x y z
#    x 1.743500 0.000000 0.022320 
#    y 0.000000 1.774640 0.000000 
#    z 0.022320 0.000000 1.814870 
# 
# From -- ./inp_files/92917.got.cif
#   From: 2010.05.17/outbox.cif.g08.bks.cpg/sg12_47_cif.got.tgz:92917.got - 2010.06.03 13:09:07.
