data_PCOD9220344
_publ_section_title
;
Structure prediction by ZEFSAII (Michael W. Deem and Ramdas Pophale) SiO2 
 PCOD9220344
Probable space group: C 2/M
;
_chemical_formula_sum "Si O2"
_cell_formula_units_Z 48
_cell_length_a 12.464391
_cell_length_b 15.162866
_cell_length_c 28.160940
_cell_angle_alpha 90.000000
_cell_angle_beta 155.036873
_cell_angle_gamma 90.000000
_cell_volume 2246.197244
_symmetry_space_group_name_H-M "C 2/M"
_symmetry_group_IT_number 12
_symmetry_cell_setting 'monoclinic'
loop_
_space_group_symop_operation_xyz
x,y,z
-x,y,-z
-x,-y,-z
x,-y,z
1/2+x,1/2+y,z
1/2-x,1/2+y,-z
1/2-x,1/2-y,-z
1/2+x,1/2-y,z
loop_
_atom_site_type_symbol
_atom_site_label
_atom_site_fract_x
_atom_site_fract_y
_atom_site_fract_z
Si Si1 0.999327 0.400843 0.211898
Si Si2 0.125865 0.500000 0.104913
Si Si3 0.173077 0.350398 0.957618
Si Si4 0.935497 0.657778 0.372939
Si Si5 0.268927 0.601111 0.802120
Si Si6 0.522588 0.348637 0.452355
Si Si7 0.247388 0.500000 0.636643
O O1 0.895901 0.500000 0.166140
O O2 0.299590 0.402712 0.338670
O O3 0.928033 0.350378 0.136370
O O4 0.887653 0.363138 0.215919
O O5 0.436250 0.500000 0.240017
O O6 0.015300 0.410382 0.085595
O O7 0.000000 0.500000 0.000000
O O8 0.250000 0.250000 0.000000
O O9 0.439803 0.400924 0.067005
O O10 0.768613 0.662633 0.258402
O O11 0.974646 0.747622 0.417230
O O12 0.808923 0.586933 0.355809
O O13 0.206335 0.626756 0.460522
O O14 0.184257 0.500000 0.757328
O O15 0.500000 0.358344 0.500000
O O16 0.000000 0.500000 0.500000
#
# Coordination Sequence:
#
# PCOD9220344 Si02
#       7
#     8   4   8   8   8   8   4
#     4  11  24  41  71 103 138 179 236 299 375 444
#     4  12  28  52  76 109 157 206 266 312 386 487
#     4  12  26  46  74 106 145 192 248 313 375 450
#     4  11  24  43  68  97 144 189 241 303 369 447
#     4  11  21  42  70 101 138 181 229 303 370 445
#     4  11  24  43  66 104 142 184 246 306 365 450
#     4  12  28  46  74 103 151 204 250 308 394 453
#
# _framework density 21.369451999999999
#
# number of rings (size 3 to 8) (size 9 to 14) (size 15 to 20)
#    0.000    0.667    4.167    3.000    3.500    4.333 
#    0.000    0.000    0.000    0.000    0.000    0.000 
#    0.000    0.000    0.000    0.000    0.000    0.000 
#
# Total GULP energy -133914.312395 kJ/mol
# GULP energy per Si atom -5579.763016 kJ/mol
# Density = 2.132081 g / cm^3
# Si number density = 21.369452 Si / 1000 Ang^3
#
#
#
# Elastic Constant Matrix: (Units=GPa)
#
#
# Indices 1 2 3 4 5 6 
#
# 1 54.0383 23.6366 41.7645 -0.0021 4.5058 0.0049
# 2 23.6366 84.5921 21.3367 -0.0020 6.8257 0.0049
# 3 41.7645 21.3367 147.0907 0.0026 -0.3685 -0.0003
# 4 -0.0021 -0.0020 0.0026 22.3252 0.0012 6.2148
# 5 4.5058 6.8257 -0.3685 0.0012 50.5285 -0.0004
# 6 0.0049 0.0049 -0.0003 6.2148 -0.0004 -0.2624
#
#
#
# Elastic Compliance Matrix: (Units=1/GPa)
#
#
# Indices 1 2 3 4 5 6 
#
# 1 0.026183 -0.005509 -0.006639 -0.000014 -0.001639 0.000061
# 2 -0.005509 0.013572 -0.000408 -0.000006 -0.001345 0.000023
# 3 -0.006639 -0.000408 0.008745 0.000005 0.000711 -0.000024
# 4 -0.000014 -0.000006 0.000005 0.005899 0.000003 0.139716
# 5 -0.001639 -0.001345 0.000711 0.000003 0.020124 -0.000016
# 6 0.000061 0.000023 -0.000024 0.139716 -0.000016 -0.501901
#
#
# Mechanical properties :
#
#
# Convention : Reuss Voigt Hill
#
# Bulk Modulus (GPa) = 42.75835 51.02184 46.89009
# Shear Modulus (GPa) = -12.67525 27.78383 7.55429
#
# Velocity S-wave (km/s) = -2.43811 3.60969 1.88222
# Velocity P-wave (km/s) = 3.48235 6.42659 5.16855
#
# Compressibility (1/GPa) = 0.02338725
#
# Stress axis : x y z
#
# Youngs Moduli (GPa) = 38.19256 73.67994 114.35608
#
# Poissons Ratio (x) = 0.40592 0.75924
# Poissons Ratio (y) = 0.21041 0.04664
# Poissons Ratio (z) = 0.25357 0.03005
#
# Static dielectric constant tensor:
#      x y z
#    x 1.765130 0.000000 0.004510 
#    y 0.000000 1.823120 0.000010 
#    z 0.004510 0.000010 1.788270 
# 
# From -- ./inp_files/358522.got.cif
#   From: 2010.05.17/outbox.cif.g08.bks.cpg/sg12_180_cif.got.tgz:358522.got - 2010.06.03 13:09:07.
