data_PCOD9220321
_publ_section_title
;
Structure prediction by ZEFSAII (Michael W. Deem and Ramdas Pophale) SiO2 
 PCOD9220321
Probable space group: C 2/M
;
_chemical_formula_sum "Si O2"
_cell_formula_units_Z 56
_cell_length_a 13.477193
_cell_length_b 17.971982
_cell_length_c 17.340569
_cell_angle_alpha 90.000000
_cell_angle_beta 41.958309
_cell_angle_gamma 90.000000
_cell_volume 2808.137943
_symmetry_space_group_name_H-M "C 2/M"
_symmetry_group_IT_number 12
_symmetry_cell_setting 'monoclinic'
loop_
_space_group_symop_operation_xyz
x,y,z
-x,y,-z
-x,-y,-z
x,-y,z
1/2+x,1/2+y,z
1/2-x,1/2+y,-z
1/2-x,1/2-y,-z
1/2+x,1/2-y,z
loop_
_atom_site_type_symbol
_atom_site_label
_atom_site_fract_x
_atom_site_fract_y
_atom_site_fract_z
Si Si1 0.597719 0.816254 0.132050
Si Si2 0.249516 0.916898 0.078656
Si Si3 0.672286 0.329052 0.562198
Si Si4 0.660657 0.707055 0.876072
Si Si5 0.819019 0.587457 0.344467
Si Si6 0.170978 0.847767 0.283007
Si Si7 0.048144 0.151940 0.796353
O O1 0.732877 0.812995 0.114698
O O2 0.468134 0.866738 0.241747
O O3 0.535268 0.732885 0.157416
O O4 0.652669 0.855506 0.021978
O O5 0.233226 0.900197 0.178662
O O6 0.082493 0.906527 0.142961
O O7 0.305716 0.000000 0.032273
O O8 0.750000 0.250000 0.500000
O O9 0.757970 0.390363 0.463284
O O10 0.501131 0.330458 0.632875
O O11 0.660901 0.345552 0.659615
O O12 0.739215 0.771810 0.781874
O O13 0.626176 0.643422 0.833360
O O14 0.500000 0.730629 0.000000
O O15 0.840998 0.500000 0.323933
O O16 0.703592 0.616587 0.346441
#
# Coordination Sequence:
#
# PCOD9220321 Si02
#       7
#     8   8   8   8   8   8   8
#     4  12  22  43  64  95 132 172 221 263 324 390
#     4  11  23  39  61  95 135 169 207 265 328 388
#     4  11  21  42  64  91 131 173 221 263 312 384
#     4  12  21  38  69 100 127 165 219 271 317 388
#     4  12  26  42  65  97 136 173 212 274 340 390
#     4  11  23  38  67  99 132 168 211 267 330 398
#     4  11  22  39  67  92 125 168 219 266 316 386
#
# _framework density 19.942039999999999
#
# number of rings (size 3 to 8) (size 9 to 14) (size 15 to 20)
#    0.000    0.571    7.143    2.571    0.000    3.429 
#    0.000    4.286    0.000    0.857    0.000    0.000 
#    0.000    0.000    0.000    0.000    0.000    0.000 
#
# Total GULP energy -156581.986715 kJ/mol
# GULP energy per Si atom -5592.213811 kJ/mol
# Density = 1.989665 g / cm^3
# Si number density = 19.942040 Si / 1000 Ang^3
#
#
#
# Elastic Constant Matrix: (Units=GPa)
#
#
# Indices 1 2 3 4 5 6 
#
# 1 83.3946 8.5212 17.3061 0.0000 4.3196 0.0000
# 2 8.5212 63.6212 15.0240 -0.0001 2.9049 0.0000
# 3 17.3061 15.0240 112.7295 -0.0003 3.6711 0.0001
# 4 0.0000 -0.0001 -0.0003 20.3239 0.0001 1.7462
# 5 4.3196 2.9049 3.6711 0.0001 33.9742 0.0000
# 6 0.0000 0.0000 0.0001 1.7462 0.0000 15.6343
#
#
#
# Elastic Compliance Matrix: (Units=1/GPa)
#
#
# Indices 1 2 3 4 5 6 
#
# 1 0.012540 -0.001214 -0.001721 0.000000 -0.001305 0.000000
# 2 -0.001214 0.016392 -0.001965 0.000000 -0.001035 0.000000
# 3 -0.001721 -0.001965 0.009417 0.000000 -0.000631 0.000000
# 4 0.000000 0.000000 0.000000 0.049680 0.000000 -0.005549
# 5 -0.001305 -0.001035 -0.000631 0.000000 0.029757 0.000000
# 6 0.000000 0.000000 0.000000 -0.005549 0.000000 0.064582
#
#
# Mechanical properties :
#
#
# Convention : Reuss Voigt Hill
#
# Bulk Modulus (GPa) = 35.02523 37.93866 36.48194
# Shear Modulus (GPa) = 24.79148 28.57942 26.68545
#
# Velocity S-wave (km/s) = 3.52970 3.78977 3.66204
# Velocity P-wave (km/s) = 5.84922 6.18187 6.01784
#
# Compressibility (1/GPa) = 0.02855085
#
# Stress axis : x y z
#
# Youngs Moduli (GPa) = 79.74555 61.00624 106.18691
#
# Poissons Ratio (x) = 0.07404 0.18273
# Poissons Ratio (y) = 0.09678 0.20861
# Poissons Ratio (z) = 0.13723 0.11985
#
# Static dielectric constant tensor:
#      x y z
#    x 1.727560 0.000000 0.009440 
#    y 0.000000 1.672950 0.000000 
#    z 0.009440 0.000000 1.707260 
# 
# From -- ./inp_files/271383.got.cif
#   From: 2010.05.17/outbox.cif.g08.bks.cpg/sg12_136_cif.got.tgz:271383.got - 2010.06.03 13:09:07.
