data_PCOD9220114
_publ_section_title
;
Structure prediction by ZEFSAII (Michael W. Deem and Ramdas Pophale) SiO2 
 PCOD9220114
Probable space group: C 2/M
;
_chemical_formula_sum "Si O2"
_cell_formula_units_Z 48
_cell_length_a 18.217591
_cell_length_b 11.148187
_cell_length_c 15.554898
_cell_angle_alpha 90.000000
_cell_angle_beta 136.194378
_cell_angle_gamma 90.000000
_cell_volume 2186.768118
_symmetry_space_group_name_H-M "C 2/M"
_symmetry_group_IT_number 12
_symmetry_cell_setting 'monoclinic'
loop_
_space_group_symop_operation_xyz
x,y,z
-x,y,-z
-x,-y,-z
x,-y,z
1/2+x,1/2+y,z
1/2-x,1/2+y,-z
1/2-x,1/2-y,-z
1/2+x,1/2-y,z
loop_
_atom_site_type_symbol
_atom_site_label
_atom_site_fract_x
_atom_site_fract_y
_atom_site_fract_z
Si Si1 0.433505 0.311996 0.369321
Si Si2 0.190851 0.758060 0.180038
Si Si3 0.124599 0.000000 0.816808
Si Si4 0.712617 0.500000 0.079451
Si Si5 0.906573 0.318987 0.590064
Si Si6 0.328487 0.367861 0.655468
Si Si7 0.450958 0.000000 0.194095
Si Si8 0.140234 0.500000 0.064977
O O1 0.500000 0.376639 0.500000
O O2 0.315057 0.277626 0.294797
O O3 0.425017 0.385430 0.272974
O O4 0.509367 0.201153 0.413489
O O5 0.148575 0.799943 0.236566
O O6 0.135872 0.631215 0.106831
O O7 0.191068 0.875873 0.115870
O O8 0.243849 0.000000 0.880468
O O9 0.138747 0.000000 0.931219
O O10 0.836043 0.500000 0.147347
O O11 0.798857 0.374364 0.463257
O O12 0.868063 0.199308 0.604736
O O13 0.975126 0.390314 0.716691
O O14 0.374628 0.500000 0.698688
O O15 0.436524 0.000000 0.080589
#
# Coordination Sequence:
#
# PCOD9220114 Si02
#       8
#     8   8   4   4   8   8   4   4
#     4  11  21  38  64  97 127 164 217 273 320 383
#     4  11  22  42  67  99 132 169 218 268 324 385
#     4   9  23  36  57  97 137 164 211 259 337 379
#     4  11  22  38  72  96 133 175 210 276 318 381
#     4  11  24  39  64  95 130 171 212 268 326 389
#     4  11  24  44  62  94 135 171 211 268 338 388
#     4  11  22  42  68  95 126 168 228 264 318 381
#     4   9  24  40  65  96 133 174 212 266 325 378
#
# _framework density 21.950202000000001
#
# number of rings (size 3 to 8) (size 9 to 14) (size 15 to 20)
#    0.000    1.333    5.000    0.250    3.500    2.667 
#    1.500    4.167    0.000    2.000    0.000    0.000 
#    0.000    0.000    0.000    0.000    0.000    0.000 
#
# Total GULP energy -133783.519437 kJ/mol
# GULP energy per Si atom -5574.313310 kJ/mol
# Density = 2.190024 g / cm^3
# Si number density = 21.950202 Si / 1000 Ang^3
#
#
#
# Elastic Constant Matrix: (Units=GPa)
#
#
# Indices 1 2 3 4 5 6 
#
# 1 22.0373 6.0862 0.4696 0.0000 -1.6199 0.0000
# 2 6.0862 126.0333 39.9607 0.0000 -18.5185 0.0000
# 3 0.4696 39.9607 132.1007 0.0000 -15.6038 0.0000
# 4 0.0000 0.0000 0.0000 32.2724 0.0000 -18.0553
# 5 -1.6199 -18.5185 -15.6038 0.0000 33.9359 0.0000
# 6 0.0000 0.0000 0.0000 -18.0553 0.0000 16.7473
#
#
#
# Elastic Compliance Matrix: (Units=1/GPa)
#
#
# Indices 1 2 3 4 5 6 
#
# 1 0.046079 -0.002249 0.000668 0.000000 0.001279 0.000000
# 2 -0.002249 0.009368 -0.002363 0.000000 0.003918 0.000000
# 3 0.000668 -0.002363 0.008601 0.000000 0.002697 0.000000
# 4 0.000000 0.000000 0.000000 0.078083 0.000000 0.084181
# 5 0.001279 0.003918 0.002697 0.000000 0.032907 0.000000
# 6 0.000000 0.000000 0.000000 0.084181 0.000000 0.150467
#
#
# Mechanical properties :
#
#
# Convention : Reuss Voigt Hill
#
# Bulk Modulus (GPa) = 17.80660 41.46715 29.63687
# Shear Modulus (GPa) = 14.20003 32.16811 23.18407
#
# Velocity S-wave (km/s) = 2.54622 3.83234 3.25347
# Velocity P-wave (km/s) = 4.09563 6.20604 5.25781
#
# Compressibility (1/GPa) = 0.05615895
#
# Stress axis : x y z
#
# Youngs Moduli (GPa) = 21.70209 106.74704 116.26533
#
# Poissons Ratio (x) = 0.24006 -0.07762
# Poissons Ratio (y) = 0.04880 0.27474
# Poissons Ratio (z) = -0.01449 0.25224
#
# Static dielectric constant tensor:
#      x y z
#    x 1.805190 0.000000 -0.034690 
#    y 0.000000 1.848240 0.000000 
#    z -0.034690 0.000000 1.851670 
# 
# From -- ./inp_files/232846.got.cif
#   From: 2010.05.17/outbox.cif.g08.bks.cpg/sg12_117_cif.got.tgz:232846.got - 2010.06.03 13:09:07.
