data_PCOD9220376
_publ_section_title
;
Structure prediction by ZEFSAII (Michael W. Deem and Ramdas Pophale) SiO2 
 PCOD9220376
Probable space group: C 2/M
;
_chemical_formula_sum "Si O2"
_cell_formula_units_Z 52
_cell_length_a 20.511943
_cell_length_b 17.847317
_cell_length_c 7.967472
_cell_angle_alpha 90.000000
_cell_angle_beta 128.301647
_cell_angle_gamma 90.000000
_cell_volume 2288.950194
_symmetry_space_group_name_H-M "C 2/M"
_symmetry_group_IT_number 12
_symmetry_cell_setting 'monoclinic'
loop_
_space_group_symop_operation_xyz
x,y,z
-x,y,-z
-x,-y,-z
x,-y,z
1/2+x,1/2+y,z
1/2-x,1/2+y,-z
1/2-x,1/2-y,-z
1/2+x,1/2-y,z
loop_
_atom_site_type_symbol
_atom_site_label
_atom_site_fract_x
_atom_site_fract_y
_atom_site_fract_z
Si Si1 0.588808 0.732199 0.664142
Si Si2 0.276885 0.128285 0.750536
Si Si3 0.599699 0.000000 0.180264
Si Si4 0.843116 0.210980 0.856609
Si Si5 0.207283 0.361538 0.825060
Si Si6 0.907648 0.500000 0.431096
Si Si7 0.905907 0.916952 0.542744
Si Si8 0.000000 0.132190 0.000000
O O1 0.500000 0.770608 0.500000
O O2 0.660543 0.784318 0.707487
O O3 0.582651 0.652272 0.564945
O O4 0.611696 0.728113 0.894385
O O5 0.351407 0.071611 0.820275
O O6 0.300710 0.212056 0.729503
O O7 0.189079 0.096745 0.543306
O O8 0.265989 0.135677 0.936602
O O9 0.603490 0.000000 0.386903
O O10 0.500000 0.000000 0.000000
O O11 0.782372 0.142761 0.813073
O O12 0.918778 0.184012 0.866803
O O13 0.142540 0.427604 0.707354
O O14 0.000000 0.500000 0.500000
O O15 0.979204 0.914042 0.799002
O O16 0.906357 0.000000 0.465618
#
# Coordination Sequence:
#
# PCOD9220376 Si02
#       8
#     8   8   4   8   8   4   8   4
#     4  11  21  44  70 100 131 184 241 292 360 434
#     4  11  23  45  75 105 139 188 246 303 370 440
#     4  12  28  46  70 108 153 188 235 301 372 433
#     4  11  24  44  70 106 135 187 242 298 370 429
#     4  11  23  44  76 102 141 181 243 304 363 440
#     4  12  28  48  70 110 143 192 237 293 362 433
#     4  12  25  45  69 100 141 190 240 298 364 429
#     4  12  29  44  64 101 152 186 242 309 352 442
#
# _framework density 22.717836999999999
#
# number of rings (size 3 to 8) (size 9 to 14) (size 15 to 20)
#    0.000    0.615    5.385    3.000    3.231    3.385 
#    1.385    0.000    0.000    0.000    0.000    0.000 
#    0.000    0.000    0.000    0.000    0.000    0.000 
#
# Total GULP energy -145206.989810 kJ/mol
# GULP energy per Si atom -5584.884223 kJ/mol
# Density = 2.266613 g / cm^3
# Si number density = 22.717837 Si / 1000 Ang^3
#
#
#
# Elastic Constant Matrix: (Units=GPa)
#
#
# Indices 1 2 3 4 5 6 
#
# 1 106.6334 34.0071 -2.1465 0.0000 21.3352 0.0000
# 2 34.0071 126.5898 30.6189 0.0000 1.9153 0.0000
# 3 -2.1465 30.6189 89.4003 0.0000 12.3446 0.0000
# 4 0.0000 0.0000 0.0000 26.9886 0.0000 3.1334
# 5 21.3352 1.9153 12.3446 0.0000 35.4749 0.0000
# 6 0.0000 0.0000 0.0000 3.1334 0.0000 27.9192
#
#
#
# Elastic Compliance Matrix: (Units=1/GPa)
#
#
# Indices 1 2 3 4 5 6 
#
# 1 0.012284 -0.003838 0.002732 0.000000 -0.008131 0.000000
# 2 -0.003838 0.009824 -0.003889 0.000000 0.003131 0.000000
# 3 0.002732 -0.003889 0.013426 0.000000 -0.006105 0.000000
# 4 0.000000 0.000000 0.000000 0.037542 0.000000 -0.004213
# 5 -0.008131 0.003131 -0.006105 0.000000 0.035035 0.000000
# 6 0.000000 0.000000 0.000000 -0.004213 0.000000 0.036291
#
#
# Mechanical properties :
#
#
# Convention : Reuss Voigt Hill
#
# Bulk Modulus (GPa) = 39.14747 49.73137 44.43942
# Shear Modulus (GPa) = 30.69275 35.41946 33.05611
#
# Velocity S-wave (km/s) = 3.67964 3.95283 3.81868
# Velocity P-wave (km/s) = 5.94327 6.54000 6.24876
#
# Compressibility (1/GPa) = 0.02554443
#
# Stress axis : x y z
#
# Youngs Moduli (GPa) = 81.40864 101.79387 74.48102
#
# Poissons Ratio (x) = 0.39065 -0.20349
# Poissons Ratio (y) = 0.31242 0.28966
# Poissons Ratio (z) = -0.22242 0.39588
#
# Static dielectric constant tensor:
#      x y z
#    x 1.910720 0.000000 -0.007330 
#    y 0.000000 1.868580 0.000000 
#    z -0.007330 0.000000 1.896150 
# 
# From -- ./inp_files/88517.got.cif
#   From: 2010.05.17/outbox.cif.g08.bks.cpg/sg12_45_cif.got.tgz:88517.got - 2010.06.03 13:09:07.
