data_PCOD9220983
_publ_section_title
;
Structure prediction by ZEFSAII (Michael W. Deem and Ramdas Pophale) SiO2 
 PCOD9220983
Probable space group: C 2/M
;
_chemical_formula_sum "Si O2"
_cell_formula_units_Z 42
_cell_length_a 17.313519
_cell_length_b 7.709045
_cell_length_c 14.666798
_cell_angle_alpha 90.000000
_cell_angle_beta 72.780192
_cell_angle_gamma 90.000000
_cell_volume 1869.840985
_symmetry_space_group_name_H-M "C 2/M"
_symmetry_group_IT_number 12
_symmetry_cell_setting 'monoclinic'
loop_
_space_group_symop_operation_xyz
x,y,z
-x,y,-z
-x,-y,-z
x,-y,z
1/2+x,1/2+y,z
1/2-x,1/2+y,-z
1/2-x,1/2-y,-z
1/2+x,1/2-y,z
loop_
_atom_site_type_symbol
_atom_site_label
_atom_site_fract_x
_atom_site_fract_y
_atom_site_fract_z
Si Si1 0.271813 0.703331 0.708381
Si Si2 0.687073 0.793833 0.101330
Si Si3 0.407607 0.288632 0.522635
Si Si4 0.500000 0.500000 0.000000
Si Si5 0.892042 0.801425 0.324741
Si Si6 0.503755 0.799693 0.130572
O O1 0.261008 0.500000 0.691531
O O2 0.286599 0.721390 0.810470
O O3 0.348222 0.770251 0.623558
O O4 0.190566 0.792548 0.702538
O O5 0.596556 0.735576 0.106823
O O6 0.682863 0.000000 0.112093
O O7 0.750000 0.750000 0.000000
O O8 0.500000 0.230715 0.500000
O O9 0.407761 0.500000 0.527545
O O10 0.378127 0.236396 0.432279
O O11 0.536298 0.656248 0.920456
O O12 0.960543 0.705638 0.243393
O O13 0.919973 0.000000 0.323282
O O14 0.501096 0.000000 0.100199
#
# Coordination Sequence:
#
# PCOD9220983 Si02
#       6
#     8   8   8   2   8   8
#     4  11  23  39  64  96 132 173 221 279 332 395
#     4  11  26  44  66  93 130 170 219 275 330 397
#     4   9  19  37  64  95 128 172 223 273 333 402
#     4  12  26  44  76  94 134 180 222 280 334 394
#     4  11  22  40  66  95 133 177 222 272 336 399
#     4  11  26  45  67 101 134 173 226 278 331 399
#
# _framework density 22.461804000000001
#
# number of rings (size 3 to 8) (size 9 to 14) (size 15 to 20)
#    0.000    1.333    0.952    3.714    5.333    1.524 
#    0.000    2.857    0.000    6.857    0.000    0.000 
#    0.000    0.000    0.000    0.000    0.000    0.000 
#
# Total GULP energy -117204.972450 kJ/mol
# GULP energy per Si atom -5581.189164 kJ/mol
# Density = 2.241068 g / cm^3
# Si number density = 22.461804 Si / 1000 Ang^3
#
#
#
# Elastic Constant Matrix: (Units=GPa)
#
#
# Indices 1 2 3 4 5 6 
#
# 1 96.1544 -1.2024 57.8084 0.0000 -16.8264 0.0000
# 2 -1.2024 82.2111 6.5938 0.0000 4.1814 0.0000
# 3 57.8084 6.5938 187.0626 0.0000 -13.2547 0.0000
# 4 0.0000 0.0000 0.0000 11.7875 0.0000 -17.4528
# 5 -16.8264 4.1814 -13.2547 0.0000 42.1549 0.0000
# 6 0.0000 0.0000 0.0000 -17.4528 0.0000 -74.6258
#
#
#
# Elastic Compliance Matrix: (Units=1/GPa)
#
#
# Indices 1 2 3 4 5 6 
#
# 1 0.013456 0.000298 -0.003877 0.000000 0.004122 0.000000
# 2 0.000298 0.012283 -0.000617 0.000000 -0.001293 0.000000
# 3 -0.003877 -0.000617 0.006607 0.000000 0.000591 0.000000
# 4 0.000000 0.000000 0.000000 0.063015 0.000000 -0.014737
# 5 0.004122 -0.001293 0.000591 0.000000 0.025682 0.000000
# 6 0.000000 0.000000 0.000000 -0.014737 0.000000 -0.009954
#
#
# Mechanical properties :
#
#
# Convention : Reuss Voigt Hill
#
# Bulk Modulus (GPa) = 41.74331 54.64753 48.19542
# Shear Modulus (GPa) = 39.22611 16.01187 27.61899
#
# Velocity S-wave (km/s) = 4.18347 2.67282 3.51037
# Velocity P-wave (km/s) = 6.47763 5.82299 6.15901
#
# Compressibility (1/GPa) = 0.02395593
#
# Stress axis : x y z
#
# Youngs Moduli (GPa) = 74.31776 81.41054 151.34417
#
# Poissons Ratio (x) = -0.02426 0.58671
# Poissons Ratio (y) = -0.02215 0.09334
# Poissons Ratio (z) = 0.28810 0.05021
#
# Static dielectric constant tensor:
#      x y z
#    x 1.838370 0.000000 0.021260 
#    y 0.000000 1.826170 0.000000 
#    z 0.021260 0.000000 1.825970 
# 
# From -- ./inp_files/220719.got.cif
#   From: 2010.05.17/outbox.cif.g08.bks.cpg/sg12_111_cif.got.tgz:220719.got - 2010.06.03 13:09:07.
