data_PCOD9220691
_publ_section_title
;
Structure prediction by ZEFSAII (Michael W. Deem and Ramdas Pophale) SiO2 
 PCOD9220691
Probable space group: C 2/M
;
_chemical_formula_sum "Si O2"
_cell_formula_units_Z 56
_cell_length_a 9.489360
_cell_length_b 18.922332
_cell_length_c 28.049064
_cell_angle_alpha 90.000000
_cell_angle_beta 141.691700
_cell_angle_gamma 90.000000
_cell_volume 3122.097656
_symmetry_space_group_name_H-M "C 2/M"
_symmetry_group_IT_number 12
_symmetry_cell_setting 'monoclinic'
loop_
_space_group_symop_operation_xyz
x,y,z
-x,y,-z
-x,-y,-z
x,-y,z
1/2+x,1/2+y,z
1/2-x,1/2+y,-z
1/2-x,1/2-y,-z
1/2+x,1/2-y,z
loop_
_atom_site_type_symbol
_atom_site_label
_atom_site_fract_x
_atom_site_fract_y
_atom_site_fract_z
Si Si1 0.545585 0.330302 0.714698
Si Si2 0.456934 0.583784 0.837674
Si Si3 0.210604 0.820473 0.520820
Si Si4 0.353774 0.083785 0.867295
Si Si5 0.876052 0.085993 0.015362
Si Si6 0.267600 0.416082 0.561833
Si Si7 0.675917 0.813451 0.698322
O O1 0.738044 0.374072 0.793544
O O2 0.417019 0.378302 0.641791
O O3 0.643857 0.261404 0.715376
O O4 0.359186 0.308410 0.704613
O O5 0.402575 0.500000 0.822606
O O6 0.691918 0.592530 0.870408
O O7 0.268942 0.628869 0.760209
O O8 0.498217 0.607822 0.902795
O O9 0.250000 0.750000 0.500000
O O10 0.170699 0.883166 0.472796
O O11 0.436198 0.834183 0.611401
O O12 0.000000 0.809871 0.500000
O O13 0.611668 0.106899 0.945188
O O14 0.356043 0.000000 0.856735
O O15 0.879161 0.000000 0.016669
O O16 0.000000 0.109614 0.000000
O O17 0.299594 0.500000 0.571784
O O18 0.000000 0.400924 0.500000
#
# Coordination Sequence:
#
# PCOD9220691 Si02
#       7
#     8   8   8   8   8   8   8
#     4  11  22  38  58  87 115 152 196 241 288 351
#     4   9  19  36  58  84 112 147 193 238 284 342
#     4  12  23  40  63  86 118 160 202 239 290 350
#     4   9  18  34  58  83 111 148 190 236 282 342
#     4   9  17  32  55  84 116 148 183 230 293 348
#     4  11  23  40  63  88 117 153 197 246 295 345
#     4  11  23  37  60  85 115 154 195 237 294 346
#
# _framework density 17.93666
#
# number of rings (size 3 to 8) (size 9 to 14) (size 15 to 20)
#    0.000    1.714    2.857    2.143    0.000    4.286 
#    0.000    0.714    0.000    0.000    0.000    0.000 
#    0.000    0.000    0.000    0.000    0.000    0.000 
#
# Total GULP energy -156382.490847 kJ/mol
# GULP energy per Si atom -5585.088959 kJ/mol
# Density = 1.789584 g / cm^3
# Si number density = 17.936660 Si / 1000 Ang^3
#
#
#
# Elastic Constant Matrix: (Units=GPa)
#
#
# Indices 1 2 3 4 5 6 
#
# 1 109.8689 55.4609 78.3653 0.0002 -16.1007 0.0001
# 2 55.4609 78.7535 59.3295 0.0001 -11.5883 0.0001
# 3 78.3653 59.3295 158.2390 0.0005 -16.9257 0.0003
# 4 0.0002 0.0001 0.0005 21.0877 0.0002 -5.9063
# 5 -16.1007 -11.5883 -16.9257 0.0002 30.4614 0.0002
# 6 0.0001 0.0001 0.0003 -5.9063 0.0002 20.4593
#
#
#
# Elastic Compliance Matrix: (Units=1/GPa)
#
#
# Indices 1 2 3 4 5 6 
#
# 1 0.017233 -0.007652 -0.005319 0.000000 0.003242 0.000000
# 2 -0.007652 0.021400 -0.004036 0.000000 0.001854 0.000000
# 3 -0.005319 -0.004036 0.010634 0.000000 0.001562 0.000000
# 4 0.000000 0.000000 0.000000 0.051592 0.000000 0.014894
# 5 0.003242 0.001854 0.001562 0.000000 0.036116 -0.000001
# 6 0.000000 0.000000 0.000000 0.014894 -0.000001 0.053177
#
#
# Mechanical properties :
#
#
# Convention : Reuss Voigt Hill
#
# Bulk Modulus (GPa) = 65.55708 81.46365 73.51037
# Shear Modulus (GPa) = 21.81026 24.64873 23.22949
#
# Velocity S-wave (km/s) = 3.49084 3.71105 3.60263
# Velocity P-wave (km/s) = 7.27163 7.99241 7.64052
#
# Compressibility (1/GPa) = 0.01525388
#
# Stress axis : x y z
#
# Youngs Moduli (GPa) = 58.02722 46.72899 94.04122
#
# Poissons Ratio (x) = 0.35759 0.50016
# Poissons Ratio (y) = 0.44405 0.37951
# Poissons Ratio (z) = 0.30862 0.18858
#
# Static dielectric constant tensor:
#      x y z
#    x 1.606230 0.000000 -0.000470 
#    y 0.000000 1.591710 0.000000 
#    z -0.000470 0.000000 1.596170 
# 
# From -- ./inp_files/258226.got.cif
#   From: 2010.05.17/outbox.cif.g08.bks.cpg/sg12_130_cif.got.tgz:258226.got - 2010.06.03 13:09:07.
