data_PCOD9220572
_publ_section_title
;
Structure prediction by ZEFSAII (Michael W. Deem and Ramdas Pophale) SiO2 
 PCOD9220572
Probable space group: C 2/M
;
_chemical_formula_sum "Si O2"
_cell_formula_units_Z 40
_cell_length_a 22.042794
_cell_length_b 8.947114
_cell_length_c 10.964846
_cell_angle_alpha 90.000000
_cell_angle_beta 121.178620
_cell_angle_gamma 90.000000
_cell_volume 1850.126202
_symmetry_space_group_name_H-M "C 2/M"
_symmetry_group_IT_number 12
_symmetry_cell_setting 'monoclinic'
loop_
_space_group_symop_operation_xyz
x,y,z
-x,y,-z
-x,-y,-z
x,-y,z
1/2+x,1/2+y,z
1/2-x,1/2+y,-z
1/2-x,1/2-y,-z
1/2+x,1/2-y,z
loop_
_atom_site_type_symbol
_atom_site_label
_atom_site_fract_x
_atom_site_fract_y
_atom_site_fract_z
Si Si1 0.095307 0.176711 0.343806
Si Si2 0.916893 0.677903 0.415741
Si Si3 0.831755 0.677592 0.810125
Si Si4 0.204015 0.176601 0.845596
Si Si5 0.036637 0.669038 0.904501
O O1 0.112054 0.258865 0.486859
O O2 0.144939 0.233822 0.285205
O O3 0.014947 0.225192 0.224432
O O4 0.100734 0.000000 0.363009
O O5 0.910519 0.500000 0.405337
O O6 0.871291 0.748159 0.259299
O O7 0.000000 0.717830 0.500000
O O8 0.843801 0.500000 0.800994
O O9 0.752699 0.698297 0.775368
O O10 0.884733 0.719325 0.977167
O O11 0.196483 0.000000 0.858968
O O12 0.250000 0.250000 0.000000
O O13 0.037383 0.500000 0.852586
O O14 0.000000 0.659529 0.000000
#
# Coordination Sequence:
#
# PCOD9220572 Si02
#       5
#     8   8   8   8   8
#     4  11  22  36  61  97 131 164 211 273 328 376
#     4  11  26  47  69  92 126 176 224 266 325 394
#     4   9  20  39  63  91 128 173 214 256 316 391
#     4  11  25  45  69  99 133 171 217 268 325 387
#     4   8  15  31  55  85 123 167 208 247 303 379
#
# _framework density 21.620145999999998
#
# number of rings (size 3 to 8) (size 9 to 14) (size 15 to 20)
#    0.000    2.000    0.000    4.200    2.800    7.600 
#    0.000    0.000    0.000    0.000    0.000    0.000 
#    0.000    0.000    0.000    0.000    0.000    0.000 
#
# Total GULP energy -111834.365095 kJ/mol
# GULP energy per Si atom -5591.718255 kJ/mol
# Density = 2.157094 g / cm^3
# Si number density = 21.620146 Si / 1000 Ang^3
#
#
#
# Elastic Constant Matrix: (Units=GPa)
#
#
# Indices 1 2 3 4 5 6 
#
# 1 80.4487 53.6218 46.9728 0.0000 13.2218 0.0000
# 2 53.6218 89.3937 67.1311 0.0000 9.9509 0.0000
# 3 46.9728 67.1311 139.3227 0.0000 12.7364 0.0000
# 4 0.0000 0.0000 0.0000 31.6133 0.0000 1.5241
# 5 13.2218 9.9509 12.7364 0.0000 38.7832 0.0000
# 6 0.0000 0.0000 0.0000 1.5241 0.0000 20.2951
#
#
#
# Elastic Compliance Matrix: (Units=1/GPa)
#
#
# Indices 1 2 3 4 5 6 
#
# 1 0.021496 -0.011413 -0.001388 0.000000 -0.003944 0.000000
# 2 -0.011413 0.023709 -0.007604 0.000000 0.000305 0.000000
# 3 -0.001388 -0.007604 0.011431 0.000000 -0.001330 0.000000
# 4 0.000000 0.000000 0.000000 0.031747 0.000000 -0.002384
# 5 -0.003944 0.000305 -0.001330 0.000000 0.027488 0.000000
# 6 0.000000 0.000000 0.000000 -0.002384 0.000000 0.049452
#
#
# Mechanical properties :
#
#
# Convention : Reuss Voigt Hill
#
# Bulk Modulus (GPa) = 63.18442 71.62408 67.40425
# Shear Modulus (GPa) = 23.65118 27.56760 25.60939
#
# Velocity S-wave (km/s) = 3.31107 3.57471 3.44541
# Velocity P-wave (km/s) = 6.62614 7.08791 6.86091
#
# Compressibility (1/GPa) = 0.01582669
#
# Stress axis : x y z
#
# Youngs Moduli (GPa) = 46.52058 42.17886 87.48357
#
# Poissons Ratio (x) = 0.48139 0.12139
# Poissons Ratio (y) = 0.53094 0.66520
# Poissons Ratio (z) = 0.06455 0.32071
#
# Static dielectric constant tensor:
#      x y z
#    x 1.844320 0.000000 -0.002780 
#    y 0.000000 1.718370 0.000000 
#    z -0.002780 0.000000 1.805330 
# 
# From -- ./inp_files/172566.got.cif
#   From: 2010.05.17/outbox.cif.g08.bks.cpg/sg12_87_cif.got.tgz:172566.got - 2010.06.03 13:09:07.
