data_PCOD9220398
_publ_section_title
;
Structure prediction by ZEFSAII (Michael W. Deem and Ramdas Pophale) SiO2 
 PCOD9220398
Probable space group: C 2/M
;
_chemical_formula_sum "Si O2"
_cell_formula_units_Z 48
_cell_length_a 9.468543
_cell_length_b 23.053110
_cell_length_c 12.142117
_cell_angle_alpha 90.000000
_cell_angle_beta 105.112604
_cell_angle_gamma 90.000000
_cell_volume 2558.711197
_symmetry_space_group_name_H-M "C 2/M"
_symmetry_group_IT_number 12
_symmetry_cell_setting 'monoclinic'
loop_
_space_group_symop_operation_xyz
x,y,z
-x,y,-z
-x,-y,-z
x,-y,z
1/2+x,1/2+y,z
1/2-x,1/2+y,-z
1/2-x,1/2-y,-z
1/2+x,1/2-y,z
loop_
_atom_site_type_symbol
_atom_site_label
_atom_site_fract_x
_atom_site_fract_y
_atom_site_fract_z
Si Si1 0.339135 0.931620 0.830590
Si Si2 0.139432 0.842473 0.724731
Si Si3 0.653829 0.658673 0.213116
Si Si4 0.683580 0.930739 0.914608
Si Si5 0.353572 0.771096 0.924763
Si Si6 0.147243 0.731006 0.579283
O O1 0.237633 0.898728 0.721915
O O2 0.511894 0.918331 0.856598
O O3 0.324652 0.000000 0.812981
O O4 0.292314 0.920165 0.949430
O O5 0.253730 0.810377 0.828911
O O6 0.107180 0.791714 0.631470
O O7 0.987727 0.861735 0.748526
O O8 0.721033 0.610951 0.144349
O O9 0.598439 0.714237 0.132455
O O10 0.772982 0.687142 0.320374
O O11 0.708905 0.000000 0.900757
O O12 0.500000 0.800150 0.000000
O O13 0.250000 0.750000 0.000000
O O14 0.250000 0.750000 0.500000
O O15 0.000000 0.704432 0.500000
#
# Coordination Sequence:
#
# PCOD9220398 Si02
#       6
#     8   8   8   8   8   8
#     4   9  20  37  57  85 119 158 193 226 277 339
#     4  11  23  35  58  85 111 150 192 235 285 343
#     4  11  23  36  56  86 112 148 194 235 286 342
#     4   9  20  37  58  84 120 159 192 227 275 341
#     4  11  22  33  48  80 120 149 177 224 281 346
#     4  11  24  43  60  83 114 148 191 245 301 345
#
# _framework density 18.759444999999999
#
# number of rings (size 3 to 8) (size 9 to 14) (size 15 to 20)
#    0.000    1.667    3.333    2.000    7.000    0.667 
#    0.000    1.667    0.000    2.000    0.000    0.000 
#    0.000    0.000    0.000    0.000    0.000    0.000 
#
# Total GULP energy -133881.739998 kJ/mol
# GULP energy per Si atom -5578.405833 kJ/mol
# Density = 1.871675 g / cm^3
# Si number density = 18.759445 Si / 1000 Ang^3
#
#
#
# Elastic Constant Matrix: (Units=GPa)
#
#
# Indices 1 2 3 4 5 6 
#
# 1 83.9385 26.7111 14.4858 0.0000 4.3314 0.0000
# 2 26.7111 83.3233 12.2867 0.0000 -0.4951 0.0000
# 3 14.4858 12.2867 40.7414 0.0000 12.0102 0.0000
# 4 0.0000 0.0000 0.0000 25.5944 0.0000 -5.3358
# 5 4.3314 -0.4951 12.0102 0.0000 33.8911 0.0000
# 6 0.0000 0.0000 0.0000 -5.3358 0.0000 29.0377
#
#
#
# Elastic Compliance Matrix: (Units=1/GPa)
#
#
# Indices 1 2 3 4 5 6 
#
# 1 0.013799 -0.003901 -0.003566 0.000000 -0.000557 0.000000
# 2 -0.003901 0.013752 -0.003312 0.000000 0.001873 0.000000
# 3 -0.003566 -0.003312 0.029805 0.000000 -0.010155 0.000000
# 4 0.000000 0.000000 0.000000 0.040627 0.000000 0.007465
# 5 -0.000557 0.001873 -0.010155 0.000000 0.033204 0.000000
# 6 0.000000 0.000000 0.000000 0.007465 0.000000 0.035810
#
#
# Mechanical properties :
#
#
# Convention : Reuss Voigt Hill
#
# Bulk Modulus (GPa) = 27.93467 34.99671 31.46569
# Shear Modulus (GPa) = 24.93924 28.00595 26.47259
#
# Velocity S-wave (km/s) = 3.65008 3.86800 3.76062
# Velocity P-wave (km/s) = 5.71729 6.21647 5.97210
#
# Compressibility (1/GPa) = 0.03579781
#
# Stress axis : x y z
#
# Youngs Moduli (GPa) = 72.46920 72.71889 33.55103
#
# Poissons Ratio (x) = 0.28368 0.11963
# Poissons Ratio (y) = 0.28271 0.11113
# Poissons Ratio (z) = 0.25840 0.24087
#
# Static dielectric constant tensor:
#      x y z
#    x 1.722630 0.000000 -0.029260 
#    y 0.000000 1.785230 0.000000 
#    z -0.029260 0.000000 1.666510 
# 
# From -- ./inp_files/122021.got.cif
#   From: 2010.05.17/outbox.cif.g08.bks.cpg/sg12_62_cif.got.tgz:122021.got - 2010.06.03 13:09:07.
