data_PCOD9220733
_publ_section_title
;
Structure prediction by ZEFSAII (Michael W. Deem and Ramdas Pophale) SiO2 
 PCOD9220733
Probable space group: C 2/M
;
_chemical_formula_sum "Si O2"
_cell_formula_units_Z 58
_cell_length_a 16.687725
_cell_length_b 17.580345
_cell_length_c 17.403618
_cell_angle_alpha 90.000000
_cell_angle_beta 33.703836
_cell_angle_gamma 90.000000
_cell_volume 2833.210833
_symmetry_space_group_name_H-M "C 2/M"
_symmetry_group_IT_number 12
_symmetry_cell_setting 'monoclinic'
loop_
_space_group_symop_operation_xyz
x,y,z
-x,y,-z
-x,-y,-z
x,-y,z
1/2+x,1/2+y,z
1/2-x,1/2+y,-z
1/2-x,1/2-y,-z
1/2+x,1/2-y,z
loop_
_atom_site_type_symbol
_atom_site_label
_atom_site_fract_x
_atom_site_fract_y
_atom_site_fract_z
Si Si1 0.845754 0.866031 0.209511
Si Si2 0.100500 0.589240 0.526760
Si Si3 0.000000 0.000000 0.000000
Si Si4 0.888908 0.848908 0.769328
Si Si5 0.636087 0.409756 0.047660
Si Si6 0.328332 0.411936 0.657147
Si Si7 0.294881 0.590969 0.519203
Si Si8 0.825643 0.682188 0.783467
O O1 0.721139 0.888541 0.368351
O O2 0.788250 0.803844 0.195279
O O3 0.994153 0.860160 0.139066
O O4 0.886829 0.934424 0.120061
O O5 0.063033 0.500000 0.547235
O O6 0.173352 0.600009 0.552340
O O7 0.963234 0.643549 0.633456
O O8 0.837552 0.896922 0.883640
O O9 0.811600 0.872239 0.751725
O O10 0.864985 0.759341 0.795450
O O11 0.058558 0.867959 0.623530
O O12 0.605612 0.500000 0.052891
O O13 0.764125 0.377242 0.894543
O O14 0.500000 0.407961 0.500000
O O15 0.289705 0.500000 0.698166
O O16 0.254629 0.383115 0.637508
O O17 0.328410 0.500000 0.496751
#
# Coordination Sequence:
#
# PCOD9220733 Si02
#       8
#     8   8   2   8   8   8   8   8
#     4  12  22  40  67  91 122 164 217 257 303 368
#     4  11  23  38  62  94 124 166 212 263 312 374
#     4  12  20  40  70  96 116 166 230 270 282 360
#     4  11  22  38  61  91 127 158 211 255 326 381
#     4  12  22  43  72  91 117 166 226 266 299 370
#     4   8  15  31  58  87 114 151 205 266 300 350
#     4   9  18  36  62  91 120 159 216 263 302 367
#     4  12  27  39  55  96 139 163 195 259 338 385
#
# _framework density 20.471473
#
# number of rings (size 3 to 8) (size 9 to 14) (size 15 to 20)
#    0.000    1.241    4.138    3.310    0.966    4.414 
#    2.483    0.000    0.000    0.000    0.000    3.862 
#    0.000    0.000    0.000    0.000    0.000    0.000 
#
# Total GULP energy -161620.833484 kJ/mol
# GULP energy per Si atom -5573.132189 kJ/mol
# Density = 2.042488 g / cm^3
# Si number density = 20.471473 Si / 1000 Ang^3
#
#
#
# Elastic Constant Matrix: (Units=GPa)
#
#
# Indices 1 2 3 4 5 6 
#
# 1 91.5376 15.0859 13.9518 -0.0131 14.6774 -0.0112
# 2 15.0859 39.1411 10.7982 -0.0151 -7.8997 -0.0124
# 3 13.9518 10.7982 94.2346 -0.0027 9.2367 -0.0010
# 4 -0.0131 -0.0151 -0.0027 -894.1361 -0.0072 -801.7846
# 5 14.6774 -7.8997 9.2367 -0.0072 22.7916 -0.0071
# 6 -0.0112 -0.0124 -0.0010 -801.7846 -0.0071 -684.0035
#
#
#
# Elastic Compliance Matrix: (Units=1/GPa)
#
#
# Indices 1 2 3 4 5 6 
#
# 1 0.014103 -0.007800 -0.000041 0.000000 -0.011769 0.000000
# 2 -0.007800 0.033522 -0.004496 0.000000 0.018464 0.000000
# 3 -0.000041 -0.004496 0.011750 0.000000 -0.006294 0.000000
# 4 0.000000 0.000000 0.000000 0.021877 -0.000001 -0.025644
# 5 -0.011769 0.018464 -0.006294 -0.000001 0.060406 0.000001
# 6 0.000000 0.000000 0.000000 -0.025644 0.000001 0.028597
#
#
# Mechanical properties :
#
#
# Convention : Reuss Voigt Hill
#
# Bulk Modulus (GPa) = 28.81718 33.84280 31.32999
# Shear Modulus (GPa) = 24.21360 -298.73111 -137.25876
#
# Velocity S-wave (km/s) = 3.44291 -12.09307 -8.19722
# Velocity P-wave (km/s) = 5.46920 13.35748 8.61714
#
# Compressibility (1/GPa) = 0.03470152
#
# Stress axis : x y z
#
# Youngs Moduli (GPa) = 70.90560 29.83134 85.10640
#
# Poissons Ratio (x) = 0.23268 0.00346
# Poissons Ratio (y) = 0.55305 0.38266
# Poissons Ratio (z) = 0.00288 0.13413
#
# Static dielectric constant tensor:
#      x y z
#    x 2.972390 0.000000 0.328760 
#    y 0.000000 1.606830 0.000000 
#    z 0.328760 0.000000 1.776750 
# 
# From -- ./inp_files/278793.got.cif
#   From: 2010.05.17/outbox.cif.g08.bks.cpg/sg12_140_cif.got.tgz:278793.got - 2010.06.03 13:09:07.
