data_PCOD9220156
_publ_section_title
;
Structure prediction by ZEFSAII (Michael W. Deem and Ramdas Pophale) SiO2 
 PCOD9220156
Probable space group: C 2/M
;
_chemical_formula_sum "Si O2"
_cell_formula_units_Z 44
_cell_length_a 18.018771
_cell_length_b 17.272994
_cell_length_c 9.032393
_cell_angle_alpha 90.000000
_cell_angle_beta 126.884004
_cell_angle_gamma 90.000000
_cell_volume 2248.564691
_symmetry_space_group_name_H-M "C 2/M"
_symmetry_group_IT_number 12
_symmetry_cell_setting 'monoclinic'
loop_
_space_group_symop_operation_xyz
x,y,z
-x,y,-z
-x,-y,-z
x,-y,z
1/2+x,1/2+y,z
1/2-x,1/2+y,-z
1/2-x,1/2-y,-z
1/2+x,1/2-y,z
loop_
_atom_site_type_symbol
_atom_site_label
_atom_site_fract_x
_atom_site_fract_y
_atom_site_fract_z
Si Si1 0.815539 0.908174 0.666818
Si Si2 0.229438 0.666236 0.282630
Si Si3 0.500000 0.329392 0.000000
Si Si4 0.833311 0.683543 0.322855
Si Si5 0.952081 0.698588 0.741553
Si Si6 0.112175 0.410425 0.901787
O O1 0.799939 0.868882 0.487464
O O2 0.731297 0.877498 0.666747
O O3 0.813135 0.000000 0.649778
O O4 0.910416 0.880014 0.856067
O O5 0.275462 0.736833 0.249013
O O6 0.142131 0.697818 0.274154
O O7 0.187144 0.604018 0.120098
O O8 0.489560 0.271158 0.127566
O O9 0.919876 0.701056 0.534121
O O10 0.861578 0.645031 0.203585
O O11 0.012908 0.621916 0.837228
O O12 0.107633 0.500000 0.854000
#
# Coordination Sequence:
#
# PCOD9220156 Si02
#       6
#     8   8   4   8   8   8
#     4  11  22  37  63  91 119 155 202 260 301 346
#     4  11  21  41  64  86 122 166 211 242 293 372
#     4  12  19  40  61  88 116 152 214 246 293 354
#     4  11  22  41  62  87 125 165 205 243 303 372
#     4  11  21  39  64  88 119 164 208 245 292 369
#     4  12  25  38  60  96 131 159 195 255 319 361
#
# _framework density 19.568038000000001
#
# number of rings (size 3 to 8) (size 9 to 14) (size 15 to 20)
#    0.000    0.727    5.455    3.545    0.000    5.818 
#    0.000    0.000    0.000    0.000    0.000    5.091 
#    0.000    0.000    0.000    0.000    0.000    0.000 
#
# Total GULP energy -122948.475248 kJ/mol
# GULP energy per Si atom -5588.567057 kJ/mol
# Density = 1.952350 g / cm^3
# Si number density = 19.568038 Si / 1000 Ang^3
#
#
#
# Elastic Constant Matrix: (Units=GPa)
#
#
# Indices 1 2 3 4 5 6 
#
# 1 49.9924 23.6176 21.8731 0.0000 3.4338 0.0000
# 2 23.6176 118.7903 19.1117 0.0000 17.0501 0.0000
# 3 21.8731 19.1117 112.1781 0.0000 15.6270 0.0000
# 4 0.0000 0.0000 0.0000 22.4704 0.0000 -7.5811
# 5 3.4338 17.0501 15.6270 0.0000 24.7783 0.0000
# 6 0.0000 0.0000 0.0000 -7.5811 0.0000 17.0582
#
#
#
# Elastic Compliance Matrix: (Units=1/GPa)
#
#
# Indices 1 2 3 4 5 6 
#
# 1 0.023757 -0.004387 -0.004217 0.000000 0.002386 0.000000
# 2 -0.004387 0.010211 0.000011 0.000000 -0.006425 0.000000
# 3 -0.004217 0.000011 0.010584 0.000000 -0.006098 0.000000
# 4 0.000000 0.000000 0.000000 0.052353 0.000000 0.023267
# 5 0.002386 -0.006425 -0.006098 0.000000 0.048294 0.000000
# 6 0.000000 0.000000 0.000000 0.023267 0.000000 0.068963
#
#
# Mechanical properties :
#
#
# Convention : Reuss Voigt Hill
#
# Bulk Modulus (GPa) = 36.54316 45.57395 41.05855
# Shear Modulus (GPa) = 20.79245 27.28528 24.03886
#
# Velocity S-wave (km/s) = 3.26325 3.73819 3.50876
# Velocity P-wave (km/s) = 5.73706 6.47863 6.11909
#
# Compressibility (1/GPa) = 0.02736490
#
# Stress axis : x y z
#
# Youngs Moduli (GPa) = 42.09296 97.93437 94.47903
#
# Poissons Ratio (x) = 0.42967 0.39844
# Poissons Ratio (y) = 0.18468 -0.00103
# Poissons Ratio (z) = 0.17752 -0.00107
#
# Static dielectric constant tensor:
#      x y z
#    x 1.685610 0.000000 0.009750 
#    y 0.000000 1.663240 0.000000 
#    z 0.009750 0.000000 1.710720 
# 
# From -- ./inp_files/76114.got.cif
#   From: 2010.05.17/outbox.cif.g08.bks.cpg/sg12_39_cif.got.tgz:76114.got - 2010.06.03 13:09:07.
