data_PCOD9220956
_publ_section_title
;
Structure prediction by ZEFSAII (Michael W. Deem and Ramdas Pophale) SiO2 
 PCOD9220956
Probable space group: C 2/M
;
_chemical_formula_sum "Si O2"
_cell_formula_units_Z 48
_cell_length_a 8.585598
_cell_length_b 25.603846
_cell_length_c 12.765771
_cell_angle_alpha 90.000000
_cell_angle_beta 109.650044
_cell_angle_gamma 90.000000
_cell_volume 2642.803884
_symmetry_space_group_name_H-M "C 2/M"
_symmetry_group_IT_number 12
_symmetry_cell_setting 'monoclinic'
loop_
_space_group_symop_operation_xyz
x,y,z
-x,y,-z
-x,-y,-z
x,-y,z
1/2+x,1/2+y,z
1/2-x,1/2+y,-z
1/2-x,1/2-y,-z
1/2+x,1/2-y,z
loop_
_atom_site_type_symbol
_atom_site_label
_atom_site_fract_x
_atom_site_fract_y
_atom_site_fract_z
Si Si1 0.124317 0.308344 0.121798
Si Si2 0.002519 0.808344 0.878202
Si Si3 0.499305 0.500000 0.125061
Si Si4 0.804111 0.097999 0.735494
Si Si5 0.312839 0.438141 0.500000
Si Si6 0.431383 0.902001 0.735494
Si Si7 0.625756 0.000000 0.125061
O O1 0.309549 0.307811 0.119098
O O2 0.108157 0.348664 0.212793
O O3 0.071017 0.250000 0.142034
O O4 0.000000 0.324603 0.000000
O O5 0.895364 0.848664 0.787207
O O6 0.000000 0.824603 0.000000
O O7 0.593201 0.550735 0.189587
O O8 0.312663 0.500000 0.125325
O O9 0.500000 0.500000 0.000000
O O10 0.800067 0.087772 0.610693
O O11 0.619616 0.097955 0.739231
O O12 0.500000 0.433952 0.500000
O O13 0.273281 0.500000 0.500000
O O14 0.189374 0.412228 0.389307
O O15 0.403613 0.949265 0.810413
O O16 0.500000 0.000000 0.000000
#
# Coordination Sequence:
#
# PCOD9220956 Si02
#       7
#     8   8   4   8   8   8   4
#     4  11  22  40  64  92 125 162 204 251 305 363
#     4  11  22  40  64  92 125 162 204 251 305 363
#     4  12  24  39  58  87 122 158 198 250 306 362
#     4  12  24  40  62  90 122 160 204 250 303 363
#     4  11  23  41  64  89 121 162 206 251 303 361
#     4  12  24  40  62  90 122 160 204 250 303 363
#     4  12  24  39  58  87 122 158 198 250 306 362
#
# _framework density 18.162527000000001
#
# number of rings (size 3 to 8) (size 9 to 14) (size 15 to 20)
#    0.000    0.500    1.667   10.000    0.000    0.667 
#    0.000    0.833    0.000    0.000    0.000    0.000 
#    0.000    0.000    0.000    0.000    0.000    0.000 
#
# Total GULP energy -134359.976904 kJ/mol
# GULP energy per Si atom -5598.332371 kJ/mol
# Density = 1.812119 g / cm^3
# Si number density = 18.162527 Si / 1000 Ang^3
#
#
#
# Elastic Constant Matrix: (Units=GPa)
#
#
# Indices 1 2 3 4 5 6 
#
# 1 211.1425 68.5665 89.3903 0.0000 -0.7922 0.0000
# 2 68.5665 107.0921 98.2320 0.0000 0.4918 0.0000
# 3 89.3903 98.2320 197.2857 0.0000 0.5624 0.0000
# 4 0.0000 0.0000 0.0000 75.4889 0.0000 0.7523
# 5 -0.7922 0.4918 0.5624 0.0000 37.0060 0.0000
# 6 0.0000 0.0000 0.0000 0.7523 0.0000 30.1113
#
#
#
# Elastic Compliance Matrix: (Units=1/GPa)
#
#
# Indices 1 2 3 4 5 6 
#
# 1 0.006224 -0.002574 -0.001539 0.000000 0.000191 0.000000
# 2 -0.002574 0.018253 -0.007921 0.000000 -0.000177 0.000000
# 3 -0.001539 -0.007921 0.009711 0.000000 -0.000075 0.000000
# 4 0.000000 0.000000 0.000000 0.013250 0.000000 -0.000331
# 5 0.000191 -0.000177 -0.000075 0.000000 0.027030 0.000000
# 6 0.000000 0.000000 0.000000 -0.000331 0.000000 0.033218
#
#
# Mechanical properties :
#
#
# Convention : Reuss Voigt Hill
#
# Bulk Modulus (GPa) = 98.83232 114.21088 106.52160
# Shear Modulus (GPa) = 37.00155 45.81000 41.40577
#
# Velocity S-wave (km/s) = 4.51848 5.02763 4.77984
# Velocity P-wave (km/s) = 9.04190 9.83473 9.44663
#
# Compressibility (1/GPa) = 0.01011815
#
# Stress axis : x y z
#
# Youngs Moduli (GPa) = 160.65712 54.78544 102.98068
#
# Poissons Ratio (x) = 0.14104 0.15848
# Poissons Ratio (y) = 0.41361 0.81576
# Poissons Ratio (z) = 0.24725 0.43398
#
# Static dielectric constant tensor:
#      x y z
#    x 1.602100 0.000000 -0.000310 
#    y 0.000000 1.603130 0.000000 
#    z -0.000310 0.000000 1.583410 
# 
# From -- ./inp_files/122621.got.cif
#   From: 2010.05.17/outbox.cif.g08.bks.cpg/sg12_62_cif.got.tgz:122621.got - 2010.06.03 13:09:07.
