data_PCOD9220750
_publ_section_title
;
Structure prediction by ZEFSAII (Michael W. Deem and Ramdas Pophale) SiO2 
 PCOD9220750
Probable space group: C 2/M
;
_chemical_formula_sum "Si O2"
_cell_formula_units_Z 48
_cell_length_a 26.241007
_cell_length_b 8.338674
_cell_length_c 14.936014
_cell_angle_alpha 90.000000
_cell_angle_beta 139.402502
_cell_angle_gamma 90.000000
_cell_volume 2126.769461
_symmetry_space_group_name_H-M "C 2/M"
_symmetry_group_IT_number 12
_symmetry_cell_setting 'monoclinic'
loop_
_space_group_symop_operation_xyz
x,y,z
-x,y,-z
-x,-y,-z
x,-y,z
1/2+x,1/2+y,z
1/2-x,1/2+y,-z
1/2-x,1/2-y,-z
1/2+x,1/2-y,z
loop_
_atom_site_type_symbol
_atom_site_label
_atom_site_fract_x
_atom_site_fract_y
_atom_site_fract_z
Si Si1 0.917871 0.195753 0.932342
Si Si2 0.333085 0.690774 0.992970
Si Si3 0.824809 0.188025 0.308071
Si Si4 0.918947 0.308781 0.598221
Si Si5 0.082485 0.310900 0.728451
Si Si6 0.668827 0.310072 0.352750
O O1 0.897168 0.245830 0.004762
O O2 0.852319 0.251488 0.774176
O O3 0.917895 0.000000 0.934113
O O4 0.000000 0.247418 0.000000
O O5 0.339710 0.500000 0.017381
O O6 0.250254 0.727656 0.836421
O O7 0.350131 0.780470 0.107946
O O8 0.851340 0.260810 0.437817
O O9 0.894926 0.219327 0.331256
O O10 0.809682 0.000000 0.297284
O O11 0.920663 0.500000 0.609733
O O12 0.898889 0.234285 0.667153
O O13 0.001510 0.255961 0.665947
O O14 0.076498 0.500000 0.699949
O O15 0.673243 0.500000 0.352443
O O16 0.750000 0.250000 0.500000
#
# Coordination Sequence:
#
# PCOD9220750 Si02
#       6
#     8   8   8   8   8   8
#     4   9  19  36  59  87 117 152 196 244 292 345
#     4  11  22  39  64  91 123 161 202 249 302 362
#     4  12  25  41  63  90 121 158 204 254 305 366
#     4  11  24  42  63  89 123 161 202 252 309 365
#     4  11  24  42  63  89 123 160 201 252 308 365
#     4  11  22  38  62  90 122 160 203 251 303 360
#
# _framework density 22.569443
#
# number of rings (size 3 to 8) (size 9 to 14) (size 15 to 20)
#    0.000    1.167    0.000    6.500    0.000    7.333 
#    0.000    2.500    0.000    6.000    0.000    0.000 
#    0.000    0.000    0.000    0.000    0.000    0.000 
#
# Total GULP energy -134385.720932 kJ/mol
# GULP energy per Si atom -5599.405039 kJ/mol
# Density = 2.251807 g / cm^3
# Si number density = 22.569443 Si / 1000 Ang^3
#
#
#
# Elastic Constant Matrix: (Units=GPa)
#
#
# Indices 1 2 3 4 5 6 
#
# 1 60.6692 -7.9598 -12.4827 0.0000 -2.1674 0.0000
# 2 -7.9598 31.9118 -11.2287 0.0000 0.4780 0.0000
# 3 -12.4827 -11.2287 65.8956 0.0000 -6.2122 0.0000
# 4 0.0000 0.0000 0.0000 17.8112 0.0000 3.0049
# 5 -2.1674 0.4780 -6.2122 0.0000 41.4855 0.0000
# 6 0.0000 0.0000 0.0000 3.0049 0.0000 29.9172
#
#
#
# Elastic Compliance Matrix: (Units=1/GPa)
#
#
# Indices 1 2 3 4 5 6 
#
# 1 0.018313 0.006188 0.004673 0.000000 0.001585 0.000000
# 2 0.006188 0.035435 0.007306 0.000000 0.001009 0.000000
# 3 0.004673 0.007306 0.017569 0.000000 0.002791 0.000000
# 4 0.000000 0.000000 0.000000 0.057112 0.000000 -0.005736
# 5 0.001585 0.001009 0.002791 0.000000 0.024594 0.000000
# 6 0.000000 0.000000 0.000000 -0.005736 0.000000 0.034002
#
#
# Mechanical properties :
#
#
# Convention : Reuss Voigt Hill
#
# Bulk Modulus (GPa) = 9.28928 10.57045 9.92987
# Shear Modulus (GPa) = 26.79895 30.51932 28.65913
#
# Velocity S-wave (km/s) = 3.44960 3.68127 3.56732
# Velocity P-wave (km/s) = 4.47115 4.77103 4.62352
#
# Compressibility (1/GPa) = 0.10765092
#
# Stress axis : x y z
#
# Youngs Moduli (GPa) = 54.60648 28.22034 56.91932
#
# Poissons Ratio (x) = -0.17464 -0.26598
# Poissons Ratio (y) = -0.33792 -0.41583
# Poissons Ratio (z) = -0.25517 -0.20617
#
# Static dielectric constant tensor:
#      x y z
#    x 1.792330 0.000000 0.127810 
#    y 0.000000 1.763030 0.000000 
#    z 0.127810 0.000000 1.682550 
# 
# From -- ./inp_files/244827.got.cif
#   From: 2010.05.17/outbox.cif.g08.bks.cpg/sg12_123_cif.got.tgz:244827.got - 2010.06.03 13:09:07.
