data_PCOD9220423
_publ_section_title
;
Structure prediction by ZEFSAII (Michael W. Deem and Ramdas Pophale) SiO2 
 PCOD9220423
Probable space group: C 2/M
;
_chemical_formula_sum "Si O2"
_cell_formula_units_Z 40
_cell_length_a 21.158973
_cell_length_b 8.208891
_cell_length_c 22.359774
_cell_angle_alpha 90.000000
_cell_angle_beta 144.704566
_cell_angle_gamma 90.000000
_cell_volume 2243.977230
_symmetry_space_group_name_H-M "C 2/M"
_symmetry_group_IT_number 12
_symmetry_cell_setting 'monoclinic'
loop_
_space_group_symop_operation_xyz
x,y,z
-x,y,-z
-x,-y,-z
x,-y,z
1/2+x,1/2+y,z
1/2-x,1/2+y,-z
1/2-x,1/2-y,-z
1/2+x,1/2-y,z
loop_
_atom_site_type_symbol
_atom_site_label
_atom_site_fract_x
_atom_site_fract_y
_atom_site_fract_z
Si Si1 0.231406 0.693703 0.052867
Si Si2 0.505172 0.694457 0.935387
Si Si3 0.730554 0.197304 0.278736
Si Si4 0.870966 0.800274 0.270834
Si Si5 0.073215 0.189821 0.495794
O O1 0.239239 0.500000 0.059923
O O2 0.321667 0.756494 0.170113
O O3 0.250000 0.750000 0.000000
O O4 0.112572 0.741701 0.985623
O O5 0.511876 0.500000 0.942631
O O6 0.393089 0.743949 0.816462
O O7 0.500000 0.757065 0.000000
O O8 0.787392 0.245993 0.259669
O O9 0.810168 0.258899 0.393386
O O10 0.731981 0.000000 0.281386
O O11 0.992072 0.740676 0.382918
O O12 0.874805 0.000000 0.274192
O O13 0.000000 0.191280 0.500000
O O14 0.091873 0.000000 0.494812
#
# Coordination Sequence:
#
# PCOD9220423 Si02
#       5
#     8   8   8   8   8
#     4  11  22  36  54  75 103 137 174 209 250 304
#     4  11  22  34  50  74 106 138 170 211 254 295
#     4   9  15  27  50  77 101 127 164 206 251 303
#     4   8  14  26  47  74 101 130 163 203 250 301
#     4   7  11  21  42  73 101 123 156 203 249 297
#
# _framework density 17.825493000000002
#
# number of rings (size 3 to 8) (size 9 to 14) (size 15 to 20)
#    0.000    2.800    2.000    3.600    0.000    0.800 
#    0.000    0.000    0.000    9.000    0.000    0.000 
#    0.000    0.000    0.000    0.000    0.000    0.000 
#
# Total GULP energy -111394.910493 kJ/mol
# GULP energy per Si atom -5569.745525 kJ/mol
# Density = 1.778492 g / cm^3
# Si number density = 17.825493 Si / 1000 Ang^3
#
#
#
# Elastic Constant Matrix: (Units=GPa)
#
#
# Indices 1 2 3 4 5 6 
#
# 1 88.6320 14.0283 75.2077 0.0000 -8.3132 0.0000
# 2 14.0283 17.3780 16.6196 0.0000 -3.5739 0.0000
# 3 75.2077 16.6196 211.0892 0.0000 -10.3851 0.0000
# 4 0.0000 0.0000 0.0000 -14.4270 0.0000 -16.0918
# 5 -8.3132 -3.5739 -10.3851 0.0000 17.1855 0.0000
# 6 0.0000 0.0000 0.0000 -16.0918 0.0000 9.8776
#
#
#
# Elastic Compliance Matrix: (Units=1/GPa)
#
#
# Indices 1 2 3 4 5 6 
#
# 1 0.017511 -0.008237 -0.005419 0.000000 0.003483 0.000000
# 2 -0.008237 0.067920 -0.001973 0.000000 0.008948 0.000000
# 3 -0.005419 -0.001973 0.006879 0.000000 0.001125 0.000000
# 4 0.000000 0.000000 0.000000 -0.024605 0.000000 -0.040084
# 5 0.003483 0.008948 0.001125 0.000000 0.062414 0.000000
# 6 0.000000 0.000000 0.000000 -0.040084 0.000000 0.035937
#
#
# Mechanical properties :
#
#
# Convention : Reuss Voigt Hill
#
# Bulk Modulus (GPa) = 16.37933 58.75675 37.56804
# Shear Modulus (GPa) = 22.97106 16.61011 19.79059
#
# Velocity S-wave (km/s) = 3.59369 3.05588 3.33564
# Velocity P-wave (km/s) = 5.14083 6.74425 5.99638
#
# Compressibility (1/GPa) = 0.06105256
#
# Stress axis : x y z
#
# Youngs Moduli (GPa) = 57.10574 14.72323 145.37532
#
# Poissons Ratio (x) = 0.12128 0.78781
# Poissons Ratio (y) = 0.47038 0.28677
# Poissons Ratio (z) = 0.30946 0.02904
#
# Static dielectric constant tensor:
#      x y z
#    x 1.591630 0.000000 -0.040450 
#    y 0.000000 1.622910 0.000000 
#    z -0.040450 0.000000 1.694980 
# 
# From -- ./inp_files/151728.got.cif
#   From: 2010.05.17/outbox.cif.g08.bks.cpg/sg12_76_cif.got.tgz:151728.got - 2010.06.03 13:09:07.
