data_PCOD9220129
_publ_section_title
;
Structure prediction by ZEFSAII (Michael W. Deem and Ramdas Pophale) SiO2 
 PCOD9220129
Probable space group: C 2/M
;
_chemical_formula_sum "Si O2"
_cell_formula_units_Z 56
_cell_length_a 8.737866
_cell_length_b 25.698043
_cell_length_c 11.759707
_cell_angle_alpha 90.000000
_cell_angle_beta 108.500985
_cell_angle_gamma 90.000000
_cell_volume 2504.125084
_symmetry_space_group_name_H-M "C 2/M"
_symmetry_group_IT_number 12
_symmetry_cell_setting 'monoclinic'
loop_
_space_group_symop_operation_xyz
x,y,z
-x,y,-z
-x,-y,-z
x,-y,z
1/2+x,1/2+y,z
1/2-x,1/2+y,-z
1/2-x,1/2-y,-z
1/2+x,1/2-y,z
loop_
_atom_site_type_symbol
_atom_site_label
_atom_site_fract_x
_atom_site_fract_y
_atom_site_fract_z
Si Si1 0.306761 0.167858 0.454856
Si Si2 0.274819 0.720316 0.785205
Si Si3 0.447640 0.942093 0.782281
Si Si4 0.160905 0.555177 0.615136
Si Si5 0.645394 0.382873 0.615127
Si Si6 0.610676 0.153694 0.934165
Si Si7 0.618752 0.675579 0.838636
O O1 0.500000 0.171584 0.500000
O O2 0.245959 0.211420 0.354585
O O3 0.263842 0.110760 0.392834
O O4 0.230174 0.163383 0.561392
O O5 0.152442 0.683540 0.828021
O O6 0.455959 0.700652 0.848848
O O7 0.226789 0.777225 0.814705
O O8 0.592816 0.944372 0.725934
O O9 0.286446 0.923964 0.677443
O O10 0.504893 0.896797 0.879217
O O11 0.424368 0.000000 0.825065
O O12 0.249500 0.500000 0.615742
O O13 0.000000 0.553822 0.500000
O O14 0.500000 0.401858 0.500000
O O15 0.587935 0.360934 0.722626
O O16 0.500000 0.183643 0.000000
O O17 0.779379 0.146471 0.040021
#
# Coordination Sequence:
#
# PCOD9220129 Si02
#       7
#     8   8   8   8   8   8   8
#     4  11  21  38  68  97 140 184 227 283 341 415
#     4  12  26  46  69 102 140 183 239 286 351 408
#     4  11  23  42  73 105 137 183 234 283 349 418
#     4   9  16  31  61  96 126 168 224 272 327 401
#     4  12  24  44  65 103 147 183 225 287 351 405
#     4  12  24  46  74  99 138 177 235 293 340 414
#     4  12  28  45  69 102 138 188 235 288 349 416
#
# _framework density 22.363099999999999
#
# number of rings (size 3 to 8) (size 9 to 14) (size 15 to 20)
#    0.000    0.714    7.143    1.714    2.000    1.714 
#    0.000    0.000    0.000    3.429    0.000    0.000 
#    0.000    0.000    0.000    0.000    0.000    0.000 
#
# Total GULP energy -156364.150813 kJ/mol
# GULP energy per Si atom -5584.433958 kJ/mol
# Density = 2.231220 g / cm^3
# Si number density = 22.363100 Si / 1000 Ang^3
#
#
#
# Elastic Constant Matrix: (Units=GPa)
#
#
# Indices 1 2 3 4 5 6 
#
# 1 72.4873 -2.8387 1.6978 0.0000 15.8574 0.0000
# 2 -2.8387 90.9014 19.0841 0.0000 21.6322 0.0000
# 3 1.6978 19.0841 75.2034 0.0000 19.3247 0.0000
# 4 0.0000 0.0000 0.0000 80.9679 0.0000 6.8843
# 5 15.8574 21.6322 19.3247 0.0000 46.2076 0.0000
# 6 0.0000 0.0000 0.0000 6.8843 0.0000 15.0083
#
#
#
# Elastic Compliance Matrix: (Units=1/GPa)
#
#
# Indices 1 2 3 4 5 6 
#
# 1 0.015258 0.001833 0.000847 0.000000 -0.006449 0.000000
# 2 0.001833 0.012835 -0.001785 0.000000 -0.005891 0.000000
# 3 0.000847 -0.001785 0.015228 0.000000 -0.005824 0.000000
# 4 0.000000 0.000000 0.000000 0.012852 0.000000 -0.005895
# 5 -0.006449 -0.005891 -0.005824 0.000000 0.029048 0.000000
# 6 0.000000 0.000000 0.000000 -0.005895 0.000000 0.069334
#
#
# Mechanical properties :
#
#
# Convention : Reuss Voigt Hill
#
# Bulk Modulus (GPa) = 22.16656 30.49763 26.33209
# Shear Modulus (GPa) = 29.79741 43.14669 36.47205
#
# Velocity S-wave (km/s) = 3.65422 4.39722 4.04283
# Velocity P-wave (km/s) = 5.26669 6.28075 5.79594
#
# Compressibility (1/GPa) = 0.04511300
#
# Stress axis : x y z
#
# Youngs Moduli (GPa) = 65.53832 77.91288 65.67058
#
# Poissons Ratio (x) = -0.14283 -0.05565
# Poissons Ratio (y) = -0.12015 0.11719
# Poissons Ratio (z) = -0.05554 0.13904
#
# Static dielectric constant tensor:
#      x y z
#    x 1.866180 0.000000 -0.009800 
#    y 0.000000 1.852880 0.000000 
#    z -0.009800 0.000000 1.853680 
# 
# From -- ./inp_files/124334.got.cif
#   From: 2010.05.17/outbox.cif.g08.bks.cpg/sg12_63_cif.got.tgz:124334.got - 2010.06.03 13:09:07.
