data_PCOD9220170
_publ_section_title
;
Structure prediction by ZEFSAII (Michael W. Deem and Ramdas Pophale) SiO2 
 PCOD9220170
Probable space group: C 2/M
;
_chemical_formula_sum "Si O2"
_cell_formula_units_Z 34
_cell_length_a 16.787511
_cell_length_b 21.285423
_cell_length_c 9.248854
_cell_angle_alpha 90.000000
_cell_angle_beta 147.881726
_cell_angle_gamma 90.000000
_cell_volume 1757.104704
_symmetry_space_group_name_H-M "C 2/M"
_symmetry_group_IT_number 12
_symmetry_cell_setting 'monoclinic'
loop_
_space_group_symop_operation_xyz
x,y,z
-x,y,-z
-x,-y,-z
x,-y,z
1/2+x,1/2+y,z
1/2-x,1/2+y,-z
1/2-x,1/2-y,-z
1/2+x,1/2-y,z
loop_
_atom_site_type_symbol
_atom_site_label
_atom_site_fract_x
_atom_site_fract_y
_atom_site_fract_z
Si Si1 0.743453 0.068876 0.926268
Si Si2 0.609845 0.297519 0.803706
Si Si3 0.416410 0.774181 0.724748
Si Si4 0.437511 0.090145 0.634117
Si Si5 0.000000 0.500000 0.000000
O O1 0.595278 0.075620 0.797953
O O2 0.687882 0.070402 0.674727
O O3 0.811701 0.000000 0.060832
O O4 0.839364 0.130393 0.106701
O O5 0.500000 0.289074 0.500000
O O6 0.516152 0.278221 0.800104
O O7 0.750000 0.250000 0.000000
O O8 0.250000 0.750000 0.500000
O O9 0.417095 0.835784 0.626455
O O10 0.500000 0.791610 0.000000
O O11 0.442653 0.054227 0.794203
#
# Coordination Sequence:
#
# PCOD9220170 Si02
#       5
#     8   8   8   8   2
#     4  11  22  41  68  94 136 172 230 277 333 391
#     4  12  25  44  71 100 132 179 232 279 329 406
#     4  12  25  41  65  97 136 172 217 281 342 389
#     4  11  21  39  66 100 128 178 225 276 322 410
#     4  12  20  34  64 100 134 162 224 268 330 398
#
# _framework density 19.350013000000001
#
# number of rings (size 3 to 8) (size 9 to 14) (size 15 to 20)
#    0.000    0.471    5.882    4.941    0.000    0.471 
#    0.000    0.000    2.588    2.118    0.000    0.000 
#    0.000    0.000    0.000    0.000    0.000    0.000 
#
# Total GULP energy -94734.050616 kJ/mol
# GULP energy per Si atom -5572.591213 kJ/mol
# Density = 1.930597 g / cm^3
# Si number density = 19.350013 Si / 1000 Ang^3
#
#
#
# Elastic Constant Matrix: (Units=GPa)
#
#
# Indices 1 2 3 4 5 6 
#
# 1 63.3269 31.3308 27.6907 0.0000 7.0681 0.0000
# 2 31.3308 178.3025 43.5867 0.0000 16.9910 0.0000
# 3 27.6907 43.5867 99.8822 0.0000 -2.6472 0.0000
# 4 0.0000 0.0000 0.0000 65.5768 0.0000 -30.4482
# 5 7.0681 16.9910 -2.6472 0.0000 33.0236 0.0000
# 6 0.0000 0.0000 0.0000 -30.4482 0.0000 36.6144
#
#
#
# Elastic Compliance Matrix: (Units=1/GPa)
#
#
# Indices 1 2 3 4 5 6 
#
# 1 0.019118 -0.001915 -0.004557 0.000000 -0.003472 0.000000
# 2 -0.001915 0.006890 -0.002564 0.000000 -0.003341 0.000000
# 3 -0.004557 -0.002564 0.012481 0.000000 0.003295 0.000000
# 4 0.000000 0.000000 0.000000 0.024841 0.000000 0.020657
# 5 -0.003472 -0.003341 0.003295 0.000000 0.033008 0.000000
# 6 0.000000 0.000000 0.000000 0.020657 0.000000 0.044490
#
#
# Mechanical properties :
#
#
# Convention : Reuss Voigt Hill
#
# Bulk Modulus (GPa) = 48.97571 60.74754 54.86163
# Shear Modulus (GPa) = 30.17388 42.96986 36.57187
#
# Velocity S-wave (km/s) = 3.95317 4.71750 4.35215
# Velocity P-wave (km/s) = 6.79722 7.81891 7.32590
#
# Compressibility (1/GPa) = 0.02041828
#
# Stress axis : x y z
#
# Youngs Moduli (GPa) = 52.30566 145.13507 80.11860
#
# Poissons Ratio (x) = 0.27788 0.36508
# Poissons Ratio (y) = 0.10015 0.20546
# Poissons Ratio (z) = 0.23834 0.37219
#
# Static dielectric constant tensor:
#      x y z
#    x 1.687670 0.000000 -0.054230 
#    y 0.000000 1.682460 0.000000 
#    z -0.054230 0.000000 1.728490 
# 
# From -- ./inp_files/77885.got.cif
#   From: 2010.05.17/outbox.cif.g08.bks.cpg/sg12_39_cif.got.tgz:77885.got - 2010.06.03 13:09:07.
