data_PCOD9220207
_publ_section_title
;
Structure prediction by ZEFSAII (Michael W. Deem and Ramdas Pophale) SiO2 
 PCOD9220207
Probable space group: C 2/M
;
_chemical_formula_sum "Si O2"
_cell_formula_units_Z 56
_cell_length_a 8.779806
_cell_length_b 20.505948
_cell_length_c 14.056942
_cell_angle_alpha 90.000000
_cell_angle_beta 81.839830
_cell_angle_gamma 90.000000
_cell_volume 2505.163312
_symmetry_space_group_name_H-M "C 2/M"
_symmetry_group_IT_number 12
_symmetry_cell_setting 'monoclinic'
loop_
_space_group_symop_operation_xyz
x,y,z
-x,y,-z
-x,-y,-z
x,-y,z
1/2+x,1/2+y,z
1/2-x,1/2+y,-z
1/2-x,1/2-y,-z
1/2+x,1/2-y,z
loop_
_atom_site_type_symbol
_atom_site_label
_atom_site_fract_x
_atom_site_fract_y
_atom_site_fract_z
Si Si1 0.835159 0.423020 0.313365
Si Si2 0.230643 0.000000 0.036468
Si Si3 0.659407 0.862360 0.020448
Si Si4 0.359907 0.194455 0.443549
Si Si5 0.625435 0.277410 0.737561
Si Si6 0.805842 0.829782 0.831444
Si Si7 0.412217 0.500000 0.162656
Si Si8 0.686554 0.889346 0.239323
O O1 0.796569 0.500000 0.328488
O O2 0.792635 0.373129 0.404191
O O3 0.757584 0.390572 0.226220
O O4 0.021446 0.417727 0.283454
O O5 0.333137 0.935889 0.022726
O O6 0.095547 0.000000 0.128005
O O7 0.149550 0.000000 0.940200
O O8 0.796474 0.833228 0.946166
O O9 0.500000 0.832301 0.000000
O O10 0.670095 0.863578 0.132106
O O11 0.500000 0.178290 0.500000
O O12 0.250000 0.250000 0.500000
O O13 0.421068 0.232907 0.345971
O O14 0.697936 0.229245 0.807878
O O15 0.477907 0.314638 0.787427
O O16 0.755086 0.330409 0.701180
O O17 0.328294 0.439747 0.220854
#
# Coordination Sequence:
#
# PCOD9220207 Si02
#       8
#     8   4   8   8   8   8   4   8
#     4  11  23  42  68 104 138 168 218 282 338 396
#     4   9  19  32  52  82 125 170 240 273 311 387
#     4  11  22  35  58  90 130 189 237 276 325 376
#     4  11  23  45  75  98 127 170 216 271 350 438
#     4  11  24  44  67  94 129 174 228 279 347 409
#     4  11  24  41  62  93 133 183 232 280 328 389
#     4   9  18  34  56  86 124 177 219 272 331 370
#     4  11  21  40  62  94 140 177 225 279 324 394
#
# _framework density 22.353829999999999
#
# number of rings (size 3 to 8) (size 9 to 14) (size 15 to 20)
#    0.000    1.286    2.143    5.357    1.000    2.571 
#    1.286    0.000    0.000    1.286    0.000    0.000 
#    0.000    0.000    0.000    0.000    0.000    0.000 
#
# Total GULP energy -156329.793594 kJ/mol
# GULP energy per Si atom -5583.206914 kJ/mol
# Density = 2.230295 g / cm^3
# Si number density = 22.353830 Si / 1000 Ang^3
#
#
#
# Elastic Constant Matrix: (Units=GPa)
#
#
# Indices 1 2 3 4 5 6 
#
# 1 90.5945 34.3743 2.1265 0.0000 -14.7049 0.0000
# 2 34.3743 128.5604 26.2121 0.0000 0.4017 0.0000
# 3 2.1265 26.2121 39.1828 0.0000 0.5112 0.0000
# 4 0.0000 0.0000 0.0000 31.8019 0.0000 -2.2982
# 5 -14.7049 0.4017 0.5112 0.0000 32.0084 0.0000
# 6 0.0000 0.0000 0.0000 -2.2982 0.0000 35.8177
#
#
#
# Elastic Compliance Matrix: (Units=1/GPa)
#
#
# Indices 1 2 3 4 5 6 
#
# 1 0.013532 -0.004020 0.001873 0.000000 0.006237 0.000000
# 2 -0.004020 0.010201 -0.006582 0.000000 -0.001870 0.000000
# 3 0.001873 -0.006582 0.029816 0.000000 0.000467 0.000000
# 4 0.000000 0.000000 0.000000 0.031591 0.000000 0.002027
# 5 0.006237 -0.001870 0.000467 0.000000 0.034123 0.000000
# 6 0.000000 0.000000 0.000000 0.002027 0.000000 0.028049
#
#
# Mechanical properties :
#
#
# Convention : Reuss Voigt Hill
#
# Bulk Modulus (GPa) = 27.70595 42.64041 35.17318
# Shear Modulus (GPa) = 28.28061 32.96727 30.62394
#
# Velocity S-wave (km/s) = 3.56073 3.84447 3.70532
# Velocity P-wave (km/s) = 5.41537 6.23083 5.83736
#
# Compressibility (1/GPa) = 0.03609334
#
# Stress axis : x y z
#
# Youngs Moduli (GPa) = 73.90035 98.03029 33.53850
#
# Poissons Ratio (x) = 0.39403 -0.06282
# Poissons Ratio (y) = 0.29704 0.22074
# Poissons Ratio (z) = -0.13843 0.64519
#
# Static dielectric constant tensor:
#      x y z
#    x 1.797320 0.000000 -0.027020 
#    y 0.000000 1.916260 0.000000 
#    z -0.027020 0.000000 1.832640 
# 
# From -- ./inp_files/197593.got.cif
#   From: 2010.05.17/outbox.cif.g08.bks.cpg/sg12_99_cif.got.tgz:197593.got - 2010.06.03 13:09:07.
