data_PCOD9220332
_publ_section_title
;
Structure prediction by ZEFSAII (Michael W. Deem and Ramdas Pophale) SiO2 
 PCOD9220332
Probable space group: C 2/M
;
_chemical_formula_sum "Si O2"
_cell_formula_units_Z 48
_cell_length_a 15.635996
_cell_length_b 19.736535
_cell_length_c 12.735361
_cell_angle_alpha 90.000000
_cell_angle_beta 31.228696
_cell_angle_gamma 90.000000
_cell_volume 2037.600675
_symmetry_space_group_name_H-M "C 2/M"
_symmetry_group_IT_number 12
_symmetry_cell_setting 'monoclinic'
loop_
_space_group_symop_operation_xyz
x,y,z
-x,y,-z
-x,-y,-z
x,-y,z
1/2+x,1/2+y,z
1/2-x,1/2+y,-z
1/2-x,1/2-y,-z
1/2+x,1/2-y,z
loop_
_atom_site_type_symbol
_atom_site_label
_atom_site_fract_x
_atom_site_fract_y
_atom_site_fract_z
Si Si1 0.141185 0.229602 0.936665
Si Si2 0.070650 0.393810 0.582025
Si Si3 0.735883 0.574150 0.818381
Si Si4 0.932802 0.750734 0.353303
Si Si5 0.882691 0.152294 0.707042
Si Si6 0.953458 0.580349 0.930365
O O1 0.162298 0.148250 0.922498
O O2 0.297683 0.278111 0.751236
O O3 0.000000 0.240190 0.000000
O O4 0.068124 0.259210 0.120983
O O5 0.217339 0.420425 0.354777
O O6 0.059333 0.313108 0.578071
O O7 0.905435 0.425617 0.707211
O O8 0.071690 0.403051 0.706885
O O9 0.655282 0.500000 0.921678
O O10 0.750000 0.750000 0.500000
O O11 0.989481 0.821381 0.341311
O O12 0.000000 0.116827 0.500000
O O13 0.729386 0.107638 0.902915
O O14 0.948549 0.500000 0.941138
O O15 0.000000 0.605030 0.000000
#
# Coordination Sequence:
#
# PCOD9220332 Si02
#       6
#     8   8   8   8   8   8
#     4  12  24  43  65 101 139 176 226 281 345 415
#     4  11  21  42  67  97 135 177 229 281 337 420
#     4  11  23  40  68 101 136 182 227 279 346 413
#     4  12  25  41  69 102 134 174 230 288 346 411
#     4  12  24  42  67  96 134 175 222 283 343 405
#     4  11  25  44  69  99 136 185 235 283 345 418
#
# _framework density 23.557117999999999
#
# number of rings (size 3 to 8) (size 9 to 14) (size 15 to 20)
#    0.000    0.500    3.333    7.000    2.333    0.667 
#    0.000    0.000    0.000    0.000    0.000    0.000 
#    0.000    0.000    0.000    0.000    0.000    0.000 
#
# Total GULP energy -134062.632648 kJ/mol
# GULP energy per Si atom -5585.943027 kJ/mol
# Density = 2.350350 g / cm^3
# Si number density = 23.557118 Si / 1000 Ang^3
#
#
#
# Elastic Constant Matrix: (Units=GPa)
#
#
# Indices 1 2 3 4 5 6 
#
# 1 67.8278 -13.1889 2.6118 -0.0045 -3.2403 -0.0001
# 2 -13.1889 116.6063 6.2480 -0.0062 -4.6607 0.0005
# 3 2.6118 6.2480 71.2271 -0.0100 9.3696 0.0028
# 4 -0.0045 -0.0062 -0.0100 -24.6174 0.0031 -15.0233
# 5 -3.2403 -4.6607 9.3696 0.0031 39.2684 -0.0023
# 6 -0.0001 0.0005 0.0028 -15.0233 -0.0023 18.9944
#
#
#
# Elastic Compliance Matrix: (Units=1/GPa)
#
#
# Indices 1 2 3 4 5 6 
#
# 1 0.015218 0.001840 -0.000943 -0.000002 0.001699 -0.000001
# 2 0.001840 0.008898 -0.001039 -0.000001 0.001456 -0.000001
# 3 -0.000943 -0.001039 0.014652 -0.000003 -0.003697 -0.000005
# 4 -0.000002 -0.000001 -0.000003 -0.027397 0.000001 -0.021670
# 5 0.001699 0.001456 -0.003697 0.000001 0.026661 0.000005
# 6 -0.000001 -0.000001 -0.000005 -0.021670 0.000005 0.035508
#
#
# Mechanical properties :
#
#
# Convention : Reuss Voigt Hill
#
# Bulk Modulus (GPa) = 25.98576 27.44477 26.71527
# Shear Modulus (GPa) = 57.70180 24.06176 40.88178
#
# Velocity S-wave (km/s) = 4.95455 3.19944 4.17037
# Velocity P-wave (km/s) = 6.61703 5.03231 5.87831
#
# Compressibility (1/GPa) = 0.03848261
#
# Stress axis : x y z
#
# Youngs Moduli (GPa) = 65.70978 112.38686 68.25152
#
# Poissons Ratio (x) = -0.20676 0.06436
# Poissons Ratio (y) = -0.12089 0.07095
# Poissons Ratio (z) = 0.06196 0.11682
#
# Static dielectric constant tensor:
#      x y z
#    x 1.934310 0.000000 0.057070 
#    y 0.000000 1.947440 0.000000 
#    z 0.057070 0.000000 1.932550 
# 
# From -- ./inp_files/147930.got.cif
#   From: 2010.05.17/outbox.cif.g08.bks.cpg/sg12_74_cif.got.tgz:147930.got - 2010.06.03 13:09:07.
