data_PCOD9220659
_publ_section_title
;
Structure prediction by ZEFSAII (Michael W. Deem and Ramdas Pophale) SiO2 
 PCOD9220659
Probable space group: C 2/M
;
_chemical_formula_sum "Si O2"
_cell_formula_units_Z 48
_cell_length_a 7.893565
_cell_length_b 22.683500
_cell_length_c 23.540478
_cell_angle_alpha 90.000000
_cell_angle_beta 146.867084
_cell_angle_gamma 90.000000
_cell_volume 2303.852968
_symmetry_space_group_name_H-M "C 2/M"
_symmetry_group_IT_number 12
_symmetry_cell_setting 'monoclinic'
loop_
_space_group_symop_operation_xyz
x,y,z
-x,y,-z
-x,-y,-z
x,-y,z
1/2+x,1/2+y,z
1/2-x,1/2+y,-z
1/2-x,1/2-y,-z
1/2+x,1/2-y,z
loop_
_atom_site_type_symbol
_atom_site_label
_atom_site_fract_x
_atom_site_fract_y
_atom_site_fract_z
Si Si1 0.262741 0.232859 0.233370
Si Si2 0.335813 0.656602 0.611571
Si Si3 0.868849 0.436724 0.899504
Si Si4 0.680204 0.066372 0.669593
Si Si5 0.211880 0.140310 0.609484
Si Si6 0.136813 0.691577 0.101413
O O1 0.434624 0.290370 0.306593
O O2 0.529955 0.186057 0.296779
O O3 0.067795 0.255696 0.124705
O O4 0.010275 0.200222 0.201237
O O5 0.259781 0.610276 0.640087
O O6 0.494937 0.625359 0.601853
O O7 0.000000 0.681753 0.500000
O O8 0.961737 0.500000 0.898508
O O9 0.496427 0.435877 0.795089
O O10 0.955250 0.372513 0.899209
O O11 0.000000 0.436945 0.000000
O O12 0.400096 0.089138 0.630037
O O13 0.618093 0.000000 0.631445
O O14 0.000000 0.167746 0.500000
O O15 0.000000 0.694420 0.000000
#
# Coordination Sequence:
#
# PCOD9220659 Si02
#       6
#     8   8   8   8   8   8
#     4  12  22  40  60  92 130 168 210 260 314 378
#     4  12  25  42  65  94 126 169 217 263 317 379
#     4   9  18  36  64  91 118 161 210 249 301 377
#     4  11  24  45  68  94 128 167 210 261 324 378
#     4  12  25  42  65  94 126 169 217 263 317 379
#     4  11  22  37  62  92 127 165 205 258 323 377
#
# _framework density 20.834662999999999
#
# number of rings (size 3 to 8) (size 9 to 14) (size 15 to 20)
#    0.000    0.833    6.667    1.000    0.000    2.667 
#    0.000    0.000    0.000    0.000    0.000    4.667 
#    0.000    0.000    0.000    0.000    0.000    0.000 
#
# Total GULP energy -133794.374362 kJ/mol
# GULP energy per Si atom -5574.765598 kJ/mol
# Density = 2.078724 g / cm^3
# Si number density = 20.834663 Si / 1000 Ang^3
#
#
#
# Elastic Constant Matrix: (Units=GPa)
#
#
# Indices 1 2 3 4 5 6 
#
# 1 106.8763 30.8081 19.3021 0.0006 7.3207 0.0007
# 2 30.8081 126.6276 26.1748 0.0007 -6.5500 0.0000
# 3 19.3021 26.1748 89.4501 0.0010 -4.6297 -0.0008
# 4 0.0006 0.0007 0.0010 11.5934 0.0003 1.8812
# 5 7.3207 -6.5500 -4.6297 0.0003 22.5056 0.0001
# 6 0.0007 0.0000 -0.0008 1.8812 0.0001 15.7861
#
#
#
# Elastic Compliance Matrix: (Units=1/GPa)
#
#
# Indices 1 2 3 4 5 6 
#
# 1 0.010711 -0.002465 -0.001827 0.000000 -0.004577 -0.000001
# 2 -0.002465 0.009059 -0.001962 0.000000 0.003035 0.000000
# 3 -0.001827 -0.001962 0.012280 -0.000001 0.002549 0.000001
# 4 0.000000 0.000000 -0.000001 0.087957 -0.000002 -0.010481
# 5 -0.004577 0.003035 0.002549 -0.000002 0.047330 0.000000
# 6 -0.000001 0.000000 0.000001 -0.010481 0.000000 0.064596
#
#
# Mechanical properties :
#
#
# Convention : Reuss Voigt Hill
#
# Bulk Modulus (GPa) = 51.17140 52.83600 52.00370
# Shear Modulus (GPa) = 19.92396 26.42161 23.17278
#
# Velocity S-wave (km/s) = 3.09575 3.56498 3.33862
# Velocity P-wave (km/s) = 6.11492 6.50847 6.31476
#
# Compressibility (1/GPa) = 0.01954217
#
# Stress axis : x y z
#
# Youngs Moduli (GPa) = 93.36529 110.38210 81.43538
#
# Poissons Ratio (x) = 0.27209 0.14877
# Poissons Ratio (y) = 0.23015 0.15977
# Poissons Ratio (z) = 0.17056 0.21657
#
# Static dielectric constant tensor:
#      x y z
#    x 1.760500 0.000000 -0.021310 
#    y 0.000000 1.803120 0.000000 
#    z -0.021310 0.000000 1.787120 
# 
# From -- ./inp_files/301564.got.cif
#   From: 2010.05.17/outbox.cif.g08.bks.cpg/sg12_151_cif.got.tgz:301564.got - 2010.06.03 13:09:07.
