data_PCOD9220172
_publ_section_title
;
Structure prediction by ZEFSAII (Michael W. Deem and Ramdas Pophale) SiO2 
 PCOD9220172
Probable space group: C 2/M
;
_chemical_formula_sum "Si O2"
_cell_formula_units_Z 48
_cell_length_a 7.106870
_cell_length_b 19.207725
_cell_length_c 18.039898
_cell_angle_alpha 90.000000
_cell_angle_beta 112.961693
_cell_angle_gamma 90.000000
_cell_volume 2267.449366
_symmetry_space_group_name_H-M "C 2/M"
_symmetry_group_IT_number 12
_symmetry_cell_setting 'monoclinic'
loop_
_space_group_symop_operation_xyz
x,y,z
-x,y,-z
-x,-y,-z
x,-y,z
1/2+x,1/2+y,z
1/2-x,1/2+y,-z
1/2-x,1/2-y,-z
1/2+x,1/2-y,z
loop_
_atom_site_type_symbol
_atom_site_label
_atom_site_fract_x
_atom_site_fract_y
_atom_site_fract_z
Si Si1 0.712182 0.311426 0.318709
Si Si2 0.826215 0.349564 0.651443
Si Si3 0.966273 0.418674 0.816104
Si Si4 0.307979 0.183512 0.916461
Si Si5 0.629200 0.331782 0.142528
Si Si6 0.736032 0.167258 0.515504
O O1 0.936564 0.339948 0.335594
O O2 0.732006 0.228137 0.330687
O O3 0.589652 0.326972 0.225462
O O4 0.645209 0.342231 0.388354
O O5 0.838627 0.401677 0.721622
O O6 0.717060 0.367205 0.556678
O O7 0.967338 0.500000 0.831039
O O8 0.198422 0.389462 0.843626
O O9 0.865668 0.374236 0.865553
O O10 0.280669 0.258717 0.873084
O O11 0.098233 0.161958 0.924867
O O12 0.500000 0.189903 0.000000
O O13 0.500000 0.152039 0.500000
O O14 0.750000 0.250000 0.500000
#
# Coordination Sequence:
#
# PCOD9220172 Si02
#       6
#     8   8   8   8   8   8
#     4   9  15  27  50  83 109 142 193 242 290 342
#     4   9  16  29  50  77 114 149 189 240 299 341
#     4  11  25  41  60  90 128 166 205 250 309 370
#     4  12  24  40  68  95 119 156 208 259 312 371
#     4  11  21  39  66  91 120 158 202 254 308 364
#     4   8  14  23  42  75 113 138 181 239 288 334
#
# _framework density 21.169159000000001
#
# number of rings (size 3 to 8) (size 9 to 14) (size 15 to 20)
#    0.000    2.000    3.333    1.500    0.000    1.000 
#    0.000    0.833    0.000   12.500    0.000    1.167 
#    0.000    0.000    0.000    0.000    0.000    0.000 
#
# Total GULP energy -133940.003375 kJ/mol
# GULP energy per Si atom -5580.833474 kJ/mol
# Density = 2.112098 g / cm^3
# Si number density = 21.169159 Si / 1000 Ang^3
#
#
#
# Elastic Constant Matrix: (Units=GPa)
#
#
# Indices 1 2 3 4 5 6 
#
# 1 64.9628 3.7392 10.8205 0.0000 5.1764 0.0000
# 2 3.7392 68.4164 19.2362 0.0000 -10.9778 0.0000
# 3 10.8205 19.2362 65.7726 0.0000 3.4580 0.0000
# 4 0.0000 0.0000 0.0000 -10.0572 0.0000 -4.3592
# 5 5.1764 -10.9778 3.4580 0.0000 38.0772 0.0000
# 6 0.0000 0.0000 0.0000 -4.3592 0.0000 14.2438
#
#
#
# Elastic Compliance Matrix: (Units=1/GPa)
#
#
# Indices 1 2 3 4 5 6 
#
# 1 0.015987 -0.000551 -0.002358 0.000000 -0.002118 0.000000
# 2 -0.000551 0.016969 -0.005158 0.000000 0.005435 0.000000
# 3 -0.002358 -0.005158 0.017244 0.000000 -0.002733 0.000000
# 4 0.000000 0.000000 0.000000 -0.087786 0.000000 -0.026866
# 5 -0.002118 0.005435 -0.002733 0.000000 0.028366 0.000000
# 6 0.000000 0.000000 0.000000 -0.026866 0.000000 0.061984
#
#
# Mechanical properties :
#
#
# Convention : Reuss Voigt Hill
#
# Bulk Modulus (GPa) = 29.35404 29.63817 29.49610
# Shear Modulus (GPa) = 62.30494 19.47649 40.89072
#
# Velocity S-wave (km/s) = 5.43101 3.03651 4.39979
# Velocity P-wave (km/s) = 7.29550 5.13078 6.30671
#
# Compressibility (1/GPa) = 0.03406686
#
# Stress axis : x y z
#
# Youngs Moduli (GPa) = 62.55244 58.93148 57.99134
#
# Poissons Ratio (x) = 0.03245 0.13672
# Poissons Ratio (y) = 0.03445 0.29912
# Poissons Ratio (z) = 0.14747 0.30397
#
# Static dielectric constant tensor:
#      x y z
#    x 1.816980 0.000000 0.017310 
#    y 0.000000 1.679410 0.000000 
#    z 0.017310 0.000000 1.906650 
# 
# From -- ./inp_files/300488.got.cif
#   From: 2010.05.17/outbox.cif.g08.bks.cpg/sg12_151_cif.got.tgz:300488.got - 2010.06.03 13:09:07.
