data_PCOD9220426
_publ_section_title
;
Structure prediction by ZEFSAII (Michael W. Deem and Ramdas Pophale) SiO2 
 PCOD9220426
Probable space group: C 2/M
;
_chemical_formula_sum "Si O2"
_cell_formula_units_Z 56
_cell_length_a 33.323707
_cell_length_b 8.437258
_cell_length_c 13.056481
_cell_angle_alpha 90.000000
_cell_angle_beta 124.042703
_cell_angle_gamma 90.000000
_cell_volume 3041.840856
_symmetry_space_group_name_H-M "C 2/M"
_symmetry_group_IT_number 12
_symmetry_cell_setting 'monoclinic'
loop_
_space_group_symop_operation_xyz
x,y,z
-x,y,-z
-x,-y,-z
x,-y,z
1/2+x,1/2+y,z
1/2-x,1/2+y,-z
1/2-x,1/2-y,-z
1/2+x,1/2-y,z
loop_
_atom_site_type_symbol
_atom_site_label
_atom_site_fract_x
_atom_site_fract_y
_atom_site_fract_z
Si Si1 0.147240 0.809007 0.736513
Si Si2 0.934854 0.808523 0.000361
Si Si3 0.044430 0.806910 0.198411
Si Si4 0.754110 0.308520 0.826085
Si Si5 0.225105 0.311180 0.567033
Si Si6 0.619564 0.308062 0.473800
Si Si7 0.357400 0.189033 0.051393
O O1 0.203364 0.755145 0.803733
O O2 0.119966 0.757886 0.593548
O O3 0.127112 0.747695 0.814568
O O4 0.146973 0.000000 0.738328
O O5 0.932122 0.759238 0.877088
O O6 0.933238 0.000000 0.000195
O O7 0.893127 0.744655 0.013279
O O8 0.988229 0.758606 0.115966
O O9 0.075497 0.752607 0.339775
O O10 0.044477 0.000000 0.199351
O O11 0.753740 0.500000 0.826655
O O12 0.752708 0.252552 0.706831
O O13 0.802762 0.251323 0.950392
O O14 0.225055 0.500000 0.568442
O O15 0.250000 0.250000 0.500000
O O16 0.170270 0.248471 0.498749
O O17 0.619781 0.500000 0.473470
O O18 0.356076 0.000000 0.049956
#
# Coordination Sequence:
#
# PCOD9220426 Si02
#       7
#     8   8   8   8   8   8   8
#     4   9  18  34  54  75 103 140 180 220 260 316
#     4   9  18  34  56  82 106 134 176 218 262 322
#     4   8  16  34  59  81 104 134 173 220 265 316
#     4   9  20  37  53  74 105 140 179 221 262 310
#     4  11  22  34  50  76 109 142 176 214 256 312
#     4   9  18  35  57  79 104 137 176 219 269 313
#     4  11  22  34  52  78 110 140 175 224 269 311
#
# _framework density 18.409904999999998
#
# number of rings (size 3 to 8) (size 9 to 14) (size 15 to 20)
#    0.000    2.571    0.000    3.857    2.000    3.429 
#    0.000    2.857    0.000    4.286    0.000    0.000 
#    0.000    0.000    0.000    0.000    0.000    0.000 
#
# Total GULP energy -156195.468382 kJ/mol
# GULP energy per Si atom -5578.409585 kJ/mol
# Density = 1.836800 g / cm^3
# Si number density = 18.409905 Si / 1000 Ang^3
#
#
#
# Elastic Constant Matrix: (Units=GPa)
#
#
# Indices 1 2 3 4 5 6 
#
# 1 57.7440 8.0881 48.2244 0.0000 -12.1161 0.0000
# 2 8.0881 6.2852 13.1148 0.0000 1.5875 0.0000
# 3 48.2244 13.1148 131.0297 0.0000 6.2010 0.0000
# 4 0.0000 0.0000 0.0000 13.2846 0.0000 -0.6518
# 5 -12.1161 1.5875 6.2010 0.0000 19.5148 0.0000
# 6 0.0000 0.0000 0.0000 -0.6518 0.0000 23.5418
#
#
#
# Elastic Compliance Matrix: (Units=1/GPa)
#
#
# Indices 1 2 3 4 5 6 
#
# 1 0.038485 -0.031151 -0.012485 0.000000 0.030395 0.000000
# 2 -0.031151 0.228304 -0.009738 0.000000 -0.034818 0.000000
# 3 -0.012485 -0.009738 0.013737 0.000000 -0.011324 0.000000
# 4 0.000000 0.000000 0.000000 0.075377 0.000000 0.002087
# 5 0.030395 -0.034818 -0.011324 0.000000 0.076545 0.000000
# 6 0.000000 0.000000 0.000000 0.002087 0.000000 0.042535
#
#
# Mechanical properties :
#
#
# Convention : Reuss Voigt Hill
#
# Bulk Modulus (GPa) = 5.75444 37.10149 21.42797
# Shear Modulus (GPa) = 7.81665 19.64367 13.73016
#
# Velocity S-wave (km/s) = 2.06279 3.27007 2.73390
# Velocity P-wave (km/s) = 2.96749 5.86980 4.65083
#
# Compressibility (1/GPa) = 0.17377873
#
# Stress axis : x y z
#
# Youngs Moduli (GPa) = 25.98393 4.38012 72.79396
#
# Poissons Ratio (x) = 0.13645 0.90881
# Poissons Ratio (y) = 0.80943 0.70889
# Poissons Ratio (z) = 0.32440 0.04266
#
# Static dielectric constant tensor:
#      x y z
#    x 1.605790 0.000000 0.010090 
#    y 0.000000 1.626740 0.000000 
#    z 0.010090 0.000000 1.650160 
# 
# From -- ./inp_files/180646.got.cif
#   From: 2010.05.17/outbox.cif.g08.bks.cpg/sg12_91_cif.got.tgz:180646.got - 2010.06.03 13:09:07.
