data_PCOD9220221
_publ_section_title
;
Structure prediction by ZEFSAII (Michael W. Deem and Ramdas Pophale) SiO2 
 PCOD9220221
Probable space group: C 2/M
;
_chemical_formula_sum "Si O2"
_cell_formula_units_Z 40
_cell_length_a 16.042291
_cell_length_b 21.609271
_cell_length_c 10.391850
_cell_angle_alpha 90.000000
_cell_angle_beta 32.176034
_cell_angle_gamma 90.000000
_cell_volume 1918.391128
_symmetry_space_group_name_H-M "C 2/M"
_symmetry_group_IT_number 12
_symmetry_cell_setting 'monoclinic'
loop_
_space_group_symop_operation_xyz
x,y,z
-x,y,-z
-x,-y,-z
x,-y,z
1/2+x,1/2+y,z
1/2-x,1/2+y,-z
1/2-x,1/2-y,-z
1/2+x,1/2-y,z
loop_
_atom_site_type_symbol
_atom_site_label
_atom_site_fract_x
_atom_site_fract_y
_atom_site_fract_z
Si Si1 0.860315 0.572898 0.342115
Si Si2 0.340754 0.317076 0.896513
Si Si3 0.808613 0.634911 0.153506
Si Si4 0.654966 0.871648 0.369908
Si Si5 0.675294 0.740187 0.460178
O O1 0.885816 0.500000 0.299355
O O2 0.768510 0.595978 0.334728
O O3 0.796866 0.589646 0.566877
O O4 0.025829 0.609044 0.111778
O O5 0.303899 0.359746 0.821201
O O6 0.522668 0.302016 0.665516
O O7 0.250000 0.250000 0.000000
O O8 0.282649 0.355256 0.095916
O O9 0.807229 0.705866 0.203888
O O10 0.500000 0.896777 0.500000
O O11 0.617050 0.803954 0.476509
O O12 0.750000 0.750000 0.500000
#
# Coordination Sequence:
#
# PCOD9220221 Si02
#       5
#     8   8   8   8   8
#     4  11  25  44  69  96 130 183 244 283 317 396
#     4  12  23  38  64  99 146 172 212 270 351 419
#     4  11  21  40  65  93 132 170 224 274 339 385
#     4  12  22  41  64 100 136 174 218 277 344 403
#     4  12  24  39  67 104 139 176 213 277 349 421
#
# _framework density 20.850805000000001
#
# number of rings (size 3 to 8) (size 9 to 14) (size 15 to 20)
#    0.000    0.400    8.000    1.800    2.800    1.200 
#    0.000    0.000    0.000   13.200    0.000    0.000 
#    0.000    0.000    0.000    0.000    0.000    0.000 
#
# Total GULP energy -111668.796839 kJ/mol
# GULP energy per Si atom -5583.439842 kJ/mol
# Density = 2.080335 g / cm^3
# Si number density = 20.850805 Si / 1000 Ang^3
#
#
#
# Elastic Constant Matrix: (Units=GPa)
#
#
# Indices 1 2 3 4 5 6 
#
# 1 181.6804 38.5459 65.1191 -0.0010 26.6214 -0.0007
# 2 38.5459 76.8645 33.8013 -0.0004 3.1605 0.0002
# 3 65.1191 33.8013 65.1895 -0.0017 6.1567 -0.0032
# 4 -0.0010 -0.0004 -0.0017 14.8170 0.0012 3.7762
# 5 26.6214 3.1605 6.1567 0.0012 43.4350 0.0019
# 6 -0.0007 0.0002 -0.0032 3.7762 0.0019 6.3218
#
#
#
# Elastic Compliance Matrix: (Units=1/GPa)
#
#
# Indices 1 2 3 4 5 6 
#
# 1 0.009393 -0.000759 -0.008565 0.000001 -0.004488 -0.000002
# 2 -0.000759 0.016914 -0.008047 0.000001 0.000375 -0.000005
# 3 -0.008565 -0.008047 0.027891 -0.000001 0.001882 0.000014
# 4 0.000001 0.000001 -0.000001 0.079609 0.000000 -0.047553
# 5 -0.004488 0.000375 0.001882 0.000000 0.025479 -0.000007
# 6 -0.000002 -0.000005 0.000014 -0.047553 -0.000007 0.186586
#
#
# Mechanical properties :
#
#
# Convention : Reuss Voigt Hill
#
# Bulk Modulus (GPa) = 51.40226 66.51855 58.96040
# Shear Modulus (GPa) = 12.91657 25.33265 19.12461
#
# Velocity S-wave (km/s) = 2.49163 3.48939 3.03184
# Velocity P-wave (km/s) = 5.74313 6.94305 6.37140
#
# Compressibility (1/GPa) = 0.01945440
#
# Stress axis : x y z
#
# Youngs Moduli (GPa) = 106.46472 59.12294 35.85441
#
# Poissons Ratio (x) = 0.04489 0.30710
# Poissons Ratio (y) = 0.08083 0.28852
# Poissons Ratio (z) = 0.91189 0.47577
#
# Static dielectric constant tensor:
#      x y z
#    x 1.805980 0.000000 0.031520 
#    y 0.000000 1.733590 0.000000 
#    z 0.031520 0.000000 1.781820 
# 
# From -- ./inp_files/159399.got.cif
#   From: 2010.05.17/outbox.cif.g08.bks.cpg/sg12_80_cif.got.tgz:159399.got - 2010.06.03 13:09:07.
