data_PCOD9220364
_publ_section_title
;
Structure prediction by ZEFSAII (Michael W. Deem and Ramdas Pophale) SiO2 
 PCOD9220364
Probable space group: C 2/M
;
_chemical_formula_sum "Si O2"
_cell_formula_units_Z 34
_cell_length_a 12.299615
_cell_length_b 14.443783
_cell_length_c 11.518733
_cell_angle_alpha 90.000000
_cell_angle_beta 45.321652
_cell_angle_gamma 90.000000
_cell_volume 1455.079191
_symmetry_space_group_name_H-M "C 2/M"
_symmetry_group_IT_number 12
_symmetry_cell_setting 'monoclinic'
loop_
_space_group_symop_operation_xyz
x,y,z
-x,y,-z
-x,-y,-z
x,-y,z
1/2+x,1/2+y,z
1/2-x,1/2+y,-z
1/2-x,1/2-y,-z
1/2+x,1/2-y,z
loop_
_atom_site_type_symbol
_atom_site_label
_atom_site_fract_x
_atom_site_fract_y
_atom_site_fract_z
Si Si1 0.375336 0.209080 0.814970
Si Si2 0.152275 0.862063 0.816810
Si Si3 0.500000 0.000000 0.000000
Si Si4 0.058285 0.104132 0.627993
Si Si5 0.840452 0.350197 0.251915
O O1 0.299639 0.131418 0.787796
O O2 0.449792 0.304586 0.707498
O O3 0.513078 0.154278 0.773145
O O4 0.250000 0.250000 0.000000
O O5 0.136866 0.896594 0.697378
O O6 0.159222 0.751646 0.798927
O O7 0.000000 0.890262 0.000000
O O8 0.625293 0.079386 0.874448
O O9 0.190734 0.123666 0.435716
O O10 0.994076 0.000000 0.658399
#
# Coordination Sequence:
#
# PCOD9220364 Si02
#       5
#     8   8   2   8   8
#     4  11  21  44  69  98 133 182 227 267 342 411
#     4  11  21  43  68  94 135 181 219 267 347 401
#     4  12  20  44  68  92 134 172 226 276 340 388
#     4  11  25  44  66 103 140 172 227 288 329 400
#     4  11  23  42  68  95 135 174 220 282 338 404
#
# _framework density 23.366426000000001
#
# number of rings (size 3 to 8) (size 9 to 14) (size 15 to 20)
#    0.000    0.941    7.059    2.824    0.000    4.235 
#   10.588    2.353    0.000    0.000    0.000    0.000 
#    0.000    0.000    0.000    0.000    0.000    0.000 
#
# Total GULP energy -94697.390382 kJ/mol
# GULP energy per Si atom -5570.434728 kJ/mol
# Density = 2.331324 g / cm^3
# Si number density = 23.366426 Si / 1000 Ang^3
#
#
#
# Elastic Constant Matrix: (Units=GPa)
#
#
# Indices 1 2 3 4 5 6 
#
# 1 92.0079 -11.6324 -10.3149 -0.0001 -14.1020 0.0000
# 2 -11.6324 109.7525 13.0868 0.0000 -5.0395 0.0000
# 3 -10.3149 13.0868 152.1843 -0.0001 -7.6247 0.0000
# 4 -0.0001 0.0000 -0.0001 5.0579 0.0001 -27.7787
# 5 -14.1020 -5.0395 -7.6247 0.0001 30.3692 0.0000
# 6 0.0000 0.0000 0.0000 -27.7787 0.0000 -22.7247
#
#
#
# Elastic Compliance Matrix: (Units=1/GPa)
#
#
# Indices 1 2 3 4 5 6 
#
# 1 0.012100 0.001443 0.001002 0.000000 0.006110 0.000000
# 2 0.001443 0.009433 -0.000609 0.000000 0.002083 0.000000
# 3 0.001002 -0.000609 0.006795 0.000000 0.002070 0.000000
# 4 0.000000 0.000000 0.000000 0.025631 0.000000 -0.031332
# 5 0.006110 0.002083 0.002070 0.000000 0.036631 0.000000
# 6 0.000000 0.000000 0.000000 -0.031332 0.000000 -0.005705
#
#
# Mechanical properties :
#
#
# Convention : Reuss Voigt Hill
#
# Bulk Modulus (GPa) = 31.24917 37.35818 34.30368
# Shear Modulus (GPa) = 54.41980 26.72749 40.57364
#
# Velocity S-wave (km/s) = 4.83118 3.38574 4.17154
# Velocity P-wave (km/s) = 6.67255 5.59527 6.15751
#
# Compressibility (1/GPa) = 0.03200085
#
# Stress axis : x y z
#
# Youngs Moduli (GPa) = 82.64515 106.01475 147.16718
#
# Poissons Ratio (x) = -0.15303 -0.14748
# Poissons Ratio (y) = -0.11930 0.08962
# Poissons Ratio (z) = -0.08282 0.06456
#
# Static dielectric constant tensor:
#      x y z
#    x 2.155500 0.000000 0.068920 
#    y 0.000000 1.827220 0.000000 
#    z 0.068920 0.000000 1.848980 
# 
# From -- ./inp_files/58278.got.cif
#   From: 2010.05.17/outbox.cif.g08.bks.cpg/sg12_30_cif.got.tgz:58278.got - 2010.06.03 13:09:07.
