data_PCOD9220534
_publ_section_title
;
Structure prediction by ZEFSAII (Michael W. Deem and Ramdas Pophale) SiO2 
 PCOD9220534
Probable space group: C 2/M
;
_chemical_formula_sum "Si O2"
_cell_formula_units_Z 56
_cell_length_a 29.494571
_cell_length_b 8.922481
_cell_length_c 22.206548
_cell_angle_alpha 90.000000
_cell_angle_beta 30.233168
_cell_angle_gamma 90.000000
_cell_volume 2942.562201
_symmetry_space_group_name_H-M "C 2/M"
_symmetry_group_IT_number 12
_symmetry_cell_setting 'monoclinic'
loop_
_space_group_symop_operation_xyz
x,y,z
-x,y,-z
-x,-y,-z
x,-y,z
1/2+x,1/2+y,z
1/2-x,1/2+y,-z
1/2-x,1/2-y,-z
1/2+x,1/2-y,z
loop_
_atom_site_type_symbol
_atom_site_label
_atom_site_fract_x
_atom_site_fract_y
_atom_site_fract_z
Si Si1 0.659323 0.822734 0.361664
Si Si2 0.710646 0.679061 0.984112
Si Si3 0.023995 0.322070 0.624826
Si Si4 0.524416 0.178749 0.874081
Si Si5 0.003060 0.822384 0.773688
Si Si6 0.146093 0.679314 0.850649
Si Si7 0.862827 0.821711 0.736032
O O1 0.604670 0.793346 0.485518
O O2 0.761449 0.767079 0.250192
O O3 0.616276 0.736157 0.354720
O O4 0.655699 0.000000 0.353495
O O5 0.724326 0.500000 0.968668
O O6 0.766958 0.753179 0.865731
O O7 0.750000 0.750000 0.000000
O O8 0.604498 0.709103 0.101912
O O9 0.007175 0.500000 0.646250
O O10 0.041901 0.260063 0.670697
O O11 0.936487 0.240525 0.697967
O O12 0.541105 0.263611 0.793070
O O13 0.597811 0.206665 0.841872
O O14 0.522256 0.000000 0.865789
O O15 0.427739 0.221053 0.014088
O O16 0.015316 0.000000 0.753695
O O17 0.162350 0.500000 0.837213
O O18 0.859768 0.000000 0.742077
#
# Coordination Sequence:
#
# PCOD9220534 Si02
#       7
#     8   8   8   8   8   8   8
#     4  11  24  40  59  85 114 150 195 241 291 344
#     4  11  22  36  56  84 118 152 188 235 285 337
#     4  11  24  41  59  79 113 156 196 241 289 341
#     4   9  19  37  62  90 119 150 186 229 287 347
#     4  11  23  37  57  87 118 151 194 236 285 344
#     4   9  19  38  63  90 117 148 188 235 284 342
#     4  12  24  38  59  86 115 153 196 239 288 344
#
# _framework density 19.031032
#
# number of rings (size 3 to 8) (size 9 to 14) (size 15 to 20)
#    0.000    1.429    1.429    5.143    0.000    9.143 
#    0.000    2.143    0.000    0.000    0.000    0.000 
#    0.000    0.000    0.000    0.000    0.000    0.000 
#
# Total GULP energy -156587.221879 kJ/mol
# GULP energy per Si atom -5592.400781 kJ/mol
# Density = 1.898772 g / cm^3
# Si number density = 19.031032 Si / 1000 Ang^3
#
#
#
# Elastic Constant Matrix: (Units=GPa)
#
#
# Indices 1 2 3 4 5 6 
#
# 1 63.5025 27.4521 23.7089 -0.0004 29.9807 0.0005
# 2 27.4521 57.7099 36.4936 -0.0027 20.0942 0.0022
# 3 23.7089 36.4936 65.9950 -0.0033 24.4917 0.0008
# 4 -0.0004 -0.0027 -0.0033 26.2928 0.0015 1.5367
# 5 29.9807 20.0942 24.4917 0.0015 34.8042 -0.0003
# 6 0.0005 0.0022 0.0008 1.5367 -0.0003 32.6322
#
#
#
# Elastic Compliance Matrix: (Units=1/GPa)
#
#
# Indices 1 2 3 4 5 6 
#
# 1 0.028324 -0.007065 0.001722 0.000001 -0.021531 0.000000
# 2 -0.007065 0.029648 -0.013213 0.000001 -0.001733 -0.000002
# 3 0.001722 -0.013213 0.026474 0.000003 -0.012484 0.000000
# 4 0.000001 0.000001 0.000003 0.038138 -0.000005 -0.001796
# 5 -0.021531 -0.001733 -0.012484 -0.000005 0.057065 0.000001
# 6 0.000000 -0.000002 0.000000 -0.001796 0.000001 0.030729
#
#
# Mechanical properties :
#
#
# Convention : Reuss Voigt Hill
#
# Bulk Modulus (GPa) = 21.12717 40.27965 30.70341
# Shear Modulus (GPa) = 18.99199 25.38268 22.18734
#
# Velocity S-wave (km/s) = 3.16246 3.65602 3.41816
# Velocity P-wave (km/s) = 4.94575 6.24765 5.63443
#
# Compressibility (1/GPa) = 0.04733242
#
# Stress axis : x y z
#
# Youngs Moduli (GPa) = 35.30556 33.72915 37.77333
#
# Poissons Ratio (x) = 0.23831 -0.06505
# Poissons Ratio (y) = 0.24945 0.49911
# Poissons Ratio (z) = -0.06080 0.44567
#
# Static dielectric constant tensor:
#      x y z
#    x 1.655390 0.000000 0.014620 
#    y 0.000000 1.632220 0.000000 
#    z 0.014620 0.000000 1.661520 
# 
# From -- ./inp_files/238962.got.cif
#   From: 2010.05.17/outbox.cif.g08.bks.cpg/sg12_120_cif.got.tgz:238962.got - 2010.06.03 13:09:07.
