data_PCOD9220925
_publ_section_title
;
Structure prediction by ZEFSAII (Michael W. Deem and Ramdas Pophale) SiO2 
 PCOD9220925
Probable space group: C 2/M
;
_chemical_formula_sum "Si O2"
_cell_formula_units_Z 48
_cell_length_a 21.781225
_cell_length_b 17.129744
_cell_length_c 18.081317
_cell_angle_alpha 90.000000
_cell_angle_beta 161.958111
_cell_angle_gamma 90.000000
_cell_volume 2089.399996
_symmetry_space_group_name_H-M "C 2/M"
_symmetry_group_IT_number 12
_symmetry_cell_setting 'monoclinic'
loop_
_space_group_symop_operation_xyz
x,y,z
-x,y,-z
-x,-y,-z
x,-y,z
1/2+x,1/2+y,z
1/2-x,1/2+y,-z
1/2-x,1/2-y,-z
1/2+x,1/2-y,z
loop_
_atom_site_type_symbol
_atom_site_label
_atom_site_fract_x
_atom_site_fract_y
_atom_site_fract_z
Si Si1 0.002819 0.142974 0.416317
Si Si2 0.291654 0.410417 0.731107
Si Si3 0.620228 0.087199 0.904850
Si Si4 0.597418 0.823188 0.727746
Si Si5 0.045255 0.834934 0.212751
Si Si6 0.314360 0.164521 0.660860
O O1 0.929978 0.231858 0.317556
O O2 0.000000 0.127947 0.500000
O O3 0.220658 0.137114 0.630146
O O4 0.842984 0.091001 0.190690
O O5 0.273813 0.500000 0.732699
O O6 0.330224 0.400104 0.687749
O O7 0.094819 0.364746 0.526351
O O8 0.500000 0.378173 0.000000
O O9 0.596377 0.151437 0.812877
O O10 0.475591 0.110131 0.806414
O O11 0.579687 0.000000 0.829284
O O12 0.811563 0.849438 0.943942
O O13 0.128556 0.830322 0.391098
O O14 0.096184 0.751690 0.233642
#
# Coordination Sequence:
#
# PCOD9220925 Si02
#       6
#     8   8   8   8   8   8
#     4  12  27  46  74 107 143 188 244 306 363 430
#     4  11  26  43  64 103 152 189 230 295 373 438
#     4  12  26  46  74 106 145 188 243 303 361 433
#     4  12  23  44  75 105 136 186 245 298 350 435
#     4  11  22  39  75  99 142 183 244 300 347 427
#     4  11  22  43  70 106 136 185 240 303 360 419
#
# _framework density 22.973102999999998
#
# number of rings (size 3 to 8) (size 9 to 14) (size 15 to 20)
#    0.000    0.500    6.667    2.000    2.333    3.000 
#    0.000    2.500    0.000    0.000    0.000    0.000 
#    0.000    0.000    0.000    0.000    0.000    0.000 
#
# Total GULP energy -134360.840790 kJ/mol
# GULP energy per Si atom -5598.368366 kJ/mol
# Density = 2.292081 g / cm^3
# Si number density = 22.973103 Si / 1000 Ang^3
#
#
#
# Elastic Constant Matrix: (Units=GPa)
#
#
# Indices 1 2 3 4 5 6 
#
# 1 104.9248 -21.4400 25.4493 0.0089 18.4656 0.0056
# 2 -21.4400 46.5574 26.2360 0.0141 -1.8654 0.0097
# 3 25.4493 26.2360 134.9028 0.0243 27.5455 0.0188
# 4 0.0089 0.0141 0.0243 32.8993 0.0142 -2.2560
# 5 18.4656 -1.8654 27.5455 0.0142 48.0383 0.0098
# 6 0.0056 0.0097 0.0188 -2.2560 0.0098 12.0645
#
#
#
# Elastic Compliance Matrix: (Units=1/GPa)
#
#
# Indices 1 2 3 4 5 6 
#
# 1 0.012270 0.007361 -0.003218 -0.000003 -0.002585 -0.000005
# 2 0.007361 0.029275 -0.007630 -0.000011 0.002682 -0.000019
# 3 -0.003218 -0.007630 0.010546 -0.000002 -0.005107 -0.000005
# 4 -0.000003 -0.000011 -0.000002 0.030791 -0.000008 0.005758
# 5 -0.002585 0.002682 -0.005107 -0.000008 0.024843 -0.000015
# 6 -0.000005 -0.000019 -0.000005 0.005758 -0.000015 0.083964
#
#
# Mechanical properties :
#
#
# Convention : Reuss Voigt Hill
#
# Bulk Modulus (GPa) = 22.16463 38.54176 30.35320
# Shear Modulus (GPa) = 23.39683 35.67641 29.53662
#
# Velocity S-wave (km/s) = 3.19477 3.94504 3.58956
# Velocity P-wave (km/s) = 4.82470 6.12899 5.51553
#
# Compressibility (1/GPa) = 0.04511693
#
# Stress axis : x y z
#
# Youngs Moduli (GPa) = 81.49783 34.15832 94.81885
#
# Poissons Ratio (x) = -0.25142 0.30516
# Poissons Ratio (y) = -0.59987 0.72345
# Poissons Ratio (z) = 0.26229 0.26062
#
# Static dielectric constant tensor:
#      x y z
#    x 1.907540 0.000000 -0.051880 
#    y 0.000000 1.809450 -0.000010 
#    z -0.051880 -0.000010 1.885950 
# 
# From -- ./inp_files/285449.got.cif
#   From: 2010.05.17/outbox.cif.g08.bks.cpg/sg12_143_cif.got.tgz:285449.got - 2010.06.03 13:09:07.
