data_PCOD9220294
_publ_section_title
;
Structure prediction by ZEFSAII (Michael W. Deem and Ramdas Pophale) SiO2 
 PCOD9220294
Probable space group: C 2/M
;
_chemical_formula_sum "Si O2"
_cell_formula_units_Z 36
_cell_length_a 20.360991
_cell_length_b 13.803398
_cell_length_c 11.737824
_cell_angle_alpha 90.000000
_cell_angle_beta 32.062088
_cell_angle_gamma 90.000000
_cell_volume 1751.194821
_symmetry_space_group_name_H-M "C 2/M"
_symmetry_group_IT_number 12
_symmetry_cell_setting 'monoclinic'
loop_
_space_group_symop_operation_xyz
x,y,z
-x,y,-z
-x,-y,-z
x,-y,z
1/2+x,1/2+y,z
1/2-x,1/2+y,-z
1/2-x,1/2-y,-z
1/2+x,1/2-y,z
loop_
_atom_site_type_symbol
_atom_site_label
_atom_site_fract_x
_atom_site_fract_y
_atom_site_fract_z
Si Si1 0.774477 0.500000 0.285059
Si Si2 0.727519 0.786084 0.659786
Si Si3 0.530196 0.500000 0.767378
Si Si4 0.000000 0.159300 0.000000
Si Si5 0.581901 0.165909 0.492524
Si Si6 0.744220 0.000000 0.149162
Si Si7 0.582453 0.000000 0.161756
O O1 0.809313 0.398184 0.289476
O O2 0.626118 0.500000 0.522987
O O3 0.839079 0.500000 0.067978
O O4 0.750000 0.750000 0.500000
O O5 0.611652 0.725955 0.877655
O O6 0.850643 0.757665 0.550201
O O7 0.546123 0.591143 0.829178
O O8 0.390204 0.500000 0.931390
O O9 0.500000 0.188171 0.500000
O O10 0.690710 0.093441 0.292502
O O11 0.500258 0.097222 0.696691
O O12 0.679304 0.000000 0.122855
#
# Coordination Sequence:
#
# PCOD9220294 Si02
#       7
#     4   8   4   4   8   4   4
#     4  12  28  42  59 100 135 171 216 277 346 381
#     4  12  26  45  65  98 133 173 219 279 336 396
#     4  11  21  41  68  97 131 176 225 264 319 406
#     4  11  24  43  68  92 132 181 222 261 330 404
#     4   9  20  44  73  95 126 180 227 261 320 407
#     4   9  17  41  73  96 125 176 231 261 315 404
#     4   9  22  41  69 101 132 169 216 279 330 381
#
# _framework density 20.557392
#
# number of rings (size 3 to 8) (size 9 to 14) (size 15 to 20)
#    0.000    1.556    4.444    1.333    3.111    2.667 
#    4.000    2.222    0.000    0.000    0.000    0.000 
#    0.000    0.000    0.000    0.000    0.000    0.000 
#
# Total GULP energy -100474.654342 kJ/mol
# GULP energy per Si atom -5581.925241 kJ/mol
# Density = 2.051060 g / cm^3
# Si number density = 20.557392 Si / 1000 Ang^3
#
#
#
# Elastic Constant Matrix: (Units=GPa)
#
#
# Indices 1 2 3 4 5 6 
#
# 1 56.8076 40.5725 31.7778 0.0000 -6.8440 0.0000
# 2 40.5725 143.6013 30.0303 0.0000 3.7647 0.0000
# 3 31.7778 30.0303 135.4498 0.0000 9.3090 0.0000
# 4 0.0000 0.0000 0.0000 6.1551 0.0000 -0.3603
# 5 -6.8440 3.7647 9.3090 0.0000 42.1390 0.0000
# 6 0.0000 0.0000 0.0000 -0.3603 0.0000 21.8884
#
#
#
# Elastic Compliance Matrix: (Units=1/GPa)
#
#
# Indices 1 2 3 4 5 6 
#
# 1 0.025645 -0.006351 -0.005010 0.000000 0.005839 0.000000
# 2 -0.006351 0.008879 -0.000359 0.000000 -0.001746 0.000000
# 3 -0.005010 -0.000359 0.008825 0.000000 -0.002731 0.000000
# 4 0.000000 0.000000 0.000000 0.162624 0.000000 0.002677
# 5 0.005839 -0.001746 -0.002731 0.000000 0.025439 0.000000
# 6 0.000000 0.000000 0.000000 0.002677 0.000000 0.045730
#
#
# Mechanical properties :
#
#
# Convention : Reuss Voigt Hill
#
# Bulk Modulus (GPa) = 50.22463 60.06889 55.14676
# Shear Modulus (GPa) = 16.27506 29.60171 22.93839
#
# Velocity S-wave (km/s) = 2.81675 3.79879 3.34402
# Velocity P-wave (km/s) = 5.92142 6.96596 6.46482
#
# Compressibility (1/GPa) = 0.01991055
#
# Stress axis : x y z
#
# Youngs Moduli (GPa) = 38.99352 112.62674 113.30983
#
# Poissons Ratio (x) = 0.71531 0.56766
# Poissons Ratio (y) = 0.24765 0.04062
# Poissons Ratio (z) = 0.19535 0.04038
#
# Static dielectric constant tensor:
#      x y z
#    x 1.729870 0.000000 0.007230 
#    y 0.000000 1.757520 0.000000 
#    z 0.007230 0.000000 1.756940 
# 
# From -- ./inp_files/129479.got.cif
#   From: 2010.05.17/outbox.cif.g08.bks.cpg/sg12_65_cif.got.tgz:129479.got - 2010.06.03 13:09:07.
