data_PCOD9220858
_publ_section_title
;
Structure prediction by ZEFSAII (Michael W. Deem and Ramdas Pophale) SiO2 
 PCOD9220858
Probable space group: C 2/M
;
_chemical_formula_sum "Si O2"
_cell_formula_units_Z 56
_cell_length_a 18.663171
_cell_length_b 15.016778
_cell_length_c 14.732227
_cell_angle_alpha 90.000000
_cell_angle_beta 142.141994
_cell_angle_gamma 90.000000
_cell_volume 2533.911570
_symmetry_space_group_name_H-M "C 2/M"
_symmetry_group_IT_number 12
_symmetry_cell_setting 'monoclinic'
loop_
_space_group_symop_operation_xyz
x,y,z
-x,y,-z
-x,-y,-z
x,-y,z
1/2+x,1/2+y,z
1/2-x,1/2+y,-z
1/2-x,1/2-y,-z
1/2+x,1/2-y,z
loop_
_atom_site_type_symbol
_atom_site_label
_atom_site_fract_x
_atom_site_fract_y
_atom_site_fract_z
Si Si1 0.031262 0.897920 0.887501
Si Si2 0.429741 0.403544 0.281171
Si Si3 0.532068 0.100282 0.257701
Si Si4 0.323915 0.745148 0.665438
Si Si5 0.290728 0.285873 0.826452
Si Si6 0.665533 0.905072 0.081271
Si Si7 0.535359 0.211428 0.635543
O O1 0.090818 0.895936 0.847437
O O2 0.924081 0.830278 0.767247
O O3 0.996508 0.000000 0.870919
O O4 0.119068 0.861157 0.051696
O O5 0.488366 0.500000 0.356398
O O6 0.496232 0.315610 0.380409
O O7 0.304188 0.405308 0.203322
O O8 0.613299 0.158810 0.273097
O O9 0.406082 0.095511 0.083832
O O10 0.515899 0.152116 0.335686
O O11 0.576155 0.000000 0.314650
O O12 0.250000 0.750000 0.500000
O O13 0.251894 0.718438 0.682820
O O14 0.177250 0.291355 0.776629
O O15 0.357603 0.191593 0.901425
O O16 0.635350 0.000000 0.097546
O O17 0.500000 0.181700 0.500000
#
# Coordination Sequence:
#
# PCOD9220858 Si02
#       7
#     8   8   8   8   8   8   8
#     4  11  23  42  69  96 126 169 222 273 324 387
#     4   9  18  35  63  96 128 161 208 268 326 385
#     4  11  23  41  65  91 127 169 215 265 324 390
#     4  12  26  44  63  91 133 175 215 265 331 395
#     4  11  23  39  66  96 129 169 217 274 322 387
#     4   9  18  35  62  96 123 152 205 268 321 374
#     4  11  22  39  63  96 133 174 214 266 330 395
#
# _framework density 22.100218000000002
#
# number of rings (size 3 to 8) (size 9 to 14) (size 15 to 20)
#    0.000    1.429    2.857    2.143    0.000    6.857 
#    0.000    2.857    0.000    0.000    0.000    0.000 
#    0.000    0.000    0.000    0.000    0.000    0.000 
#
# Total GULP energy -156290.931531 kJ/mol
# GULP energy per Si atom -5581.818983 kJ/mol
# Density = 2.204992 g / cm^3
# Si number density = 22.100218 Si / 1000 Ang^3
#
#
#
# Elastic Constant Matrix: (Units=GPa)
#
#
# Indices 1 2 3 4 5 6 
#
# 1 64.8669 18.2533 -9.7239 0.0000 -7.8419 0.0000
# 2 18.2533 150.9692 18.3639 0.0000 5.6185 0.0000
# 3 -9.7239 18.3639 61.0597 0.0000 -9.6588 0.0000
# 4 0.0000 0.0000 0.0000 2.0640 0.0000 -0.9116
# 5 -7.8419 5.6185 -9.6588 0.0000 29.1084 0.0000
# 6 0.0000 0.0000 0.0000 -0.9116 0.0000 6.5801
#
#
#
# Elastic Compliance Matrix: (Units=1/GPa)
#
#
# Indices 1 2 3 4 5 6 
#
# 1 0.017835 -0.003007 0.004851 0.000000 0.006995 0.000000
# 2 -0.003007 0.007509 -0.003266 0.000000 -0.003343 0.000000
# 3 0.004851 -0.003266 0.019460 0.000000 0.008395 0.000000
# 4 0.000000 0.000000 0.000000 0.516062 0.000000 0.071494
# 5 0.006995 -0.003343 0.008395 0.000000 0.039670 0.000000
# 6 0.000000 0.000000 0.000000 0.071494 0.000000 0.161877
#
#
# Mechanical properties :
#
#
# Convention : Reuss Voigt Hill
#
# Bulk Modulus (GPa) = 23.83178 36.74250 30.28714
# Shear Modulus (GPa) = 6.41648 24.21735 15.31691
#
# Velocity S-wave (km/s) = 1.70577 3.31387 2.63547
# Velocity P-wave (km/s) = 3.83229 5.59498 4.79533
#
# Compressibility (1/GPa) = 0.04196078
#
# Stress axis : x y z
#
# Youngs Moduli (GPa) = 56.06914 133.17126 51.38707
#
# Poissons Ratio (x) = 0.40042 -0.24928
# Poissons Ratio (y) = 0.16859 0.16783
# Poissons Ratio (z) = -0.27200 0.43495
#
# Static dielectric constant tensor:
#      x y z
#    x 1.840080 0.000000 -0.007630 
#    y 0.000000 1.842470 0.000000 
#    z -0.007630 0.000000 1.819910 
# 
# From -- ./inp_files/233766.got.cif
#   From: 2010.05.17/outbox.cif.g08.bks.cpg/sg12_117_cif.got.tgz:233766.got - 2010.06.03 13:09:07.
