data_PCOD9220928
_publ_section_title
;
Structure prediction by ZEFSAII (Michael W. Deem and Ramdas Pophale) SiO2 
 PCOD9220928
Probable space group: C 2/M
;
_chemical_formula_sum "Si O2"
_cell_formula_units_Z 40
_cell_length_a 9.575063
_cell_length_b 14.932867
_cell_length_c 13.898583
_cell_angle_alpha 90.000000
_cell_angle_beta 78.630346
_cell_angle_gamma 90.000000
_cell_volume 1948.264472
_symmetry_space_group_name_H-M "C 2/M"
_symmetry_group_IT_number 12
_symmetry_cell_setting 'monoclinic'
loop_
_space_group_symop_operation_xyz
x,y,z
-x,y,-z
-x,-y,-z
x,-y,z
1/2+x,1/2+y,z
1/2-x,1/2+y,-z
1/2-x,1/2-y,-z
1/2+x,1/2-y,z
loop_
_atom_site_type_symbol
_atom_site_label
_atom_site_fract_x
_atom_site_fract_y
_atom_site_fract_z
Si Si1 0.371481 0.000000 0.798653
Si Si2 0.362915 0.174503 0.465330
Si Si3 0.879950 0.851589 0.773763
Si Si4 0.209101 0.500000 0.404834
Si Si5 0.530135 0.500000 0.883395
Si Si6 0.029207 0.000000 0.381258
Si Si7 0.439430 0.831206 0.234365
O O1 0.458163 0.910932 0.816399
O O2 0.376753 0.000000 0.681562
O O3 0.203190 0.000000 0.847330
O O4 0.500000 0.211489 0.500000
O O5 0.250000 0.250000 0.500000
O O6 0.321614 0.085578 0.527334
O O7 0.393738 0.153294 0.351194
O O8 0.710938 0.829921 0.802678
O O9 0.971031 0.760730 0.769420
O O10 0.949977 0.915993 0.844355
O O11 0.898891 0.910427 0.672165
O O12 0.373630 0.500000 0.355235
O O13 0.500000 0.500000 0.000000
O O14 0.000000 0.000000 0.500000
#
# Coordination Sequence:
#
# PCOD9220928 Si02
#       7
#     4   8   8   4   4   4   8
#     4  12  23  45  69  95 133 180 227 288 342 400
#     4  12  24  37  58  93 138 190 241 270 314 386
#     4  11  24  43  68 101 137 177 228 279 343 409
#     4  12  22  40  57  88 134 188 235 274 326 382
#     4  11  26  52  79 102 130 168 220 292 362 422
#     4  11  22  40  59  91 138 184 237 281 330 393
#     4  12  24  41  67 101 143 184 226 279 335 398
#
# _framework density 20.531094
#
# number of rings (size 3 to 8) (size 9 to 14) (size 15 to 20)
#    0.000    0.400    4.000    6.900    0.000    1.600 
#    0.000    6.000    0.000    0.000    0.000    0.000 
#    0.000    0.000    0.000    0.000    0.000    0.000 
#
# Total GULP energy -111749.214191 kJ/mol
# GULP energy per Si atom -5587.460710 kJ/mol
# Density = 2.048436 g / cm^3
# Si number density = 20.531094 Si / 1000 Ang^3
#
#
#
# Elastic Constant Matrix: (Units=GPa)
#
#
# Indices 1 2 3 4 5 6 
#
# 1 219.7286 97.2952 36.7330 0.0000 8.6172 0.0000
# 2 97.2952 173.9282 42.8341 0.0000 -4.8753 0.0000
# 3 36.7330 42.8341 86.6457 0.0000 -1.6161 0.0000
# 4 0.0000 0.0000 0.0000 2.8082 0.0000 -0.1760
# 5 8.6172 -4.8753 -1.6161 0.0000 16.5955 0.0000
# 6 0.0000 0.0000 0.0000 -0.1760 0.0000 38.2033
#
#
#
# Elastic Compliance Matrix: (Units=1/GPa)
#
#
# Indices 1 2 3 4 5 6 
#
# 1 0.006442 -0.003456 -0.001106 0.000000 -0.004468 0.000000
# 2 -0.003456 0.008444 -0.002634 0.000000 0.004019 0.000000
# 3 -0.001106 -0.002634 0.013333 0.000000 0.001099 0.000000
# 4 0.000000 0.000000 0.000000 0.356203 0.000000 0.001641
# 5 -0.004468 0.004019 0.001099 0.000000 0.063865 0.000000
# 6 0.000000 0.000000 0.000000 0.001641 0.000000 0.026183
#
#
# Mechanical properties :
#
#
# Convention : Reuss Voigt Hill
#
# Bulk Modulus (GPa) = 72.32588 92.66969 82.49779
# Shear Modulus (GPa) = 10.13230 31.75075 20.94153
#
# Velocity S-wave (km/s) = 2.22392 3.93679 3.19719
# Velocity P-wave (km/s) = 6.47290 8.11780 7.34156
#
# Compressibility (1/GPa) = 0.01382631
#
# Stress axis : x y z
#
# Youngs Moduli (GPa) = 155.24149 118.42158 75.00355
#
# Poissons Ratio (x) = 0.40931 0.08292
# Poissons Ratio (y) = 0.53657 0.19758
# Poissons Ratio (z) = 0.17162 0.31196
#
# Static dielectric constant tensor:
#      x y z
#    x 1.746210 0.000000 0.021410 
#    y 0.000000 1.753290 0.000000 
#    z 0.021410 0.000000 1.705290 
# 
# From -- ./inp_files/194654.got.cif
#   From: 2010.05.17/outbox.cif.g08.bks.cpg/sg12_98_cif.got.tgz:194654.got - 2010.06.03 13:09:07.
