data_PCOD9220672
_publ_section_title
;
Structure prediction by ZEFSAII (Michael W. Deem and Ramdas Pophale) SiO2 
 PCOD9220672
Probable space group: C 2/M
;
_chemical_formula_sum "Si O2"
_cell_formula_units_Z 56
_cell_length_a 13.987479
_cell_length_b 16.130871
_cell_length_c 21.832160
_cell_angle_alpha 90.000000
_cell_angle_beta 32.392671
_cell_angle_gamma 90.000000
_cell_volume 2638.948099
_symmetry_space_group_name_H-M "C 2/M"
_symmetry_group_IT_number 12
_symmetry_cell_setting 'monoclinic'
loop_
_space_group_symop_operation_xyz
x,y,z
-x,y,-z
-x,-y,-z
x,-y,z
1/2+x,1/2+y,z
1/2-x,1/2+y,-z
1/2-x,1/2-y,-z
1/2+x,1/2-y,z
loop_
_atom_site_type_symbol
_atom_site_label
_atom_site_fract_x
_atom_site_fract_y
_atom_site_fract_z
Si Si1 0.268270 0.408413 0.781490
Si Si2 0.536514 0.248343 0.183411
Si Si3 0.953525 0.403575 0.322145
Si Si4 0.550050 0.212240 0.034861
Si Si5 0.570316 0.136718 0.532454
Si Si6 0.581732 0.586554 0.706032
Si Si7 0.061936 0.168593 0.535557
O O1 0.239089 0.500000 0.771372
O O2 0.080772 0.367184 0.899169
O O3 0.393974 0.415066 0.772847
O O4 0.395189 0.357328 0.667485
O O5 0.515900 0.167191 0.238573
O O6 0.504679 0.235719 0.128936
O O7 0.405697 0.323695 0.270619
O O8 0.736533 0.284316 0.081201
O O9 0.982230 0.500000 0.287986
O O10 0.029233 0.391219 0.351023
O O11 0.742702 0.383749 0.443130
O O12 0.500000 0.262628 0.000000
O O13 0.500000 0.123411 0.500000
O O14 0.757866 0.089256 0.428747
O O15 0.599333 0.234556 0.526249
O O16 0.597233 0.500000 0.734073
O O17 0.000000 0.159232 0.500000
#
# Coordination Sequence:
#
# PCOD9220672 Si02
#       7
#     8   8   8   8   8   8   8
#     4  11  23  39  65 102 134 169 224 287 353 409
#     4  11  25  45  67 101 132 179 233 277 345 412
#     4  12  24  42  68 100 144 181 219 279 341 410
#     4  11  25  44  69  93 130 179 224 286 345 405
#     4  11  24  40  65  99 143 190 229 261 325 410
#     4  11  22  41  67  98 134 174 227 283 331 401
#     4  11  22  37  64 101 136 177 219 276 344 416
#
# _framework density 21.220576999999999
#
# number of rings (size 3 to 8) (size 9 to 14) (size 15 to 20)
#    0.000    0.857    4.286    3.000    2.000    4.857 
#    0.000    2.143    0.000    0.857    0.000    0.000 
#    0.000    0.000    0.000    0.000    0.000    0.000 
#
# Total GULP energy -155896.733694 kJ/mol
# GULP energy per Si atom -5567.740489 kJ/mol
# Density = 2.117228 g / cm^3
# Si number density = 21.220577 Si / 1000 Ang^3
#
#
#
# Elastic Constant Matrix: (Units=GPa)
#
#
# Indices 1 2 3 4 5 6 
#
# 1 103.8111 37.7525 25.2711 -0.0035 23.6326 0.0131
# 2 37.7525 158.7013 70.3937 -0.0055 18.6144 0.0148
# 3 25.2711 70.3937 112.5264 -0.0174 13.7890 0.0525
# 4 -0.0035 -0.0055 -0.0174 -54.6354 0.0052 281.2865
# 5 23.6326 18.6144 13.7890 0.0052 43.4095 -0.0174
# 6 0.0131 0.0148 0.0525 281.2865 -0.0174-1067.9983
#
#
#
# Elastic Compliance Matrix: (Units=1/GPa)
#
#
# Indices 1 2 3 4 5 6 
#
# 1 0.011703 -0.001775 -0.000864 0.000000 -0.005336 0.000000
# 2 -0.001775 0.009176 -0.005180 0.000000 -0.001323 0.000000
# 3 -0.000864 -0.005180 0.012477 0.000002 -0.001272 0.000001
# 4 0.000000 0.000000 0.000002 0.051416 -0.000001 0.013542
# 5 -0.005336 -0.001323 -0.001272 -0.000001 0.026913 -0.000001
# 6 0.000000 0.000000 0.000001 0.013542 -0.000001 0.002630
#
#
# Mechanical properties :
#
#
# Convention : Reuss Voigt Hill
#
# Bulk Modulus (GPa) = 56.43604 71.31927 63.87765
# Shear Modulus (GPa) = 36.80278 -199.73675 -81.46699
#
# Velocity S-wave (km/s) = 4.16901 -9.71228 -6.20273
# Velocity P-wave (km/s) = 7.05881 9.59634 4.59689
#
# Compressibility (1/GPa) = 0.01771918
#
# Stress axis : x y z
#
# Youngs Moduli (GPa) = 85.44499 108.97997 80.14815
#
# Poissons Ratio (x) = 0.19343 0.06926
# Poissons Ratio (y) = 0.15166 0.41513
# Poissons Ratio (z) = 0.07384 0.56446
#
# Static dielectric constant tensor:
#      x y z
#    x 1.900020 0.000000 -0.562060 
#    y 0.000000 1.927290 -0.000010 
#    z -0.562060 -0.000010 14.839500 
# 
# From -- ./inp_files/340285.got.cif
#   From: 2010.05.17/outbox.cif.g08.bks.cpg/sg12_171_cif.got.tgz:340285.got - 2010.06.03 13:09:07.
