data_PCOD9220515
_publ_section_title
;
Structure prediction by ZEFSAII (Michael W. Deem and Ramdas Pophale) SiO2 
 PCOD9220515
Probable space group: C 2/M
;
_chemical_formula_sum "Si O2"
_cell_formula_units_Z 64
_cell_length_a 25.322164
_cell_length_b 29.396577
_cell_length_c 9.539503
_cell_angle_alpha 90.000000
_cell_angle_beta 147.941058
_cell_angle_gamma 90.000000
_cell_volume 3769.182840
_symmetry_space_group_name_H-M "C 2/M"
_symmetry_group_IT_number 12
_symmetry_cell_setting 'monoclinic'
loop_
_space_group_symop_operation_xyz
x,y,z
-x,y,-z
-x,-y,-z
x,-y,z
1/2+x,1/2+y,z
1/2-x,1/2+y,-z
1/2-x,1/2-y,-z
1/2+x,1/2-y,z
loop_
_atom_site_type_symbol
_atom_site_label
_atom_site_fract_x
_atom_site_fract_y
_atom_site_fract_z
Si Si1 0.902665 0.805324 0.878173
Si Si2 0.238267 0.643248 0.324702
Si Si3 0.552514 0.797123 0.974999
Si Si4 0.467662 0.552108 0.157698
Si Si5 0.412465 0.233881 0.412565
Si Si6 0.274144 0.321724 0.102947
Si Si7 0.913803 0.858817 0.195354
Si Si8 0.162833 0.947944 0.419540
O O1 0.811620 0.829061 0.593639
O O2 0.891253 0.751126 0.872181
O O3 0.917251 0.828029 0.063368
O O4 0.000000 0.812510 0.000000
O O5 0.272638 0.650574 0.242474
O O6 0.253053 0.590176 0.390142
O O7 0.129982 0.665275 0.098206
O O8 0.466273 0.785126 0.670666
O O9 0.500000 0.811312 0.000000
O O10 0.464958 0.500000 0.202912
O O11 0.431584 0.589741 0.184856
O O12 0.578801 0.561712 0.349136
O O13 0.396879 0.554878 0.861625
O O14 0.500000 0.243275 0.500000
O O15 0.347807 0.278928 0.293416
O O16 0.334573 0.198184 0.173363
O O17 0.314065 0.348932 0.058173
O O18 0.000000 0.847748 0.500000
O O19 0.196688 0.000000 0.513259
#
# Coordination Sequence:
#
# PCOD9220515 Si02
#       8
#     8   8   8   8   8   8   8   8
#     4  11  22  36  54  80 117 149 186 234 276 333
#     4  12  22  38  58  83 109 151 190 234 286 332
#     4  11  24  37  56  81 113 146 193 237 276 324
#     4   9  18  34  54  81 117 151 178 229 289 338
#     4  11  22  42  53  78 117 160 188 228 276 333
#     4  11  24  35  60  80 113 155 195 222 278 338
#     4  12  22  33  54  85 116 152 191 229 272 337
#     4   9  18  34  58  82 109 145 189 231 286 345
#
# _framework density 16.979807999999998
#
# number of rings (size 3 to 8) (size 9 to 14) (size 15 to 20)
#    0.000    1.250    2.500    6.750    3.500    0.250 
#    0.000    0.625    0.000    0.375    0.000    2.625 
#    0.000    0.000    0.000    0.000    0.000    0.000 
#
# Total GULP energy -178777.607940 kJ/mol
# GULP energy per Si atom -5586.800248 kJ/mol
# Density = 1.694116 g / cm^3
# Si number density = 16.979808 Si / 1000 Ang^3
#
#
#
# Elastic Constant Matrix: (Units=GPa)
#
#
# Indices 1 2 3 4 5 6 
#
# 1 94.7051 48.4353 33.8083 0.0000 -8.8816 0.0000
# 2 48.4353 111.2067 39.8237 0.0000 7.5317 0.0000
# 3 33.8083 39.8237 75.7577 0.0000 -0.5492 0.0000
# 4 0.0000 0.0000 0.0000 17.0044 0.0000 -1.9000
# 5 -8.8816 7.5317 -0.5492 0.0000 22.9926 0.0000
# 6 0.0000 0.0000 0.0000 -1.9000 0.0000 -10.1709
#
#
#
# Elastic Compliance Matrix: (Units=1/GPa)
#
#
# Indices 1 2 3 4 5 6 
#
# 1 0.015751 -0.006041 -0.003796 0.000000 0.007973 0.000000
# 2 -0.006041 0.013731 -0.004572 0.000000 -0.006941 0.000000
# 3 -0.003796 -0.004572 0.017301 0.000000 0.000445 0.000000
# 4 0.000000 0.000000 0.000000 0.057606 0.000000 -0.010761
# 5 0.007973 -0.006941 0.000445 0.000000 0.048856 0.000000
# 6 0.000000 0.000000 0.000000 -0.010761 0.000000 -0.096310
#
#
# Mechanical properties :
#
#
# Convention : Reuss Voigt Hill
#
# Bulk Modulus (GPa) = 55.66564 58.42269 57.04416
# Shear Modulus (GPa) = 54.50078 16.60539 35.55309
#
# Velocity S-wave (km/s) = 5.67160 3.13061 4.58082
# Velocity P-wave (km/s) = 8.70311 6.89561 7.85155
#
# Compressibility (1/GPa) = 0.01796440
#
# Stress axis : x y z
#
# Youngs Moduli (GPa) = 63.48605 72.82880 57.80095
#
# Poissons Ratio (x) = 0.43996 0.21941
# Poissons Ratio (y) = 0.38352 0.26428
# Poissons Ratio (z) = 0.24099 0.33299
#
# Static dielectric constant tensor:
#      x y z
#    x 1.593880 0.000000 -0.026810 
#    y 0.000000 1.577530 0.000000 
#    z -0.026810 0.000000 1.601860 
# 
# From -- ./inp_files/100243.got.cif
#   From: 2010.05.17/outbox.cif.g08.bks.cpg/sg12_51_cif.got.tgz:100243.got - 2010.06.03 13:09:07.
