data_PCOD9220211
_publ_section_title
;
Structure prediction by ZEFSAII (Michael W. Deem and Ramdas Pophale) SiO2 
 PCOD9220211
Probable space group: C 2/M
;
_chemical_formula_sum "Si O2"
_cell_formula_units_Z 56
_cell_length_a 27.819663
_cell_length_b 17.366526
_cell_length_c 9.813974
_cell_angle_alpha 90.000000
_cell_angle_beta 35.175629
_cell_angle_gamma 90.000000
_cell_volume 2731.467584
_symmetry_space_group_name_H-M "C 2/M"
_symmetry_group_IT_number 12
_symmetry_cell_setting 'monoclinic'
loop_
_space_group_symop_operation_xyz
x,y,z
-x,y,-z
-x,-y,-z
x,-y,z
1/2+x,1/2+y,z
1/2-x,1/2+y,-z
1/2-x,1/2-y,-z
1/2+x,1/2-y,z
loop_
_atom_site_type_symbol
_atom_site_label
_atom_site_fract_x
_atom_site_fract_y
_atom_site_fract_z
Si Si1 0.807843 0.154869 0.276126
Si Si2 0.166773 0.590095 0.404134
Si Si3 0.816191 0.686478 0.892420
Si Si4 0.687684 0.837118 0.781566
Si Si5 0.010919 0.332804 0.127479
Si Si6 0.008599 0.090747 0.140495
Si Si7 0.463998 0.292894 0.448382
O O1 0.735418 0.133725 0.336474
O O2 0.767924 0.132261 0.514526
O O3 0.819193 0.246925 0.245255
O O4 0.895987 0.114566 0.042608
O O5 0.174739 0.500000 0.407944
O O6 0.184568 0.614997 0.207979
O O7 0.072401 0.617540 0.655244
O O8 0.899464 0.734855 0.669202
O O9 0.750000 0.750000 0.000000
O O10 0.805388 0.661528 0.072470
O O11 0.600350 0.874322 0.934253
O O12 0.013140 0.267154 0.237818
O O13 0.000000 0.300599 0.000000
O O14 0.946172 0.140419 0.379900
O O15 0.996566 0.000000 0.187535
O O16 0.000000 0.108553 0.000000
O O17 0.500000 0.332792 0.500000
#
# Coordination Sequence:
#
# PCOD9220211 Si02
#       7
#     8   8   8   8   8   8   8
#     4  11  22  40  67  93 128 164 216 275 314 381
#     4  11  25  42  63  94 133 174 205 261 336 388
#     4  11  23  41  66  95 125 166 214 269 314 385
#     4  11  22  39  67 101 120 163 221 267 322 368
#     4  11  21  40  64  94 126 166 212 264 313 389
#     4  11  25  42  60  89 130 174 216 268 324 381
#     4  11  22  38  64  89 124 161 210 265 318 380
#
# _framework density 20.501798000000001
#
# number of rings (size 3 to 8) (size 9 to 14) (size 15 to 20)
#    0.000    1.000    5.714    0.857    2.000    0.571 
#    0.000    3.571    0.000    0.000    0.000    0.000 
#    0.000    0.000    0.000    0.000    0.000    0.000 
#
# Total GULP energy -156154.699812 kJ/mol
# GULP energy per Si atom -5576.953565 kJ/mol
# Density = 2.045514 g / cm^3
# Si number density = 20.501798 Si / 1000 Ang^3
#
#
#
# Elastic Constant Matrix: (Units=GPa)
#
#
# Indices 1 2 3 4 5 6 
#
# 1 83.5914 -15.1639 31.5526 0.0000 16.7499 0.0000
# 2 -15.1639 14.1076 -11.9433 0.0000 -1.7568 0.0000
# 3 31.5526 -11.9433 81.9021 0.0000 25.4364 0.0000
# 4 0.0000 0.0000 0.0000 14.7330 0.0000 -0.8008
# 5 16.7499 -1.7568 25.4364 0.0000 45.2460 0.0000
# 6 0.0000 0.0000 0.0000 -0.8008 0.0000 16.4599
#
#
#
# Elastic Compliance Matrix: (Units=1/GPa)
#
#
# Indices 1 2 3 4 5 6 
#
# 1 0.016554 0.014748 -0.003030 0.000000 -0.003852 0.000000
# 2 0.014748 0.094680 0.010515 0.000000 -0.007695 0.000000
# 3 -0.003030 0.010515 0.017489 0.000000 -0.008302 0.000000
# 4 0.000000 0.000000 0.000000 0.068055 0.000000 0.003311
# 5 -0.003852 -0.007695 -0.008302 0.000000 0.027896 0.000000
# 6 0.000000 0.000000 0.000000 0.003311 0.000000 0.060915
#
#
# Mechanical properties :
#
#
# Convention : Reuss Voigt Hill
#
# Bulk Modulus (GPa) = 5.77409 20.94355 13.35882
# Shear Modulus (GPa) = 16.73068 26.96483 21.84776
#
# Velocity S-wave (km/s) = 2.85977 3.63056 3.26797
# Velocity P-wave (km/s) = 3.70498 5.27374 4.55737
#
# Compressibility (1/GPa) = 0.17318753
#
# Stress axis : x y z
#
# Youngs Moduli (GPa) = 60.40809 10.56191 57.17977
#
# Poissons Ratio (x) = -0.15577 0.17328
# Poissons Ratio (y) = -0.89092 -0.60122
# Poissons Ratio (z) = 0.18306 -0.11105
#
# Static dielectric constant tensor:
#      x y z
#    x 1.705170 0.000000 0.040120 
#    y 0.000000 1.639290 0.000000 
#    z 0.040120 0.000000 1.737490 
# 
# From -- ./inp_files/105915.got.cif
#   From: 2010.05.17/outbox.cif.g08.bks.cpg/sg12_53_cif.got.tgz:105915.got - 2010.06.03 13:09:07.
