data_PCOD9220132
_publ_section_title
;
Structure prediction by ZEFSAII (Michael W. Deem and Ramdas Pophale) SiO2 
 PCOD9220132
Probable space group: C 2/M
;
_chemical_formula_sum "Si O2"
_cell_formula_units_Z 44
_cell_length_a 12.460978
_cell_length_b 25.760425
_cell_length_c 7.392836
_cell_angle_alpha 90.000000
_cell_angle_beta 52.831093
_cell_angle_gamma 90.000000
_cell_volume 1891.024296
_symmetry_space_group_name_H-M "C 2/M"
_symmetry_group_IT_number 12
_symmetry_cell_setting 'monoclinic'
loop_
_space_group_symop_operation_xyz
x,y,z
-x,y,-z
-x,-y,-z
x,-y,z
1/2+x,1/2+y,z
1/2-x,1/2+y,-z
1/2-x,1/2-y,-z
1/2+x,1/2-y,z
loop_
_atom_site_type_symbol
_atom_site_label
_atom_site_fract_x
_atom_site_fract_y
_atom_site_fract_z
Si Si1 0.517506 0.412455 0.693188
Si Si2 0.411131 0.301599 0.921703
Si Si3 0.187151 0.000000 0.081084
Si Si4 0.101387 0.585791 0.136620
Si Si5 0.390203 0.191864 0.761196
Si Si6 0.189724 0.561241 0.457605
O O1 0.500000 0.426964 0.500000
O O2 0.464378 0.354411 0.778672
O O3 0.418101 0.454308 0.883164
O O4 0.671947 0.416903 0.601559
O O5 0.412167 0.251099 0.796147
O O6 0.500000 0.288342 0.000000
O O7 0.262164 0.310396 0.149044
O O8 0.292049 0.045701 0.052912
O O9 0.106554 0.647009 0.088233
O O10 0.147354 0.581978 0.302713
O O11 0.945449 0.568834 0.285815
O O12 0.500000 0.179008 0.500000
O O13 0.210796 0.500000 0.403644
#
# Coordination Sequence:
#
# PCOD9220132 Si02
#       6
#     8   8   4   8   8   8
#     4  12  27  46  66 102 142 186 224 283 348 408
#     4  11  26  46  73 102 131 180 234 282 338 408
#     4  12  23  40  71  97 144 178 229 280 337 413
#     4  11  21  40  66 106 130 181 228 284 330 404
#     4  11  23  45  69 100 142 174 224 285 343 402
#     4  11  21  38  68  99 140 175 231 271 342 402
#
# _framework density 23.267814000000001
#
# number of rings (size 3 to 8) (size 9 to 14) (size 15 to 20)
#    0.000    0.727    6.364    2.455    0.000    1.455 
#    6.545    1.818    0.000    0.000    0.000    0.000 
#    0.000    0.000    0.000    0.000    0.000    0.000 
#
# Total GULP energy -122477.974651 kJ/mol
# GULP energy per Si atom -5567.180666 kJ/mol
# Density = 2.321486 g / cm^3
# Si number density = 23.267814 Si / 1000 Ang^3
#
#
#
# Elastic Constant Matrix: (Units=GPa)
#
#
# Indices 1 2 3 4 5 6 
#
# 1 157.8388 17.8805 49.8124 0.0000 -62.4252 0.0000
# 2 17.8805 222.4023 24.1963 0.0000 -21.5863 0.0000
# 3 49.8124 24.1963 71.2010 0.0000 -43.4494 0.0000
# 4 0.0000 0.0000 0.0000 -17.5779 0.0000 -19.3171
# 5 -62.4252 -21.5863 -43.4494 0.0000 55.8745 0.0000
# 6 0.0000 0.0000 0.0000 -19.3171 0.0000 31.1337
#
#
#
# Elastic Compliance Matrix: (Units=1/GPa)
#
#
# Indices 1 2 3 4 5 6 
#
# 1 0.011383 0.000347 -0.000455 0.000000 0.012498 0.000000
# 2 0.000347 0.004714 -0.000946 0.000000 0.001474 0.000000
# 3 -0.000455 -0.000946 0.026931 0.000000 0.020069 0.000000
# 4 0.000000 0.000000 0.000000 -0.033826 0.000000 -0.020987
# 5 0.012498 0.001474 0.020069 0.000000 0.048035 0.000000
# 6 0.000000 0.000000 0.000000 -0.020987 0.000000 0.019098
#
#
# Mechanical properties :
#
#
# Convention : Reuss Voigt Hill
#
# Bulk Modulus (GPa) = 24.43684 70.58006 47.50845
# Shear Modulus (GPa) = 54.29944 37.85625 46.07784
#
# Velocity S-wave (km/s) = 4.83605 4.03796 4.45491
# Velocity P-wave (km/s) = 6.45820 7.22079 6.85012
#
# Compressibility (1/GPa) = 0.04092181
#
# Stress axis : x y z
#
# Youngs Moduli (GPa) = 87.85389 212.11694 37.13201
#
# Poissons Ratio (x) = -0.07368 0.01689
# Poissons Ratio (y) = -0.03052 0.03511
# Poissons Ratio (z) = 0.03996 0.20056
#
# Static dielectric constant tensor:
#      x y z
#    x 1.849150 0.000000 0.030870 
#    y 0.000000 1.688790 0.000000 
#    z 0.030870 0.000000 1.963770 
# 
# From -- ./inp_files/52998.got.cif
#   From: 2010.05.17/outbox.cif.g08.bks.cpg/sg12_27_cif.got.tgz:52998.got - 2010.06.03 13:09:07.
