data_PCOD9220620
_publ_section_title
;
Structure prediction by ZEFSAII (Michael W. Deem and Ramdas Pophale) SiO2 
 PCOD9220620
Probable space group: C 2/M
;
_chemical_formula_sum "Si O2"
_cell_formula_units_Z 40
_cell_length_a 14.159026
_cell_length_b 29.133097
_cell_length_c 9.816716
_cell_angle_alpha 90.000000
_cell_angle_beta 151.623693
_cell_angle_gamma 90.000000
_cell_volume 1924.499951
_symmetry_space_group_name_H-M "C 2/M"
_symmetry_group_IT_number 12
_symmetry_cell_setting 'monoclinic'
loop_
_space_group_symop_operation_xyz
x,y,z
-x,y,-z
-x,-y,-z
x,-y,z
1/2+x,1/2+y,z
1/2-x,1/2+y,-z
1/2-x,1/2-y,-z
1/2+x,1/2-y,z
loop_
_atom_site_type_symbol
_atom_site_label
_atom_site_fract_x
_atom_site_fract_y
_atom_site_fract_z
Si Si1 0.621254 0.619595 0.295299
Si Si2 0.406573 0.223529 0.232816
Si Si3 0.951323 0.617398 0.277905
Si Si4 0.911467 0.946782 0.236612
Si Si5 0.582343 0.725490 0.256843
O O1 0.848287 0.611571 0.549788
O O2 0.546019 0.582152 0.304514
O O3 0.596308 0.671846 0.313834
O O4 0.500000 0.616688 0.000000
O O5 0.500000 0.231770 0.500000
O O6 0.380035 0.169806 0.167127
O O7 0.349626 0.264249 0.048273
O O8 0.649033 0.231870 0.445795
O O9 0.000000 0.612945 0.500000
O O10 0.795671 0.579832 0.034068
O O11 0.000000 0.944663 0.500000
O O12 0.893675 0.000000 0.173980
O O13 0.500000 0.733222 0.000000
#
# Coordination Sequence:
#
# PCOD9220620 Si02
#       5
#     8   8   8   8   8
#     4  11  23  44  70  96 136 176 219 273 328 391
#     4  11  23  38  60  90 131 177 220 262 317 384
#     4  11  23  44  69  98 132 177 226 274 324 393
#     4  11  27  48  69  99 134 165 214 285 346 399
#     4  11  22  37  58  91 130 166 211 263 310 372
#
# _framework density 20.784618999999999
#
# number of rings (size 3 to 8) (size 9 to 14) (size 15 to 20)
#    0.000    1.000    4.000    2.400    5.600    7.200 
#    0.000    2.000    0.000    0.000    0.000    0.000 
#    0.000    0.000    0.000    0.000    0.000    0.000 
#
# Total GULP energy -111648.275235 kJ/mol
# GULP energy per Si atom -5582.413762 kJ/mol
# Density = 2.073731 g / cm^3
# Si number density = 20.784619 Si / 1000 Ang^3
#
#
#
# Elastic Constant Matrix: (Units=GPa)
#
#
# Indices 1 2 3 4 5 6 
#
# 1 155.9562 102.2669 50.5270 0.0000 29.7493 0.0000
# 2 102.2669 217.4332 111.4990 0.0000 1.1718 0.0000
# 3 50.5270 111.4990 136.2662 0.0000 36.7674 0.0000
# 4 0.0000 0.0000 0.0000 41.3550 0.0000 3.0753
# 5 29.7493 1.1718 36.7674 0.0000 40.4237 0.0000
# 6 0.0000 0.0000 0.0000 3.0753 0.0000 38.7068
#
#
#
# Elastic Compliance Matrix: (Units=1/GPa)
#
#
# Indices 1 2 3 4 5 6 
#
# 1 0.014299 -0.011029 0.008581 0.000000 -0.018009 0.000000
# 2 -0.011029 0.018628 -0.017490 0.000000 0.023484 0.000000
# 3 0.008581 -0.017490 0.026551 0.000000 -0.029957 0.000000
# 4 0.000000 0.000000 0.000000 0.024325 0.000000 -0.001933
# 5 -0.018009 0.023484 -0.029957 0.000000 0.064558 0.000000
# 6 0.000000 0.000000 0.000000 -0.001933 0.000000 0.025989
#
#
# Mechanical properties :
#
#
# Convention : Reuss Voigt Hill
#
# Bulk Modulus (GPa) = 51.01064 115.36016 83.18540
# Shear Modulus (GPa) = 22.64915 40.45463 31.55189
#
# Velocity S-wave (km/s) = 3.30465 4.41656 3.90043
# Velocity P-wave (km/s) = 6.25753 9.03499 7.77135
#
# Compressibility (1/GPa) = 0.01960375
#
# Stress axis : x y z
#
# Youngs Moduli (GPa) = 69.93428 53.68120 37.66385
#
# Poissons Ratio (x) = 0.59204 -0.32320
# Poissons Ratio (y) = 0.77129 0.65873
# Poissons Ratio (z) = -0.60013 0.93887
#
# Static dielectric constant tensor:
#      x y z
#    x 2.897210 0.000000 0.998920 
#    y 0.000000 1.651550 0.000000 
#    z 0.998920 0.000000 2.251900 
# 
# From -- ./inp_files/54450.got.cif
#   From: 2010.05.17/outbox.cif.g08.bks.cpg/sg12_28_cif.got.tgz:54450.got - 2010.06.03 13:09:07.
