data_PCOD9220763
_publ_section_title
;
Structure prediction by ZEFSAII (Michael W. Deem and Ramdas Pophale) SiO2 
 PCOD9220763
Probable space group: C 2/M
;
_chemical_formula_sum "Si O2"
_cell_formula_units_Z 40
_cell_length_a 15.705728
_cell_length_b 7.593086
_cell_length_c 23.412885
_cell_angle_alpha 90.000000
_cell_angle_beta 35.334479
_cell_angle_gamma 90.000000
_cell_volume 1614.808578
_symmetry_space_group_name_H-M "C 2/M"
_symmetry_group_IT_number 12
_symmetry_cell_setting 'monoclinic'
loop_
_space_group_symop_operation_xyz
x,y,z
-x,y,-z
-x,-y,-z
x,-y,z
1/2+x,1/2+y,z
1/2-x,1/2+y,-z
1/2-x,1/2-y,-z
1/2+x,1/2-y,z
loop_
_atom_site_type_symbol
_atom_site_label
_atom_site_fract_x
_atom_site_fract_y
_atom_site_fract_z
Si Si1 0.489779 0.799933 0.341507
Si Si2 0.326333 0.206105 0.534309
Si Si3 0.666876 0.000000 0.836313
Si Si4 0.398287 0.213609 0.840487
Si Si5 0.329284 0.000000 0.029637
Si Si6 0.716167 0.797664 0.708318
O O1 0.455929 0.720287 0.422757
O O2 0.324565 0.796105 0.404031
O O3 0.579587 0.730450 0.238220
O O4 0.541963 0.000000 0.321789
O O5 0.327359 0.212534 0.602527
O O6 0.313707 0.000000 0.526681
O O7 0.734863 0.829163 0.766005
O O8 0.662956 0.000000 0.905744
O O9 0.493100 0.000000 0.915345
O O10 0.261557 0.326614 0.936749
O O11 0.551071 0.270460 0.787096
O O12 0.380157 0.000000 0.853087
O O13 0.714441 0.000000 0.688812
#
# Coordination Sequence:
#
# PCOD9220763 Si02
#       6
#     8   8   4   8   4   8
#     4   8  15  25  40  72 113 139 165 220 266 302
#     4   9  14  22  44  75 105 140 176 207 260 324
#     4   9  22  42  53  75 112 140 173 236 285 327
#     4   9  18  34  55  83 110 137 179 229 266 314
#     4  11  22  38  63  77 102 148 189 218 285 347
#     4   8  17  34  50  71 111 139 165 226 274 300
#
# _framework density 24.770737
#
# number of rings (size 3 to 8) (size 9 to 14) (size 15 to 20)
#    0.600    2.600    0.000    1.800    5.600    1.600 
#    0.000    4.000    0.000    2.400    0.000    4.200 
#    0.000    0.000    0.000    0.000    0.000    0.000 
#
# Total GULP energy -111437.160831 kJ/mol
# GULP energy per Si atom -5571.858042 kJ/mol
# Density = 2.471436 g / cm^3
# Si number density = 24.770737 Si / 1000 Ang^3
#
#
#
# Elastic Constant Matrix: (Units=GPa)
#
#
# Indices 1 2 3 4 5 6 
#
# 1 123.0160 -1.1152 22.3173 0.0000 43.6118 0.0000
# 2 -1.1152 74.9695 28.8001 0.0001 -0.3739 0.0000
# 3 22.3173 28.8001 129.1208 0.0000 11.3184 0.0000
# 4 0.0000 0.0001 0.0000 23.3001 0.0000 16.2298
# 5 43.6118 -0.3739 11.3184 0.0000 46.5520 0.0000
# 6 0.0000 0.0000 0.0000 16.2298 0.0000 15.5468
#
#
#
# Elastic Compliance Matrix: (Units=1/GPa)
#
#
# Indices 1 2 3 4 5 6 
#
# 1 0.012361 0.000623 -0.001288 0.000000 -0.011262 0.000000
# 2 0.000623 0.014660 -0.003409 0.000000 0.000363 0.000000
# 3 -0.001288 -0.003409 0.008812 0.000000 -0.000963 0.000000
# 4 0.000000 0.000000 0.000000 0.157302 0.000000 -0.164212
# 5 -0.011262 0.000363 -0.000963 0.000000 0.032269 0.000000
# 6 0.000000 0.000000 0.000000 -0.164212 0.000000 0.235748
#
#
# Mechanical properties :
#
#
# Convention : Reuss Voigt Hill
#
# Bulk Modulus (GPa) = 36.12316 47.45675 41.78996
# Shear Modulus (GPa) = 10.44868 35.55338 23.00103
#
# Velocity S-wave (km/s) = 2.05604 3.79264 3.05053
# Velocity P-wave (km/s) = 4.50012 6.19507 5.41433
#
# Compressibility (1/GPa) = 0.02768307
#
# Stress axis : x y z
#
# Youngs Moduli (GPa) = 80.89954 68.21505 113.47928
#
# Poissons Ratio (x) = -0.04247 0.14618
# Poissons Ratio (y) = -0.05036 0.38688
# Poissons Ratio (z) = 0.10421 0.23256
#
# Static dielectric constant tensor:
#      x y z
#    x 2.060010 0.000000 0.040570 
#    y 0.000000 1.909520 0.000000 
#    z 0.040570 0.000000 1.976210 
# 
# From -- ./inp_files/362597.got.cif
#   From: 2010.05.17/outbox.cif.g08.bks.cpg/sg12_182_cif.got.tgz:362597.got - 2010.06.03 13:09:07.
