data_PCOD9220975
_publ_section_title
;
Structure prediction by ZEFSAII (Michael W. Deem and Ramdas Pophale) SiO2 
 PCOD9220975
Probable space group: C 2/M
;
_chemical_formula_sum "Si O2"
_cell_formula_units_Z 44
_cell_length_a 26.835383
_cell_length_b 18.869434
_cell_length_c 5.246352
_cell_angle_alpha 90.000000
_cell_angle_beta 125.946867
_cell_angle_gamma 90.000000
_cell_volume 2150.671427
_symmetry_space_group_name_H-M "C 2/M"
_symmetry_group_IT_number 12
_symmetry_cell_setting 'monoclinic'
loop_
_space_group_symop_operation_xyz
x,y,z
-x,y,-z
-x,-y,-z
x,-y,z
1/2+x,1/2+y,z
1/2-x,1/2+y,-z
1/2-x,1/2-y,-z
1/2+x,1/2-y,z
loop_
_atom_site_type_symbol
_atom_site_label
_atom_site_fract_x
_atom_site_fract_y
_atom_site_fract_z
Si Si1 0.780344 0.300185 0.803568
Si Si2 0.426442 0.280742 0.796570
Si Si3 0.752807 0.082843 0.943938
Si Si4 0.872238 0.370078 0.715363
Si Si5 0.042096 0.500000 0.880475
Si Si6 0.856667 0.824345 0.114056
O O1 0.750000 0.250000 0.500000
O O2 0.838025 0.338503 0.854157
O O3 0.741900 0.364615 0.799424
O O4 0.811486 0.240661 0.071042
O O5 0.408037 0.197215 0.704766
O O6 0.401657 0.328438 0.489019
O O7 0.500000 0.284730 0.000000
O O8 0.394189 0.305530 0.967493
O O9 0.684779 0.100457 0.626015
O O10 0.756605 0.000000 0.009321
O O11 0.809496 0.110197 0.940305
O O12 0.915718 0.431150 0.953232
O O13 0.000000 0.500000 0.500000
O O14 0.000000 0.500000 0.000000
#
# Coordination Sequence:
#
# PCOD9220975 Si02
#       6
#     8   8   8   8   4   8
#     4  11  22  40  65  98 140 179 221 291 360 414
#     4  11  24  43  69  96 130 179 239 286 341 413
#     4  12  24  40  68 104 142 178 228 294 367 419
#     4  11  24  39  67  96 135 183 235 287 343 416
#     4  12  30  46  62  92 148 198 237 275 329 409
#     4  11  23  42  68  99 135 175 226 293 353 413
#
# _framework density 20.458727
#
# number of rings (size 3 to 8) (size 9 to 14) (size 15 to 20)
#    0.000    0.727    4.545    3.818    3.818    2.909 
#    0.000    0.000    0.000    3.273    0.000    0.000 
#    0.000    0.000    0.000    0.000    0.000    0.000 
#
# Total GULP energy -122659.162872 kJ/mol
# GULP energy per Si atom -5575.416494 kJ/mol
# Density = 2.041216 g / cm^3
# Si number density = 20.458727 Si / 1000 Ang^3
#
#
#
# Elastic Constant Matrix: (Units=GPa)
#
#
# Indices 1 2 3 4 5 6 
#
# 1 117.7823 64.5388 57.8603 0.0000 18.1209 0.0000
# 2 64.5388 140.9186 55.9400 0.0000 7.1756 0.0000
# 3 57.8603 55.9400 149.5064 0.0000 12.5672 0.0000
# 4 0.0000 0.0000 0.0000 33.5282 0.0000 12.3419
# 5 18.1209 7.1756 12.5672 0.0000 35.3317 0.0000
# 6 0.0000 0.0000 0.0000 12.3419 0.0000 28.3205
#
#
#
# Elastic Compliance Matrix: (Units=1/GPa)
#
#
# Indices 1 2 3 4 5 6 
#
# 1 0.013230 -0.004630 -0.002986 0.000000 -0.004783 0.000000
# 2 -0.004630 0.009967 -0.002027 0.000000 0.001072 0.000000
# 3 -0.002986 -0.002027 0.008699 0.000000 -0.001151 0.000000
# 4 0.000000 0.000000 0.000000 0.035524 0.000000 -0.015481
# 5 -0.004783 0.001072 -0.001151 0.000000 0.030948 0.000000
# 6 0.000000 0.000000 0.000000 -0.015481 0.000000 0.042057
#
#
# Mechanical properties :
#
#
# Convention : Reuss Voigt Hill
#
# Bulk Modulus (GPa) = 79.30296 84.98728 82.14512
# Shear Modulus (GPa) = 30.50339 34.76063 32.63201
#
# Velocity S-wave (km/s) = 3.86550 4.12644 3.99810
# Velocity P-wave (km/s) = 7.66612 8.02087 7.84550
#
# Compressibility (1/GPa) = 0.01260987
#
# Stress axis : x y z
#
# Youngs Moduli (GPa) = 75.58584 100.32866 114.94945
#
# Poissons Ratio (x) = 0.46457 0.34318
# Poissons Ratio (y) = 0.35000 0.23305
# Poissons Ratio (z) = 0.22566 0.20341
#
# Static dielectric constant tensor:
#      x y z
#    x 1.772430 0.000000 -0.020460 
#    y 0.000000 1.705530 0.000000 
#    z -0.020460 0.000000 1.808920 
# 
# From -- ./inp_files/20460.got.cif
#   From: 2010.05.17/outbox.cif.g08.bks.cpg/sg12_11_cif.got.tgz:20460.got - 2010.06.03 13:09:07.
