data_PCOD9220575
_publ_section_title
;
Structure prediction by ZEFSAII (Michael W. Deem and Ramdas Pophale) SiO2 
 PCOD9220575
Probable space group: C 2/M
;
_chemical_formula_sum "Si O2"
_cell_formula_units_Z 40
_cell_length_a 9.262289
_cell_length_b 16.983276
_cell_length_c 23.948952
_cell_angle_alpha 90.000000
_cell_angle_beta 31.624285
_cell_angle_gamma 90.000000
_cell_volume 1975.354224
_symmetry_space_group_name_H-M "C 2/M"
_symmetry_group_IT_number 12
_symmetry_cell_setting 'monoclinic'
loop_
_space_group_symop_operation_xyz
x,y,z
-x,y,-z
-x,-y,-z
x,-y,z
1/2+x,1/2+y,z
1/2-x,1/2+y,-z
1/2-x,1/2-y,-z
1/2+x,1/2-y,z
loop_
_atom_site_type_symbol
_atom_site_label
_atom_site_fract_x
_atom_site_fract_y
_atom_site_fract_z
Si Si1 0.251452 0.823481 0.682207
Si Si2 0.866887 0.845260 0.700594
Si Si3 0.294285 0.665608 0.914564
Si Si4 0.669305 0.409249 0.498204
Si Si5 0.234438 0.347569 0.064372
O O1 0.311117 0.735445 0.684734
O O2 0.546539 0.864598 0.583663
O O3 0.081966 0.827739 0.679985
O O4 0.050848 0.863450 0.794520
O O5 0.576606 0.875165 0.822215
O O6 0.989835 0.902339 0.613449
O O7 0.273137 0.759003 0.906745
O O8 0.315122 0.661818 0.973570
O O9 0.000000 0.627091 0.000000
O O10 0.500000 0.377482 0.500000
O O11 0.732760 0.500000 0.465017
O O12 0.500000 0.392662 0.000000
#
# Coordination Sequence:
#
# PCOD9220575 Si02
#       5
#     8   8   8   8   8
#     4  11  22  36  62  90 121 153 190 241 284 340
#     4  11  22  37  60  92 120 152 193 238 287 339
#     4   9  16  30  49  84 121 150 184 223 282 341
#     4  11  26  45  62  80 110 153 198 245 296 347
#     4   9  18  28  51  84 121 154 182 228 282 338
#
# _framework density 20.249531000000001
#
# number of rings (size 3 to 8) (size 9 to 14) (size 15 to 20)
#    0.000    1.800    2.000    2.400   11.200    1.600 
#    0.000    0.000    0.000    2.400    0.000    0.000 
#    0.000    0.000    0.000    0.000    0.000    0.000 
#
# Total GULP energy -111417.118204 kJ/mol
# GULP energy per Si atom -5570.855910 kJ/mol
# Density = 2.020344 g / cm^3
# Si number density = 20.249531 Si / 1000 Ang^3
#
#
#
# Elastic Constant Matrix: (Units=GPa)
#
#
# Indices 1 2 3 4 5 6 
#
# 1 147.6216 14.1304 51.5341 -0.0400 -18.3879 0.0084
# 2 14.1304 14.1799 7.6838 -0.0421 -1.7067 0.0000
# 3 51.5341 7.6838 116.4362 -0.2877 -3.8574 0.0127
# 4 -0.0400 -0.0421 -0.2877 -14.4916 0.0477 3.2057
# 5 -18.3879 -1.7067 -3.8574 0.0477 32.7477 -0.0105
# 6 0.0084 0.0000 0.0127 3.2057 -0.0105 8.5382
#
#
#
# Elastic Compliance Matrix: (Units=1/GPa)
#
#
# Indices 1 2 3 4 5 6 
#
# 1 0.009178 -0.006736 -0.003472 0.000072 0.004393 -0.000025
# 2 -0.006736 0.078428 -0.002193 -0.000151 0.000047 0.000067
# 3 -0.003472 -0.002193 0.010241 -0.000178 -0.000857 0.000054
# 4 0.000072 -0.000151 -0.000178 -0.063710 0.000112 0.023921
# 5 0.004393 0.000047 -0.000857 0.000112 0.032905 -0.000004
# 6 -0.000025 0.000067 0.000054 0.023921 -0.000004 0.108140
#
#
# Mechanical properties :
#
#
# Convention : Reuss Voigt Hill
#
# Bulk Modulus (GPa) = 13.69011 47.21493 30.45252
# Shear Modulus (GPa) = 22.28837 19.01815 20.65326
#
# Velocity S-wave (km/s) = 3.32126 3.06794 3.19711
# Velocity P-wave (km/s) = 4.63498 5.99307 5.35724
#
# Compressibility (1/GPa) = 0.07304543
#
# Stress axis : x y z
#
# Youngs Moduli (GPa) = 108.95450 12.75053 97.64713
#
# Poissons Ratio (x) = 0.08588 0.33903
# Poissons Ratio (y) = 0.73389 0.21416
# Poissons Ratio (z) = 0.37829 0.02796
#
# Static dielectric constant tensor:
#      x y z
#    x 1.847680 -0.000030 -0.006510 
#    y -0.000030 1.726630 -0.000010 
#    z -0.006510 -0.000010 1.768600 
# 
# From -- ./inp_files/120312.got.cif
#   From: 2010.05.17/outbox.cif.g08.bks.cpg/sg12_61_cif.got.tgz:120312.got - 2010.06.03 13:09:07.
