data_PCOD9220397
_publ_section_title
;
Structure prediction by ZEFSAII (Michael W. Deem and Ramdas Pophale) SiO2 
 PCOD9220397
Probable space group: C 2/M
;
_chemical_formula_sum "Si O2"
_cell_formula_units_Z 48
_cell_length_a 9.604303
_cell_length_b 22.219894
_cell_length_c 12.608570
_cell_angle_alpha 90.000000
_cell_angle_beta 95.349207
_cell_angle_gamma 90.000000
_cell_volume 2679.033764
_symmetry_space_group_name_H-M "C 2/M"
_symmetry_group_IT_number 12
_symmetry_cell_setting 'monoclinic'
loop_
_space_group_symop_operation_xyz
x,y,z
-x,y,-z
-x,-y,-z
x,-y,z
1/2+x,1/2+y,z
1/2-x,1/2+y,-z
1/2-x,1/2-y,-z
1/2+x,1/2-y,z
loop_
_atom_site_type_symbol
_atom_site_label
_atom_site_fract_x
_atom_site_fract_y
_atom_site_fract_z
Si Si1 0.635373 0.757090 0.080937
Si Si2 0.880928 0.274364 0.573255
Si Si3 0.891388 0.570019 0.622580
Si Si4 0.209303 0.427114 0.617433
Si Si5 0.756289 0.645592 0.755247
Si Si6 0.929935 0.166861 0.732868
O O1 0.669708 0.818083 0.146491
O O2 0.625207 0.702653 0.166405
O O3 0.500000 0.760764 0.000000
O O4 0.750000 0.750000 0.000000
O O5 0.750000 0.250000 0.500000
O O6 0.818144 0.320480 0.654497
O O7 0.940466 0.218293 0.643666
O O8 0.000000 0.295854 0.500000
O O9 0.913440 0.500000 0.605010
O O10 0.802335 0.586595 0.509923
O O11 0.810089 0.580433 0.726211
O O12 0.052626 0.591885 0.643636
O O13 0.232468 0.500000 0.633932
O O14 0.325627 0.385657 0.683793
O O15 0.590328 0.646538 0.759266
#
# Coordination Sequence:
#
# PCOD9220397 Si02
#       6
#     8   8   8   8   8   8
#     4  11  24  43  60  83 114 148 191 245 301 345
#     4  11  22  33  48  80 120 149 177 224 281 346
#     4   9  20  37  57  85 119 158 194 225 275 343
#     4   9  20  37  58  84 120 159 191 228 277 339
#     4  11  23  35  58  85 111 150 191 236 285 343
#     4  11  23  36  56  86 112 148 195 234 286 344
#
# _framework density 17.916906000000001
#
# number of rings (size 3 to 8) (size 9 to 14) (size 15 to 20)
#    0.000    1.667    3.333    2.000    7.000    0.667 
#    0.000    1.667    0.000    2.000    0.000    0.000 
#    0.000    0.000    0.000    0.000    0.000    0.000 
#
# Total GULP energy -133630.404055 kJ/mol
# GULP energy per Si atom -5567.933502 kJ/mol
# Density = 1.787613 g / cm^3
# Si number density = 17.916906 Si / 1000 Ang^3
#
#
#
# Elastic Constant Matrix: (Units=GPa)
#
#
# Indices 1 2 3 4 5 6 
#
# 1 127.0045 38.3500 58.4290 0.0000 3.6133 0.0000
# 2 38.3500 56.4206 40.8049 0.0000 12.3022 0.0000
# 3 58.4290 40.8049 109.0944 0.0000 3.1415 0.0000
# 4 0.0000 0.0000 0.0000 31.8153 0.0000 4.0318
# 5 3.6133 12.3022 3.1415 0.0000 36.1080 0.0000
# 6 0.0000 0.0000 0.0000 4.0318 0.0000 27.2759
#
#
#
# Elastic Compliance Matrix: (Units=1/GPa)
#
#
# Indices 1 2 3 4 5 6 
#
# 1 0.011248 -0.004741 -0.004276 0.000000 0.000862 0.000000
# 2 -0.004741 0.028509 -0.007878 0.000000 -0.008553 0.000000
# 3 -0.004276 -0.007878 0.014349 0.000000 0.001863 0.000000
# 4 0.000000 0.000000 0.000000 0.032031 0.000000 -0.004735
# 5 0.000862 -0.008553 0.001863 0.000000 0.030360 0.000000
# 6 0.000000 0.000000 0.000000 -0.004735 0.000000 0.037362
#
#
# Mechanical properties :
#
#
# Convention : Reuss Voigt Hill
#
# Bulk Modulus (GPa) = 49.21950 63.07639 56.14794
# Shear Modulus (GPa) = 25.71732 29.36888 27.54310
#
# Velocity S-wave (km/s) = 3.79273 4.05306 3.92506
# Velocity P-wave (km/s) = 6.83450 7.56204 7.20746
#
# Compressibility (1/GPa) = 0.02031715
#
# Stress axis : x y z
#
# Youngs Moduli (GPa) = 88.90604 35.07673 69.68996
#
# Poissons Ratio (x) = 0.16630 0.29797
# Poissons Ratio (y) = 0.42150 0.54901
# Poissons Ratio (z) = 0.38014 0.27633
#
# Static dielectric constant tensor:
#      x y z
#    x 1.654610 0.000000 0.054460 
#    y 0.000000 1.809890 0.000000 
#    z 0.054460 0.000000 1.705660 
# 
# From -- ./inp_files/121956.got.cif
#   From: 2010.05.17/outbox.cif.g08.bks.cpg/sg12_61_cif.got.tgz:121956.got - 2010.06.03 13:09:07.
