data_PCOD9220596
_publ_section_title
;
Structure prediction by ZEFSAII (Michael W. Deem and Ramdas Pophale) SiO2 
 PCOD9220596
Probable space group: C 2/M
;
_chemical_formula_sum "Si O2"
_cell_formula_units_Z 48
_cell_length_a 15.276545
_cell_length_b 8.515211
_cell_length_c 26.803135
_cell_angle_alpha 90.000000
_cell_angle_beta 133.983766
_cell_angle_gamma 90.000000
_cell_volume 2508.759542
_symmetry_space_group_name_H-M "C 2/M"
_symmetry_group_IT_number 12
_symmetry_cell_setting 'monoclinic'
loop_
_space_group_symop_operation_xyz
x,y,z
-x,y,-z
-x,-y,-z
x,-y,z
1/2+x,1/2+y,z
1/2-x,1/2+y,-z
1/2-x,1/2-y,-z
1/2+x,1/2-y,z
loop_
_atom_site_type_symbol
_atom_site_label
_atom_site_fract_x
_atom_site_fract_y
_atom_site_fract_z
Si Si1 0.672846 0.685800 0.829311
Si Si2 0.543172 0.811866 0.323849
Si Si3 0.303435 0.809992 0.409966
Si Si4 0.531539 0.809359 0.433519
Si Si5 0.365985 0.813861 0.076369
Si Si6 0.941811 0.186956 0.923441
O O1 0.691286 0.500000 0.834573
O O2 0.568557 0.737756 0.749912
O O3 0.633291 0.735035 0.869269
O O4 0.800502 0.769548 0.868038
O O5 0.671797 0.763257 0.351154
O O6 0.544730 0.756065 0.382138
O O7 0.530758 0.000000 0.318329
O O8 0.402827 0.765176 0.407581
O O9 0.362326 0.759377 0.486361
O O10 0.293827 0.000000 0.406100
O O11 0.534679 0.000000 0.434709
O O12 0.484324 0.771922 0.090943
O O13 0.353888 0.000000 0.077666
O O14 0.250000 0.750000 0.000000
O O15 0.957388 0.000000 0.923895
O O16 0.000000 0.232224 0.000000
#
# Coordination Sequence:
#
# PCOD9220596 Si02
#       6
#     8   8   8   8   8   8
#     4  12  26  43  62  88 122 164 209 255 307 363
#     4  11  22  37  56  84 122 158 196 249 309 363
#     4   9  17  35  60  86 114 154 204 245 293 361
#     4   8  17  34  59  85 115 156 199 244 296 359
#     4  12  24  41  66  94 122 155 197 248 303 363
#     4  11  23  41  67  94 122 156 197 247 303 363
#
# _framework density 19.132961000000002
#
# number of rings (size 3 to 8) (size 9 to 14) (size 15 to 20)
#    0.000    1.500    1.667    5.500    0.000    2.000 
#    0.000    9.167    0.000    0.000    0.000    0.000 
#    0.000    0.000    0.000    0.000    0.000    0.000 
#
# Total GULP energy -134170.553615 kJ/mol
# GULP energy per Si atom -5590.439734 kJ/mol
# Density = 1.908941 g / cm^3
# Si number density = 19.132961 Si / 1000 Ang^3
#
#
#
# Elastic Constant Matrix: (Units=GPa)
#
#
# Indices 1 2 3 4 5 6 
#
# 1 60.9358 -16.1007 18.3379 0.0000 10.9258 0.0000
# 2 -16.1007 30.5051 -3.4856 0.0000 -4.5609 0.0000
# 3 18.3379 -3.4856 72.8763 0.0000 23.4065 0.0000
# 4 0.0000 0.0000 0.0000 27.7039 0.0000 5.6142
# 5 10.9258 -4.5609 23.4065 0.0000 25.6997 0.0000
# 6 0.0000 0.0000 0.0000 5.6142 0.0000 31.5783
#
#
#
# Elastic Compliance Matrix: (Units=1/GPa)
#
#
# Indices 1 2 3 4 5 6 
#
# 1 0.020804 0.010001 -0.003514 0.000000 -0.003870 0.000000
# 2 0.010001 0.038492 -0.002126 0.000000 0.004516 0.000000
# 3 -0.003514 -0.002126 0.019995 0.000000 -0.017094 0.000000
# 4 0.000000 0.000000 0.000000 0.037445 0.000000 -0.006657
# 5 -0.003870 0.004516 -0.017094 0.000000 0.056926 0.000000
# 6 0.000000 0.000000 0.000000 -0.006657 0.000000 0.032851
#
#
# Mechanical properties :
#
#
# Convention : Reuss Voigt Hill
#
# Bulk Modulus (GPa) = 11.36197 17.98005 14.67101
# Shear Modulus (GPa) = 22.01394 28.03409 25.02402
#
# Velocity S-wave (km/s) = 3.39570 3.83198 3.62041
# Velocity P-wave (km/s) = 4.61797 5.38485 5.01608
#
# Compressibility (1/GPa) = 0.08801292
#
# Stress axis : x y z
#
# Youngs Moduli (GPa) = 48.06682 25.97943 50.01329
#
# Poissons Ratio (x) = -0.25981 0.17574
# Poissons Ratio (y) = -0.48070 0.10632
# Poissons Ratio (z) = 0.16890 0.05523
#
# Static dielectric constant tensor:
#      x y z
#    x 1.652400 0.000000 -0.005810 
#    y 0.000000 1.648350 0.000000 
#    z -0.005810 0.000000 1.637430 
# 
# From -- ./inp_files/360321.got.cif
#   From: 2010.05.17/outbox.cif.g08.bks.cpg/sg12_181_cif.got.tgz:360321.got - 2010.06.03 13:09:07.
