data_PCOD9220636
_publ_section_title
;
Structure prediction by ZEFSAII (Michael W. Deem and Ramdas Pophale) SiO2 
 PCOD9220636
Probable space group: C 2/M
;
_chemical_formula_sum "Si O2"
_cell_formula_units_Z 40
_cell_length_a 19.358990
_cell_length_b 18.486352
_cell_length_c 10.055516
_cell_angle_alpha 90.000000
_cell_angle_beta 39.130740
_cell_angle_gamma 90.000000
_cell_volume 2271.072522
_symmetry_space_group_name_H-M "C 2/M"
_symmetry_group_IT_number 12
_symmetry_cell_setting 'monoclinic'
loop_
_space_group_symop_operation_xyz
x,y,z
-x,y,-z
-x,-y,-z
x,-y,z
1/2+x,1/2+y,z
1/2-x,1/2+y,-z
1/2-x,1/2-y,-z
1/2+x,1/2-y,z
loop_
_atom_site_type_symbol
_atom_site_label
_atom_site_fract_x
_atom_site_fract_y
_atom_site_fract_z
Si Si1 0.426722 0.793060 0.230301
Si Si2 0.578957 0.784151 0.257517
Si Si3 0.195966 0.851983 0.670894
Si Si4 0.070631 0.000000 0.259529
Si Si5 0.207083 0.858863 0.977049
Si Si6 0.088761 0.000000 0.751191
O O1 0.503456 0.797893 0.243596
O O2 0.313925 0.832644 0.434104
O O3 0.387740 0.711696 0.248046
O O4 0.500000 0.821945 0.000000
O O5 0.500000 0.774060 0.500000
O O6 0.642130 0.710207 0.130217
O O7 0.668661 0.845462 0.158957
O O8 0.157589 0.927611 0.668312
O O9 0.201788 0.856865 0.823350
O O10 0.147942 0.930102 0.121471
O O11 0.000000 0.000000 0.500000
O O12 0.978850 0.000000 0.282602
O O13 0.000000 0.000000 0.000000
#
# Coordination Sequence:
#
# PCOD9220636 Si02
#       6
#     8   8   8   4   8   4
#     4  11  22  38  61  89 123 156 203 253 296 349
#     4  11  22  37  60  89 123 159 200 250 301 350
#     4  11  22  38  64  93 117 161 208 244 299 367
#     4  12  26  42  62  93 125 154 198 257 307 354
#     4  11  22  39  62  91 122 159 205 246 301 367
#     4  12  22  40  68  86 119 158 201 247 302 363
#
# _framework density 17.612822999999999
#
# number of rings (size 3 to 8) (size 9 to 14) (size 15 to 20)
#    0.000    0.800    6.000    2.400    0.000    1.600 
#    0.000    2.000    0.000    0.000    0.000    0.000 
#    0.000    0.000    0.000    0.000    0.000    0.000 
#
# Total GULP energy -111685.043213 kJ/mol
# GULP energy per Si atom -5584.252161 kJ/mol
# Density = 1.757274 g / cm^3
# Si number density = 17.612823 Si / 1000 Ang^3
#
#
#
# Elastic Constant Matrix: (Units=GPa)
#
#
# Indices 1 2 3 4 5 6 
#
# 1 149.1217 49.2329 62.0240 0.0000 -1.0181 0.0000
# 2 49.2329 120.4529 53.4141 0.0000 -13.3507 0.0000
# 3 62.0240 53.4141 158.2479 0.0000 5.6783 0.0000
# 4 0.0000 0.0000 0.0000 19.4542 0.0000 1.5610
# 5 -1.0181 -13.3507 5.6783 0.0000 39.0359 0.0000
# 6 0.0000 0.0000 0.0000 1.5610 0.0000 19.6074
#
#
#
# Elastic Compliance Matrix: (Units=1/GPa)
#
#
# Indices 1 2 3 4 5 6 
#
# 1 0.008549 -0.002396 -0.002534 0.000000 -0.000228 0.000000
# 2 -0.002396 0.011043 -0.002937 0.000000 0.004141 0.000000
# 3 -0.002534 -0.002937 0.008386 0.000000 -0.002290 0.000000
# 4 0.000000 0.000000 0.000000 0.051733 0.000000 -0.004119
# 5 -0.000228 0.004141 -0.002290 0.000000 0.027361 0.000000
# 6 0.000000 0.000000 0.000000 -0.004119 0.000000 0.051329
#
#
# Mechanical properties :
#
#
# Convention : Reuss Voigt Hill
#
# Bulk Modulus (GPa) = 81.67023 84.12939 82.89981
# Shear Modulus (GPa) = 28.05584 33.16295 30.60939
#
# Velocity S-wave (km/s) = 3.99547 4.34393 4.17334
# Velocity P-wave (km/s) = 8.23137 8.54572 8.39002
#
# Compressibility (1/GPa) = 0.01224436
#
# Stress axis : x y z
#
# Youngs Moduli (GPa) = 116.96783 90.55814 119.24908
#
# Poissons Ratio (x) = 0.21698 0.30217
# Poissons Ratio (y) = 0.28025 0.35021
# Poissons Ratio (z) = 0.29639 0.26595
#
# Static dielectric constant tensor:
#      x y z
#    x 1.519130 0.000000 -0.092630 
#    y 0.000000 1.570690 0.000000 
#    z -0.092630 0.000000 1.503220 
# 
# From -- ./inp_files/77224.got.cif
#   From: 2010.05.17/outbox.cif.g08.bks.cpg/sg12_39_cif.got.tgz:77224.got - 2010.06.03 13:09:07.
