data_PCOD9220571
_publ_section_title
;
Structure prediction by ZEFSAII (Michael W. Deem and Ramdas Pophale) SiO2 
 PCOD9220571
Probable space group: C 2/M
;
_chemical_formula_sum "Si O2"
_cell_formula_units_Z 48
_cell_length_a 20.525863
_cell_length_b 24.312656
_cell_length_c 5.151333
_cell_angle_alpha 90.000000
_cell_angle_beta 60.487352
_cell_angle_gamma 90.000000
_cell_volume 2237.154497
_symmetry_space_group_name_H-M "C 2/M"
_symmetry_group_IT_number 12
_symmetry_cell_setting 'monoclinic'
loop_
_space_group_symop_operation_xyz
x,y,z
-x,y,-z
-x,-y,-z
x,-y,z
1/2+x,1/2+y,z
1/2-x,1/2+y,-z
1/2-x,1/2-y,-z
1/2+x,1/2-y,z
loop_
_atom_site_type_symbol
_atom_site_label
_atom_site_fract_x
_atom_site_fract_y
_atom_site_fract_z
Si Si1 0.549206 0.081855 0.640787
Si Si2 0.310691 0.770218 0.175285
Si Si3 0.088181 0.192655 0.341536
Si Si4 0.731259 0.369556 0.115782
Si Si5 0.217886 0.563218 0.478908
Si Si6 0.425552 0.802499 0.308733
O O1 0.500000 0.058707 0.500000
O O2 0.630295 0.060097 0.565297
O O3 0.566835 0.145029 0.525526
O O4 0.500000 0.081080 0.000000
O O5 0.250000 0.750000 0.500000
O O6 0.270754 0.808522 0.038250
O O7 0.361088 0.813718 0.231373
O O8 0.367303 0.720644 0.989389
O O9 0.143493 0.144899 0.327356
O O10 0.089497 0.246009 0.521275
O O11 0.000000 0.177663 0.500000
O O12 0.764397 0.407231 0.281352
O O13 0.743692 0.400602 0.821828
O O14 0.245074 0.500000 0.434506
O O15 0.500000 0.795942 0.000000
#
# Coordination Sequence:
#
# PCOD9220571 Si02
#       6
#     8   8   8   8   8   8
#     4  11  24  40  64  98 137 178 220 268 322 396
#     4  12  23  40  63 102 141 183 220 263 321 409
#     4  12  25  40  66  99 142 180 221 263 331 412
#     4  12  26  45  69  99 136 174 225 281 337 395
#     4  12  27  48  71  94 126 175 234 293 346 390
#     4  11  22  36  61  96 142 185 215 252 317 407
#
# _framework density 21.455826999999999
#
# number of rings (size 3 to 8) (size 9 to 14) (size 15 to 20)
#    0.000    0.333    5.000    4.500    4.667    0.667 
#    0.000    0.000    0.000    3.000    0.000    0.000 
#    0.000    0.000    0.000    0.000    0.000    0.000 
#
# Total GULP energy -134071.603138 kJ/mol
# GULP energy per Si atom -5586.316797 kJ/mol
# Density = 2.140699 g / cm^3
# Si number density = 21.455827 Si / 1000 Ang^3
#
#
#
# Elastic Constant Matrix: (Units=GPa)
#
#
# Indices 1 2 3 4 5 6 
#
# 1 120.8903 21.0527 24.0112 0.0000 -20.4245 0.0000
# 2 21.0527 98.7335 29.2913 0.0000 -6.4502 0.0000
# 3 24.0112 29.2913 98.6926 0.0000 -11.1950 0.0000
# 4 0.0000 0.0000 0.0000 -72.9236 0.0000 -12.6743
# 5 -20.4245 -6.4502 -11.1950 0.0000 46.6955 0.0000
# 6 0.0000 0.0000 0.0000 -12.6743 0.0000 -37.5836
#
#
#
# Elastic Compliance Matrix: (Units=1/GPa)
#
#
# Indices 1 2 3 4 5 6 
#
# 1 0.009403 -0.001330 -0.001488 0.000000 0.003572 0.000000
# 2 -0.001330 0.011321 -0.003007 0.000000 0.000261 0.000000
# 3 -0.001488 -0.003007 0.011581 0.000000 0.001710 0.000000
# 4 0.000000 0.000000 0.000000 -0.014567 0.000000 0.004912
# 5 0.003572 0.000261 0.001710 0.000000 0.023424 0.000000
# 6 0.000000 0.000000 0.000000 0.004912 0.000000 -0.028264
#
#
# Mechanical properties :
#
#
# Convention : Reuss Voigt Hill
#
# Bulk Modulus (GPa) = 48.41363 51.89187 50.15275
# Shear Modulus (GPa) = 159.07426 3.50174 81.28800
#
# Velocity S-wave (km/s) = 8.61982 1.27891 6.16185
# Velocity P-wave (km/s) = 11.03094 5.13992 8.60524
#
# Compressibility (1/GPa) = 0.02065534
#
# Stress axis : x y z
#
# Youngs Moduli (GPa) = 106.35341 88.33157 86.34993
#
# Poissons Ratio (x) = 0.11750 0.12845
# Poissons Ratio (y) = 0.14147 0.25963
# Poissons Ratio (z) = 0.15821 0.26559
#
# Static dielectric constant tensor:
#      x y z
#    x 1.855690 0.000000 0.020230 
#    y 0.000000 1.791340 0.000000 
#    z 0.020230 0.000000 1.818560 
# 
# From -- ./inp_files/21788.got.cif
#   From: 2010.05.17/outbox.cif.g08.bks.cpg/sg12_11_cif.got.tgz:21788.got - 2010.06.03 13:09:07.
