data_PCOD9220366
_publ_section_title
;
Structure prediction by ZEFSAII (Michael W. Deem and Ramdas Pophale) SiO2 
 PCOD9220366
Probable space group: C 2/M
;
_chemical_formula_sum "Si O2"
_cell_formula_units_Z 52
_cell_length_a 17.349722
_cell_length_b 14.816100
_cell_length_c 14.510935
_cell_angle_alpha 90.000000
_cell_angle_beta 135.760458
_cell_angle_gamma 90.000000
_cell_volume 2602.348508
_symmetry_space_group_name_H-M "C 2/M"
_symmetry_group_IT_number 12
_symmetry_cell_setting 'monoclinic'
loop_
_space_group_symop_operation_xyz
x,y,z
-x,y,-z
-x,-y,-z
x,-y,z
1/2+x,1/2+y,z
1/2-x,1/2+y,-z
1/2-x,1/2-y,-z
1/2+x,1/2-y,z
loop_
_atom_site_type_symbol
_atom_site_label
_atom_site_fract_x
_atom_site_fract_y
_atom_site_fract_z
Si Si1 0.454622 0.351565 0.777629
Si Si2 0.164971 0.899886 0.513142
Si Si3 0.887831 0.500000 0.105105
Si Si4 0.704561 0.395699 0.208625
Si Si5 0.398849 0.795317 0.480011
Si Si6 0.580332 0.146428 0.291464
Si Si7 0.290966 0.346536 0.998506
O O1 0.381102 0.388827 0.630398
O O2 0.410744 0.392373 0.835291
O O3 0.436137 0.244065 0.768121
O O4 0.582713 0.366843 0.865335
O O5 0.119331 0.812352 0.527133
O O6 0.297336 0.889583 0.624947
O O7 0.135348 0.000000 0.522260
O O8 0.793111 0.421394 0.037948
O O9 0.985111 0.578241 0.182592
O O10 0.738423 0.500000 0.225628
O O11 0.791118 0.343471 0.347366
O O12 0.706203 0.349900 0.110421
O O13 0.500000 0.815196 0.500000
O O14 0.423711 0.834226 0.602328
O O15 0.250000 0.250000 0.000000
#
# Coordination Sequence:
#
# PCOD9220366 Si02
#       7
#     8   8   4   8   8   8   8
#     4  11  23  43  65  98 136 175 218 272 326 389
#     4  11  22  41  70  98 130 179 221 265 328 398
#     4  12  24  42  70  99 125 176 225 262 331 403
#     4  12  25  41  67 100 130 172 221 269 335 396
#     4  11  24  39  64 101 140 165 215 279 332 381
#     4  11  21  43  69  96 134 176 216 266 331 401
#     4  12  27  45  65  95 135 173 219 277 331 388
#
# _framework density 19.981950000000001
#
# number of rings (size 3 to 8) (size 9 to 14) (size 15 to 20)
#    0.000    0.615    6.154    2.769    5.385    1.231 
#    0.000    0.000    1.692    0.923    0.000    0.000 
#    0.000    0.000    0.000    0.000    0.000    0.000 
#
# Total GULP energy -144848.314591 kJ/mol
# GULP energy per Si atom -5571.089023 kJ/mol
# Density = 1.993647 g / cm^3
# Si number density = 19.981950 Si / 1000 Ang^3
#
#
#
# Elastic Constant Matrix: (Units=GPa)
#
#
# Indices 1 2 3 4 5 6 
#
# 1 49.5405 6.9501 27.1784 0.0000 23.1309 0.0000
# 2 6.9501 111.7259 27.2057 0.0000 3.7745 0.0000
# 3 27.1784 27.2057 39.9607 0.0000 9.4788 0.0000
# 4 0.0000 0.0000 0.0000 22.1848 0.0000 19.7310
# 5 23.1309 3.7745 9.4788 0.0000 33.9161 0.0000
# 6 0.0000 0.0000 0.0000 19.7310 0.0000 25.1983
#
#
#
# Elastic Compliance Matrix: (Units=1/GPa)
#
#
# Indices 1 2 3 4 5 6 
#
# 1 0.047260 0.005155 -0.029850 0.000000 -0.024463 0.000000
# 2 0.005155 0.011318 -0.010794 0.000000 -0.001759 0.000000
# 3 -0.029850 -0.010794 0.050938 0.000000 0.007323 0.000000
# 4 0.000000 0.000000 0.000000 0.148482 0.000000 -0.116266
# 5 -0.024463 -0.001759 0.007323 0.000000 0.044318 0.000000
# 6 0.000000 0.000000 0.000000 -0.116266 0.000000 0.130725
#
#
# Mechanical properties :
#
#
# Convention : Reuss Voigt Hill
#
# Bulk Modulus (GPa) = 25.94843 35.98840 30.96841
# Shear Modulus (GPa) = 9.67372 25.58604 17.62988
#
# Velocity S-wave (km/s) = 2.20267 3.58223 2.97356
# Velocity P-wave (km/s) = 4.41397 5.92953 5.22697
#
# Compressibility (1/GPa) = 0.03853798
#
# Stress axis : x y z
#
# Youngs Moduli (GPa) = 21.15937 88.35780 19.63161
#
# Poissons Ratio (x) = -0.45550 0.58601
# Poissons Ratio (y) = -0.10908 0.21191
# Poissons Ratio (z) = 0.63161 0.95375
#
# Static dielectric constant tensor:
#      x y z
#    x 1.682850 0.000000 0.002970 
#    y 0.000000 1.705040 0.000000 
#    z 0.002970 0.000000 1.707620 
# 
# From -- ./inp_files/225794.got.cif
#   From: 2010.05.17/outbox.cif.g08.bks.cpg/sg12_113_cif.got.tgz:225794.got - 2010.06.03 13:09:07.
