data_PCOD9220171
_publ_section_title
;
Structure prediction by ZEFSAII (Michael W. Deem and Ramdas Pophale) SiO2 
 PCOD9220171
Probable space group: C 2/M
;
_chemical_formula_sum "Si O2"
_cell_formula_units_Z 52
_cell_length_a 15.217954
_cell_length_b 29.865484
_cell_length_c 9.107294
_cell_angle_alpha 90.000000
_cell_angle_beta 142.749576
_cell_angle_gamma 90.000000
_cell_volume 2505.450159
_symmetry_space_group_name_H-M "C 2/M"
_symmetry_group_IT_number 12
_symmetry_cell_setting 'monoclinic'
loop_
_space_group_symop_operation_xyz
x,y,z
-x,y,-z
-x,-y,-z
x,-y,z
1/2+x,1/2+y,z
1/2-x,1/2+y,-z
1/2-x,1/2-y,-z
1/2+x,1/2-y,z
loop_
_atom_site_type_symbol
_atom_site_label
_atom_site_fract_x
_atom_site_fract_y
_atom_site_fract_z
Si Si1 0.131684 0.669891 0.563857
Si Si2 0.756588 0.923347 0.088027
Si Si3 0.413298 0.841947 0.015922
Si Si4 0.219474 0.000000 0.360080
Si Si5 0.640312 0.409402 0.090302
Si Si6 0.634311 0.500000 0.570133
Si Si7 0.036047 0.500000 0.716655
Si Si8 0.171764 0.750516 0.235487
O O1 0.233372 0.626573 0.712062
O O2 0.232986 0.712933 0.723863
O O3 0.000000 0.666592 0.500000
O O4 0.044471 0.673215 0.295445
O O5 0.695733 0.875327 0.050796
O O6 0.867829 0.916899 0.098266
O O7 0.628186 0.955190 0.860192
O O8 0.798453 0.952525 0.287154
O O9 0.500000 0.866132 0.000000
O O10 0.331448 0.798559 0.842629
O O11 0.185002 0.043339 0.219088
O O12 0.127187 0.000000 0.386517
O O13 0.391341 0.000000 0.621848
O O14 0.500000 0.395157 0.000000
O O15 0.500000 0.500000 0.500000
O O16 0.000000 0.500000 0.500000
O O17 0.250000 0.750000 0.500000
O O18 0.000000 0.763837 0.000000
#
# Coordination Sequence:
#
# PCOD9220171 Si02
#       8
#     8   8   8   4   8   4   4   8
#     4  12  25  46  73 106 143 185 247 302 362 440
#     4  11  24  43  65 101 143 184 241 302 358 437
#     4  11  24  44  74 103 144 188 236 302 370 435
#     4  12  24  38  72  99 134 193 235 297 364 430
#     4  12  25  44  69 101 143 192 240 293 367 437
#     4  11  26  44  62  95 145 187 243 301 358 429
#     4  11  21  39  66 100 136 186 240 296 351 426
#     4  11  23  48  75 107 145 191 241 304 375 448
#
# _framework density 20.754753000000001
#
# number of rings (size 3 to 8) (size 9 to 14) (size 15 to 20)
#    0.000    0.615    6.154    3.000    4.308    1.231 
#    0.000    0.769    0.000    0.000    0.000    0.000 
#    0.000    0.000    0.000    0.000    0.000    0.000 
#
# Total GULP energy -145079.083866 kJ/mol
# GULP energy per Si atom -5579.964764 kJ/mol
# Density = 2.070751 g / cm^3
# Si number density = 20.754753 Si / 1000 Ang^3
#
#
#
# Elastic Constant Matrix: (Units=GPa)
#
#
# Indices 1 2 3 4 5 6 
#
# 1 154.8873 60.4729 26.6114 0.0000 13.5823 0.0000
# 2 60.4729 151.8682 42.4057 0.0000 8.1783 0.0000
# 3 26.6114 42.4057 67.7511 0.0000 6.1645 0.0000
# 4 0.0000 0.0000 0.0000 61.9183 0.0000 -25.2580
# 5 13.5823 8.1783 6.1645 0.0000 40.2005 0.0000
# 6 0.0000 0.0000 0.0000 -25.2580 0.0000 41.0566
#
#
#
# Elastic Compliance Matrix: (Units=1/GPa)
#
#
# Indices 1 2 3 4 5 6 
#
# 1 0.007889 -0.002692 -0.001239 0.000000 -0.001928 0.000000
# 2 -0.002692 0.008928 -0.004511 0.000000 -0.000215 0.000000
# 3 -0.001239 -0.004511 0.018202 0.000000 -0.001455 0.000000
# 4 0.000000 0.000000 0.000000 0.021561 0.000000 0.013264
# 5 -0.001928 -0.000215 -0.001455 0.000000 0.025794 0.000000
# 6 0.000000 0.000000 0.000000 0.013264 0.000000 0.032517
#
#
# Mechanical properties :
#
#
# Convention : Reuss Voigt Hill
#
# Bulk Modulus (GPa) = 55.13759 70.38741 62.76250
# Shear Modulus (GPa) = 36.27953 44.96951 40.62452
#
# Velocity S-wave (km/s) = 4.18546 4.65984 4.42901
# Velocity P-wave (km/s) = 7.06975 7.93345 7.51402
#
# Compressibility (1/GPa) = 0.01813645
#
# Stress axis : x y z
#
# Youngs Moduli (GPa) = 126.75722 112.01121 54.93827
#
# Poissons Ratio (x) = 0.30151 0.06804
# Poissons Ratio (y) = 0.34120 0.24783
# Poissons Ratio (z) = 0.15699 0.50529
#
# Static dielectric constant tensor:
#      x y z
#    x 1.828960 0.000000 -0.024680 
#    y 0.000000 1.725070 0.000000 
#    z -0.024680 0.000000 1.774720 
# 
# From -- ./inp_files/68722.got.cif
#   From: 2010.05.17/outbox.cif.g08.bks.cpg/sg12_35_cif.got.tgz:68722.got - 2010.06.03 13:09:07.
