data_PCOD9220857
_publ_section_title
;
Structure prediction by ZEFSAII (Michael W. Deem and Ramdas Pophale) SiO2 
 PCOD9220857
Probable space group: C 2/M
;
_chemical_formula_sum "Si O2"
_cell_formula_units_Z 56
_cell_length_a 19.438557
_cell_length_b 14.588145
_cell_length_c 9.684377
_cell_angle_alpha 90.000000
_cell_angle_beta 75.758690
_cell_angle_gamma 90.000000
_cell_volume 2661.826598
_symmetry_space_group_name_H-M "C 2/M"
_symmetry_group_IT_number 12
_symmetry_cell_setting 'monoclinic'
loop_
_space_group_symop_operation_xyz
x,y,z
-x,y,-z
-x,-y,-z
x,-y,z
1/2+x,1/2+y,z
1/2-x,1/2+y,-z
1/2-x,1/2-y,-z
1/2+x,1/2-y,z
loop_
_atom_site_type_symbol
_atom_site_label
_atom_site_fract_x
_atom_site_fract_y
_atom_site_fract_z
Si Si1 0.887782 0.279009 0.188172
Si Si2 0.872044 0.100102 0.032197
Si Si3 0.921707 0.395160 0.921916
Si Si4 0.771678 0.224143 0.644060
Si Si5 0.500329 0.224891 0.348839
Si Si6 0.292308 0.099914 0.802118
Si Si7 0.395822 0.606249 0.693856
O O1 0.904602 0.185368 0.096737
O O2 0.803568 0.294924 0.243102
O O3 0.922335 0.268515 0.321424
O O4 0.922942 0.357190 0.076277
O O5 0.789970 0.100416 0.117521
O O6 0.902798 0.000000 0.053358
O O7 0.875453 0.110994 0.866266
O O8 0.945371 0.500000 0.900636
O O9 0.958215 0.332500 0.787964
O O10 0.839299 0.391267 0.915346
O O11 0.750000 0.250000 0.500000
O O12 0.805375 0.314646 0.697109
O O13 0.829263 0.144354 0.638118
O O14 0.500000 0.180189 0.500000
O O15 0.539216 0.322628 0.349175
O O16 0.309394 0.000000 0.730743
O O17 0.411740 0.500000 0.652620
#
# Coordination Sequence:
#
# PCOD9220857 Si02
#       7
#     8   8   8   8   8   8   8
#     4  11  23  39  66  96 129 167 216 273 319 383
#     4   9  18  35  63  98 126 157 208 265 323 377
#     4  11  23  42  68  93 123 165 220 275 326 386
#     4  11  22  39  63  95 133 172 212 262 323 387
#     4  12  26  44  63  92 133 176 215 263 332 399
#     4   9  18  35  62  92 123 158 205 263 321 376
#     4  11  23  41  66  95 131 171 216 267 324 390
#
# _framework density 21.038186
#
# number of rings (size 3 to 8) (size 9 to 14) (size 15 to 20)
#    0.000    1.429    2.857    2.143    0.000    6.857 
#    0.000    4.286    0.000    0.000    0.000    0.000 
#    0.000    0.000    0.000    0.000    0.000    0.000 
#
# Total GULP energy -156396.585421 kJ/mol
# GULP energy per Si atom -5585.592336 kJ/mol
# Density = 2.099030 g / cm^3
# Si number density = 21.038186 Si / 1000 Ang^3
#
#
#
# Elastic Constant Matrix: (Units=GPa)
#
#
# Indices 1 2 3 4 5 6 
#
# 1 64.0519 36.5824 10.5727 0.0000 23.7737 0.0000
# 2 36.5824 112.9655 37.0491 0.0000 2.5486 0.0000
# 3 10.5727 37.0491 94.0068 0.0000 18.3800 0.0000
# 4 0.0000 0.0000 0.0000 6.4148 0.0000 -1.0706
# 5 23.7737 2.5486 18.3800 0.0000 34.1188 0.0000
# 6 0.0000 0.0000 0.0000 -1.0706 0.0000 17.0302
#
#
#
# Elastic Compliance Matrix: (Units=1/GPa)
#
#
# Indices 1 2 3 4 5 6 
#
# 1 0.029125 -0.010665 0.005298 0.000000 -0.022351 0.000000
# 2 -0.010665 0.014147 -0.006284 0.000000 0.009760 0.000000
# 3 0.005298 -0.006284 0.014696 0.000000 -0.011139 0.000000
# 4 0.000000 0.000000 0.000000 0.157542 0.000000 0.009904
# 5 -0.022351 0.009760 -0.011139 0.000000 0.050155 0.000000
# 6 0.000000 0.000000 0.000000 0.009904 0.000000 0.059342
#
#
# Mechanical properties :
#
#
# Convention : Reuss Voigt Hill
#
# Bulk Modulus (GPa) = 28.84755 48.82585 38.83670
# Shear Modulus (GPa) = 13.89413 23.96743 18.93078
#
# Velocity S-wave (km/s) = 2.57266 3.37892 3.00297
# Velocity P-wave (km/s) = 4.75042 6.20333 5.52485
#
# Compressibility (1/GPa) = 0.03466499
#
# Stress axis : x y z
#
# Youngs Moduli (GPa) = 34.33483 70.68754 68.04471
#
# Poissons Ratio (x) = 0.75388 -0.36047
# Poissons Ratio (y) = 0.36618 0.42760
# Poissons Ratio (z) = -0.18189 0.44421
#
# Static dielectric constant tensor:
#      x y z
#    x 1.807060 0.000000 0.018140 
#    y 0.000000 1.774190 0.000000 
#    z 0.018140 0.000000 1.746930 
# 
# From -- ./inp_files/86383.got.cif
#   From: 2010.05.17/outbox.cif.g08.bks.cpg/sg12_44_cif.got.tgz:86383.got - 2010.06.03 13:09:07.
