data_PCOD9220077
_publ_section_title
;
Structure prediction by ZEFSAII (Michael W. Deem and Ramdas Pophale) SiO2 
 PCOD9220077
Probable space group: C 2/M
;
_chemical_formula_sum "Si O2"
_cell_formula_units_Z 56
_cell_length_a 24.396051
_cell_length_b 8.646171
_cell_length_c 14.276187
_cell_angle_alpha 90.000000
_cell_angle_beta 105.712438
_cell_angle_gamma 90.000000
_cell_volume 2898.787087
_symmetry_space_group_name_H-M "C 2/M"
_symmetry_group_IT_number 12
_symmetry_cell_setting 'monoclinic'
loop_
_space_group_symop_operation_xyz
x,y,z
-x,y,-z
-x,-y,-z
x,-y,z
1/2+x,1/2+y,z
1/2-x,1/2+y,-z
1/2-x,1/2-y,-z
1/2+x,1/2-y,z
loop_
_atom_site_type_symbol
_atom_site_label
_atom_site_fract_x
_atom_site_fract_y
_atom_site_fract_z
Si Si1 0.765050 0.684861 0.109047
Si Si2 0.914521 0.685237 0.517274
Si Si3 0.666557 0.311167 0.208147
Si Si4 0.386788 0.316426 0.149278
Si Si5 0.434266 0.311435 0.969448
Si Si6 0.033487 0.314708 0.660736
Si Si7 0.807529 0.816305 0.569336
O O1 0.762651 0.500000 0.104485
O O2 0.718189 0.736504 0.163352
O O3 0.829281 0.737449 0.159395
O O4 0.750000 0.750000 0.000000
O O5 0.906444 0.500000 0.519058
O O6 0.932135 0.720495 0.418857
O O7 0.859096 0.770724 0.525976
O O8 0.968274 0.725458 0.607888
O O9 0.665937 0.500000 0.208537
O O10 0.606217 0.261732 0.135119
O O11 0.678213 0.257765 0.319083
O O12 0.377672 0.500000 0.143167
O O13 0.438797 0.273225 0.240536
O O14 0.402797 0.266141 0.051273
O O15 0.435833 0.500000 0.968849
O O16 0.500000 0.258405 0.000000
O O17 0.036795 0.500000 0.677252
O O18 0.750000 0.750000 0.500000
O O19 0.802058 0.000000 0.572706
#
# Coordination Sequence:
#
# PCOD9220077 Si02
#       7
#     8   8   8   8   8   8   8
#     4  11  21  38  60  83 114 152 193 237 285 345
#     4   9  20  41  63  83 114 156 197 240 297 357
#     4   9  20  38  58  81 112 156 197 230 288 356
#     4  11  22  35  58  91 118 147 193 243 289 344
#     4   9  18  34  57  84 117 153 189 230 282 350
#     4   9  20  39  62  85 115 156 194 235 297 362
#     4  11  24  40  61  87 117 156 202 248 294 351
#
# _framework density 19.318425000000001
#
# number of rings (size 3 to 8) (size 9 to 14) (size 15 to 20)
#    0.000    2.143    1.429    2.143    4.000    1.143 
#    0.000    3.571    0.000    1.714    0.000    0.000 
#    0.000    0.000    0.000    0.000    0.000    0.000 
#
# Total GULP energy -156348.339351 kJ/mol
# GULP energy per Si atom -5583.869263 kJ/mol
# Density = 1.927446 g / cm^3
# Si number density = 19.318425 Si / 1000 Ang^3
#
#
#
# Elastic Constant Matrix: (Units=GPa)
#
#
# Indices 1 2 3 4 5 6 
#
# 1 128.3791 26.2232 41.6845 0.0000 15.2770 0.0000
# 2 26.2232 20.1491 20.8305 0.0000 4.0110 0.0000
# 3 41.6845 20.8305 104.6752 0.0000 27.5022 0.0000
# 4 0.0000 0.0000 0.0000 28.7169 0.0000 3.6939
# 5 15.2770 4.0110 27.5022 0.0000 16.8729 0.0000
# 6 0.0000 0.0000 0.0000 3.6939 0.0000 27.9480
#
#
#
# Elastic Compliance Matrix: (Units=1/GPa)
#
#
# Indices 1 2 3 4 5 6 
#
# 1 0.011369 -0.013387 0.000009 0.000000 -0.007125 0.000000
# 2 -0.013387 0.079125 -0.015142 0.000000 0.017992 0.000000
# 3 0.000009 -0.015142 0.020323 0.000000 -0.029534 0.000000
# 4 0.000000 0.000000 0.000000 0.035425 0.000000 -0.004682
# 5 -0.007125 0.017992 -0.029534 0.000000 0.109579 0.000000
# 6 0.000000 0.000000 0.000000 -0.004682 0.000000 0.036400
#
#
# Mechanical properties :
#
#
# Convention : Reuss Voigt Hill
#
# Bulk Modulus (GPa) = 18.59558 47.85330 33.22444
# Shear Modulus (GPa) = 13.61705 25.67189 19.64447
#
# Velocity S-wave (km/s) = 2.65783 3.64934 3.19231
# Velocity P-wave (km/s) = 4.36640 6.52545 5.55189
#
# Compressibility (1/GPa) = 0.05377622
#
# Stress axis : x y z
#
# Youngs Moduli (GPa) = 87.95871 12.63823 49.20583
#
# Poissons Ratio (x) = 0.16919 -0.00043
# Poissons Ratio (y) = 1.17748 0.74508
# Poissons Ratio (z) = -0.00076 0.19137
#
# Static dielectric constant tensor:
#      x y z
#    x 1.659690 0.000000 0.017990 
#    y 0.000000 1.663530 0.000000 
#    z 0.017990 0.000000 1.646590 
# 
# From -- ./inp_files/237833.got.cif
#   From: 2010.05.17/outbox.cif.g08.bks.cpg/sg12_119_cif.got.tgz:237833.got - 2010.06.03 13:09:07.
