data_PCOD9220347
_publ_section_title
;
Structure prediction by ZEFSAII (Michael W. Deem and Ramdas Pophale) SiO2 
 PCOD9220347
Probable space group: C 2/M
;
_chemical_formula_sum "Si O2"
_cell_formula_units_Z 40
_cell_length_a 11.715647
_cell_length_b 20.450410
_cell_length_c 18.883146
_cell_angle_alpha 90.000000
_cell_angle_beta 27.585980
_cell_angle_gamma 90.000000
_cell_volume 2095.066901
_symmetry_space_group_name_H-M "C 2/M"
_symmetry_group_IT_number 12
_symmetry_cell_setting 'monoclinic'
loop_
_space_group_symop_operation_xyz
x,y,z
-x,y,-z
-x,-y,-z
x,-y,z
1/2+x,1/2+y,z
1/2-x,1/2+y,-z
1/2-x,1/2-y,-z
1/2+x,1/2-y,z
loop_
_atom_site_type_symbol
_atom_site_label
_atom_site_fract_x
_atom_site_fract_y
_atom_site_fract_z
Si Si1 0.309134 0.076696 0.884232
Si Si2 0.331558 0.394506 0.661918
Si Si3 0.276910 0.500000 0.320940
Si Si4 0.280757 0.500000 0.811469
Si Si5 0.996987 0.747962 0.415207
Si Si6 0.705796 0.379022 0.791727
O O1 0.553361 0.097241 0.788892
O O2 0.342677 0.086971 0.782467
O O3 0.249016 0.000000 0.930882
O O4 0.082490 0.122705 0.030081
O O5 0.500000 0.412550 0.500000
O O6 0.339234 0.439455 0.727026
O O7 0.395957 0.320927 0.647843
O O8 0.512063 0.500000 0.242644
O O9 0.288551 0.431797 0.272958
O O10 0.000000 0.500000 0.500000
O O11 0.000000 0.500000 0.000000
O O12 0.750000 0.750000 0.500000
O O13 0.000000 0.736138 0.500000
O O14 0.169509 0.689963 0.291580
#
# Coordination Sequence:
#
# PCOD9220347 Si02
#       6
#     8   8   4   4   8   8
#     4  11  21  42  70  99 132 171 229 284 330 416
#     4  11  25  45  72  95 132 185 231 276 340 417
#     4  12  26  35  66 103 130 178 224 275 343 400
#     4  12  27  46  66 105 143 173 224 293 348 409
#     4  11  26  47  67  98 138 179 229 284 334 415
#     4  11  22  42  66  96 139 174 217 280 344 398
#
# _framework density 19.092469000000001
#
# number of rings (size 3 to 8) (size 9 to 14) (size 15 to 20)
#    0.000    0.800    3.000    5.100    8.400    0.800 
#    3.600    0.000    0.000    0.000    0.000    0.000 
#    0.000    0.000    0.000    0.000    0.000    0.000 
#
# Total GULP energy -111477.344766 kJ/mol
# GULP energy per Si atom -5573.867238 kJ/mol
# Density = 1.904901 g / cm^3
# Si number density = 19.092469 Si / 1000 Ang^3
#
#
#
# Elastic Constant Matrix: (Units=GPa)
#
#
# Indices 1 2 3 4 5 6 
#
# 1 153.0174 71.8312 54.1274 0.0082 -2.4744 0.0607
# 2 71.8312 153.4632 83.3783 0.0790 -1.4976 0.0647
# 3 54.1274 83.3783 93.1313 -0.0811 10.5882 0.0788
# 4 0.0082 0.0790 -0.0811 38.2215 -0.0319 -0.8663
# 5 -2.4744 -1.4976 10.5882 -0.0319 16.0637 -0.0076
# 6 0.0607 0.0647 0.0788 -0.8663 -0.0076 30.7564
#
#
#
# Elastic Compliance Matrix: (Units=1/GPa)
#
#
# Indices 1 2 3 4 5 6 
#
# 1 0.008892 -0.002138 -0.003662 -0.000002 0.003584 -0.000003
# 2 -0.002138 0.014657 -0.012969 -0.000049 0.009586 0.000008
# 3 -0.003662 -0.012969 0.026678 0.000067 -0.019357 -0.000037
# 4 -0.000002 -0.000049 0.000067 0.026180 0.000003 0.000737
# 5 0.003584 0.009586 -0.019357 0.000003 0.076457 0.000041
# 6 -0.000003 0.000008 -0.000037 0.000737 0.000041 0.032534
#
#
# Mechanical properties :
#
#
# Convention : Reuss Voigt Hill
#
# Bulk Modulus (GPa) = 78.80756 90.92062 84.86409
# Shear Modulus (GPa) = 22.01044 29.69330 25.85187
#
# Velocity S-wave (km/s) = 3.39902 3.94793 3.68371
# Velocity P-wave (km/s) = 7.53464 8.27684 7.91445
#
# Compressibility (1/GPa) = 0.01268914
#
# Stress axis : x y z
#
# Youngs Moduli (GPa) = 112.46241 68.22806 37.48466
#
# Poissons Ratio (x) = 0.14585 0.13725
# Poissons Ratio (y) = 0.24041 0.48615
# Poissons Ratio (z) = 0.41179 0.88487
#
# Static dielectric constant tensor:
#      x y z
#    x 1.602350 -0.000010 0.110470 
#    y -0.000010 1.641220 -0.000010 
#    z 0.110470 -0.000010 1.673670 
# 
# From -- ./inp_files/264970.got.cif
#   From: 2010.05.17/outbox.cif.g08.bks.cpg/sg12_133_cif.got.tgz:264970.got - 2010.06.03 13:09:07.
