data_PCOD9220482
_publ_section_title
;
Structure prediction by ZEFSAII (Michael W. Deem and Ramdas Pophale) SiO2 
 PCOD9220482
Probable space group: C 2/M
;
_chemical_formula_sum "Si O2"
_cell_formula_units_Z 40
_cell_length_a 31.226914
_cell_length_b 9.045437
_cell_length_c 15.676438
_cell_angle_alpha 90.000000
_cell_angle_beta 28.456116
_cell_angle_gamma 90.000000
_cell_volume 2109.870081
_symmetry_space_group_name_H-M "C 2/M"
_symmetry_group_IT_number 12
_symmetry_cell_setting 'monoclinic'
loop_
_space_group_symop_operation_xyz
x,y,z
-x,y,-z
-x,-y,-z
x,-y,z
1/2+x,1/2+y,z
1/2-x,1/2+y,-z
1/2-x,1/2-y,-z
1/2+x,1/2-y,z
loop_
_atom_site_type_symbol
_atom_site_label
_atom_site_fract_x
_atom_site_fract_y
_atom_site_fract_z
Si Si1 0.225297 0.176691 0.953870
Si Si2 0.024177 0.331727 0.858901
Si Si3 0.199107 0.171819 0.511732
Si Si4 0.842162 0.322900 0.586727
Si Si5 0.448744 0.827230 0.815642
O O1 0.127797 0.230662 0.093074
O O2 0.226628 0.000000 0.959566
O O3 0.250000 0.250000 0.000000
O O4 0.297509 0.219705 0.754319
O O5 0.061451 0.500000 0.777965
O O6 0.095550 0.205287 0.714931
O O7 0.948050 0.314637 0.920299
O O8 0.000000 0.325784 0.000000
O O9 0.250000 0.250000 0.500000
O O10 0.209798 0.246228 0.400569
O O11 0.221370 0.000000 0.469600
O O12 0.834125 0.500000 0.591560
O O13 0.948906 0.288589 0.392073
O O14 0.434200 0.000000 0.819620
#
# Coordination Sequence:
#
# PCOD9220482 Si02
#       5
#     8   8   8   8   8
#     4  11  24  41  63  90 119 152 200 250 302 360
#     4   9  19  36  57  84 118 157 197 236 292 356
#     4  11  22  35  55  84 118 156 199 243 292 350
#     4   9  21  42  62  84 118 160 198 242 299 362
#     4   9  19  38  61  85 119 157 197 242 296 354
#
# _framework density 18.958511999999999
#
# number of rings (size 3 to 8) (size 9 to 14) (size 15 to 20)
#    0.000    2.200    0.000    3.600    2.800    6.000 
#    0.000    4.000    0.000    0.000    0.000    0.000 
#    0.000    0.000    0.000    0.000    0.000    0.000 
#
# Total GULP energy -111572.254864 kJ/mol
# GULP energy per Si atom -5578.612743 kJ/mol
# Density = 1.891536 g / cm^3
# Si number density = 18.958512 Si / 1000 Ang^3
#
#
#
# Elastic Constant Matrix: (Units=GPa)
#
#
# Indices 1 2 3 4 5 6 
#
# 1 171.7005 67.0496 74.7736 0.0000 22.8494 0.0000
# 2 67.0496 62.1108 39.1459 0.0000 8.4053 0.0000
# 3 74.7736 39.1459 86.0663 0.0000 23.2750 0.0000
# 4 0.0000 0.0000 0.0000 27.8832 0.0000 -3.0651
# 5 22.8494 8.4053 23.2750 0.0000 34.7258 0.0000
# 6 0.0000 0.0000 0.0000 -3.0651 0.0000 38.7423
#
#
#
# Elastic Compliance Matrix: (Units=1/GPa)
#
#
# Indices 1 2 3 4 5 6 
#
# 1 0.012276 -0.009245 -0.005961 0.000000 -0.001844 0.000000
# 2 -0.009245 0.029619 -0.006285 0.000000 0.003127 0.000000
# 3 -0.005961 -0.006285 0.022210 0.000000 -0.009443 0.000000
# 4 0.000000 0.000000 0.000000 0.036179 0.000000 0.002862
# 5 -0.001844 0.003127 -0.009443 0.000000 0.035583 0.000000
# 6 0.000000 0.000000 0.000000 0.002862 0.000000 0.026038
#
#
# Mechanical properties :
#
#
# Convention : Reuss Voigt Hill
#
# Bulk Modulus (GPa) = 47.34469 75.75731 61.55100
# Shear Modulus (GPa) = 23.59288 29.53082 26.56185
#
# Velocity S-wave (km/s) = 3.53150 3.95100 3.74712
# Velocity P-wave (km/s) = 6.45412 7.80129 7.15946
#
# Compressibility (1/GPa) = 0.02112169
#
# Stress axis : x y z
#
# Youngs Moduli (GPa) = 81.45995 33.76242 45.02384
#
# Poissons Ratio (x) = 0.31214 0.26841
# Poissons Ratio (y) = 0.75312 0.28297
# Poissons Ratio (z) = 0.48562 0.21220
#
# Static dielectric constant tensor:
#      x y z
#    x 1.657340 0.000000 0.004240 
#    y 0.000000 1.643630 0.000000 
#    z 0.004240 0.000000 1.682650 
# 
# From -- ./inp_files/211223.got.cif
#   From: 2010.05.17/outbox.cif.g08.bks.cpg/sg12_106_cif.got.tgz:211223.got - 2010.06.03 13:09:07.
