data_PCOD9220815
_publ_section_title
;
Structure prediction by ZEFSAII (Michael W. Deem and Ramdas Pophale) SiO2 
 PCOD9220815
Probable space group: C 2/M
;
_chemical_formula_sum "Si O2"
_cell_formula_units_Z 36
_cell_length_a 10.383010
_cell_length_b 26.871079
_cell_length_c 11.958166
_cell_angle_alpha 90.000000
_cell_angle_beta 34.797690
_cell_angle_gamma 90.000000
_cell_volume 1903.995682
_symmetry_space_group_name_H-M "C 2/M"
_symmetry_group_IT_number 12
_symmetry_cell_setting 'monoclinic'
loop_
_space_group_symop_operation_xyz
x,y,z
-x,y,-z
-x,-y,-z
x,-y,z
1/2+x,1/2+y,z
1/2-x,1/2+y,-z
1/2-x,1/2-y,-z
1/2+x,1/2-y,z
loop_
_atom_site_type_symbol
_atom_site_label
_atom_site_fract_x
_atom_site_fract_y
_atom_site_fract_z
Si Si1 0.472766 0.441135 0.152882
Si Si2 0.526359 0.289307 0.348378
Si Si3 0.000000 0.391196 0.500000
Si Si4 0.667711 0.125515 0.970318
Si Si5 0.984189 0.682370 0.312650
O O1 0.498931 0.500000 0.152193
O O2 0.221528 0.423701 0.366453
O O3 0.658699 0.410948 0.090841
O O4 0.500000 0.431765 0.000000
O O5 0.500000 0.281952 0.500000
O O6 0.695233 0.332793 0.195800
O O7 0.280369 0.306210 0.481016
O O8 0.596243 0.236627 0.244663
O O9 0.940155 0.355070 0.645087
O O10 0.500000 0.100627 0.000000
O O11 0.531370 0.155421 0.162702
#
# Coordination Sequence:
#
# PCOD9220815 Si02
#       5
#     8   8   4   8   8
#     4  11  25  44  67  93 123 165 219 273 319 370
#     4  11  22  39  59  91 134 172 209 248 306 380
#     4  12  21  42  70  92 126 166 215 266 316 374
#     4  12  24  41  65  94 133 167 208 261 320 380
#     4  11  23  38  62  95 129 171 208 255 309 377
#
# _framework density 18.907606000000001
#
# number of rings (size 3 to 8) (size 9 to 14) (size 15 to 20)
#    0.000    0.667    7.778    1.000    0.000    0.444 
#    4.000    0.000    0.000    2.000    0.000    0.000 
#    0.000    0.000    0.000    0.000    0.000    0.000 
#
# Total GULP energy -100559.211674 kJ/mol
# GULP energy per Si atom -5586.622871 kJ/mol
# Density = 1.886457 g / cm^3
# Si number density = 18.907606 Si / 1000 Ang^3
#
#
#
# Elastic Constant Matrix: (Units=GPa)
#
#
# Indices 1 2 3 4 5 6 
#
# 1 131.8125 71.2610 32.6110 0.0000 3.8217 0.0000
# 2 71.2610 115.5235 41.3603 0.0000 -3.7023 0.0000
# 3 32.6110 41.3603 54.0758 0.0000 -3.7099 0.0000
# 4 0.0000 0.0000 0.0000 11.6629 0.0000 7.4761
# 5 3.8217 -3.7023 -3.7099 0.0000 29.4504 0.0000
# 6 0.0000 0.0000 0.0000 7.4761 0.0000 14.7099
#
#
#
# Elastic Compliance Matrix: (Units=1/GPa)
#
#
# Indices 1 2 3 4 5 6 
#
# 1 0.011750 -0.006515 -0.002284 0.000000 -0.002631 0.000000
# 2 -0.006515 0.015536 -0.007830 0.000000 0.001812 0.000000
# 3 -0.002284 -0.007830 0.026036 0.000000 0.002592 0.000000
# 4 0.000000 0.000000 0.000000 0.127173 0.000000 -0.064634
# 5 -0.002631 0.001812 0.002592 0.000000 0.034851 0.000000
# 6 0.000000 0.000000 0.000000 -0.064634 0.000000 0.100830
#
#
# Mechanical properties :
#
#
# Convention : Reuss Voigt Hill
#
# Bulk Modulus (GPa) = 49.83562 65.76404 57.79983
# Shear Modulus (GPa) = 14.04013 21.57660 17.80836
#
# Velocity S-wave (km/s) = 2.72796 3.38177 3.07231
# Velocity P-wave (km/s) = 6.02802 7.07854 6.57430
#
# Compressibility (1/GPa) = 0.02006597
#
# Stress axis : x y z
#
# Youngs Moduli (GPa) = 85.10821 64.36572 38.40782
#
# Poissons Ratio (x) = 0.41932 0.08771
# Poissons Ratio (y) = 0.55445 0.30073
# Poissons Ratio (z) = 0.19435 0.50398
#
# Static dielectric constant tensor:
#      x y z
#    x 1.681350 0.000000 -0.015230 
#    y 0.000000 1.629330 0.000000 
#    z -0.015230 0.000000 1.648270 
# 
# From -- ./inp_files/7002.got.cif
#   From: 2010.05.17/outbox.cif.g08.bks.cpg/sg12_4_cif.got.tgz:7002.got - 2010.06.03 13:09:07.
