data_PCOD9220835
_publ_section_title
;
Structure prediction by ZEFSAII (Michael W. Deem and Ramdas Pophale) SiO2 
 PCOD9220835
Probable space group: C 2/M
;
_chemical_formula_sum "Si O2"
_cell_formula_units_Z 40
_cell_length_a 18.007072
_cell_length_b 9.938360
_cell_length_c 27.052034
_cell_angle_alpha 90.000000
_cell_angle_beta 154.375127
_cell_angle_gamma 90.000000
_cell_volume 2093.731439
_symmetry_space_group_name_H-M "C 2/M"
_symmetry_group_IT_number 12
_symmetry_cell_setting 'monoclinic'
loop_
_space_group_symop_operation_xyz
x,y,z
-x,y,-z
-x,-y,-z
x,-y,z
1/2+x,1/2+y,z
1/2-x,1/2+y,-z
1/2-x,1/2-y,-z
1/2+x,1/2-y,z
loop_
_atom_site_type_symbol
_atom_site_label
_atom_site_fract_x
_atom_site_fract_y
_atom_site_fract_z
Si Si1 0.688402 0.500000 0.264323
Si Si2 0.027722 0.716204 0.575514
Si Si3 0.370749 0.215461 0.968852
Si Si4 0.174233 0.000000 0.008209
Si Si5 0.869542 0.000000 0.219405
Si Si6 0.751291 0.000000 0.581197
Si Si7 0.981143 0.500000 0.114911
Si Si8 0.147064 0.000000 0.678327
O O1 0.798137 0.629487 0.312213
O O2 0.496660 0.500000 0.128691
O O3 0.697879 0.500000 0.329787
O O4 0.044625 0.864176 0.606812
O O5 0.000000 0.723678 0.500000
O O6 0.869293 0.628760 0.500488
O O7 0.203668 0.130746 0.852307
O O8 0.500000 0.214203 0.000000
O O9 0.331546 0.365681 0.962481
O O10 0.448921 0.130765 0.061350
O O11 0.342945 0.000000 0.075465
O O12 0.796952 0.000000 0.231053
O O13 0.073641 0.000000 0.343409
O O14 0.179183 0.500000 0.249842
#
# Coordination Sequence:
#
# PCOD9220835 Si02
#       8
#     4   8   8   4   4   4   4   4
#     4   9  18  37  60  82 113 154 191 240 306 344
#     4   9  20  37  60  85 112 145 194 253 302 349
#     4  11  22  42  58  88 129 167 196 242 306 361
#     4  12  24  35  64  98 120 155 216 257 269 352
#     4  11  23  39  62  77 120 173 191 233 314 372
#     4   9  20  41  59  83 113 149 197 250 301 353
#     4  11  22  39  61  91 123 163 207 242 298 365
#     4  12  21  36  60  84 115 159 197 237 310 362
#
# _framework density 19.104645999999999
#
# number of rings (size 3 to 8) (size 9 to 14) (size 15 to 20)
#    0.000    1.600    2.000    5.400    0.000    4.000 
#    0.000    1.000    0.000    0.000    0.000    0.000 
#    0.000    0.000    0.000    0.000    0.000    0.000 
#
# Total GULP energy -111742.281771 kJ/mol
# GULP energy per Si atom -5587.114089 kJ/mol
# Density = 1.906116 g / cm^3
# Si number density = 19.104646 Si / 1000 Ang^3
#
#
#
# Elastic Constant Matrix: (Units=GPa)
#
#
# Indices 1 2 3 4 5 6 
#
# 1 63.5548 33.7766 17.2609 -0.0016 22.9032 0.0015
# 2 33.7766 184.0409 46.9124 -0.0007 5.2503 0.0026
# 3 17.2609 46.9124 90.3983 -0.0030 22.8017 0.0078
# 4 -0.0016 -0.0007 -0.0030 23.1284 -0.0004 -8.3641
# 5 22.9032 5.2503 22.8017 -0.0004 27.3674 0.0000
# 6 0.0015 0.0026 0.0078 -8.3641 0.0000 29.9083
#
#
#
# Elastic Compliance Matrix: (Units=1/GPa)
#
#
# Indices 1 2 3 4 5 6 
#
# 1 0.026005 -0.005024 0.003657 0.000001 -0.023846 -0.000002
# 2 -0.005024 0.007312 -0.004485 0.000000 0.006538 0.000001
# 3 0.003657 -0.004485 0.016771 0.000001 -0.016173 -0.000004
# 4 0.000001 0.000000 0.000001 0.048102 -0.000001 0.013452
# 5 -0.023846 0.006538 -0.016173 -0.000001 0.068716 0.000005
# 6 -0.000002 0.000001 -0.000004 0.013452 0.000005 0.037197
#
#
# Mechanical properties :
#
#
# Convention : Reuss Voigt Hill
#
# Bulk Modulus (GPa) = 26.05321 59.32156 42.68738
# Shear Modulus (GPa) = 21.87213 32.08375 26.97794
#
# Velocity S-wave (km/s) = 3.38725 4.10246 3.76189
# Velocity P-wave (km/s) = 5.38188 7.31836 6.42352
#
# Compressibility (1/GPa) = 0.03838299
#
# Stress axis : x y z
#
# Youngs Moduli (GPa) = 38.45450 136.75589 59.62841
#
# Poissons Ratio (x) = 0.68712 -0.21804
# Poissons Ratio (y) = 0.19321 0.26741
# Poissons Ratio (z) = -0.14062 0.61329
#
# Static dielectric constant tensor:
#      x y z
#    x 1.645790 0.000000 -0.006950 
#    y 0.000000 1.654110 0.000000 
#    z -0.006950 0.000000 1.662860 
# 
# From -- ./inp_files/292111.got.cif
#   From: 2010.05.17/outbox.cif.g08.bks.cpg/sg12_147_cif.got.tgz:292111.got - 2010.06.03 13:09:07.
