data_PCOD9220516
_publ_section_title
;
Structure prediction by ZEFSAII (Michael W. Deem and Ramdas Pophale) SiO2 
 PCOD9220516
Probable space group: C 2/M
;
_chemical_formula_sum "Si O2"
_cell_formula_units_Z 40
_cell_length_a 20.523950
_cell_length_b 17.740300
_cell_length_c 5.088432
_cell_angle_alpha 90.000000
_cell_angle_beta 99.354410
_cell_angle_gamma 90.000000
_cell_volume 1828.065727
_symmetry_space_group_name_H-M "C 2/M"
_symmetry_group_IT_number 12
_symmetry_cell_setting 'monoclinic'
loop_
_space_group_symop_operation_xyz
x,y,z
-x,y,-z
-x,-y,-z
x,-y,z
1/2+x,1/2+y,z
1/2-x,1/2+y,-z
1/2-x,1/2-y,-z
1/2+x,1/2-y,z
loop_
_atom_site_type_symbol
_atom_site_label
_atom_site_fract_x
_atom_site_fract_y
_atom_site_fract_z
Si Si1 0.222285 0.588304 0.975780
Si Si2 0.694332 0.817658 0.464400
Si Si3 0.038806 0.702242 0.274871
Si Si4 0.056705 0.872420 0.369995
Si Si5 0.627226 0.584388 0.892115
O O1 0.203003 0.500000 0.943978
O O2 0.188419 0.644452 0.747660
O O3 0.299404 0.595280 0.955344
O O4 0.216306 0.619554 0.266658
O O5 0.750000 0.750000 0.500000
O O6 0.618447 0.800918 0.330227
O O7 0.027838 0.792002 0.274735
O O8 0.000000 0.670167 0.500000
O O9 0.000000 0.670642 0.000000
O O10 0.081236 0.907728 0.116295
O O11 0.000000 0.913910 0.500000
O O12 0.112234 0.863088 0.632731
O O13 0.623700 0.500000 0.779853
#
# Coordination Sequence:
#
# PCOD9220516 Si02
#       5
#     8   8   8   8   8
#     4  11  24  42  64  93 131 167 203 266 337 381
#     4  12  24  41  71 101 126 165 224 271 306 383
#     4  11  23  41  63  89 124 160 198 260 329 374
#     4  11  22  36  54  80 117 161 204 248 303 367
#     4  11  22  36  54  80 118 160 203 248 300 366
#
# _framework density 21.881053000000001
#
# number of rings (size 3 to 8) (size 9 to 14) (size 15 to 20)
#    0.000    0.800    0.000    9.600    0.000    5.600 
#    0.000    0.000    0.000   12.000    0.000    0.000 
#    0.000    0.000    0.000    0.000    0.000    0.000 
#
# Total GULP energy -111598.542666 kJ/mol
# GULP energy per Si atom -5579.927133 kJ/mol
# Density = 2.183125 g / cm^3
# Si number density = 21.881053 Si / 1000 Ang^3
#
#
#
# Elastic Constant Matrix: (Units=GPa)
#
#
# Indices 1 2 3 4 5 6 
#
# 1 111.0117 5.1569 16.0549 0.0000 9.0808 0.0000
# 2 5.1569 46.6131 13.5737 0.0000 3.5346 0.0000
# 3 16.0549 13.5737 125.7523 0.0000 4.5626 0.0000
# 4 0.0000 0.0000 0.0000 12.3554 0.0000 -11.8132
# 5 9.0808 3.5346 4.5626 0.0000 40.1397 0.0000
# 6 0.0000 0.0000 0.0000 -11.8132 0.0000 11.6618
#
#
#
# Elastic Compliance Matrix: (Units=1/GPa)
#
#
# Indices 1 2 3 4 5 6 
#
# 1 0.009347 -0.000578 -0.001060 0.000000 -0.001943 0.000000
# 2 -0.000578 0.022299 -0.002276 0.000000 -0.001574 0.000000
# 3 -0.001060 -0.002276 0.008352 0.000000 -0.000509 0.000000
# 4 0.000000 0.000000 0.000000 2.572101 0.000000 2.605500
# 5 -0.001943 -0.001574 -0.000509 0.000000 0.025549 0.000000
# 6 0.000000 0.000000 0.000000 2.605500 0.000000 2.725082
#
#
# Mechanical properties :
#
#
# Convention : Reuss Voigt Hill
#
# Bulk Modulus (GPa) = 31.08564 39.21646 35.15105
# Shear Modulus (GPa) = 0.92915 29.40416 15.16665
#
# Velocity S-wave (km/s) = 0.65235 3.66979 2.63561
# Velocity P-wave (km/s) = 3.84771 5.99316 5.03601
#
# Compressibility (1/GPa) = 0.03216920
#
# Stress axis : x y z
#
# Youngs Moduli (GPa) = 106.98348 44.84446 119.73638
#
# Poissons Ratio (x) = 0.02592 0.12698
# Poissons Ratio (y) = 0.06183 0.27253
# Poissons Ratio (z) = 0.11345 0.10207
#
# Static dielectric constant tensor:
#      x y z
#    x 1.900820 0.000000 0.059450 
#    y 0.000000 1.772750 0.000000 
#    z 0.059450 0.000000 1.900890 
# 
# From -- ./inp_files/20236.got.cif
#   From: 2010.05.17/outbox.cif.g08.bks.cpg/sg12_11_cif.got.tgz:20236.got - 2010.06.03 13:09:07.
