data_PCOD9220842
_publ_section_title
;
Structure prediction by ZEFSAII (Michael W. Deem and Ramdas Pophale) SiO2 
 PCOD9220842
Probable space group: C 2/M
;
_chemical_formula_sum "Si O2"
_cell_formula_units_Z 40
_cell_length_a 9.989394
_cell_length_b 26.800567
_cell_length_c 15.370797
_cell_angle_alpha 90.000000
_cell_angle_beta 26.183959
_cell_angle_gamma 90.000000
_cell_volume 1815.803249
_symmetry_space_group_name_H-M "C 2/M"
_symmetry_group_IT_number 12
_symmetry_cell_setting 'monoclinic'
loop_
_space_group_symop_operation_xyz
x,y,z
-x,y,-z
-x,-y,-z
x,-y,z
1/2+x,1/2+y,z
1/2-x,1/2+y,-z
1/2-x,1/2-y,-z
1/2+x,1/2-y,z
loop_
_atom_site_type_symbol
_atom_site_label
_atom_site_fract_x
_atom_site_fract_y
_atom_site_fract_z
Si Si1 0.787143 0.884769 0.042013
Si Si2 0.188561 0.696758 0.679668
Si Si3 0.830331 0.763410 0.771294
Si Si4 0.273094 0.443450 0.550750
Si Si5 0.362057 0.379867 0.804889
O O1 0.585584 0.837179 0.131897
O O2 0.542646 0.923023 0.225253
O O3 0.935758 0.896399 0.861660
O O4 0.000000 0.873095 0.000000
O O5 0.500000 0.665678 0.500000
O O6 0.273775 0.737020 0.701881
O O7 0.072505 0.723499 0.662077
O O8 0.897954 0.820142 0.764433
O O9 0.500000 0.750100 0.000000
O O10 0.500000 0.445346 0.500000
O O11 0.232842 0.500000 0.541256
O O12 0.423570 0.409206 0.387973
O O13 0.000000 0.390826 0.000000
#
# Coordination Sequence:
#
# PCOD9220842 Si02
#       5
#     8   8   8   8   8
#     4  12  26  44  69 100 138 181 222 277 337 393
#     4  12  24  40  63  95 133 175 223 274 325 395
#     4  11  22  39  62  92 132 175 219 269 328 391
#     4  11  24  45  75 104 131 171 226 278 338 408
#     4  11  22  44  70  99 139 176 224 276 329 399
#
# _framework density 22.028818000000001
#
# number of rings (size 3 to 8) (size 9 to 14) (size 15 to 20)
#    0.000    0.600    6.000    3.600    2.800    2.400 
#    0.000    1.000    0.000    0.000    0.000    0.000 
#    0.000    0.000    0.000    0.000    0.000    0.000 
#
# Total GULP energy -111658.037009 kJ/mol
# GULP energy per Si atom -5582.901850 kJ/mol
# Density = 2.197868 g / cm^3
# Si number density = 22.028818 Si / 1000 Ang^3
#
#
#
# Elastic Constant Matrix: (Units=GPa)
#
#
# Indices 1 2 3 4 5 6 
#
# 1 145.7921 18.0265 43.2300 0.0007 11.2931 0.0003
# 2 18.0265 85.0725 30.9033 -0.0005 3.1024 -0.0001
# 3 43.2300 30.9033 84.8050 0.0019 17.4641 0.0005
# 4 0.0007 -0.0005 0.0019 66.2358 -0.0014 17.2347
# 5 11.2931 3.1024 17.4641 -0.0014 47.8950 -0.0004
# 6 0.0003 -0.0001 0.0005 17.2347 -0.0004 23.6506
#
#
#
# Elastic Compliance Matrix: (Units=1/GPa)
#
#
# Indices 1 2 3 4 5 6 
#
# 1 0.008094 -0.000269 -0.003934 0.000000 -0.000457 0.000000
# 2 -0.000269 0.013601 -0.005028 0.000000 0.001016 0.000000
# 3 -0.003934 -0.005028 0.016619 -0.000001 -0.004807 0.000000
# 4 0.000000 0.000000 -0.000001 0.018630 0.000001 -0.013576
# 5 -0.000457 0.001016 -0.004807 0.000001 0.022674 0.000000
# 6 0.000000 0.000000 0.000000 -0.013576 0.000000 0.052175
#
#
# Mechanical properties :
#
#
# Convention : Reuss Voigt Hill
#
# Bulk Modulus (GPa) = 50.37370 55.55436 52.96403
# Shear Modulus (GPa) = 31.87270 42.45694 37.16482
#
# Velocity S-wave (km/s) = 3.80789 4.39491 4.11189
# Velocity P-wave (km/s) = 6.50002 7.14334 6.82926
#
# Compressibility (1/GPa) = 0.01985163
#
# Stress axis : x y z
#
# Youngs Moduli (GPa) = 123.54472 73.52255 60.17136
#
# Poissons Ratio (x) = 0.01981 0.23671
# Poissons Ratio (y) = 0.03329 0.30255
# Poissons Ratio (z) = 0.48601 0.36969
#
# Static dielectric constant tensor:
#      x y z
#    x 1.818160 0.000000 0.082850 
#    y 0.000000 1.818540 0.000000 
#    z 0.082850 0.000000 2.014560 
# 
# From -- ./inp_files/201122.got.cif
#   From: 2010.05.17/outbox.cif.g08.bks.cpg/sg12_101_cif.got.tgz:201122.got - 2010.06.03 13:09:07.
