data_PCOD9220878
_publ_section_title
;
Structure prediction by ZEFSAII (Michael W. Deem and Ramdas Pophale) SiO2 
 PCOD9220878
Probable space group: C 2/M
;
_chemical_formula_sum "Si O2"
_cell_formula_units_Z 40
_cell_length_a 9.930906
_cell_length_b 17.150378
_cell_length_c 12.551825
_cell_angle_alpha 90.000000
_cell_angle_beta 63.966436
_cell_angle_gamma 90.000000
_cell_volume 1920.903083
_symmetry_space_group_name_H-M "C 2/M"
_symmetry_group_IT_number 12
_symmetry_cell_setting 'monoclinic'
loop_
_space_group_symop_operation_xyz
x,y,z
-x,y,-z
-x,-y,-z
x,-y,z
1/2+x,1/2+y,z
1/2-x,1/2+y,-z
1/2-x,1/2-y,-z
1/2+x,1/2-y,z
loop_
_atom_site_type_symbol
_atom_site_label
_atom_site_fract_x
_atom_site_fract_y
_atom_site_fract_z
Si Si1 0.326462 0.826043 0.855584
Si Si2 0.855822 0.855677 0.880584
Si Si3 0.123364 0.410142 0.794714
Si Si4 0.308772 0.406947 0.293002
Si Si5 0.667194 0.594895 0.472864
O O1 0.336601 0.733210 0.847533
O O2 0.477964 0.857458 0.856431
O O3 0.301288 0.863619 0.749455
O O4 0.191090 0.852527 0.979700
O O5 0.735809 0.904482 0.854655
O O6 0.021175 0.886725 0.800421
O O7 0.077279 0.500000 0.795815
O O8 0.215573 0.382737 0.658644
O O9 0.286619 0.500000 0.293934
O O10 0.291211 0.381728 0.421984
O O11 0.500000 0.621739 0.500000
O O12 0.662716 0.500000 0.473716
#
# Coordination Sequence:
#
# PCOD9220878 Si02
#       5
#     8   8   8   8   8
#     4  11  25  40  57  90 128 155 192 251 310 345
#     4  11  23  42  61  82 124 169 194 233 304 371
#     4  11  22  39  65  90 116 156 205 249 290 353
#     4  11  22  39  65  90 116 156 205 249 290 353
#     4   9  18  37  62  88 119 156 196 244 305 358
#
# _framework density 20.823539
#
# number of rings (size 3 to 8) (size 9 to 14) (size 15 to 20)
#    0.000    1.400    2.000    3.600    0.000    8.800 
#    0.000    9.000    0.000    0.000    0.000    0.000 
#    0.000    0.000    0.000    0.000    0.000    0.000 
#
# Total GULP energy -111857.063647 kJ/mol
# GULP energy per Si atom -5592.853182 kJ/mol
# Density = 2.077614 g / cm^3
# Si number density = 20.823539 Si / 1000 Ang^3
#
#
#
# Elastic Constant Matrix: (Units=GPa)
#
#
# Indices 1 2 3 4 5 6 
#
# 1 41.1736 -2.2678 -16.1156 0.0000 9.8956 0.0000
# 2 -2.2678 40.7479 25.6455 0.0000 3.1387 0.0000
# 3 -16.1156 25.6455 65.8485 0.0000 14.7952 0.0000
# 4 0.0000 0.0000 0.0000 -67.1134 0.0000 21.8542
# 5 9.8956 3.1387 14.7952 0.0000 35.9504 0.0000
# 6 0.0000 0.0000 0.0000 21.8542 0.0000 19.1124
#
#
#
# Elastic Compliance Matrix: (Units=1/GPa)
#
#
# Indices 1 2 3 4 5 6 
#
# 1 0.032489 -0.005419 0.013184 0.000000 -0.013895 0.000000
# 2 -0.005419 0.033638 -0.015539 0.000000 0.004950 0.000000
# 3 0.013184 -0.015539 0.027520 0.000000 -0.013598 0.000000
# 4 0.000000 0.000000 0.000000 -0.010857 0.000000 0.012415
# 5 -0.013895 0.004950 -0.013598 0.000000 0.036805 0.000000
# 6 0.000000 0.000000 0.000000 0.012415 0.000000 0.038126
#
#
# Mechanical properties :
#
#
# Convention : Reuss Voigt Hill
#
# Bulk Modulus (GPa) = 12.80437 18.03269 15.41853
# Shear Modulus (GPa) = 25.08752 6.95708 16.02230
#
# Velocity S-wave (km/s) = 3.47474 1.82981 2.77687
# Velocity P-wave (km/s) = 4.71813 3.62531 4.20735
#
# Compressibility (1/GPa) = 0.07809831
#
# Stress axis : x y z
#
# Youngs Moduli (GPa) = 30.77987 29.72815 36.33695
#
# Poissons Ratio (x) = 0.16110 -0.47906
# Poissons Ratio (y) = 0.16680 0.56465
# Poissons Ratio (z) = -0.40580 0.46195
#
# Static dielectric constant tensor:
#      x y z
#    x 1.759710 0.000000 -0.026060 
#    y 0.000000 1.717840 0.000000 
#    z -0.026060 0.000000 1.751960 
# 
# From -- ./inp_files/118921.got.cif
#   From: 2010.05.17/outbox.cif.g08.bks.cpg/sg12_60_cif.got.tgz:118921.got - 2010.06.03 13:09:07.
