data_PCOD9220078
_publ_section_title
;
Structure prediction by ZEFSAII (Michael W. Deem and Ramdas Pophale) SiO2 
 PCOD9220078
Probable space group: C 2/M
;
_chemical_formula_sum "Si O2"
_cell_formula_units_Z 32
_cell_length_a 19.859451
_cell_length_b 21.548073
_cell_length_c 10.337836
_cell_angle_alpha 90.000000
_cell_angle_beta 157.550153
_cell_angle_gamma 90.000000
_cell_volume 1689.375015
_symmetry_space_group_name_H-M "C 2/M"
_symmetry_group_IT_number 12
_symmetry_cell_setting 'monoclinic'
loop_
_space_group_symop_operation_xyz
x,y,z
-x,y,-z
-x,-y,-z
x,-y,z
1/2+x,1/2+y,z
1/2-x,1/2+y,-z
1/2-x,1/2-y,-z
1/2+x,1/2-y,z
loop_
_atom_site_type_symbol
_atom_site_label
_atom_site_fract_x
_atom_site_fract_y
_atom_site_fract_z
Si Si1 0.223747 0.573016 0.066473
Si Si2 0.143781 0.215270 0.141957
Si Si3 0.988547 0.345814 0.124693
Si Si4 0.938448 0.142240 0.261831
O O1 0.205292 0.500000 0.020080
O O2 0.263299 0.606698 0.999943
O O3 0.404625 0.591245 0.465660
O O4 0.068747 0.604694 0.871368
O O5 0.328116 0.187148 0.514729
O O6 0.000000 0.206678 0.000000
O O7 0.151349 0.288965 0.128755
O O8 0.086988 0.180973 0.910500
O O9 0.000000 0.372293 0.000000
O O10 0.000000 0.180667 0.500000
#
# Coordination Sequence:
#
# PCOD9220078 Si02
#       4
#     8   8   8   8
#     4   9  19  38  60  81 116 152 189 230 277 332
#     4  11  21  38  60  85 116 146 187 236 288 340
#     4  11  22  36  59  85 116 151 187 234 284 336
#     4   8  19  37  60  86 110 147 186 232 285 327
#
# _framework density 18.941917
#
# number of rings (size 3 to 8) (size 9 to 14) (size 15 to 20)
#    1.500    0.500    0.000    7.500    0.000    2.500 
#    0.000    3.750    0.000    5.250    0.000    0.000 
#    0.000    0.000    0.000    0.000    0.000    0.000 
#
# Total GULP energy -89154.742791 kJ/mol
# GULP energy per Si atom -5572.171424 kJ/mol
# Density = 1.889880 g / cm^3
# Si number density = 18.941917 Si / 1000 Ang^3
#
#
#
# Elastic Constant Matrix: (Units=GPa)
#
#
# Indices 1 2 3 4 5 6 
#
# 1 111.3092 62.9212 21.0617 0.0000 -8.8724 0.0000
# 2 62.9212 63.9078 -5.2815 0.0000 2.6934 0.0000
# 3 21.0617 -5.2815 49.0694 0.0000 -1.4624 0.0000
# 4 0.0000 0.0000 0.0000 25.6606 0.0000 1.4155
# 5 -8.8724 2.6934 -1.4624 0.0000 29.5081 0.0000
# 6 0.0000 0.0000 0.0000 1.4155 0.0000 19.2255
#
#
#
# Elastic Compliance Matrix: (Units=1/GPa)
#
#
# Indices 1 2 3 4 5 6 
#
# 1 0.032087 -0.033498 -0.017024 0.000000 0.011862 0.000000
# 2 -0.033498 0.050814 0.019438 0.000000 -0.013747 0.000000
# 3 -0.017024 0.019438 0.029617 0.000000 -0.005425 0.000000
# 4 0.000000 0.000000 0.000000 0.039129 0.000000 -0.002881
# 5 0.011862 -0.013747 -0.005425 0.000000 0.038442 0.000000
# 6 0.000000 0.000000 0.000000 -0.002881 0.000000 0.052226
#
#
# Mechanical properties :
#
#
# Convention : Reuss Voigt Hill
#
# Bulk Modulus (GPa) = 19.86150 42.40991 31.13571
# Shear Modulus (GPa) = 15.56334 24.58450 20.07392
#
# Velocity S-wave (km/s) = 2.86953 3.60653 3.25893
# Velocity P-wave (km/s) = 4.63542 6.30720 5.53480
#
# Compressibility (1/GPa) = 0.05034867
#
# Stress axis : x y z
#
# Youngs Moduli (GPa) = 31.16547 19.67946 33.76427
#
# Poissons Ratio (x) = 0.65923 0.57482
# Poissons Ratio (y) = 1.04399 -0.65631
# Poissons Ratio (z) = 0.53058 -0.38253
#
# Static dielectric constant tensor:
#      x y z
#    x 1.669750 0.000000 0.021150 
#    y 0.000000 1.615230 0.000000 
#    z 0.021150 0.000000 1.712590 
# 
# From -- ./inp_files/38708.got.cif
#   From: 2010.05.17/outbox.cif.g08.bks.cpg/sg12_20_cif.got.tgz:38708.got - 2010.06.03 13:09:07.
