data_PCOD9220500
_publ_section_title
;
Structure prediction by ZEFSAII (Michael W. Deem and Ramdas Pophale) SiO2 
 PCOD9220500
Probable space group: C 2/M
;
_chemical_formula_sum "Si O2"
_cell_formula_units_Z 48
_cell_length_a 20.398868
_cell_length_b 20.111391
_cell_length_c 11.569972
_cell_angle_alpha 90.000000
_cell_angle_beta 152.376731
_cell_angle_gamma 90.000000
_cell_volume 2200.778213
_symmetry_space_group_name_H-M "C 2/M"
_symmetry_group_IT_number 12
_symmetry_cell_setting 'monoclinic'
loop_
_space_group_symop_operation_xyz
x,y,z
-x,y,-z
-x,-y,-z
x,-y,z
1/2+x,1/2+y,z
1/2-x,1/2+y,-z
1/2-x,1/2-y,-z
1/2+x,1/2-y,z
loop_
_atom_site_type_symbol
_atom_site_label
_atom_site_fract_x
_atom_site_fract_y
_atom_site_fract_z
Si Si1 0.145607 0.123817 0.778802
Si Si2 0.847373 0.380453 0.309282
Si Si3 0.896200 0.356882 0.012335
Si Si4 0.006638 0.249700 0.365265
Si Si5 0.694844 0.075684 0.500335
Si Si6 0.278262 0.314745 0.467815
O O1 0.259894 0.110325 0.857739
O O2 0.000000 0.093975 0.500000
O O3 0.100490 0.201269 0.733697
O O4 0.229006 0.107636 0.027328
O O5 0.888054 0.303078 0.405916
O O6 0.796622 0.412267 0.349228
O O7 0.000000 0.406097 0.500000
O O8 0.852236 0.329232 0.820425
O O9 0.928043 0.297979 0.152895
O O10 0.032994 0.402946 0.220426
O O11 0.095948 0.200160 0.424008
O O12 0.792651 0.124628 0.578740
O O13 0.720945 0.000000 0.511253
O O14 0.250000 0.250000 0.500000
#
# Coordination Sequence:
#
# PCOD9220500 Si02
#       6
#     8   8   8   8   8   8
#     4  12  23  37  63 103 145 178 222 290 363 419
#     4  11  22  41  66 103 139 177 234 291 350 414
#     4  11  23  39  64 101 138 180 234 285 355 404
#     4  11  22  35  64 101 143 181 219 292 354 416
#     4  11  26  47  72  97 133 189 247 293 339 415
#     4  12  23  40  62 105 142 181 229 290 346 412
#
# _framework density 21.810466000000002
#
# number of rings (size 3 to 8) (size 9 to 14) (size 15 to 20)
#    0.000    0.667    8.333    2.500    0.000    1.667 
#    0.000    0.000    0.000    5.000    0.000    0.000 
#    0.000    0.000    0.000    0.000    0.000    0.000 
#
# Total GULP energy -133920.122246 kJ/mol
# GULP energy per Si atom -5580.005094 kJ/mol
# Density = 2.176082 g / cm^3
# Si number density = 21.810466 Si / 1000 Ang^3
#
#
#
# Elastic Constant Matrix: (Units=GPa)
#
#
# Indices 1 2 3 4 5 6 
#
# 1 76.4142 13.8938 21.1136 0.0000 -4.2871 0.0000
# 2 13.8938 71.6054 -4.0986 0.0000 0.8891 0.0000
# 3 21.1136 -4.0986 136.9167 0.0000 -30.8990 0.0000
# 4 0.0000 0.0000 0.0000 8.2714 0.0000 4.1996
# 5 -4.2871 0.8891 -30.8990 0.0000 45.0054 0.0000
# 6 0.0000 0.0000 0.0000 4.1996 0.0000 16.9421
#
#
#
# Elastic Compliance Matrix: (Units=1/GPa)
#
#
# Indices 1 2 3 4 5 6 
#
# 1 0.014245 -0.002895 -0.002324 0.000000 -0.000182 0.000000
# 2 -0.002895 0.014578 0.000894 0.000000 0.000050 0.000000
# 3 -0.002324 0.000894 0.009035 0.000000 0.005964 0.000000
# 4 0.000000 0.000000 0.000000 0.138304 0.000000 -0.034283
# 5 -0.000182 0.000050 0.005964 0.000000 0.026296 0.000000
# 6 0.000000 0.000000 0.000000 -0.034283 0.000000 0.067523
#
#
# Mechanical properties :
#
#
# Convention : Reuss Voigt Hill
#
# Bulk Modulus (GPa) = 34.23791 38.52821 36.38306
# Shear Modulus (GPa) = 17.33906 30.97895 24.15900
#
# Velocity S-wave (km/s) = 2.82261 3.77287 3.33179
# Velocity P-wave (km/s) = 5.13370 6.05663 5.61416
#
# Compressibility (1/GPa) = 0.02920739
#
# Stress axis : x y z
#
# Youngs Moduli (GPa) = 70.20042 68.59812 110.68293
#
# Poissons Ratio (x) = 0.19858 0.25726
# Poissons Ratio (y) = 0.20321 -0.09896
# Poissons Ratio (z) = 0.16317 -0.06133
#
# Static dielectric constant tensor:
#      x y z
#    x 1.875110 0.000000 -0.040450 
#    y 0.000000 1.798080 0.000000 
#    z -0.040450 0.000000 1.861290 
# 
# From -- ./inp_files/169718.got.cif
#   From: 2010.05.17/outbox.cif.g08.bks.cpg/sg12_85_cif.got.tgz:169718.got - 2010.06.03 13:09:07.
