data_PCOD9220335
_publ_section_title
;
Structure prediction by ZEFSAII (Michael W. Deem and Ramdas Pophale) SiO2 
 PCOD9220335
Probable space group: C 2/M
;
_chemical_formula_sum "Si O2"
_cell_formula_units_Z 34
_cell_length_a 19.927240
_cell_length_b 12.015654
_cell_length_c 7.043608
_cell_angle_alpha 90.000000
_cell_angle_beta 82.007944
_cell_angle_gamma 90.000000
_cell_volume 1670.132692
_symmetry_space_group_name_H-M "C 2/M"
_symmetry_group_IT_number 12
_symmetry_cell_setting 'monoclinic'
loop_
_space_group_symop_operation_xyz
x,y,z
-x,y,-z
-x,-y,-z
x,-y,z
1/2+x,1/2+y,z
1/2-x,1/2+y,-z
1/2-x,1/2-y,-z
1/2+x,1/2-y,z
loop_
_atom_site_type_symbol
_atom_site_label
_atom_site_fract_x
_atom_site_fract_y
_atom_site_fract_z
Si Si1 0.333396 0.629102 0.447601
Si Si2 0.219818 0.713036 0.211954
Si Si3 0.580523 0.874593 0.129202
Si Si4 0.558040 0.190995 0.714757
Si Si5 0.500000 0.000000 0.500000
O O1 0.350040 0.500000 0.460991
O O2 0.275513 0.647013 0.310987
O O3 0.302901 0.681934 0.651647
O O4 0.397317 0.704624 0.361386
O O5 0.152402 0.644031 0.192733
O O6 0.250000 0.750000 0.000000
O O7 0.521689 0.788281 0.208826
O O8 0.552336 0.000000 0.192643
O O9 0.586165 0.862628 0.899598
O O10 0.553545 0.098738 0.554799
#
# Coordination Sequence:
#
# PCOD9220335 Si02
#       5
#     8   8   8   8   2
#     4  11  26  47  70 104 145 187 234 289 357 429
#     4  11  24  47  71  99 141 187 240 283 350 421
#     4  11  21  42  68 101 137 180 236 296 345 410
#     4  11  22  40  68 102 139 176 232 293 353 408
#     4  12  20  38  66 104 136 174 236 290 344 408
#
# _framework density 20.357662999999999
#
# number of rings (size 3 to 8) (size 9 to 14) (size 15 to 20)
#    0.000    0.941    4.706    2.824    0.000    1.882 
#    8.471    7.647    0.000    0.000    0.000    0.000 
#    0.000    0.000    0.000    0.000    0.000    0.000 
#
# Total GULP energy -94801.427200 kJ/mol
# GULP energy per Si atom -5576.554541 kJ/mol
# Density = 2.031133 g / cm^3
# Si number density = 20.357663 Si / 1000 Ang^3
#
#
#
# Elastic Constant Matrix: (Units=GPa)
#
#
# Indices 1 2 3 4 5 6 
#
# 1 137.1598 74.1480 52.6780 0.0000 1.3175 0.0000
# 2 74.1480 152.4470 42.6968 0.0000 -1.6193 0.0000
# 3 52.6780 42.6968 119.3496 0.0000 1.1523 0.0000
# 4 0.0000 0.0000 0.0000 17.9450 0.0000 -3.3067
# 5 1.3175 -1.6193 1.1523 0.0000 39.9348 0.0000
# 6 0.0000 0.0000 0.0000 -3.3067 0.0000 40.9120
#
#
#
# Elastic Compliance Matrix: (Units=1/GPa)
#
#
# Indices 1 2 3 4 5 6 
#
# 1 0.010923 -0.004410 -0.003239 0.000000 -0.000446 0.000000
# 2 -0.004410 0.009076 -0.001306 0.000000 0.000551 0.000000
# 3 -0.003239 -0.001306 0.010278 0.000000 -0.000243 0.000000
# 4 0.000000 0.000000 0.000000 0.056568 0.000000 0.004572
# 5 -0.000446 0.000551 -0.000243 0.000000 0.025085 0.000000
# 6 0.000000 0.000000 0.000000 0.004572 0.000000 0.024812
#
#
# Mechanical properties :
#
#
# Convention : Reuss Voigt Hill
#
# Bulk Modulus (GPa) = 80.86056 83.11134 81.98595
# Shear Modulus (GPa) = 31.49088 35.72059 33.60573
#
# Velocity S-wave (km/s) = 3.93731 4.19340 4.06737
# Velocity P-wave (km/s) = 7.77663 8.02249 7.90052
#
# Compressibility (1/GPa) = 0.01236697
#
# Stress axis : x y z
#
# Youngs Moduli (GPa) = 91.54664 110.17583 97.29621
#
# Poissons Ratio (x) = 0.48593 0.31516
# Poissons Ratio (y) = 0.40377 0.12704
# Poissons Ratio (z) = 0.29654 0.14385
#
# Static dielectric constant tensor:
#      x y z
#    x 1.700530 0.000000 0.038190 
#    y 0.000000 1.668110 0.000000 
#    z 0.038190 0.000000 1.643300 
# 
# From -- ./inp_files/23568.got.cif
#   From: 2010.05.17/outbox.cif.g08.bks.cpg/sg12_12_cif.got.tgz:23568.got - 2010.06.03 13:09:07.
