data_PCOD9220545
_publ_section_title
;
Structure prediction by ZEFSAII (Michael W. Deem and Ramdas Pophale) SiO2 
 PCOD9220545
Probable space group: C 2/M
;
_chemical_formula_sum "Si O2"
_cell_formula_units_Z 48
_cell_length_a 26.732625
_cell_length_b 8.472150
_cell_length_c 11.905287
_cell_angle_alpha 90.000000
_cell_angle_beta 132.558154
_cell_angle_gamma 90.000000
_cell_volume 1986.102536
_symmetry_space_group_name_H-M "C 2/M"
_symmetry_group_IT_number 12
_symmetry_cell_setting 'monoclinic'
loop_
_space_group_symop_operation_xyz
x,y,z
-x,y,-z
-x,-y,-z
x,-y,z
1/2+x,1/2+y,z
1/2-x,1/2+y,-z
1/2-x,1/2-y,-z
1/2+x,1/2-y,z
loop_
_atom_site_type_symbol
_atom_site_label
_atom_site_fract_x
_atom_site_fract_y
_atom_site_fract_z
Si Si1 0.987725 0.178812 0.216972
Si Si2 0.292944 0.683625 0.229905
Si Si3 0.800088 0.320108 0.485003
Si Si4 0.405525 0.314872 0.798507
Si Si5 0.568516 0.821531 0.532241
Si Si6 0.644702 0.185061 0.038382
O O1 0.018293 0.195580 0.137851
O O2 0.046896 0.209566 0.396582
O O3 0.963128 0.000000 0.191726
O O4 0.923585 0.291502 0.136996
O O5 0.297728 0.500000 0.207299
O O6 0.296987 0.712664 0.370528
O O7 0.362715 0.769002 0.300209
O O8 0.215472 0.741321 0.088781
O O9 0.784086 0.500000 0.430358
O O10 0.750000 0.250000 0.500000
O O11 0.869229 0.305155 0.658283
O O12 0.387628 0.500000 0.752259
O O13 0.376069 0.271421 0.876551
O O14 0.500000 0.821260 0.500000
O O15 0.580473 0.000000 0.508808
O O16 0.654878 0.000000 0.078246
#
# Coordination Sequence:
#
# PCOD9220545 Si02
#       6
#     8   8   8   8   8   8
#     4  11  24  41  63  91 127 167 210 256 307 370
#     4  11  23  40  62  91 124 162 207 255 310 370
#     4  12  22  33  55  86 124 167 209 256 303 359
#     4  11  22  36  57  88 127 170 213 252 297 363
#     4  11  25  45  70  96 120 153 204 263 319 375
#     4  11  24  39  60  91 131 171 209 251 303 368
#
# _framework density 24.167936000000001
#
# number of rings (size 3 to 8) (size 9 to 14) (size 15 to 20)
#    0.000    0.833    3.333    4.500    0.000    7.333 
#    0.000    0.833    0.000    0.000    0.000    0.000 
#    0.000    0.000    0.000    0.000    0.000    0.000 
#
# Total GULP energy -133981.518830 kJ/mol
# GULP energy per Si atom -5582.563285 kJ/mol
# Density = 2.411293 g / cm^3
# Si number density = 24.167936 Si / 1000 Ang^3
#
#
#
# Elastic Constant Matrix: (Units=GPa)
#
#
# Indices 1 2 3 4 5 6 
#
# 1 90.7827 16.7102 13.2563 0.0000 32.8732 0.0000
# 2 16.7102 82.3579 15.2812 0.0000 19.8488 0.0000
# 3 13.2563 15.2812 82.0736 0.0000 39.9573 0.0000
# 4 0.0000 0.0000 0.0000 25.1879 0.0000 8.2942
# 5 32.8732 19.8488 39.9573 0.0000 49.5704 0.0000
# 6 0.0000 0.0000 0.0000 8.2942 0.0000 22.2745
#
#
#
# Elastic Compliance Matrix: (Units=1/GPa)
#
#
# Indices 1 2 3 4 5 6 
#
# 1 0.015311 -0.000691 0.004056 0.000000 -0.013146 0.000000
# 2 -0.000691 0.013472 0.000011 0.000000 -0.004945 0.000000
# 3 0.004056 0.000011 0.021131 0.000000 -0.019727 0.000000
# 4 0.000000 0.000000 0.000000 0.045250 0.000000 -0.016849
# 5 -0.013146 -0.004945 -0.019727 0.000000 0.046773 0.000000
# 6 0.000000 0.000000 0.000000 -0.016849 0.000000 0.051168
#
#
# Mechanical properties :
#
#
# Convention : Reuss Voigt Hill
#
# Bulk Modulus (GPa) = 17.64748 38.41218 28.02983
# Shear Modulus (GPa) = 24.36147 33.40433 28.88290
#
# Velocity S-wave (km/s) = 3.17836 3.72180 3.46076
# Velocity P-wave (km/s) = 4.55929 5.86493 5.25283
#
# Compressibility (1/GPa) = 0.05666530
#
# Stress axis : x y z
#
# Youngs Moduli (GPa) = 65.31463 74.22771 47.32323
#
# Poissons Ratio (x) = 0.05127 -0.19193
# Poissons Ratio (y) = 0.04511 -0.00050
# Poissons Ratio (z) = -0.26490 -0.00079
#
# Static dielectric constant tensor:
#      x y z
#    x 2.033330 0.000000 0.125730 
#    y 0.000000 1.818310 0.000000 
#    z 0.125730 0.000000 2.106450 
# 
# From -- ./inp_files/244848.got.cif
#   From: 2010.05.17/outbox.cif.g08.bks.cpg/sg12_123_cif.got.tgz:244848.got - 2010.06.03 13:09:07.
