data_PCOD9220698
_publ_section_title
;
Structure prediction by ZEFSAII (Michael W. Deem and Ramdas Pophale) SiO2 
 PCOD9220698
Probable space group: C 2/M
;
_chemical_formula_sum "Si O2"
_cell_formula_units_Z 48
_cell_length_a 16.054065
_cell_length_b 7.878705
_cell_length_c 25.368652
_cell_angle_alpha 90.000000
_cell_angle_beta 145.176361
_cell_angle_gamma 90.000000
_cell_volume 1832.369855
_symmetry_space_group_name_H-M "C 2/M"
_symmetry_group_IT_number 12
_symmetry_cell_setting 'monoclinic'
loop_
_space_group_symop_operation_xyz
x,y,z
-x,y,-z
-x,-y,-z
x,-y,z
1/2+x,1/2+y,z
1/2-x,1/2+y,-z
1/2-x,1/2-y,-z
1/2+x,1/2-y,z
loop_
_atom_site_type_symbol
_atom_site_label
_atom_site_fract_x
_atom_site_fract_y
_atom_site_fract_z
Si Si1 0.993021 0.804653 0.936333
Si Si2 0.103765 0.696853 0.222009
Si Si3 0.295871 0.696284 0.102935
Si Si4 0.447147 0.707662 0.281384
Si Si5 0.763428 0.701705 0.444974
Si Si6 0.918474 0.203012 0.387197
O O1 0.901021 0.707356 0.844548
O O2 0.946093 0.000000 0.912927
O O3 0.164391 0.796940 0.008743
O O4 0.000000 0.736937 0.000000
O O5 0.089243 0.500000 0.229226
O O6 0.259899 0.769460 0.322577
O O7 0.957714 0.790993 0.163462
O O8 0.251930 0.500000 0.080152
O O9 0.323042 0.761748 0.176746
O O10 0.447807 0.500000 0.281852
O O11 0.606523 0.764805 0.343191
O O12 0.430981 0.764381 0.332918
O O13 0.767097 0.500000 0.442511
O O14 0.750000 0.750000 0.500000
O O15 0.919815 0.765149 0.505950
O O16 0.902061 0.000000 0.378434
#
# Coordination Sequence:
#
# PCOD9220698 Si02
#       6
#     8   8   8   8   8   8
#     4  11  24  41  61  86 112 138 178 228 274 326
#     4  11  23  39  58  81 113 149 184 224 273 329
#     4  11  22  38  59  81 111 149 186 224 272 327
#     4   8  16  32  54  79 105 139 183 225 267 321
#     4   9  16  29  51  79 109 140 180 227 273 321
#     4   9  18  34  55  79 107 141 184 229 273 323
#
# _framework density 26.195584
#
# number of rings (size 3 to 8) (size 9 to 14) (size 15 to 20)
#    0.000    2.167    0.000    4.500    0.000    4.000 
#    0.000   10.833    0.000    5.000    0.000    0.000 
#    0.000    0.000    0.000    0.000    0.000    0.000 
#
# Total GULP energy -134235.582466 kJ/mol
# GULP energy per Si atom -5593.149269 kJ/mol
# Density = 2.613596 g / cm^3
# Si number density = 26.195584 Si / 1000 Ang^3
#
#
#
# Elastic Constant Matrix: (Units=GPa)
#
#
# Indices 1 2 3 4 5 6 
#
# 1 81.7670 -0.0686 8.4907 0.0000 25.3782 0.0000
# 2 -0.0686 77.3745 2.7916 0.0000 6.3006 0.0001
# 3 8.4907 2.7916 171.8979 0.0000 18.7353 0.0000
# 4 0.0000 0.0000 0.0000 22.9261 0.0000 5.6066
# 5 25.3782 6.3006 18.7353 0.0000 51.9768 0.0000
# 6 0.0000 0.0001 0.0000 5.6066 0.0000 26.0270
#
#
#
# Elastic Compliance Matrix: (Units=1/GPa)
#
#
# Indices 1 2 3 4 5 6 
#
# 1 0.014442 0.000592 0.000056 0.000000 -0.007143 0.000000
# 2 0.000592 0.013078 -0.000039 0.000000 -0.001861 0.000000
# 3 0.000056 -0.000039 0.006056 0.000000 -0.002205 0.000000
# 4 0.000000 0.000000 0.000000 0.046044 0.000000 -0.009919
# 5 -0.007143 -0.001861 -0.002205 0.000000 0.023747 0.000000
# 6 0.000000 0.000000 0.000000 -0.009919 0.000000 0.040558
#
#
# Mechanical properties :
#
#
# Convention : Reuss Voigt Hill
#
# Bulk Modulus (GPa) = 28.74126 39.27411 34.00769
# Shear Modulus (GPa) = 32.40355 41.50769 36.95562
#
# Velocity S-wave (km/s) = 3.52090 3.98493 3.76008
# Velocity P-wave (km/s) = 5.24638 6.01649 5.64459
#
# Compressibility (1/GPa) = 0.03479319
#
# Stress axis : x y z
#
# Youngs Moduli (GPa) = 69.24433 76.46674 165.13528
#
# Poissons Ratio (x) = -0.04530 -0.00918
# Poissons Ratio (y) = -0.04102 0.00642
# Poissons Ratio (z) = -0.00385 0.00297
#
# Static dielectric constant tensor:
#      x y z
#    x 2.210280 0.000000 0.020860 
#    y 0.000000 1.889200 0.000000 
#    z 0.020860 0.000000 2.034120 
# 
# From -- ./inp_files/274061.got.cif
#   From: 2010.05.17/outbox.cif.g08.bks.cpg/sg12_138_cif.got.tgz:274061.got - 2010.06.03 13:09:07.
