data_PCOD9220312
_publ_section_title
;
Structure prediction by ZEFSAII (Michael W. Deem and Ramdas Pophale) SiO2 
 PCOD9220312
Probable space group: C 2/M
;
_chemical_formula_sum "Si O2"
_cell_formula_units_Z 36
_cell_length_a 9.496280
_cell_length_b 19.525626
_cell_length_c 14.747127
_cell_angle_alpha 90.000000
_cell_angle_beta 139.210034
_cell_angle_gamma 90.000000
_cell_volume 1786.366621
_symmetry_space_group_name_H-M "C 2/M"
_symmetry_group_IT_number 12
_symmetry_cell_setting 'monoclinic'
loop_
_space_group_symop_operation_xyz
x,y,z
-x,y,-z
-x,-y,-z
x,-y,z
1/2+x,1/2+y,z
1/2-x,1/2+y,-z
1/2-x,1/2-y,-z
1/2+x,1/2-y,z
loop_
_atom_site_type_symbol
_atom_site_label
_atom_site_fract_x
_atom_site_fract_y
_atom_site_fract_z
Si Si1 0.803609 0.000000 0.473844
Si Si2 0.505331 0.249839 0.609920
Si Si3 0.130046 0.000000 0.787216
Si Si4 0.118172 0.000000 0.150984
Si Si5 0.132241 0.360579 0.153529
Si Si6 0.046909 0.613128 0.737795
O O1 0.666034 0.068492 0.389691
O O2 0.000000 0.000000 0.500000
O O3 0.907191 0.000000 0.622849
O O4 0.500000 0.241306 0.500000
O O5 0.668220 0.311429 0.718052
O O6 0.574700 0.184791 0.702122
O O7 0.250000 0.250000 0.500000
O O8 0.264730 0.933158 0.825489
O O9 0.054638 0.000000 0.853689
O O10 0.268793 0.933827 0.216415
O O11 0.000000 0.000000 0.000000
O O12 0.977203 0.373630 0.165490
O O13 0.000000 0.334990 0.000000
#
# Coordination Sequence:
#
# PCOD9220312 Si02
#       6
#     4   8   4   4   8   8
#     4  11  21  41  72 100 130 176 230 282 337 402
#     4  12  27  47  71 100 139 184 235 285 345 411
#     4  12  24  40  76 101 136 177 235 285 346 410
#     4  11  26  44  66 103 141 175 221 291 345 403
#     4  12  26  46  72 101 137 188 232 282 351 419
#     4  11  25  44  68 100 141 179 228 283 345 407
#
# _framework density 20.152638
#
# number of rings (size 3 to 8) (size 9 to 14) (size 15 to 20)
#    0.000    0.444    4.444    3.667    6.222    2.667 
#    0.000    0.000    0.000    0.000    0.000    0.000 
#    0.000    0.000    0.000    0.000    0.000    0.000 
#
# Total GULP energy -100430.733937 kJ/mol
# GULP energy per Si atom -5579.485219 kJ/mol
# Density = 2.010677 g / cm^3
# Si number density = 20.152638 Si / 1000 Ang^3
#
#
#
# Elastic Constant Matrix: (Units=GPa)
#
#
# Indices 1 2 3 4 5 6 
#
# 1 159.2453 67.7129 24.5437 0.0005 -31.4977 0.0001
# 2 67.7129 128.5118 9.2277 0.0000 -5.0959 0.0000
# 3 24.5437 9.2277 51.0569 0.0015 -31.0476 0.0000
# 4 0.0005 0.0000 0.0015 -7.4349 0.0007 -18.2869
# 5 -31.4977 -5.0959 -31.0476 0.0007 41.7959 0.0000
# 6 0.0001 0.0000 0.0000 -18.2869 0.0000 19.5516
#
#
#
# Elastic Compliance Matrix: (Units=1/GPa)
#
#
# Indices 1 2 3 4 5 6 
#
# 1 0.009660 -0.004848 0.000547 0.000000 0.007095 0.000000
# 2 -0.004848 0.010317 -0.001807 0.000000 -0.003738 0.000000
# 3 0.000547 -0.001807 0.036052 0.000003 0.026972 0.000003
# 4 0.000000 0.000000 0.000003 -0.040752 0.000003 -0.038116
# 5 0.007095 -0.003738 0.026972 0.000003 0.048853 0.000003
# 6 0.000000 0.000000 0.000003 -0.038116 0.000003 0.015497
#
#
# Mechanical properties :
#
#
# Convention : Reuss Voigt Hill
#
# Bulk Modulus (GPa) = 22.82449 60.19805 41.51127
# Shear Modulus (GPa) = 46.97149 26.60448 36.78799
#
# Velocity S-wave (km/s) = 4.83306 3.63733 4.27718
# Velocity P-wave (km/s) = 6.51882 6.89754 6.71085
#
# Compressibility (1/GPa) = 0.04381258
#
# Stress axis : x y z
#
# Youngs Moduli (GPa) = 103.51935 96.92505 27.73805
#
# Poissons Ratio (x) = 0.46987 -0.01517
# Poissons Ratio (y) = 0.50184 0.05013
# Poissons Ratio (z) = -0.05663 0.17518
#
# Static dielectric constant tensor:
#      x y z
#    x 1.980370 -0.000020 -0.344660 
#    y -0.000020 1.705320 0.000010 
#    z -0.344660 0.000010 1.957130 
# 
# From -- ./inp_files/197470.got.cif
#   From: 2010.05.17/outbox.cif.g08.bks.cpg/sg12_99_cif.got.tgz:197470.got - 2010.06.03 13:09:07.
