data_PCOD9220037
_publ_section_title
;
Structure prediction by ZEFSAII (Michael W. Deem and Ramdas Pophale) SiO2 
 PCOD9220037
Probable space group: C 2/M
;
_chemical_formula_sum "Si O2"
_cell_formula_units_Z 48
_cell_length_a 11.684823
_cell_length_b 25.721533
_cell_length_c 7.617895
_cell_angle_alpha 90.000000
_cell_angle_beta 85.239759
_cell_angle_gamma 90.000000
_cell_volume 2281.672781
_symmetry_space_group_name_H-M "C 2/M"
_symmetry_group_IT_number 12
_symmetry_cell_setting 'monoclinic'
loop_
_space_group_symop_operation_xyz
x,y,z
-x,y,-z
-x,-y,-z
x,-y,z
1/2+x,1/2+y,z
1/2-x,1/2+y,-z
1/2-x,1/2-y,-z
1/2+x,1/2-y,z
loop_
_atom_site_type_symbol
_atom_site_label
_atom_site_fract_x
_atom_site_fract_y
_atom_site_fract_z
Si Si1 0.635302 0.713690 0.511930
Si Si2 0.842568 0.861100 0.174566
Si Si3 0.284670 0.367896 0.795713
Si Si4 0.101818 0.442004 0.742193
Si Si5 0.022963 0.058835 0.288604
Si Si6 0.341573 0.942900 0.680632
O O1 0.500000 0.731717 0.500000
O O2 0.750000 0.750000 0.500000
O O3 0.634491 0.686596 0.701353
O O4 0.669078 0.669924 0.362090
O O5 0.945817 0.901230 0.191922
O O6 0.734843 0.894897 0.253722
O O7 0.821344 0.845625 0.977905
O O8 0.154884 0.388940 0.811842
O O9 0.348397 0.423053 0.760077
O O10 0.133451 0.500000 0.808770
O O11 0.137710 0.441282 0.531278
O O12 0.964182 0.440088 0.758956
O O13 0.000000 0.064060 0.500000
O O14 0.002129 0.000000 0.239823
O O15 0.288948 0.000000 0.725761
#
# Coordination Sequence:
#
# PCOD9220037 Si02
#       6
#     8   8   8   8   8   8
#     4  12  28  52  74  97 126 170 227 296 362 414
#     4  12  23  40  67  97 132 171 217 272 339 406
#     4  12  23  40  67  97 132 171 217 272 339 406
#     4   9  18  34  58  91 136 185 225 263 316 392
#     4  11  21  37  65 100 141 181 214 253 319 406
#     4   9  18  34  58  91 136 185 225 263 316 392
#
# _framework density 21.037199000000001
#
# number of rings (size 3 to 8) (size 9 to 14) (size 15 to 20)
#    0.000    1.167    5.000    2.500    0.000    8.667 
#    0.000    1.667    0.000    0.000    0.000    0.000 
#    0.000    0.000    0.000    0.000    0.000    0.000 
#
# Total GULP energy -133964.828169 kJ/mol
# GULP energy per Si atom -5581.867840 kJ/mol
# Density = 2.098932 g / cm^3
# Si number density = 21.037199 Si / 1000 Ang^3
#
#
#
# Elastic Constant Matrix: (Units=GPa)
#
#
# Indices 1 2 3 4 5 6 
#
# 1 109.6786 45.2413 16.0511 0.0000 2.2014 0.0000
# 2 45.2413 57.9785 19.3756 0.0000 6.4492 0.0000
# 3 16.0511 19.3756 67.2699 0.0000 19.9424 0.0000
# 4 0.0000 0.0000 0.0000 17.6074 0.0000 -19.5565
# 5 2.2014 6.4492 19.9424 0.0000 32.2109 0.0000
# 6 0.0000 0.0000 0.0000 -19.5565 0.0000 49.1442
#
#
#
# Elastic Compliance Matrix: (Units=1/GPa)
#
#
# Indices 1 2 3 4 5 6 
#
# 1 0.013514 -0.010498 -0.000674 0.000000 0.001595 0.000000
# 2 -0.010498 0.027246 -0.004824 0.000000 -0.001751 0.000000
# 3 -0.000674 -0.004824 0.019738 0.000000 -0.011209 0.000000
# 4 0.000000 0.000000 0.000000 0.101780 0.000000 0.040503
# 5 0.001595 -0.001751 -0.011209 0.000000 0.038227 0.000000
# 6 0.000000 0.000000 0.000000 0.040503 0.000000 0.036466
#
#
# Mechanical properties :
#
#
# Convention : Reuss Voigt Hill
#
# Bulk Modulus (GPa) = 35.07748 44.02922 39.55335
# Shear Modulus (GPa) = 17.95559 30.07643 24.01601
#
# Velocity S-wave (km/s) = 2.92467 3.78521 3.38242
# Velocity P-wave (km/s) = 5.30237 6.33075 5.83925
#
# Compressibility (1/GPa) = 0.02850832
#
# Stress axis : x y z
#
# Youngs Moduli (GPa) = 73.99557 36.70267 50.66245
#
# Poissons Ratio (x) = 0.38529 0.03415
# Poissons Ratio (y) = 0.77678 0.24438
# Poissons Ratio (z) = 0.04987 0.17704
#
# Static dielectric constant tensor:
#      x y z
#    x 1.857940 0.000000 -0.005160 
#    y 0.000000 1.738360 0.000000 
#    z -0.005160 0.000000 1.786810 
# 
# From -- ./inp_files/51302.got.cif
#   From: 2010.05.17/outbox.cif.g08.bks.cpg/sg12_26_cif.got.tgz:51302.got - 2010.06.03 13:09:07.
