data_PCOD9220164
_publ_section_title
;
Structure prediction by ZEFSAII (Michael W. Deem and Ramdas Pophale) SiO2 
 PCOD9220164
Probable space group: C 2/M
;
_chemical_formula_sum "Si O2"
_cell_formula_units_Z 58
_cell_length_a 9.054781
_cell_length_b 20.589018
_cell_length_c 17.395809
_cell_angle_alpha 90.000000
_cell_angle_beta 64.583457
_cell_angle_gamma 90.000000
_cell_volume 2929.190585
_symmetry_space_group_name_H-M "C 2/M"
_symmetry_group_IT_number 12
_symmetry_cell_setting 'monoclinic'
loop_
_space_group_symop_operation_xyz
x,y,z
-x,y,-z
-x,-y,-z
x,-y,z
1/2+x,1/2+y,z
1/2-x,1/2+y,-z
1/2-x,1/2-y,-z
1/2+x,1/2-y,z
loop_
_atom_site_type_symbol
_atom_site_label
_atom_site_fract_x
_atom_site_fract_y
_atom_site_fract_z
Si Si1 0.026935 0.806855 0.832327
Si Si2 0.270999 0.424032 0.289774
Si Si3 0.500000 0.500000 0.500000
Si Si4 0.819487 0.105318 0.456597
Si Si5 0.028161 0.247113 0.578079
Si Si6 0.670951 0.775299 0.938715
Si Si7 0.679215 0.799017 0.693085
Si Si8 0.387612 0.073632 0.346865
O O1 0.118327 0.870274 0.778392
O O2 0.108834 0.782573 0.895126
O O3 0.064981 0.743521 0.771876
O O4 0.829187 0.814193 0.871973
O O5 0.321100 0.500000 0.269089
O O6 0.267718 0.406254 0.380910
O O7 0.083013 0.418939 0.304656
O O8 0.467579 0.557236 0.443064
O O9 0.877751 0.179212 0.453057
O O10 0.687727 0.084518 0.550705
O O11 0.119917 0.289832 0.618906
O O12 0.000000 0.276423 0.500000
O O13 0.857151 0.230950 0.655481
O O14 0.500000 0.810136 0.000000
O O15 0.750000 0.750000 0.000000
O O16 0.680044 0.875806 0.700253
O O17 0.342953 0.000000 0.338303
#
# Coordination Sequence:
#
# PCOD9220164 Si02
#       8
#     8   8   2   8   8   8   8   8
#     4  11  21  39  64  96 124 150 193 246 308 368
#     4  11  23  38  59  86 123 161 207 258 309 352
#     4  12  20  36  54  68 108 164 226 272 292 352
#     4  12  22  37  53  75 111 166 225 263 301 348
#     4  12  24  37  52  79 113 162 211 260 312 347
#     4   9  20  40  69  96 120 149 182 229 293 382
#     4  12  24  38  58  86 120 153 202 268 312 355
#     4  11  23  39  55  78 113 168 220 263 303 350
#
# _framework density 19.800692000000002
#
# number of rings (size 3 to 8) (size 9 to 14) (size 15 to 20)
#    0.000    0.828    4.828    3.310    0.000    1.103 
#    0.000    0.000    0.000    4.138    0.000    3.862 
#    0.000    0.000    0.000    0.000    0.000    0.000 
#
# Total GULP energy -161655.462592 kJ/mol
# GULP energy per Si atom -5574.326296 kJ/mol
# Density = 1.975562 g / cm^3
# Si number density = 19.800692 Si / 1000 Ang^3
#
#
#
# Elastic Constant Matrix: (Units=GPa)
#
#
# Indices 1 2 3 4 5 6 
#
# 1 83.8741 14.1835 22.6289 0.0000 -23.5355 0.0000
# 2 14.1835 92.0404 34.5504 0.0000 -11.5577 0.0000
# 3 22.6289 34.5504 67.0639 0.0000 -17.2331 0.0000
# 4 0.0000 0.0000 0.0000 15.9682 0.0000 -6.0694
# 5 -23.5355 -11.5577 -17.2331 0.0000 45.1184 0.0000
# 6 0.0000 0.0000 0.0000 -6.0694 0.0000 21.0578
#
#
#
# Elastic Compliance Matrix: (Units=1/GPa)
#
#
# Indices 1 2 3 4 5 6 
#
# 1 0.014599 -0.000268 -0.003159 0.000000 0.006340 0.000000
# 2 -0.000268 0.013507 -0.006670 0.000000 0.000773 0.000000
# 3 -0.003159 -0.006670 0.020570 0.000000 0.004500 0.000000
# 4 0.000000 0.000000 0.000000 0.070329 0.000000 0.020271
# 5 0.006340 0.000773 0.004500 0.000000 0.027388 0.000000
# 6 0.000000 0.000000 0.000000 0.020271 0.000000 0.053331
#
#
# Mechanical properties :
#
#
# Convention : Reuss Voigt Hill
#
# Bulk Modulus (GPa) = 35.10854 42.85601 38.98227
# Shear Modulus (GPa) = 21.79497 27.86992 24.83244
#
# Velocity S-wave (km/s) = 3.32131 3.75577 3.54520
# Velocity P-wave (km/s) = 5.69891 6.36383 6.04053
#
# Compressibility (1/GPa) = 0.02848310
#
# Stress axis : x y z
#
# Youngs Moduli (GPa) = 68.49626 74.03711 48.61563
#
# Poissons Ratio (x) = 0.01983 0.15357
# Poissons Ratio (y) = 0.01834 0.32424
# Poissons Ratio (z) = 0.21637 0.49379
#
# Static dielectric constant tensor:
#      x y z
#    x 1.732400 0.000000 -0.158660 
#    y 0.000000 1.722340 0.000000 
#    z -0.158660 0.000000 1.570120 
# 
# From -- ./inp_files/258036.got.cif
#   From: 2010.05.17/outbox.cif.g08.bks.cpg/sg12_130_cif.got.tgz:258036.got - 2010.06.03 13:09:07.
