data_PCOD9220543
_publ_section_title
;
Structure prediction by ZEFSAII (Michael W. Deem and Ramdas Pophale) SiO2 
 PCOD9220543
Probable space group: C 2/M
;
_chemical_formula_sum "Si O2"
_cell_formula_units_Z 40
_cell_length_a 15.247377
_cell_length_b 25.146496
_cell_length_c 8.971836
_cell_angle_alpha 90.000000
_cell_angle_beta 31.440240
_cell_angle_gamma 90.000000
_cell_volume 1794.316262
_symmetry_space_group_name_H-M "C 2/M"
_symmetry_group_IT_number 12
_symmetry_cell_setting 'monoclinic'
loop_
_space_group_symop_operation_xyz
x,y,z
-x,y,-z
-x,-y,-z
x,-y,z
1/2+x,1/2+y,z
1/2-x,1/2+y,-z
1/2-x,1/2-y,-z
1/2+x,1/2-y,z
loop_
_atom_site_type_symbol
_atom_site_label
_atom_site_fract_x
_atom_site_fract_y
_atom_site_fract_z
Si Si1 0.518601 0.600019 0.803402
Si Si2 0.168728 0.600222 0.856395
Si Si3 0.251316 0.780818 0.154879
Si Si4 0.079435 0.224662 0.692190
Si Si5 0.669455 0.938640 0.176780
O O1 0.676710 0.581056 0.473246
O O2 0.558672 0.662799 0.756794
O O3 0.500000 0.578942 0.000000
O O4 0.341080 0.590379 0.978329
O O5 0.219403 0.655973 0.865817
O O6 0.144335 0.563333 0.035412
O O7 0.000000 0.605942 0.000000
O O8 0.098142 0.769515 0.486702
O O9 0.250000 0.750000 0.000000
O O10 0.418925 0.755394 0.979400
O O11 0.250000 0.250000 0.500000
O O12 0.500000 0.916252 0.500000
O O13 0.687499 0.000000 0.199024
#
# Coordination Sequence:
#
# PCOD9220543 Si02
#       5
#     8   8   8   8   8
#     4  11  23  42  69 100 136 181 227 282 346 410
#     4  11  24  42  66  99 135 177 229 282 341 410
#     4  11  22  36  57  88 126 167 212 263 319 386
#     4  11  22  38  59  90 129 170 214 259 318 391
#     4  11  26  47  70  98 132 174 229 291 354 416
#
# _framework density 22.292614
#
# number of rings (size 3 to 8) (size 9 to 14) (size 15 to 20)
#    0.000    1.000    0.000    7.800    0.000    8.800 
#    0.000    0.000    0.000    0.000    0.000    0.000 
#    0.000    0.000    0.000    0.000    0.000    0.000 
#
# Total GULP energy -111601.208225 kJ/mol
# GULP energy per Si atom -5580.060411 kJ/mol
# Density = 2.224188 g / cm^3
# Si number density = 22.292614 Si / 1000 Ang^3
#
#
#
# Elastic Constant Matrix: (Units=GPa)
#
#
# Indices 1 2 3 4 5 6 
#
# 1 175.5427 8.6504 68.2397 0.0000 8.5196 -0.0001
# 2 8.6504 37.9773 10.0176 0.0000 -9.8609 0.0000
# 3 68.2397 10.0176 198.5183 0.0000 9.7400 0.0000
# 4 0.0000 0.0000 0.0000 23.0116 0.0000 3.1628
# 5 8.5196 -9.8609 9.7400 0.0000 51.9440 0.0000
# 6 -0.0001 0.0000 0.0000 3.1628 0.0000 26.6033
#
#
#
# Elastic Compliance Matrix: (Units=1/GPa)
#
#
# Indices 1 2 3 4 5 6 
#
# 1 0.006646 -0.001173 -0.002181 0.000000 -0.000904 0.000000
# 2 -0.001173 0.028464 -0.001320 0.000000 0.005843 0.000000
# 3 -0.002181 -0.001320 0.005903 0.000000 -0.001000 0.000000
# 4 0.000000 0.000000 0.000000 0.044178 0.000000 -0.005252
# 5 -0.000904 0.005843 -0.001000 0.000000 0.020696 0.000000
# 6 0.000000 0.000000 0.000000 -0.005252 0.000000 0.038214
#
#
# Mechanical properties :
#
#
# Convention : Reuss Voigt Hill
#
# Bulk Modulus (GPa) = 31.58067 65.09486 48.33776
# Shear Modulus (GPa) = 30.48698 41.98715 36.23706
#
# Velocity S-wave (km/s) = 3.70210 4.34459 4.03615
# Velocity P-wave (km/s) = 5.69835 7.37773 6.59174
#
# Compressibility (1/GPa) = 0.03166494
#
# Stress axis : x y z
#
# Youngs Moduli (GPa) = 150.46325 35.13189 169.41456
#
# Poissons Ratio (x) = 0.04122 0.36950
# Poissons Ratio (y) = 0.17653 0.22359
# Poissons Ratio (z) = 0.32816 0.04637
#
# Static dielectric constant tensor:
#      x y z
#    x 2.003720 0.000000 0.089890 
#    y 0.000000 0.666800 0.000000 
#    z 0.089890 0.000000 1.821620 
# 
# From -- ./inp_files/68455.got.cif
#   From: 2010.05.17/outbox.cif.g08.bks.cpg/sg12_35_cif.got.tgz:68455.got - 2010.06.03 13:09:07.
