data_PCOD9220775
_publ_section_title
;
Structure prediction by ZEFSAII (Michael W. Deem and Ramdas Pophale) SiO2 
 PCOD9220775
Probable space group: C 2/M
;
_chemical_formula_sum "Si O2"
_cell_formula_units_Z 48
_cell_length_a 14.332957
_cell_length_b 12.218249
_cell_length_c 24.458822
_cell_angle_alpha 90.000000
_cell_angle_beta 32.425526
_cell_angle_gamma 90.000000
_cell_volume 2296.727471
_symmetry_space_group_name_H-M "C 2/M"
_symmetry_group_IT_number 12
_symmetry_cell_setting 'monoclinic'
loop_
_space_group_symop_operation_xyz
x,y,z
-x,y,-z
-x,-y,-z
x,-y,z
1/2+x,1/2+y,z
1/2-x,1/2+y,-z
1/2-x,1/2-y,-z
1/2+x,1/2-y,z
loop_
_atom_site_type_symbol
_atom_site_label
_atom_site_fract_x
_atom_site_fract_y
_atom_site_fract_z
Si Si1 0.501124 0.717592 0.351543
Si Si2 0.085580 0.000000 0.544992
Si Si3 0.286094 0.000000 0.334040
Si Si4 0.569280 0.761437 0.740805
Si Si5 0.907070 0.375476 0.604491
Si Si6 0.863401 0.375000 0.145129
Si Si7 0.240490 0.626399 0.931675
O O1 0.413941 0.607523 0.417696
O O2 0.446201 0.744733 0.317220
O O3 0.479614 0.812740 0.406363
O O4 0.709598 0.695017 0.246432
O O5 0.230411 0.000000 0.425944
O O6 0.898890 0.000000 0.605913
O O7 0.390866 0.110841 0.269459
O O8 0.729569 0.689094 0.681833
O O9 0.397945 0.711328 0.853947
O O10 0.875398 0.500000 0.637286
O O11 0.000000 0.374977 0.500000
O O12 0.850473 0.500000 0.171304
O O13 0.816263 0.378141 0.104022
O O14 0.064085 0.340343 0.050408
O O15 0.287417 0.500000 0.923518
#
# Coordination Sequence:
#
# PCOD9220775 Si02
#       7
#     8   4   4   8   8   8   8
#     4  11  22  38  64  89 118 150 200 244 295 348
#     4  11  22  40  62  84 111 159 203 247 288 348
#     4  11  24  40  58  82 121 157 197 247 302 340
#     4  11  23  39  62  87 117 156 198 245 292 350
#     4  11  25  42  58  82 120 159 195 241 296 352
#     4   8  14  29  56  90 115 146 191 244 288 345
#     4   8  15  30  57  87 117 148 192 240 291 346
#
# _framework density 20.899301999999999
#
# number of rings (size 3 to 8) (size 9 to 14) (size 15 to 20)
#    0.000    2.000    2.500    2.500    3.500    2.667 
#    0.000    0.833    1.833    2.000    0.000    0.000 
#    0.000    0.000    0.000    0.000    0.000    0.000 
#
# Total GULP energy -134133.942869 kJ/mol
# GULP energy per Si atom -5588.914286 kJ/mol
# Density = 2.085173 g / cm^3
# Si number density = 20.899302 Si / 1000 Ang^3
#
#
#
# Elastic Constant Matrix: (Units=GPa)
#
#
# Indices 1 2 3 4 5 6 
#
# 1 90.8352 45.1135 5.7562 0.0000 4.6544 0.0000
# 2 45.1135 160.3505 41.5467 0.0000 -15.2051 -0.0001
# 3 5.7562 41.5467 89.6396 0.0002 -19.1127 -0.0003
# 4 0.0000 0.0000 0.0002 70.4891 -0.0001 -19.3264
# 5 4.6544 -15.2051 -19.1127 -0.0001 30.9573 0.0000
# 6 0.0000 -0.0001 -0.0003 -19.3264 0.0000 19.3211
#
#
#
# Elastic Compliance Matrix: (Units=1/GPa)
#
#
# Indices 1 2 3 4 5 6 
#
# 1 0.013260 -0.004164 0.000250 0.000000 -0.003884 0.000000
# 2 -0.004164 0.008471 -0.003038 0.000000 0.002911 0.000000
# 3 0.000250 -0.003038 0.014074 0.000000 0.007160 0.000000
# 4 0.000000 0.000000 0.000000 0.019548 0.000000 0.019553
# 5 -0.003884 0.002911 0.007160 0.000000 0.038736 0.000000
# 6 0.000000 0.000000 0.000000 0.019553 0.000000 0.071315
#
#
# Mechanical properties :
#
#
# Convention : Reuss Voigt Hill
#
# Bulk Modulus (GPa) = 45.65806 58.40645 52.03225
# Shear Modulus (GPa) = 26.79397 40.71409 33.75403
#
# Velocity S-wave (km/s) = 3.58446 4.41853 4.02316
# Velocity P-wave (km/s) = 6.24702 7.35108 6.82142
#
# Compressibility (1/GPa) = 0.02190194
#
# Stress axis : x y z
#
# Youngs Moduli (GPa) = 75.41437 118.04988 71.05102
#
# Poissons Ratio (x) = 0.49153 -0.01777
# Poissons Ratio (y) = 0.31401 0.21586
# Poissons Ratio (z) = -0.01886 0.35865
#
# Static dielectric constant tensor:
#      x y z
#    x 1.756210 0.000000 0.018380 
#    y 0.000000 1.716820 0.000000 
#    z 0.018380 0.000000 1.789530 
# 
# From -- ./inp_files/245855.got.cif
#   From: 2010.05.17/outbox.cif.g08.bks.cpg/sg12_123_cif.got.tgz:245855.got - 2010.06.03 13:09:07.
