data_PCOD9220048
_publ_section_title
;
Structure prediction by ZEFSAII (Michael W. Deem and Ramdas Pophale) SiO2 
 PCOD9220048
Probable space group: C 2/M
;
_chemical_formula_sum "Si O2"
_cell_formula_units_Z 50
_cell_length_a 15.567817
_cell_length_b 16.654013
_cell_length_c 9.569502
_cell_angle_alpha 90.000000
_cell_angle_beta 123.304094
_cell_angle_gamma 90.000000
_cell_volume 2073.584609
_symmetry_space_group_name_H-M "C 2/M"
_symmetry_group_IT_number 12
_symmetry_cell_setting 'monoclinic'
loop_
_space_group_symop_operation_xyz
x,y,z
-x,y,-z
-x,-y,-z
x,-y,z
1/2+x,1/2+y,z
1/2-x,1/2+y,-z
1/2-x,1/2-y,-z
1/2+x,1/2-y,z
loop_
_atom_site_type_symbol
_atom_site_label
_atom_site_fract_x
_atom_site_fract_y
_atom_site_fract_z
Si Si1 0.755685 0.905497 0.528444
Si Si2 0.330933 0.654823 0.868554
Si Si3 0.141811 0.407777 0.887105
Si Si4 0.000000 0.000000 0.500000
Si Si5 0.037975 0.850622 0.746072
Si Si6 0.544535 0.813398 0.384751
Si Si7 0.255385 0.330872 0.230713
O O1 0.835391 0.890551 0.725129
O O2 0.654141 0.855179 0.476985
O O3 0.782279 0.871641 0.400403
O O4 0.735325 0.000000 0.500285
O O5 0.227715 0.624016 0.855757
O O6 0.310589 0.749281 0.821373
O O7 0.422322 0.639133 0.059785
O O8 0.121372 0.500000 0.837915
O O9 0.036974 0.358852 0.784944
O O10 0.192166 0.394525 0.082810
O O11 0.987985 0.929389 0.366320
O O12 0.956447 0.779101 0.659744
O O13 0.140171 0.814001 0.760228
O O14 0.500000 0.820946 0.500000
#
# Coordination Sequence:
#
# PCOD9220048 Si02
#       7
#     8   8   8   2   8   8   8
#     4  12  27  41  69 109 143 178 226 294 360 407
#     4  11  22  43  69  96 131 188 236 277 336 425
#     4  11  21  37  68 100 135 178 231 285 334 409
#     4  12  28  40  80 110 126 176 242 308 320 388
#     4  11  24  46  73 100 132 183 240 284 338 403
#     4  12  22  43  67 100 141 178 230 282 350 418
#     4  11  23  45  68 100 136 189 231 279 349 421
#
# _framework density 24.112832000000001
#
# number of rings (size 3 to 8) (size 9 to 14) (size 15 to 20)
#    0.000    0.640    5.600    2.880    6.720    1.280 
#    0.000    1.600    0.000    0.960    0.000    0.000 
#    0.000    0.000    0.000    0.000    0.000    0.000 
#
# Total GULP energy -139924.131870 kJ/mol
# GULP energy per Si atom -5596.965275 kJ/mol
# Density = 2.405795 g / cm^3
# Si number density = 24.112832 Si / 1000 Ang^3
#
#
#
# Elastic Constant Matrix: (Units=GPa)
#
#
# Indices 1 2 3 4 5 6 
#
# 1 58.2817 18.5874 48.1734 0.0000 1.0406 0.0000
# 2 18.5874 190.0179 66.0580 0.0000 8.0742 0.0000
# 3 48.1734 66.0580 206.1547 0.0000 -15.3109 0.0000
# 4 0.0000 0.0000 0.0000 35.5253 0.0000 -5.7973
# 5 1.0406 8.0742 -15.3109 0.0000 37.3207 0.0000
# 6 0.0000 0.0000 0.0000 -5.7973 0.0000 8.9069
#
#
#
# Elastic Compliance Matrix: (Units=1/GPa)
#
#
# Indices 1 2 3 4 5 6 
#
# 1 0.021542 -0.000196 -0.005170 0.000000 -0.002679 0.000000
# 2 -0.000196 0.006092 -0.002067 0.000000 -0.002160 0.000000
# 3 -0.005170 -0.002067 0.006978 0.000000 0.003454 0.000000
# 4 0.000000 0.000000 0.000000 0.031494 0.000000 0.020499
# 5 -0.002679 -0.002160 0.003454 0.000000 0.028754 0.000000
# 6 0.000000 0.000000 0.000000 0.020499 0.000000 0.125615
#
#
# Mechanical properties :
#
#
# Convention : Reuss Voigt Hill
#
# Bulk Modulus (GPa) = 50.64339 80.01022 65.32681
# Shear Modulus (GPa) = 20.66784 37.79292 29.23038
#
# Velocity S-wave (km/s) = 2.93085 3.96326 3.48549
# Velocity P-wave (km/s) = 5.70101 7.36185 6.58401
#
# Compressibility (1/GPa) = 0.01974591
#
# Stress axis : x y z
#
# Youngs Moduli (GPa) = 46.42163 164.14640 143.31642
#
# Poissons Ratio (x) = 0.03218 0.74094
# Poissons Ratio (y) = 0.00910 0.29620
# Poissons Ratio (z) = 0.24000 0.33925
#
# Static dielectric constant tensor:
#      x y z
#    x 1.937830 0.000000 0.068120 
#    y 0.000000 1.835320 0.000000 
#    z 0.068120 0.000000 1.678330 
# 
# From -- ./inp_files/75811.got.cif
#   From: 2010.05.17/outbox.cif.g08.bks.cpg/sg12_38_cif.got.tgz:75811.got - 2010.06.03 13:09:07.
