data_PCOD9220884
_publ_section_title
;
Structure prediction by ZEFSAII (Michael W. Deem and Ramdas Pophale) SiO2 
 PCOD9220884
Probable space group: C 2/M
;
_chemical_formula_sum "Si O2"
_cell_formula_units_Z 48
_cell_length_a 29.695260
_cell_length_b 8.789295
_cell_length_c 14.656104
_cell_angle_alpha 90.000000
_cell_angle_beta 38.546057
_cell_angle_gamma 90.000000
_cell_volume 2383.679179
_symmetry_space_group_name_H-M "C 2/M"
_symmetry_group_IT_number 12
_symmetry_cell_setting 'monoclinic'
loop_
_space_group_symop_operation_xyz
x,y,z
-x,y,-z
-x,-y,-z
x,-y,z
1/2+x,1/2+y,z
1/2-x,1/2+y,-z
1/2-x,1/2-y,-z
1/2+x,1/2-y,z
loop_
_atom_site_type_symbol
_atom_site_label
_atom_site_fract_x
_atom_site_fract_y
_atom_site_fract_z
Si Si1 0.054149 0.681718 0.495345
Si Si2 0.807665 0.676409 0.976136
Si Si3 0.932660 0.185261 0.044915
Si Si4 0.954249 0.181725 0.800285
Si Si5 0.225719 0.182180 0.634648
Si Si6 0.298906 0.324249 0.689738
O O1 0.059451 0.500000 0.484380
O O2 0.133232 0.753617 0.364846
O O3 0.000000 0.730498 0.500000
O O4 0.019530 0.737372 0.645061
O O5 0.821738 0.500000 0.929779
O O6 0.881482 0.769007 0.863568
O O7 0.750000 0.750000 0.000000
O O8 0.770218 0.682021 0.134605
O O9 0.855135 0.234166 0.207670
O O10 0.931783 0.000000 0.047046
O O11 0.944903 0.230119 0.920416
O O12 0.000000 0.235519 0.000000
O O13 0.963476 0.000000 0.782381
O O14 0.250000 0.250000 0.500000
O O15 0.280000 0.234809 0.628064
O O16 0.225147 0.000000 0.630038
O O17 0.314512 0.500000 0.643678
#
# Coordination Sequence:
#
# PCOD9220884 Si02
#       6
#     8   8   8   8   8   8
#     4  11  25  43  63  91 129 170 212 263 321 378
#     4  11  23  39  63  92 125 162 209 262 316 377
#     4   9  20  39  63  92 125 163 205 252 309 373
#     4  11  22  39  65  93 126 166 209 257 314 377
#     4  11  23  41  66  95 129 166 209 261 319 381
#     4  11  24  42  64  91 126 168 214 264 315 377
#
# _framework density 20.136939000000002
#
# number of rings (size 3 to 8) (size 9 to 14) (size 15 to 20)
#    0.000    1.333    1.667    3.500    2.333    6.000 
#    0.000    0.000    0.000    4.000    0.000    0.000 
#    0.000    0.000    0.000    0.000    0.000    0.000 
#
# Total GULP energy -134218.586236 kJ/mol
# GULP energy per Si atom -5592.441093 kJ/mol
# Density = 2.009111 g / cm^3
# Si number density = 20.136939 Si / 1000 Ang^3
#
#
#
# Elastic Constant Matrix: (Units=GPa)
#
#
# Indices 1 2 3 4 5 6 
#
# 1 91.1663 17.1978 7.0576 0.0000 -0.1996 0.0000
# 2 17.1978 58.1890 17.7843 0.0002 3.2664 -0.0001
# 3 7.0576 17.7843 76.0415 0.0002 -0.3259 0.0000
# 4 0.0000 0.0002 0.0002 32.4043 0.0000 -0.7866
# 5 -0.1996 3.2664 -0.3259 0.0000 39.6747 0.0000
# 6 0.0000 -0.0001 0.0000 -0.7866 0.0000 27.5145
#
#
#
# Elastic Compliance Matrix: (Units=1/GPa)
#
#
# Indices 1 2 3 4 5 6 
#
# 1 0.011627 -0.003366 -0.000290 0.000000 0.000333 0.000000
# 2 -0.003366 0.019580 -0.004274 0.000000 -0.001664 0.000000
# 3 -0.000290 -0.004274 0.014179 0.000000 0.000467 0.000000
# 4 0.000000 0.000000 0.000000 0.030882 0.000000 0.000883
# 5 0.000333 -0.001664 0.000467 0.000000 0.025347 0.000000
# 6 0.000000 0.000000 0.000000 0.000883 0.000000 0.036370
#
#
# Mechanical properties :
#
#
# Convention : Reuss Voigt Hill
#
# Bulk Modulus (GPa) = 33.86971 34.38625 34.12798
# Shear Modulus (GPa) = 30.54585 32.14251 31.34418
#
# Velocity S-wave (km/s) = 3.89897 3.99958 3.94960
# Velocity P-wave (km/s) = 6.09307 6.20017 6.14685
#
# Compressibility (1/GPa) = 0.02952491
#
# Stress axis : x y z
#
# Youngs Moduli (GPa) = 86.00514 51.07262 70.52561
#
# Poissons Ratio (x) = 0.17193 0.02048
# Poissons Ratio (y) = 0.28952 0.30143
# Poissons Ratio (z) = 0.02498 0.21828
#
# Static dielectric constant tensor:
#      x y z
#    x 1.696320 0.000000 0.002260 
#    y 0.000000 1.680950 0.000000 
#    z 0.002260 0.000000 1.726510 
# 
# From -- ./inp_files/244594.got.cif
#   From: 2010.05.17/outbox.cif.g08.bks.cpg/sg12_123_cif.got.tgz:244594.got - 2010.06.03 13:09:07.
