data_PCOD9220399
_publ_section_title
;
Structure prediction by ZEFSAII (Michael W. Deem and Ramdas Pophale) SiO2 
 PCOD9220399
Probable space group: C 2/M
;
_chemical_formula_sum "Si O2"
_cell_formula_units_Z 56
_cell_length_a 13.912568
_cell_length_b 23.927334
_cell_length_c 9.097615
_cell_angle_alpha 90.000000
_cell_angle_beta 73.497159
_cell_angle_gamma 90.000000
_cell_volume 2903.753531
_symmetry_space_group_name_H-M "C 2/M"
_symmetry_group_IT_number 12
_symmetry_cell_setting 'monoclinic'
loop_
_space_group_symop_operation_xyz
x,y,z
-x,y,-z
-x,-y,-z
x,-y,z
1/2+x,1/2+y,z
1/2-x,1/2+y,-z
1/2-x,1/2-y,-z
1/2+x,1/2-y,z
loop_
_atom_site_type_symbol
_atom_site_label
_atom_site_fract_x
_atom_site_fract_y
_atom_site_fract_z
Si Si1 0.751570 0.564451 0.439548
Si Si2 0.784153 0.748753 0.733199
Si Si3 0.653105 0.822652 0.575393
Si Si4 0.894261 0.063751 0.210102
Si Si5 0.500533 0.267786 0.670284
Si Si6 0.393428 0.320006 0.119398
Si Si7 0.430626 0.432754 0.662479
O O1 0.784652 0.500000 0.407390
O O2 0.835638 0.611059 0.426029
O O3 0.677615 0.565039 0.614540
O O4 0.682354 0.582231 0.329874
O O5 0.731703 0.796314 0.657463
O O6 0.819314 0.702347 0.596886
O O7 0.884993 0.770049 0.766801
O O8 0.700253 0.719794 0.869665
O O9 0.546902 0.794536 0.662151
O O10 0.865616 0.115022 0.118815
O O11 0.007653 0.077613 0.216405
O O12 0.891392 0.000000 0.154215
O O13 0.500000 0.282915 0.500000
O O14 0.578108 0.306691 0.722333
O O15 0.500000 0.306729 0.000000
O O16 0.500000 0.410746 0.500000
O O17 0.431054 0.500000 0.649825
#
# Coordination Sequence:
#
# PCOD9220399 Si02
#       7
#     8   8   8   8   8   8   8
#     4   9  15  24  44  72 101 125 153 202 248 280
#     4   9  18  33  48  68  98 129 162 203 243 286
#     4   9  16  29  49  75  95 123 166 199 244 296
#     4   9  17  28  42  64  99 135 160 189 237 292
#     4   9  20  34  54  72  92 131 165 204 248 288
#     4  11  22  33  49  75 100 129 169 200 236 293
#     4   7  12  21  35  62  92 120 150 184 229 279
#
# _framework density 19.285384000000001
#
# number of rings (size 3 to 8) (size 9 to 14) (size 15 to 20)
#    0.000    3.000    1.429    2.571    2.000    1.429 
#    0.000    0.000    0.000    4.714    0.000    0.000 
#    0.000    9.143    0.000    0.000    0.000    0.000 
#
# Total GULP energy -155947.440124 kJ/mol
# GULP energy per Si atom -5569.551433 kJ/mol
# Density = 1.924149 g / cm^3
# Si number density = 19.285384 Si / 1000 Ang^3
#
#
#
# Elastic Constant Matrix: (Units=GPa)
#
#
# Indices 1 2 3 4 5 6 
#
# 1 58.3513 12.2545 3.1412 0.0000 -9.0409 0.0000
# 2 12.2545 95.3027 4.2437 0.0000 -3.8355 0.0000
# 3 3.1412 4.2437 25.0486 0.0000 -11.8355 0.0000
# 4 0.0000 0.0000 0.0000 6.9537 0.0000 -5.5369
# 5 -9.0409 -3.8355 -11.8355 0.0000 19.1961 0.0000
# 6 0.0000 0.0000 0.0000 -5.5369 0.0000 25.0306
#
#
#
# Elastic Compliance Matrix: (Units=1/GPa)
#
#
# Indices 1 2 3 4 5 6 
#
# 1 0.019031 -0.002160 0.002837 0.000000 0.010281 0.000000
# 2 -0.002160 0.010845 -0.001444 0.000000 0.000259 0.000000
# 3 0.002837 -0.001444 0.056876 0.000000 0.036115 0.000000
# 4 0.000000 0.000000 0.000000 0.174554 0.000000 0.038612
# 5 0.010281 0.000259 0.036115 0.000000 0.079255 0.000000
# 6 0.000000 0.000000 0.000000 0.038612 0.000000 0.048492
#
#
# Mechanical properties :
#
#
# Convention : Reuss Voigt Hill
#
# Bulk Modulus (GPa) = 11.73448 24.22018 17.97733
# Shear Modulus (GPa) = 11.93337 20.84029 16.38683
#
# Velocity S-wave (km/s) = 2.49022 3.29085 2.91813
# Velocity P-wave (km/s) = 3.79027 5.19863 4.54928
#
# Compressibility (1/GPa) = 0.08521895
#
# Stress axis : x y z
#
# Youngs Moduli (GPa) = 52.54482 92.20557 17.58226
#
# Poissons Ratio (x) = 0.19914 -0.04988
# Poissons Ratio (y) = 0.11348 0.02539
# Poissons Ratio (z) = -0.14907 0.13314
#
# Static dielectric constant tensor:
#      x y z
#    x 1.692960 0.000000 0.004710 
#    y 0.000000 1.693540 0.000000 
#    z 0.004710 0.000000 1.748160 
# 
# From -- ./inp_files/148342.got.cif
#   From: 2010.05.17/outbox.cif.g08.bks.cpg/sg12_75_cif.got.tgz:148342.got - 2010.06.03 13:09:07.
