data_PCOD9220019
_publ_section_title
;
Structure prediction by ZEFSAII (Michael W. Deem and Ramdas Pophale) SiO2 
 PCOD9220019
Probable space group: C 2/M
;
_chemical_formula_sum "Si O2"
_cell_formula_units_Z 64
_cell_length_a 14.259239
_cell_length_b 24.741410
_cell_length_c 12.561517
_cell_angle_alpha 90.000000
_cell_angle_beta 40.785378
_cell_angle_gamma 90.000000
_cell_volume 2894.858068
_symmetry_space_group_name_H-M "C 2/M"
_symmetry_group_IT_number 12
_symmetry_cell_setting 'monoclinic'
loop_
_space_group_symop_operation_xyz
x,y,z
-x,y,-z
-x,-y,-z
x,-y,z
1/2+x,1/2+y,z
1/2-x,1/2+y,-z
1/2-x,1/2-y,-z
1/2+x,1/2-y,z
loop_
_atom_site_type_symbol
_atom_site_label
_atom_site_fract_x
_atom_site_fract_y
_atom_site_fract_z
Si Si1 0.464787 0.439349 0.344145
Si Si2 0.013897 0.763864 0.746349
Si Si3 0.791818 0.380478 0.324408
Si Si4 0.211634 0.438114 0.877620
Si Si5 0.404378 0.851946 0.854546
Si Si6 0.806530 0.768168 0.615545
Si Si7 0.044873 0.871716 0.839086
Si Si8 0.340500 0.845770 0.674605
O O1 0.410497 0.500000 0.400682
O O2 0.343431 0.400246 0.492687
O O3 0.614868 0.435325 0.276237
O O4 0.493692 0.423540 0.197030
O O5 0.061623 0.770676 0.581875
O O6 0.164180 0.748264 0.672933
O O7 0.977806 0.820705 0.832734
O O8 0.907904 0.713705 0.861353
O O9 0.841388 0.423925 0.195039
O O10 0.734899 0.327568 0.309549
O O11 0.925039 0.365743 0.285570
O O12 0.174724 0.500000 0.940802
O O13 0.162423 0.390618 0.999062
O O14 0.332290 0.864291 0.803315
O O15 0.825432 0.719309 0.680462
O O16 0.217809 0.867265 0.701770
O O17 0.000000 0.870958 0.000000
O O18 0.500000 0.859554 0.500000
#
# Coordination Sequence:
#
# PCOD9220019 Si02
#       8
#     8   8   8   8   8   8   8   8
#     4  11  24  44  67  90 122 169 225 274 320 384
#     4   9  18  36  59  89 127 167 205 250 312 382
#     4  11  22  41  70  96 123 167 222 271 323 383
#     4  11  26  45  64  93 130 168 217 278 334 380
#     4  11  23  40  66  97 134 168 208 265 331 389
#     4   9  18  34  59  91 126 164 202 256 311 374
#     4  11  23  40  62  92 132 168 210 264 318 385
#     4  11  21  37  63  94 128 172 207 253 320 392
#
# _framework density 22.108163999999999
#
# number of rings (size 3 to 8) (size 9 to 14) (size 15 to 20)
#    0.000    1.500    2.500    2.625    0.000    7.750 
#    0.000    2.500    0.000    1.500    0.000    0.000 
#    0.000    0.000    0.000    0.000    0.000    0.000 
#
# Total GULP energy -178747.591316 kJ/mol
# GULP energy per Si atom -5585.862229 kJ/mol
# Density = 2.205784 g / cm^3
# Si number density = 22.108164 Si / 1000 Ang^3
#
#
#
# Elastic Constant Matrix: (Units=GPa)
#
#
# Indices 1 2 3 4 5 6 
#
# 1 74.6115 16.4262 -8.7189 0.0000 4.9298 0.0000
# 2 16.4262 50.0958 21.8870 0.0000 3.3581 0.0000
# 3 -8.7189 21.8870 57.6421 0.0000 6.8390 0.0000
# 4 0.0000 0.0000 0.0000 30.2242 0.0000 1.0757
# 5 4.9298 3.3581 6.8390 0.0000 34.7995 0.0000
# 6 0.0000 0.0000 0.0000 1.0757 0.0000 24.4557
#
#
#
# Elastic Compliance Matrix: (Units=1/GPa)
#
#
# Indices 1 2 3 4 5 6 
#
# 1 0.015862 -0.007444 0.005536 0.000000 -0.002617 0.000000
# 2 -0.007444 0.027436 -0.011626 0.000000 0.000692 0.000000
# 3 0.005536 -0.011626 0.023099 0.000000 -0.004202 0.000000
# 4 0.000000 0.000000 0.000000 0.033138 0.000000 -0.001458
# 5 -0.002617 0.000692 -0.004202 0.000000 0.029866 0.000000
# 6 0.000000 0.000000 0.000000 -0.001458 0.000000 0.040954
#
#
# Mechanical properties :
#
#
# Convention : Reuss Voigt Hill
#
# Bulk Modulus (GPa) = 25.42676 26.83755 26.13215
# Shear Modulus (GPa) = 23.74951 28.07956 25.91453
#
# Velocity S-wave (km/s) = 3.28112 3.56771 3.42741
# Velocity P-wave (km/s) = 5.08727 5.39787 5.24487
#
# Compressibility (1/GPa) = 0.03932865
#
# Stress axis : x y z
#
# Youngs Moduli (GPa) = 63.04559 36.44895 43.29250
#
# Poissons Ratio (x) = 0.27134 -0.23968
# Poissons Ratio (y) = 0.46933 0.50330
# Poissons Ratio (z) = -0.34904 0.42374
#
# Static dielectric constant tensor:
#      x y z
#    x 1.807320 0.000000 -0.026350 
#    y 0.000000 1.802600 0.000000 
#    z -0.026350 0.000000 1.847360 
# 
# From -- ./inp_files/149745.got.cif
#   From: 2010.05.17/outbox.cif.g08.bks.cpg/sg12_75_cif.got.tgz:149745.got - 2010.06.03 13:09:07.
