data_PCOD9220893
_publ_section_title
;
Structure prediction by ZEFSAII (Michael W. Deem and Ramdas Pophale) SiO2 
 PCOD9220893
Probable space group: C 2/M
;
_chemical_formula_sum "Si O2"
_cell_formula_units_Z 42
_cell_length_a 10.444950
_cell_length_b 15.292114
_cell_length_c 13.516964
_cell_angle_alpha 90.000000
_cell_angle_beta 85.586167
_cell_angle_gamma 90.000000
_cell_volume 2152.598857
_symmetry_space_group_name_H-M "C 2/M"
_symmetry_group_IT_number 12
_symmetry_cell_setting 'monoclinic'
loop_
_space_group_symop_operation_xyz
x,y,z
-x,y,-z
-x,-y,-z
x,-y,z
1/2+x,1/2+y,z
1/2-x,1/2+y,-z
1/2-x,1/2-y,-z
1/2+x,1/2-y,z
loop_
_atom_site_type_symbol
_atom_site_label
_atom_site_fract_x
_atom_site_fract_y
_atom_site_fract_z
Si Si1 0.000000 0.000000 0.500000
Si Si2 0.154429 0.145467 0.580713
Si Si3 0.750553 0.602836 0.789695
Si Si4 0.889193 0.648618 0.429715
Si Si5 0.948274 0.399754 0.202164
Si Si6 0.131658 0.755347 0.932009
O O1 0.959292 0.922909 0.422918
O O2 0.231055 0.131295 0.677492
O O3 0.110560 0.245657 0.576914
O O4 0.252657 0.123884 0.485455
O O5 0.724808 0.500000 0.800362
O O6 0.898668 0.617883 0.811291
O O7 0.657632 0.661523 0.861067
O O8 0.000000 0.620875 0.500000
O O9 0.909165 0.611585 0.319341
O O10 0.925060 0.500000 0.173084
O O11 0.877694 0.330178 0.137152
O O12 0.250000 0.750000 0.000000
O O13 0.000000 0.762576 0.000000
#
# Coordination Sequence:
#
# PCOD9220893 Si02
#       6
#     2   8   8   8   8   8
#     4  12  24  40  58 100 140 186 222 274 328 388
#     4  11  23  38  63  97 142 181 216 272 330 395
#     4  11  23  43  70  99 134 178 224 278 344 407
#     4  11  22  39  65  98 136 179 222 262 324 404
#     4  11  25  43  70 103 135 174 228 282 337 413
#     4  12  26  48  73  98 133 175 227 293 353 406
#
# _framework density 19.511299000000001
#
# number of rings (size 3 to 8) (size 9 to 14) (size 15 to 20)
#    0.000    0.762    7.619    0.000    1.333    1.905 
#    3.429    0.000    0.000    0.000    0.000    0.000 
#    0.000    0.000    0.000    0.000    0.000    0.000 
#
# Total GULP energy -117157.202311 kJ/mol
# GULP energy per Si atom -5578.914396 kJ/mol
# Density = 1.946689 g / cm^3
# Si number density = 19.511299 Si / 1000 Ang^3
#
#
#
# Elastic Constant Matrix: (Units=GPa)
#
#
# Indices 1 2 3 4 5 6 
#
# 1 75.4509 30.7831 46.3206 0.0000 11.2314 0.0000
# 2 30.7831 74.2808 52.3054 0.0000 3.9419 0.0000
# 3 46.3206 52.3054 113.9782 0.0000 -2.9142 0.0000
# 4 0.0000 0.0000 0.0000 7.5659 0.0000 2.7337
# 5 11.2314 3.9419 -2.9142 0.0000 40.7265 0.0000
# 6 0.0000 0.0000 0.0000 2.7337 0.0000 25.6540
#
#
#
# Elastic Compliance Matrix: (Units=1/GPa)
#
#
# Indices 1 2 3 4 5 6 
#
# 1 0.019391 -0.003094 -0.006601 0.000000 -0.005520 0.000000
# 2 -0.003094 0.020658 -0.008267 0.000000 -0.001738 0.000000
# 3 -0.006601 -0.008267 0.015345 0.000000 0.003719 0.000000
# 4 0.000000 0.000000 0.000000 0.137465 0.000000 -0.014648
# 5 -0.005520 -0.001738 0.003719 0.000000 0.026511 0.000000
# 6 0.000000 0.000000 0.000000 -0.014648 0.000000 0.040541
#
#
# Mechanical properties :
#
#
# Convention : Reuss Voigt Hill
#
# Bulk Modulus (GPa) = 51.36520 58.05867 54.71193
# Shear Modulus (GPa) = 16.53840 23.74266 20.14053
#
# Velocity S-wave (km/s) = 2.91457 3.49215 3.21635
# Velocity P-wave (km/s) = 6.14079 6.78831 6.47265
#
# Compressibility (1/GPa) = 0.01946843
#
# Stress axis : x y z
#
# Youngs Moduli (GPa) = 51.57139 48.40653 65.16629
#
# Poissons Ratio (x) = 0.14979 0.43019
# Poissons Ratio (y) = 0.15958 0.53874
# Poissons Ratio (z) = 0.34045 0.40018
#
# Static dielectric constant tensor:
#      x y z
#    x 1.712530 0.000000 0.008630 
#    y 0.000000 2.831380 0.000000 
#    z 0.008630 0.000000 1.681580 
# 
# From -- ./inp_files/129700.got.cif
#   From: 2010.05.17/outbox.cif.g08.bks.cpg/sg12_65_cif.got.tgz:129700.got - 2010.06.03 13:09:07.
