data_PCOD9220548
_publ_section_title
;
Structure prediction by ZEFSAII (Michael W. Deem and Ramdas Pophale) SiO2 
 PCOD9220548
Probable space group: C 2/M
;
_chemical_formula_sum "Si O2"
_cell_formula_units_Z 58
_cell_length_a 29.895663
_cell_length_b 7.598710
_cell_length_c 9.693894
_cell_angle_alpha 90.000000
_cell_angle_beta 89.146968
_cell_angle_gamma 90.000000
_cell_volume 2201.903043
_symmetry_space_group_name_H-M "C 2/M"
_symmetry_group_IT_number 12
_symmetry_cell_setting 'monoclinic'
loop_
_space_group_symop_operation_xyz
x,y,z
-x,y,-z
-x,-y,-z
x,-y,z
1/2+x,1/2+y,z
1/2-x,1/2+y,-z
1/2-x,1/2-y,-z
1/2+x,1/2-y,z
loop_
_atom_site_type_symbol
_atom_site_label
_atom_site_fract_x
_atom_site_fract_y
_atom_site_fract_z
Si Si1 0.917744 0.710129 0.368242
Si Si2 0.101663 0.802092 0.229022
Si Si3 0.883060 0.288089 0.061727
Si Si4 0.506220 0.292745 0.245198
Si Si5 0.701797 0.798898 0.255293
Si Si6 0.822732 0.284022 0.458872
Si Si7 0.208961 0.292784 0.839990
Si Si8 0.000000 0.500000 0.000000
O O1 0.919910 0.500000 0.382893
O O2 0.900766 0.750982 0.212592
O O3 0.875236 0.768930 0.461639
O O4 0.967578 0.781734 0.362301
O O5 0.055760 0.738461 0.298228
O O6 0.148714 0.702925 0.232144
O O7 0.111212 0.000000 0.270561
O O8 0.091064 0.795817 0.065438
O O9 0.887694 0.500000 0.041884
O O10 0.831312 0.224238 0.063730
O O11 0.509259 0.500000 0.204054
O O12 0.495584 0.155288 0.122454
O O13 0.704049 0.716600 0.407838
O O14 0.737927 0.723309 0.148005
O O15 0.715601 0.000000 0.259422
O O16 0.821975 0.500000 0.462636
O O17 0.802207 0.228335 0.314496
O O18 0.199547 0.500000 0.842267
#
# Coordination Sequence:
#
# PCOD9220548 Si02
#       8
#     8   8   8   8   8   8   8   2
#     4   9  17  35  62  87 116 152 190 244 308 349
#     4  11  25  40  54  78 119 158 196 242 288 352
#     4   9  19  34  57  84 111 148 189 233 291 361
#     4  11  24  38  57  91 123 157 205 246 296 362
#     4  11  22  36  58  83 113 155 202 241 286 357
#     4   8  17  35  60  90 115 146 195 246 295 352
#     4   9  18  36  59  85 116 144 184 244 303 349
#     4  12  22  36  64  86 118 164 190 248 308 336
#
# _framework density 26.340852999999999
#
# number of rings (size 3 to 8) (size 9 to 14) (size 15 to 20)
#    0.000    2.207    0.690    3.931    3.862    2.759 
#    0.000    4.828    0.000    4.138    0.000    0.000 
#    0.000    0.000    0.000    0.000    0.000    0.000 
#
# Total GULP energy -161784.698473 kJ/mol
# GULP energy per Si atom -5578.782706 kJ/mol
# Density = 2.628090 g / cm^3
# Si number density = 26.340853 Si / 1000 Ang^3
#
#
#
# Elastic Constant Matrix: (Units=GPa)
#
#
# Indices 1 2 3 4 5 6 
#
# 1 188.2977 11.5317 24.2559 0.0000 -31.0741 0.0000
# 2 11.5317 83.4759 4.7474 0.0000 0.2732 0.0000
# 3 24.2559 4.7474 50.0721 0.0000 -17.6829 0.0000
# 4 0.0000 0.0000 0.0000 12.1638 0.0000 -5.5874
# 5 -31.0741 0.2732 -17.6829 0.0000 44.2639 0.0000
# 6 0.0000 0.0000 0.0000 -5.5874 0.0000 22.0012
#
#
#
# Elastic Compliance Matrix: (Units=1/GPa)
#
#
# Indices 1 2 3 4 5 6 
#
# 1 0.006176 -0.000774 -0.001613 0.000000 0.003696 0.000000
# 2 -0.000774 0.012156 -0.001160 0.000000 -0.001081 0.000000
# 3 -0.001613 -0.001160 0.023827 0.000000 0.008393 0.000000
# 4 0.000000 0.000000 0.000000 0.093069 0.000000 0.023636
# 5 0.003696 -0.001081 0.008393 0.000000 0.028546 0.000000
# 6 0.000000 0.000000 0.000000 0.023636 0.000000 0.051455
#
#
# Mechanical properties :
#
#
# Convention : Reuss Voigt Hill
#
# Bulk Modulus (GPa) = 28.51797 44.76842 36.64319
# Shear Modulus (GPa) = 21.36672 34.43981 27.90326
#
# Velocity S-wave (km/s) = 2.85118 3.61981 3.25824
# Velocity P-wave (km/s) = 4.65715 5.87396 5.30059
#
# Compressibility (1/GPa) = 0.03506561
#
# Stress axis : x y z
#
# Youngs Moduli (GPa) = 161.92158 82.26492 41.96986
#
# Poissons Ratio (x) = 0.06363 0.06770
# Poissons Ratio (y) = 0.12525 0.04867
# Poissons Ratio (z) = 0.26121 0.09540
#
# Static dielectric constant tensor:
#      x y z
#    x 2.188910 0.000000 0.078880 
#    y 0.000000 1.988910 0.000000 
#    z 0.078880 0.000000 2.077850 
# 
# From -- ./inp_files/180973.got.cif
#   From: 2010.05.17/outbox.cif.g08.bks.cpg/sg12_91_cif.got.tgz:180973.got - 2010.06.03 13:09:07.
