data_PCOD9220722
_publ_section_title
;
Structure prediction by ZEFSAII (Michael W. Deem and Ramdas Pophale) SiO2 
 PCOD9220722
Probable space group: C 2/M
;
_chemical_formula_sum "Si O2"
_cell_formula_units_Z 32
_cell_length_a 18.898676
_cell_length_b 22.251807
_cell_length_c 8.076055
_cell_angle_alpha 90.000000
_cell_angle_beta 152.603626
_cell_angle_gamma 90.000000
_cell_volume 1562.749310
_symmetry_space_group_name_H-M "C 2/M"
_symmetry_group_IT_number 12
_symmetry_cell_setting 'monoclinic'
loop_
_space_group_symop_operation_xyz
x,y,z
-x,y,-z
-x,-y,-z
x,-y,z
1/2+x,1/2+y,z
1/2-x,1/2+y,-z
1/2-x,1/2-y,-z
1/2+x,1/2-y,z
loop_
_atom_site_type_symbol
_atom_site_label
_atom_site_fract_x
_atom_site_fract_y
_atom_site_fract_z
Si Si1 0.948226 0.931644 0.584355
Si Si2 0.569817 0.313366 0.966711
Si Si3 0.871960 0.370022 0.126524
Si Si4 0.614640 0.790147 0.533084
O O1 0.000000 0.930286 0.500000
O O2 0.052610 0.883847 0.896209
O O3 0.959413 0.000000 0.666736
O O4 0.773815 0.906912 0.230786
O O5 0.459874 0.275273 0.616330
O O6 0.500000 0.299517 0.000000
O O7 0.743777 0.294023 0.296136
O O8 0.831307 0.317773 0.177764
O O9 0.000000 0.406721 0.500000
O O10 0.970999 0.334993 0.194129
#
# Coordination Sequence:
#
# PCOD9220722 Si02
#       4
#     8   8   8   8
#     4  11  22  38  61  84 112 154 198 234 277 333
#     4  12  23  37  58  86 123 151 186 231 286 351
#     4   8  19  36  61  87 111 141 186 251 273 331
#     4   9  21  36  58  89 114 149 183 236 297 330
#
# _framework density 20.476734
#
# number of rings (size 3 to 8) (size 9 to 14) (size 15 to 20)
#    1.500    0.250    2.500    2.250    3.500    6.000 
#    0.000    1.250    0.000    1.500    0.000    0.000 
#    0.000    0.000    0.000    0.000    0.000    0.000 
#
# Total GULP energy -89161.147616 kJ/mol
# GULP energy per Si atom -5572.571726 kJ/mol
# Density = 2.043013 g / cm^3
# Si number density = 20.476734 Si / 1000 Ang^3
#
#
#
# Elastic Constant Matrix: (Units=GPa)
#
#
# Indices 1 2 3 4 5 6 
#
# 1 92.8767 14.7286 28.5820 0.0000 38.8540 0.0000
# 2 14.7286 120.9839 41.9321 0.0000 18.1125 0.0000
# 3 28.5820 41.9321 61.2019 0.0000 34.3718 0.0000
# 4 0.0000 0.0000 0.0000 227.4715 0.0000 -80.5215
# 5 38.8540 18.1125 34.3718 0.0000 38.0731 0.0000
# 6 0.0000 0.0000 0.0000 -80.5215 0.0000 48.1532
#
#
#
# Elastic Compliance Matrix: (Units=1/GPa)
#
#
# Indices 1 2 3 4 5 6 
#
# 1 0.019307 -0.000373 0.004472 0.000000 -0.023563 0.000000
# 2 -0.000373 0.011035 -0.009436 0.000000 0.003650 0.000000
# 3 0.004472 -0.009436 0.042107 0.000000 -0.038088 0.000000
# 4 0.000000 0.000000 0.000000 0.010773 0.000000 0.018015
# 5 -0.023563 0.003650 -0.038088 0.000000 0.082961 0.000000
# 6 0.000000 0.000000 0.000000 0.018015 0.000000 0.050891
#
#
# Mechanical properties :
#
#
# Convention : Reuss Voigt Hill
#
# Bulk Modulus (GPa) = 16.18765 49.50532 32.84649
# Shear Modulus (GPa) = 20.13370 75.39421 47.76396
#
# Velocity S-wave (km/s) = 3.13908 6.07449 4.83494
# Velocity P-wave (km/s) = 4.58922 8.56902 6.87346
#
# Compressibility (1/GPa) = 0.06177549
#
# Stress axis : x y z
#
# Youngs Moduli (GPa) = 51.79388 90.62027 23.74923
#
# Poissons Ratio (x) = 0.03379 -0.10621
# Poissons Ratio (y) = 0.01931 0.22410
# Poissons Ratio (z) = -0.23163 0.85510
#
# Static dielectric constant tensor:
#      x y z
#    x 1.764980 0.000000 -0.012060 
#    y 0.000000 1.741780 0.000000 
#    z -0.012060 0.000000 1.764220 
# 
# From -- ./inp_files/37669.got.cif
#   From: 2010.05.17/outbox.cif.g08.bks.cpg/sg12_19_cif.got.tgz:37669.got - 2010.06.03 13:09:07.
