data_PCOD9220117
_publ_section_title
;
Structure prediction by ZEFSAII (Michael W. Deem and Ramdas Pophale) SiO2 
 PCOD9220117
Probable space group: C 2/M
;
_chemical_formula_sum "Si O2"
_cell_formula_units_Z 56
_cell_length_a 15.625013
_cell_length_b 16.224276
_cell_length_c 21.101824
_cell_angle_alpha 90.000000
_cell_angle_beta 149.780176
_cell_angle_gamma 90.000000
_cell_volume 2692.458338
_symmetry_space_group_name_H-M "C 2/M"
_symmetry_group_IT_number 12
_symmetry_cell_setting 'monoclinic'
loop_
_space_group_symop_operation_xyz
x,y,z
-x,y,-z
-x,-y,-z
x,-y,z
1/2+x,1/2+y,z
1/2-x,1/2+y,-z
1/2-x,1/2-y,-z
1/2+x,1/2-y,z
loop_
_atom_site_type_symbol
_atom_site_label
_atom_site_fract_x
_atom_site_fract_y
_atom_site_fract_z
Si Si1 0.080456 0.224174 0.206627
Si Si2 0.505744 0.365571 0.578744
Si Si3 0.643433 0.095038 0.407872
Si Si4 0.896631 0.314611 0.490097
Si Si5 0.851374 0.714373 0.165194
Si Si6 0.165172 0.660901 0.144034
Si Si7 0.548170 0.593430 0.956821
O O1 0.236131 0.227348 0.354239
O O2 0.090496 0.292531 0.158295
O O3 0.920425 0.234139 0.150135
O O4 0.088801 0.138223 0.174544
O O5 0.500000 0.386000 0.500000
O O6 0.330828 0.396249 0.497753
O O7 0.502259 0.265054 0.581603
O O8 0.677275 0.391788 0.725821
O O9 0.653842 0.124212 0.487152
O O10 0.508479 0.159761 0.292281
O O11 0.586367 0.000000 0.365198
O O12 0.000000 0.357006 0.500000
O O13 0.756438 0.773650 0.154751
O O14 0.714512 0.647863 0.055751
O O15 0.000000 0.626380 0.000000
O O16 0.573727 0.500000 0.954641
O O17 0.500000 0.596845 0.000000
#
# Coordination Sequence:
#
# PCOD9220117 Si02
#       7
#     8   8   8   8   8   8   8
#     4  12  21  38  64  92 121 164 221 256 307 381
#     4  11  21  42  66  92 124 162 211 269 310 363
#     4  12  25  40  62  95 129 164 204 257 328 383
#     4  11  21  38  65  89 119 163 209 256 310 376
#     4  12  21  38  64  92 124 162 214 263 305 375
#     4  12  22  37  64  99 118 158 221 263 316 361
#     4  11  24  40  58  88 135 171 200 256 325 384
#
# _framework density 20.798836000000001
#
# number of rings (size 3 to 8) (size 9 to 14) (size 15 to 20)
#    0.000    0.429    8.571    2.143    0.000    1.143 
#    0.000    0.000    0.000    0.429    0.000    0.000 
#    0.000    0.000    0.000    0.000    0.000    0.000 
#
# Total GULP energy -156319.519032 kJ/mol
# GULP energy per Si atom -5582.839965 kJ/mol
# Density = 2.075150 g / cm^3
# Si number density = 20.798836 Si / 1000 Ang^3
#
#
#
# Elastic Constant Matrix: (Units=GPa)
#
#
# Indices 1 2 3 4 5 6 
#
# 1 108.9191 13.9271 8.9535 0.0005 -1.3628 0.0000
# 2 13.9271 40.6469 -1.9378 -0.0029 -8.5135 0.0007
# 3 8.9535 -1.9378 128.0661 -0.0105 -6.5408 0.0010
# 4 0.0005 -0.0029 -0.0105 0.1869 -0.0013 9.6140
# 5 -1.3628 -8.5135 -6.5408 -0.0013 26.0472 0.0011
# 6 0.0000 0.0007 0.0010 9.6140 0.0011 -7.0431
#
#
#
# Elastic Compliance Matrix: (Units=1/GPa)
#
#
# Indices 1 2 3 4 5 6 
#
# 1 0.009686 -0.003532 -0.000774 -0.000001 -0.000842 -0.000003
# 2 -0.003532 0.027790 0.001136 0.000005 0.009184 0.000011
# 3 -0.000774 0.001136 0.007999 0.000006 0.002340 0.000009
# 4 -0.000001 0.000005 0.000006 0.075129 0.000003 0.102554
# 5 -0.000842 0.009184 0.002340 0.000003 0.041937 0.000011
# 6 -0.000003 0.000011 0.000009 0.102554 0.000011 -0.001994
#
#
# Mechanical properties :
#
#
# Convention : Reuss Voigt Hill
#
# Bulk Modulus (GPa) = 25.55135 35.50198 30.52666
# Shear Modulus (GPa) = 27.78845 20.95083 24.36964
#
# Velocity S-wave (km/s) = 3.65918 3.17725 3.42670
# Velocity P-wave (km/s) = 5.49222 5.52867 5.51047
#
# Compressibility (1/GPa) = 0.03913687
#
# Stress axis : x y z
#
# Youngs Moduli (GPa) = 103.24395 35.98421 125.01180
#
# Poissons Ratio (x) = 0.12709 0.09671
# Poissons Ratio (y) = 0.36465 -0.14207
# Poissons Ratio (z) = 0.07987 -0.04089
#
# Static dielectric constant tensor:
#      x y z
#    x 1.741000 0.000000 0.020110 
#    y 0.000000 1.718550 0.000000 
#    z 0.020110 0.000000 1.846200 
# 
# From -- ./inp_files/311727.got.cif
#   From: 2010.05.17/outbox.cif.g08.bks.cpg/sg12_156_cif.got.tgz:311727.got - 2010.06.03 13:09:07.
