data_PCOD9220151
_publ_section_title
;
Structure prediction by ZEFSAII (Michael W. Deem and Ramdas Pophale) SiO2 
 PCOD9220151
Probable space group: C 2/M
;
_chemical_formula_sum "Si O2"
_cell_formula_units_Z 40
_cell_length_a 8.042465
_cell_length_b 18.704259
_cell_length_c 11.773895
_cell_angle_alpha 90.000000
_cell_angle_beta 85.652087
_cell_angle_gamma 90.000000
_cell_volume 1766.030423
_symmetry_space_group_name_H-M "C 2/M"
_symmetry_group_IT_number 12
_symmetry_cell_setting 'monoclinic'
loop_
_space_group_symop_operation_xyz
x,y,z
-x,y,-z
-x,-y,-z
x,-y,z
1/2+x,1/2+y,z
1/2-x,1/2+y,-z
1/2-x,1/2-y,-z
1/2+x,1/2-y,z
loop_
_atom_site_type_symbol
_atom_site_label
_atom_site_fract_x
_atom_site_fract_y
_atom_site_fract_z
Si Si1 0.820333 0.078240 0.446520
Si Si2 0.030210 0.207115 0.689551
Si Si3 0.058166 0.582917 0.128174
Si Si4 0.160535 0.647796 0.660147
Si Si5 0.156184 0.807086 0.924638
O O1 0.845618 0.145686 0.362720
O O2 0.689849 0.096067 0.552159
O O3 0.000000 0.074461 0.500000
O O4 0.788362 0.000000 0.395952
O O5 0.057731 0.282390 0.627330
O O6 0.074837 0.226411 0.816738
O O7 0.844045 0.177273 0.686186
O O8 0.095785 0.500000 0.145946
O O9 0.217586 0.633434 0.123920
O O10 0.925698 0.609021 0.228948
O O11 0.000000 0.590111 0.000000
O O12 0.250000 0.750000 0.000000
O O13 0.000000 0.839313 0.000000
#
# Coordination Sequence:
#
# PCOD9220151 Si02
#       5
#     8   8   8   8   8
#     4   9  20  38  60  88 124 165 207 255 312 369
#     4  11  22  37  64  93 122 162 212 257 304 371
#     4  11  24  41  62  90 124 162 205 255 314 374
#     4  11  21  39  63  91 125 164 206 255 309 368
#     4  12  24  41  64  91 124 162 205 257 311 367
#
# _framework density 22.649664999999999
#
# number of rings (size 3 to 8) (size 9 to 14) (size 15 to 20)
#    0.000    1.200    0.000    7.800    0.000    2.000 
#    0.000    3.000    0.000    6.000    0.000    0.000 
#    0.000    0.000    0.000    0.000    0.000    0.000 
#
# Total GULP energy -111916.792307 kJ/mol
# GULP energy per Si atom -5595.839615 kJ/mol
# Density = 2.259811 g / cm^3
# Si number density = 22.649665 Si / 1000 Ang^3
#
#
#
# Elastic Constant Matrix: (Units=GPa)
#
#
# Indices 1 2 3 4 5 6 
#
# 1 101.9784 35.3735 44.3038 0.0000 -23.7886 0.0000
# 2 35.3735 125.0110 35.2122 0.0000 -25.9339 0.0000
# 3 44.3038 35.2122 117.2349 0.0000 -25.1310 0.0000
# 4 0.0000 0.0000 0.0000 34.8305 0.0000 -5.9887
# 5 -23.7886 -25.9339 -25.1310 0.0000 54.5240 0.0000
# 6 0.0000 0.0000 0.0000 -5.9887 0.0000 17.9851
#
#
#
# Elastic Compliance Matrix: (Units=1/GPa)
#
#
# Indices 1 2 3 4 5 6 
#
# 1 0.012742 -0.001981 -0.003585 0.000000 0.002965 0.000000
# 2 -0.001981 0.009605 -0.001490 0.000000 0.003018 0.000000
# 3 -0.003585 -0.001490 0.010924 0.000000 0.002763 0.000000
# 4 0.000000 0.000000 0.000000 0.030454 0.000000 0.010141
# 5 0.002965 0.003018 0.002763 0.000000 0.022343 0.000000
# 6 0.000000 0.000000 0.000000 0.010141 0.000000 0.058978
#
#
# Mechanical properties :
#
#
# Convention : Reuss Voigt Hill
#
# Bulk Modulus (GPa) = 52.18796 63.77815 57.98305
# Shear Modulus (GPa) = 30.20338 36.75689 33.48014
#
# Velocity S-wave (km/s) = 3.65568 4.03283 3.84887
# Velocity P-wave (km/s) = 6.39610 7.06432 6.73849
#
# Compressibility (1/GPa) = 0.01916151
#
# Stress axis : x y z
#
# Youngs Moduli (GPa) = 78.48010 104.10774 91.53979
#
# Poissons Ratio (x) = 0.20621 0.32815
# Poissons Ratio (y) = 0.15545 0.13635
# Poissons Ratio (z) = 0.28134 0.15508
#
# Static dielectric constant tensor:
#      x y z
#    x 1.864810 0.000000 0.026380 
#    y 0.000000 1.812230 0.000000 
#    z 0.026380 0.000000 1.880340 
# 
# From -- ./inp_files/118952.got.cif
#   From: 2010.05.17/outbox.cif.g08.bks.cpg/sg12_60_cif.got.tgz:118952.got - 2010.06.03 13:09:07.
