data_PCOD9220875
_publ_section_title
;
Structure prediction by ZEFSAII (Michael W. Deem and Ramdas Pophale) SiO2 
 PCOD9220875
Probable space group: C 2/M
;
_chemical_formula_sum "Si O2"
_cell_formula_units_Z 40
_cell_length_a 11.280226
_cell_length_b 21.188858
_cell_length_c 7.799692
_cell_angle_alpha 90.000000
_cell_angle_beta 77.497580
_cell_angle_gamma 90.000000
_cell_volume 1820.037142
_symmetry_space_group_name_H-M "C 2/M"
_symmetry_group_IT_number 12
_symmetry_cell_setting 'monoclinic'
loop_
_space_group_symop_operation_xyz
x,y,z
-x,y,-z
-x,-y,-z
x,-y,z
1/2+x,1/2+y,z
1/2-x,1/2+y,-z
1/2-x,1/2-y,-z
1/2+x,1/2-y,z
loop_
_atom_site_type_symbol
_atom_site_label
_atom_site_fract_x
_atom_site_fract_y
_atom_site_fract_z
Si Si1 0.295957 0.626298 0.233775
Si Si2 0.073846 0.000000 0.742578
Si Si3 0.064824 0.572806 0.163899
Si Si4 0.139076 0.740295 0.898861
Si Si5 0.318939 0.500000 0.679787
Si Si6 0.324548 0.122100 0.354103
O O1 0.377932 0.564332 0.192613
O O2 0.183480 0.615475 0.140222
O O3 0.367603 0.690426 0.183398
O O4 0.237134 0.628540 0.441883
O O5 0.127122 0.000000 0.530642
O O6 0.929947 0.000000 0.773966
O O7 0.095836 0.500000 0.196401
O O8 0.963499 0.599893 0.322368
O O9 0.000000 0.574052 0.000000
O O10 0.179022 0.686319 0.752573
O O11 0.250000 0.750000 0.000000
O O12 0.000000 0.724767 0.000000
O O13 0.241341 0.563406 0.719555
#
# Coordination Sequence:
#
# PCOD9220875 Si02
#       6
#     8   4   8   8   4   8
#     4  11  23  43  70  99 130 174 227 274 330 398
#     4   9  20  39  62  98 131 163 214 277 326 389
#     4  11  22  39  65 100 139 172 210 270 341 403
#     4  12  28  48  66  94 140 182 225 277 342 403
#     4   9  20  37  65  97 132 162 212 276 335 380
#     4  11  22  42  71 100 129 173 225 279 328 397
#
# _framework density 21.977574000000001
#
# number of rings (size 3 to 8) (size 9 to 14) (size 15 to 20)
#    0.000    1.200    2.000    4.200    2.800    0.800 
#    0.000    2.500    0.000    0.000    0.000    0.000 
#    0.000    0.000    0.000    0.000    0.000    0.000 
#
# Total GULP energy -111892.789665 kJ/mol
# GULP energy per Si atom -5594.639483 kJ/mol
# Density = 2.192755 g / cm^3
# Si number density = 21.977574 Si / 1000 Ang^3
#
#
#
# Elastic Constant Matrix: (Units=GPa)
#
#
# Indices 1 2 3 4 5 6 
#
# 1 103.4111 28.1056 13.1350 0.0000 17.7862 0.0000
# 2 28.1056 175.6454 25.7618 0.0000 8.3816 0.0000
# 3 13.1350 25.7618 74.7021 0.0000 5.1102 0.0000
# 4 0.0000 0.0000 0.0000 28.3447 0.0000 -10.7580
# 5 17.7862 8.3816 5.1102 0.0000 18.5737 0.0000
# 6 0.0000 0.0000 0.0000 -10.7580 0.0000 35.4536
#
#
#
# Elastic Compliance Matrix: (Units=1/GPa)
#
#
# Indices 1 2 3 4 5 6 
#
# 1 0.011962 -0.001269 -0.000939 0.000000 -0.010623 0.000000
# 2 -0.001269 0.006219 -0.001847 0.000000 -0.001083 0.000000
# 3 -0.000939 -0.001847 0.014340 0.000000 -0.002213 0.000000
# 4 0.000000 0.000000 0.000000 0.039872 0.000000 0.012099
# 5 -0.010623 -0.001083 -0.002213 0.000000 0.065110 0.000000
# 6 0.000000 0.000000 0.000000 0.012099 0.000000 0.031877
#
#
# Mechanical properties :
#
#
# Convention : Reuss Voigt Hill
#
# Bulk Modulus (GPa) = 40.96771 54.19593 47.58182
# Shear Modulus (GPa) = 26.93574 35.59148 31.26361
#
# Velocity S-wave (km/s) = 3.50466 4.02860 3.77573
# Velocity P-wave (km/s) = 5.92098 6.80828 6.38007
#
# Compressibility (1/GPa) = 0.02440947
#
# Stress axis : x y z
#
# Youngs Moduli (GPa) = 83.60134 160.79680 69.73477
#
# Poissons Ratio (x) = 0.20411 0.06546
# Poissons Ratio (y) = 0.10612 0.12883
# Poissons Ratio (z) = 0.07848 0.29706
#
# Static dielectric constant tensor:
#      x y z
#    x 1.807000 0.000000 -0.007600 
#    y 0.000000 1.787600 0.000000 
#    z -0.007600 0.000000 1.852070 
# 
# From -- ./inp_files/48638.got.cif
#   From: 2010.05.17/outbox.cif.g08.bks.cpg/sg12_25_cif.got.tgz:48638.got - 2010.06.03 13:09:07.
