data_PCOD9220799
_publ_section_title
;
Structure prediction by ZEFSAII (Michael W. Deem and Ramdas Pophale) SiO2 
 PCOD9220799
Probable space group: C 2/M
;
_chemical_formula_sum "Si O2"
_cell_formula_units_Z 64
_cell_length_a 14.596703
_cell_length_b 26.511429
_cell_length_c 11.356574
_cell_angle_alpha 90.000000
_cell_angle_beta 41.120499
_cell_angle_gamma 90.000000
_cell_volume 2890.191644
_symmetry_space_group_name_H-M "C 2/M"
_symmetry_group_IT_number 12
_symmetry_cell_setting 'monoclinic'
loop_
_space_group_symop_operation_xyz
x,y,z
-x,y,-z
-x,-y,-z
x,-y,z
1/2+x,1/2+y,z
1/2-x,1/2+y,-z
1/2-x,1/2-y,-z
1/2+x,1/2-y,z
loop_
_atom_site_type_symbol
_atom_site_label
_atom_site_fract_x
_atom_site_fract_y
_atom_site_fract_z
Si Si1 0.754406 0.443950 0.112552
Si Si2 0.409119 0.850112 0.686800
Si Si3 0.356704 0.334120 0.208939
Si Si4 0.651673 0.780447 0.792997
Si Si5 0.255926 0.695096 0.942508
Si Si6 0.771108 0.613980 0.332884
Si Si7 0.029954 0.443642 0.686830
Si Si8 0.499281 0.618080 0.721309
O O1 0.732804 0.500000 0.183989
O O2 0.793185 0.404476 0.177586
O O3 0.615613 0.425814 0.178716
O O4 0.885474 0.445966 0.899493
O O5 0.500000 0.819579 0.500000
O O6 0.260943 0.854337 0.764970
O O7 0.500088 0.899849 0.622621
O O8 0.365138 0.831406 0.861101
O O9 0.320799 0.275993 0.281177
O O10 0.393539 0.373858 0.274806
O O11 0.500000 0.328791 0.000000
O O12 0.745568 0.795186 0.813855
O O13 0.671511 0.829829 0.693966
O O14 0.500000 0.780928 0.000000
O O15 0.401046 0.667045 0.822063
O O16 0.250000 0.750000 0.000000
O O17 0.605643 0.614114 0.511061
O O18 0.850127 0.574881 0.340612
O O19 0.059653 0.500000 0.612420
#
# Coordination Sequence:
#
# PCOD9220799 Si02
#       8
#     8   8   8   8   8   8   8   8
#     4  11  23  43  71 100 136 182 227 281 349 409
#     4  12  24  42  69 100 133 177 225 286 331 394
#     4  11  22  43  64  91 131 184 223 263 336 402
#     4  11  22  38  66  95 132 181 222 271 333 406
#     4  12  22  43  67  95 138 184 222 272 336 408
#     4  12  24  40  65 102 139 170 225 288 340 404
#     4  11  24  45  70  98 133 182 235 283 341 404
#     4  12  25  42  66  97 139 179 218 281 337 404
#
# _framework density 22.143858999999999
#
# number of rings (size 3 to 8) (size 9 to 14) (size 15 to 20)
#    0.000    0.500    5.000    4.125    0.000    4.250 
#    0.000    0.625    0.000    2.250    0.000    0.000 
#    0.000    0.000    0.000    0.000    0.000    0.000 
#
# Total GULP energy -178526.216126 kJ/mol
# GULP energy per Si atom -5578.944254 kJ/mol
# Density = 2.209346 g / cm^3
# Si number density = 22.143859 Si / 1000 Ang^3
#
#
#
# Elastic Constant Matrix: (Units=GPa)
#
#
# Indices 1 2 3 4 5 6 
#
# 1 84.5199 7.2129 -1.0261 0.0000 -13.0987 0.0000
# 2 7.2129 104.9237 -10.7154 0.0000 -2.0107 0.0000
# 3 -1.0261 -10.7154 71.8639 0.0000 -12.8762 0.0000
# 4 0.0000 0.0000 0.0000 -0.3276 0.0000 9.9948
# 5 -13.0987 -2.0107 -12.8762 0.0000 27.3850 0.0000
# 6 0.0000 0.0000 0.0000 9.9948 0.0000 41.8893
#
#
#
# Elastic Compliance Matrix: (Units=1/GPa)
#
#
# Indices 1 2 3 4 5 6 
#
# 1 0.012949 -0.000628 0.001303 0.000000 0.006760 0.000000
# 2 -0.000628 0.009767 0.001662 0.000000 0.001198 0.000000
# 3 0.001303 0.001662 0.015632 0.000000 0.008095 0.000000
# 4 0.000000 0.000000 0.000000 -0.368691 0.000000 0.087970
# 5 0.006760 0.001198 0.008095 0.000000 0.043644 0.000000
# 6 0.000000 0.000000 0.000000 0.087970 0.000000 0.002883
#
#
# Mechanical properties :
#
#
# Convention : Reuss Voigt Hill
#
# Bulk Modulus (GPa) = 23.24443 28.02782 25.63612
# Shear Modulus (GPa) = -18.23812 31.51176 6.63682
#
# Velocity S-wave (km/s) = -2.87299 3.77642 1.73310
# Velocity P-wave (km/s) = 0.69688 5.63026 3.95058
#
# Compressibility (1/GPa) = 0.04302106
#
# Stress axis : x y z
#
# Youngs Moduli (GPa) = 77.22888 102.39004 63.97113
#
# Poissons Ratio (x) = 0.06426 -0.08332
# Poissons Ratio (y) = 0.04847 -0.10632
# Poissons Ratio (z) = -0.10059 -0.17017
#
# Static dielectric constant tensor:
#      x y z
#    x 1.993300 0.000000 0.120440 
#    y 0.000000 1.861000 0.000000 
#    z 0.120440 0.000000 1.867590 
# 
# From -- ./inp_files/149765.got.cif
#   From: 2010.05.17/outbox.cif.g08.bks.cpg/sg12_75_cif.got.tgz:149765.got - 2010.06.03 13:09:07.
