data_PCOD9220009
_publ_section_title
;
Structure prediction by ZEFSAII (Michael W. Deem and Ramdas Pophale) SiO2 
 PCOD9220009
Probable space group: C 2/M
;
_chemical_formula_sum "Si O2"
_cell_formula_units_Z 56
_cell_length_a 21.501598
_cell_length_b 16.235182
_cell_length_c 15.730629
_cell_angle_alpha 90.000000
_cell_angle_beta 151.619827
_cell_angle_gamma 90.000000
_cell_volume 2610.116407
_symmetry_space_group_name_H-M "C 2/M"
_symmetry_group_IT_number 12
_symmetry_cell_setting 'monoclinic'
loop_
_space_group_symop_operation_xyz
x,y,z
-x,y,-z
-x,-y,-z
x,-y,z
1/2+x,1/2+y,z
1/2-x,1/2+y,-z
1/2-x,1/2-y,-z
1/2+x,1/2-y,z
loop_
_atom_site_type_symbol
_atom_site_label
_atom_site_fract_x
_atom_site_fract_y
_atom_site_fract_z
Si Si1 0.084904 0.592428 0.317651
Si Si2 0.898807 0.638402 0.952496
Si Si3 0.400249 0.364436 0.453626
Si Si4 0.129069 0.906148 0.391210
Si Si5 0.541199 0.331902 0.954469
Si Si6 0.686749 0.094227 0.763310
Si Si7 0.953252 0.675361 0.558172
O O1 0.093279 0.500000 0.364251
O O2 0.214240 0.605606 0.416638
O O3 0.085036 0.658797 0.392005
O O4 0.955510 0.599702 0.106202
O O5 0.749523 0.617232 0.752104
O O6 0.914325 0.737194 0.982446
O O7 0.000000 0.613487 0.000000
O O8 0.500000 0.392398 0.500000
O O9 0.425989 0.396455 0.579975
O O10 0.416768 0.265745 0.483171
O O11 0.071609 0.845355 0.250900
O O12 0.104544 0.000000 0.332525
O O13 0.500000 0.359280 0.000000
O O14 0.662931 0.383000 0.065015
O O15 0.605750 0.154332 0.727785
O O16 0.623060 0.111946 0.594556
O O17 0.668149 0.000000 0.766293
#
# Coordination Sequence:
#
# PCOD9220009 Si02
#       7
#     8   8   8   8   8   8   8
#     4  11  24  41  66  96 130 171 222 276 333 392
#     4  11  23  42  66  95 127 172 225 271 321 386
#     4  12  24  45  70  94 135 179 224 274 332 389
#     4  11  26  43  64  98 134 175 222 276 332 397
#     4  11  23  40  65  98 135 171 216 273 339 402
#     4  11  21  37  62  93 134 172 206 262 328 399
#     4  11  21  40  64  95 127 166 219 266 326 390
#
# _framework density 21.454981
#
# number of rings (size 3 to 8) (size 9 to 14) (size 15 to 20)
#    0.000    0.857    4.286    3.857    2.000    5.714 
#    0.000    4.286    0.000    0.000    0.000    0.000 
#    0.000    0.000    0.000    0.000    0.000    0.000 
#
# Total GULP energy -156556.621575 kJ/mol
# GULP energy per Si atom -5591.307913 kJ/mol
# Density = 2.140615 g / cm^3
# Si number density = 21.454981 Si / 1000 Ang^3
#
#
#
# Elastic Constant Matrix: (Units=GPa)
#
#
# Indices 1 2 3 4 5 6 
#
# 1 116.8830 6.0704 31.9033 0.0000 1.6011 0.0000
# 2 6.0704 28.3516 0.8879 0.0000 8.1555 0.0000
# 3 31.9033 0.8879 94.1860 0.0000 10.7586 0.0000
# 4 0.0000 0.0000 0.0000 22.4953 0.0000 -0.7464
# 5 1.6011 8.1555 10.7586 0.0000 37.4403 0.0000
# 6 0.0000 0.0000 0.0000 -0.7464 0.0000 18.3935
#
#
#
# Elastic Compliance Matrix: (Units=1/GPa)
#
#
# Indices 1 2 3 4 5 6 
#
# 1 0.009569 -0.002243 -0.003339 0.000000 0.001039 0.000000
# 2 -0.002243 0.038188 0.001384 0.000000 -0.008620 0.000000
# 3 -0.003339 0.001384 0.012152 0.000000 -0.003651 0.000000
# 4 0.000000 0.000000 0.000000 0.044514 0.000000 0.001806
# 5 0.001039 -0.008620 -0.003651 0.000000 0.029592 0.000000
# 6 0.000000 0.000000 0.000000 0.001806 0.000000 0.054440
#
#
# Mechanical properties :
#
#
# Convention : Reuss Voigt Hill
#
# Bulk Modulus (GPa) = 19.41207 35.23819 27.32513
# Shear Modulus (GPa) = 23.36215 29.03641 26.19928
#
# Velocity S-wave (km/s) = 3.30342 3.68280 3.49826
# Velocity P-wave (km/s) = 4.85979 5.87741 5.39266
#
# Compressibility (1/GPa) = 0.05151435
#
# Stress axis : x y z
#
# Youngs Moduli (GPa) = 104.50218 26.18628 82.28949
#
# Poissons Ratio (x) = 0.05874 0.27475
# Poissons Ratio (y) = 0.23441 -0.11393
# Poissons Ratio (z) = 0.34892 -0.03625
#
# Static dielectric constant tensor:
#      x y z
#    x 1.781940 0.000000 0.017090 
#    y 0.000000 1.781030 0.000000 
#    z 0.017090 0.000000 1.788890 
# 
# From -- ./inp_files/234747.got.cif
#   From: 2010.05.17/outbox.cif.g08.bks.cpg/sg12_118_cif.got.tgz:234747.got - 2010.06.03 13:09:07.
