data_PCOD9220425
_publ_section_title
;
Structure prediction by ZEFSAII (Michael W. Deem and Ramdas Pophale) SiO2 
 PCOD9220425
Probable space group: C 2/M
;
_chemical_formula_sum "Si O2"
_cell_formula_units_Z 48
_cell_length_a 20.516751
_cell_length_b 9.046680
_cell_length_c 17.317281
_cell_angle_alpha 90.000000
_cell_angle_beta 115.866997
_cell_angle_gamma 90.000000
_cell_volume 2892.197626
_symmetry_space_group_name_H-M "C 2/M"
_symmetry_group_IT_number 12
_symmetry_cell_setting 'monoclinic'
loop_
_space_group_symop_operation_xyz
x,y,z
-x,y,-z
-x,-y,-z
x,-y,z
1/2+x,1/2+y,z
1/2-x,1/2+y,-z
1/2-x,1/2-y,-z
1/2+x,1/2-y,z
loop_
_atom_site_type_symbol
_atom_site_label
_atom_site_fract_x
_atom_site_fract_y
_atom_site_fract_z
Si Si1 0.277856 0.320585 0.273824
Si Si2 0.296897 0.171361 0.912983
Si Si3 0.361228 0.328895 0.085534
Si Si4 0.453902 0.174761 0.554831
Si Si5 0.931644 0.179533 0.276292
Si Si6 0.297644 0.321865 0.457875
O O1 0.275448 0.500000 0.268764
O O2 0.219171 0.266169 0.180795
O O3 0.358480 0.280408 0.286002
O O4 0.268861 0.277654 0.357777
O O5 0.217602 0.178032 0.913113
O O6 0.317036 0.000000 0.916992
O O7 0.352169 0.248370 0.999630
O O8 0.376871 0.500000 0.079177
O O9 0.416832 0.274901 0.179817
O O10 0.500000 0.192924 0.500000
O O11 0.501262 0.242788 0.648488
O O12 0.379043 0.261566 0.507416
O O13 0.440941 0.000000 0.559716
O O14 0.938320 0.000000 0.282287
O O15 0.296893 0.500000 0.462403
O O16 0.250000 0.250000 0.500000
#
# Coordination Sequence:
#
# PCOD9220425 Si02
#       6
#     8   8   8   8   8   8
#     4   8  15  28  47  68  92 129 168 200 239 296
#     4   8  13  23  39  60  89 124 160 192 233 289
#     4   8  14  23  37  62  94 123 155 196 238 286
#     4  11  22  34  50  76 104 129 167 214 254 295
#     4   9  16  29  48  69  95 131 169 198 241 300
#     4  11  22  37  55  73 100 135 172 210 252 298
#
# _framework density 16.596375999999999
#
# number of rings (size 3 to 8) (size 9 to 14) (size 15 to 20)
#    0.000    2.833    1.667    3.000    0.000    1.333 
#    0.000    4.167    0.000    0.000    0.000    1.167 
#    0.000    9.333    0.000    0.000    0.000    0.000 
#
# Total GULP energy -133629.759613 kJ/mol
# GULP energy per Si atom -5567.906651 kJ/mol
# Density = 1.655860 g / cm^3
# Si number density = 16.596376 Si / 1000 Ang^3
#
#
#
# Elastic Constant Matrix: (Units=GPa)
#
#
# Indices 1 2 3 4 5 6 
#
# 1 42.4747 26.3767 40.9439 0.0000 -11.4064 0.0000
# 2 26.3767 51.6313 61.3948 0.0000 -3.1235 0.0000
# 3 40.9439 61.3948 200.1833 0.0000 -12.3091 0.0000
# 4 0.0000 0.0000 0.0000 28.2115 0.0000 1.0189
# 5 -11.4064 -3.1235 -12.3091 0.0000 14.2977 0.0000
# 6 0.0000 0.0000 0.0000 1.0189 0.0000 18.3488
#
#
#
# Elastic Compliance Matrix: (Units=1/GPa)
#
#
# Indices 1 2 3 4 5 6 
#
# 1 0.045308 -0.019698 -0.001339 0.000000 0.030690 0.000000
# 2 -0.019698 0.039079 -0.008867 0.000000 -0.014811 0.000000
# 3 -0.001339 -0.008867 0.008240 0.000000 0.004089 0.000000
# 4 0.000000 0.000000 0.000000 0.035518 0.000000 -0.001972
# 5 0.030690 -0.014811 0.004089 0.000000 0.094710 0.000000
# 6 0.000000 0.000000 0.000000 -0.001972 0.000000 0.054609
#
#
# Mechanical properties :
#
#
# Convention : Reuss Voigt Hill
#
# Bulk Modulus (GPa) = 30.46956 61.30224 45.88590
# Shear Modulus (GPa) = 14.35912 23.20984 18.78448
#
# Velocity S-wave (km/s) = 2.94461 3.74369 3.36794
# Velocity P-wave (km/s) = 5.47357 7.46353 6.54463
#
# Compressibility (1/GPa) = 0.03281964
#
# Stress axis : x y z
#
# Youngs Moduli (GPa) = 22.07124 25.58918 121.35749
#
# Poissons Ratio (x) = 0.50405 0.16245
# Poissons Ratio (y) = 0.43476 1.07609
# Poissons Ratio (z) = 0.02954 0.22690
#
# Static dielectric constant tensor:
#      x y z
#    x 1.530380 0.000000 -0.010340 
#    y 0.000000 1.557690 0.000000 
#    z -0.010340 0.000000 1.597880 
# 
# From -- ./inp_files/274088.got.cif
#   From: 2010.05.17/outbox.cif.g08.bks.cpg/sg12_138_cif.got.tgz:274088.got - 2010.06.03 13:09:07.
