data_PCOD9220855
_publ_section_title
;
Structure prediction by ZEFSAII (Michael W. Deem and Ramdas Pophale) SiO2 
 PCOD9220855
Probable space group: C 2/M
;
_chemical_formula_sum "Si O2"
_cell_formula_units_Z 40
_cell_length_a 9.696279
_cell_length_b 29.054237
_cell_length_c 9.248711
_cell_angle_alpha 90.000000
_cell_angle_beta 136.438804
_cell_angle_gamma 90.000000
_cell_volume 1795.544911
_symmetry_space_group_name_H-M "C 2/M"
_symmetry_group_IT_number 12
_symmetry_cell_setting 'monoclinic'
loop_
_space_group_symop_operation_xyz
x,y,z
-x,y,-z
-x,-y,-z
x,-y,z
1/2+x,1/2+y,z
1/2-x,1/2+y,-z
1/2-x,1/2-y,-z
1/2+x,1/2-y,z
loop_
_atom_site_type_symbol
_atom_site_label
_atom_site_fract_x
_atom_site_fract_y
_atom_site_fract_z
Si Si1 0.538669 0.374863 0.200412
Si Si2 0.598898 0.881009 0.920207
Si Si3 0.911166 0.722439 0.093648
Si Si4 0.401915 0.718826 0.586624
Si Si5 0.360493 0.051381 0.532302
O O1 0.330925 0.391333 0.111180
O O2 0.621054 0.329734 0.345948
O O3 0.684551 0.416905 0.339496
O O4 0.500000 0.365912 0.000000
O O5 0.500000 0.875718 0.000000
O O6 0.604346 0.829630 0.858189
O O7 0.480426 0.918839 0.741002
O O8 0.147075 0.731984 0.354972
O O9 0.646692 0.730338 0.854041
O O10 0.000000 0.727791 0.000000
O O11 0.500000 0.716462 0.500000
O O12 0.500000 0.046258 0.500000
O O13 0.303990 0.000000 0.540456
#
# Coordination Sequence:
#
# PCOD9220855 Si02
#       5
#     8   8   8   8   8
#     4  12  26  46  74 104 138 194 239 291 359 426
#     4  11  26  45  73 104 149 183 234 294 362 424
#     4  11  22  39  63  93 134 181 226 275 330 411
#     4  12  27  40  64 100 144 185 236 285 343 412
#     4  11  26  48  74 107 140 179 239 304 364 433
#
# _framework density 22.277360999999999
#
# number of rings (size 3 to 8) (size 9 to 14) (size 15 to 20)
#    0.000    0.600    4.000    3.000    8.400    3.200 
#    0.000    1.000    0.000    0.000    0.000    0.000 
#    0.000    0.000    0.000    0.000    0.000    0.000 
#
# Total GULP energy -111608.521961 kJ/mol
# GULP energy per Si atom -5580.426098 kJ/mol
# Density = 2.222666 g / cm^3
# Si number density = 22.277361 Si / 1000 Ang^3
#
#
#
# Elastic Constant Matrix: (Units=GPa)
#
#
# Indices 1 2 3 4 5 6 
#
# 1 145.4153 66.3686 39.8262 0.0000 37.0817 0.0000
# 2 66.3686 203.4662 100.2005 0.0000 0.7140 0.0000
# 3 39.8262 100.2005 167.3182 0.0000 17.4097 0.0000
# 4 0.0000 0.0000 0.0000 33.1398 0.0000 7.3784
# 5 37.0817 0.7140 17.4097 0.0000 41.2178 0.0000
# 6 0.0000 0.0000 0.0000 7.3784 0.0000 32.4183
#
#
#
# Elastic Compliance Matrix: (Units=1/GPa)
#
#
# Indices 1 2 3 4 5 6 
#
# 1 0.011083 -0.003978 0.000810 0.000000 -0.010244 0.000000
# 2 -0.003978 0.008517 -0.004718 0.000000 0.005424 0.000000
# 3 0.000810 -0.004718 0.009075 0.000000 -0.004481 0.000000
# 4 0.000000 0.000000 0.000000 0.031786 0.000000 -0.007234
# 5 -0.010244 0.005424 -0.004481 0.000000 0.035276 0.000000
# 6 0.000000 0.000000 0.000000 -0.007234 0.000000 0.032493
#
#
# Mechanical properties :
#
#
# Convention : Reuss Voigt Hill
#
# Bulk Modulus (GPa) = 77.49858 103.22116 90.35987
# Shear Modulus (GPa) = 33.71468 42.00879 37.86174
#
# Velocity S-wave (km/s) = 3.89447 4.34720 4.12705
# Velocity P-wave (km/s) = 7.42200 8.46361 7.95986
#
# Compressibility (1/GPa) = 0.01290346
#
# Stress axis : x y z
#
# Youngs Moduli (GPa) = 90.22875 117.41415 110.18872
#
# Poissons Ratio (x) = 0.46710 -0.08929
# Poissons Ratio (y) = 0.35895 0.51986
# Poissons Ratio (z) = -0.07311 0.55395
#
# Static dielectric constant tensor:
#      x y z
#    x 1.875590 0.000000 0.255410 
#    y 0.000000 1.808190 0.000000 
#    z 0.255410 0.000000 2.159130 
# 
# From -- ./inp_files/54439.got.cif
#   From: 2010.05.17/outbox.cif.g08.bks.cpg/sg12_28_cif.got.tgz:54439.got - 2010.06.03 13:09:07.
