data_PCOD9220979
_publ_section_title
;
Structure prediction by ZEFSAII (Michael W. Deem and Ramdas Pophale) SiO2 
 PCOD9220979
Probable space group: C 2/M
;
_chemical_formula_sum "Si O2"
_cell_formula_units_Z 40
_cell_length_a 18.923790
_cell_length_b 13.355907
_cell_length_c 13.512520
_cell_angle_alpha 90.000000
_cell_angle_beta 39.898218
_cell_angle_gamma 90.000000
_cell_volume 2190.605940
_symmetry_space_group_name_H-M "C 2/M"
_symmetry_group_IT_number 12
_symmetry_cell_setting 'monoclinic'
loop_
_space_group_symop_operation_xyz
x,y,z
-x,y,-z
-x,-y,-z
x,-y,z
1/2+x,1/2+y,z
1/2-x,1/2+y,-z
1/2-x,1/2-y,-z
1/2+x,1/2-y,z
loop_
_atom_site_type_symbol
_atom_site_label
_atom_site_fract_x
_atom_site_fract_y
_atom_site_fract_z
Si Si1 0.632239 0.216058 0.584047
Si Si2 0.467626 0.882622 0.920060
Si Si3 0.631483 0.114984 0.377336
Si Si4 0.491649 0.613060 0.626377
Si Si5 0.766622 0.212632 0.872117
O O1 0.750000 0.250000 0.500000
O O2 0.555576 0.168871 0.751990
O O3 0.650145 0.140897 0.472534
O O4 0.565034 0.308683 0.607879
O O5 0.461944 0.000000 0.900182
O O6 0.500000 0.873549 0.000000
O O7 0.347887 0.833374 0.039542
O O8 0.500000 0.122866 0.500000
O O9 0.691433 0.197556 0.244409
O O10 0.664338 0.000000 0.319903
O O11 0.500000 0.629602 0.500000
O O12 0.525241 0.500000 0.613717
O O13 0.362859 0.631375 0.780096
O O14 0.750000 0.250000 0.000000
#
# Coordination Sequence:
#
# PCOD9220979 Si02
#       5
#     8   8   8   8   8
#     4  12  23  43  66  89 128 167 210 260 308 370
#     4  11  25  42  64  94 127 165 207 257 317 374
#     4  11  22  40  66  93 122 163 212 256 305 369
#     4  11  23  41  65  93 123 163 211 257 309 369
#     4  12  21  41  64  93 130 161 201 262 313 370
#
# _framework density 18.259786999999999
#
# number of rings (size 3 to 8) (size 9 to 14) (size 15 to 20)
#    0.000    0.600    6.000    2.400    0.000    4.800 
#    0.000    0.000    0.000    2.400    0.000    0.000 
#    0.000    0.000    0.000    0.000    0.000    0.000 
#
# Total GULP energy -111727.056929 kJ/mol
# GULP energy per Si atom -5586.352846 kJ/mol
# Density = 1.821823 g / cm^3
# Si number density = 18.259787 Si / 1000 Ang^3
#
#
#
# Elastic Constant Matrix: (Units=GPa)
#
#
# Indices 1 2 3 4 5 6 
#
# 1 119.0090 65.8348 54.1717 0.0000 -20.6537 0.0000
# 2 65.8348 151.7027 63.9511 0.0000 -1.2305 0.0000
# 3 54.1717 63.9511 124.3433 0.0000 0.5581 0.0000
# 4 0.0000 0.0000 0.0000 23.6520 0.0000 2.6370
# 5 -20.6537 -1.2305 0.5581 0.0000 38.4946 0.0000
# 6 0.0000 0.0000 0.0000 2.6370 0.0000 21.1954
#
#
#
# Elastic Compliance Matrix: (Units=1/GPa)
#
#
# Indices 1 2 3 4 5 6 
#
# 1 0.013804 -0.004318 -0.003826 0.000000 0.007324 0.000000
# 2 -0.004318 0.009772 -0.003136 0.000000 -0.001959 0.000000
# 3 -0.003826 -0.003136 0.011332 0.000000 -0.002317 0.000000
# 4 0.000000 0.000000 0.000000 0.042874 0.000000 -0.005334
# 5 0.007324 -0.001959 -0.002317 0.000000 0.029878 0.000000
# 6 0.000000 0.000000 0.000000 -0.005334 0.000000 0.047844
#
#
# Mechanical properties :
#
#
# Convention : Reuss Voigt Hill
#
# Bulk Modulus (GPa) = 80.98202 84.77447 82.87825
# Shear Modulus (GPa) = 27.44537 30.74156 29.09347
#
# Velocity S-wave (km/s) = 3.88112 4.10758 3.99596
# Velocity P-wave (km/s) = 8.03308 8.30806 8.17173
#
# Compressibility (1/GPa) = 0.01234842
#
# Stress axis : x y z
#
# Youngs Moduli (GPa) = 72.44198 102.33471 88.24498
#
# Poissons Ratio (x) = 0.44192 0.33761
# Poissons Ratio (y) = 0.31283 0.27670
# Poissons Ratio (z) = 0.27715 0.32088
#
# Static dielectric constant tensor:
#      x y z
#    x 1.574800 0.000000 -0.000780 
#    y 0.000000 1.644260 0.000000 
#    z -0.000780 0.000000 1.557160 
# 
# From -- ./inp_files/142515.got.cif
#   From: 2010.05.17/outbox.cif.g08.bks.cpg/sg12_72_cif.got.tgz:142515.got - 2010.06.03 13:09:07.
