data_PCOD9220133
_publ_section_title
;
Structure prediction by ZEFSAII (Michael W. Deem and Ramdas Pophale) SiO2 
 PCOD9220133
Probable space group: C 2/M
;
_chemical_formula_sum "Si O2"
_cell_formula_units_Z 40
_cell_length_a 8.779477
_cell_length_b 22.425851
_cell_length_c 9.634930
_cell_angle_alpha 90.000000
_cell_angle_beta 85.818358
_cell_angle_gamma 90.000000
_cell_volume 1891.944800
_symmetry_space_group_name_H-M "C 2/M"
_symmetry_group_IT_number 12
_symmetry_cell_setting 'monoclinic'
loop_
_space_group_symop_operation_xyz
x,y,z
-x,y,-z
-x,-y,-z
x,-y,z
1/2+x,1/2+y,z
1/2-x,1/2+y,-z
1/2-x,1/2-y,-z
1/2+x,1/2-y,z
loop_
_atom_site_type_symbol
_atom_site_label
_atom_site_fract_x
_atom_site_fract_y
_atom_site_fract_z
Si Si1 0.500000 0.403194 0.000000
Si Si2 0.528178 0.315267 0.246492
Si Si3 0.524399 0.000000 0.217213
Si Si4 0.318982 0.215596 0.129411
Si Si5 0.859526 0.000000 0.183630
Si Si6 0.500000 0.605019 0.500000
Si Si7 0.827158 0.000000 0.645453
Si Si8 0.000000 0.605316 0.000000
O O1 0.550931 0.361783 0.120609
O O2 0.371935 0.444441 0.077690
O O3 0.442474 0.259250 0.187865
O O4 0.699010 0.293981 0.261549
O O5 0.455951 0.351791 0.376455
O O6 0.350735 0.000000 0.294110
O O7 0.531386 0.940416 0.123193
O O8 0.697223 0.000000 0.275063
O O9 0.250000 0.250000 0.000000
O O10 0.379275 0.152809 0.068778
O O11 0.024594 0.000000 0.254989
O O12 0.365741 0.560141 0.557394
#
# Coordination Sequence:
#
# PCOD9220133 Si02
#       8
#     4   8   4   8   4   4   4   4
#     4  11  21  38  70 104 133 181 240 288 364 425
#     4  12  24  41  69  97 138 189 228 298 348 433
#     4  11  26  39  71 110 146 175 245 302 354 435
#     4  12  22  41  69 104 136 181 234 295 361 414
#     4  11  24  38  70 109 136 182 236 301 358 424
#     4  11  26  46  70  94 144 193 242 276 378 435
#     4  11  24  49  71  97 140 204 226 301 364 431
#     4  11  23  38  64 112 147 171 226 308 368 413
#
# _framework density 21.142267
#
# number of rings (size 3 to 8) (size 9 to 14) (size 15 to 20)
#    0.000    0.600    6.000    2.400    5.600    0.800 
#    0.000    2.000    4.400    0.000    0.000    0.000 
#    0.000    0.000    0.000    0.000    0.000    0.000 
#
# Total GULP energy -111414.468334 kJ/mol
# GULP energy per Si atom -5570.723417 kJ/mol
# Density = 2.109415 g / cm^3
# Si number density = 21.142267 Si / 1000 Ang^3
#
#
#
# Elastic Constant Matrix: (Units=GPa)
#
#
# Indices 1 2 3 4 5 6 
#
# 1 137.2478 53.4947 47.6722 0.0000 -38.7672 0.0000
# 2 53.4947 152.3588 36.2643 0.0000 -8.8634 0.0000
# 3 47.6722 36.2643 86.2422 0.0000 -10.1654 0.0000
# 4 0.0000 0.0000 0.0000 17.1909 0.0000 -11.7969
# 5 -38.7672 -8.8634 -10.1654 0.0000 26.6847 0.0000
# 6 0.0000 0.0000 0.0000 -11.7969 0.0000 -13.1268
#
#
#
# Elastic Compliance Matrix: (Units=1/GPa)
#
#
# Indices 1 2 3 4 5 6 
#
# 1 0.016066 -0.003240 -0.005124 0.000000 0.020313 0.000000
# 2 -0.003240 0.007991 -0.001896 0.000000 -0.002775 0.000000
# 3 -0.005124 -0.001896 0.014945 0.000000 -0.002382 0.000000
# 4 0.000000 0.000000 0.000000 0.035981 0.000000 -0.032336
# 5 0.020313 -0.002775 -0.002382 0.000000 0.065156 0.000000
# 6 0.000000 0.000000 0.000000 -0.032336 0.000000 -0.047121
#
#
# Mechanical properties :
#
#
# Convention : Reuss Voigt Hill
#
# Bulk Modulus (GPa) = 54.11017 72.30124 63.20570
# Shear Modulus (GPa) = 41.77137 22.04427 31.90782
#
# Velocity S-wave (km/s) = 4.44974 3.23253 3.88905
# Velocity P-wave (km/s) = 7.21451 6.94292 7.08002
#
# Compressibility (1/GPa) = 0.01848081
#
# Stress axis : x y z
#
# Youngs Moduli (GPa) = 62.24193 125.14270 66.91366
#
# Poissons Ratio (x) = 0.40542 0.34290
# Poissons Ratio (y) = 0.20164 0.12689
# Poissons Ratio (z) = 0.31896 0.23732
#
# Static dielectric constant tensor:
#      x y z
#    x 1.909650 0.000000 -0.021460 
#    y 0.000000 1.812180 0.000000 
#    z -0.021460 0.000000 1.783520 
# 
# From -- ./inp_files/120231.got.cif
#   From: 2010.05.17/outbox.cif.g08.bks.cpg/sg12_61_cif.got.tgz:120231.got - 2010.06.03 13:09:07.
