data_PCOD9220359
_publ_section_title
;
Structure prediction by ZEFSAII (Michael W. Deem and Ramdas Pophale) SiO2 
 PCOD9220359
Probable space group: C 2/M
;
_chemical_formula_sum "Si O2"
_cell_formula_units_Z 56
_cell_length_a 21.949684
_cell_length_b 13.036420
_cell_length_c 16.280394
_cell_angle_alpha 90.000000
_cell_angle_beta 146.321703
_cell_angle_gamma 90.000000
_cell_volume 2583.306807
_symmetry_space_group_name_H-M "C 2/M"
_symmetry_group_IT_number 12
_symmetry_cell_setting 'monoclinic'
loop_
_space_group_symop_operation_xyz
x,y,z
-x,y,-z
-x,-y,-z
x,-y,z
1/2+x,1/2+y,z
1/2-x,1/2+y,-z
1/2-x,1/2-y,-z
1/2+x,1/2-y,z
loop_
_atom_site_type_symbol
_atom_site_label
_atom_site_fract_x
_atom_site_fract_y
_atom_site_fract_z
Si Si1 0.264400 0.880896 0.593547
Si Si2 0.883197 0.327726 0.893455
Si Si3 0.170182 0.887819 0.733221
Si Si4 0.850722 0.888302 0.930990
Si Si5 0.382939 0.830496 0.399325
Si Si6 0.405864 0.205257 0.611743
Si Si7 0.135433 0.189917 0.872790
O O1 0.312606 0.834367 0.731347
O O2 0.357046 0.865062 0.628270
O O3 0.158700 0.813603 0.451654
O O4 0.239003 0.000000 0.576221
O O5 0.803004 0.377813 0.871359
O O6 0.901417 0.211554 0.944474
O O7 0.000000 0.374805 0.000000
O O8 0.123486 0.790831 0.631213
O O9 0.133533 0.873191 0.785953
O O10 0.137740 0.000000 0.665788
O O11 0.721382 0.879090 0.763026
O O12 0.891188 0.000000 0.949944
O O13 0.867524 0.874633 0.047026
O O14 0.500000 0.869831 0.500000
O O15 0.377247 0.840312 0.490640
O O16 0.533998 0.230959 0.759767
O O17 0.250000 0.250000 0.000000
#
# Coordination Sequence:
#
# PCOD9220359 Si02
#       7
#     8   8   8   8   8   8   8
#     4  11  25  44  67  97 131 177 231 275 335 407
#     4  11  23  44  66  94 135 174 219 285 332 396
#     4  11  23  38  66  98 128 167 217 272 334 398
#     4  11  24  42  66  97 131 173 224 272 334 406
#     4  11  21  43  66  94 132 170 209 272 334 396
#     4  11  24  44  68  97 136 177 221 283 344 392
#     4  12  22  45  67  95 140 174 218 282 341 402
#
# _framework density 21.677643
#
# number of rings (size 3 to 8) (size 9 to 14) (size 15 to 20)
#    0.000    0.857    7.143    1.714    0.000    3.714 
#    0.000    2.143    0.000    0.000    0.000    0.000 
#    0.000    0.000    0.000    0.000    0.000    0.000 
#
# Total GULP energy -156511.328823 kJ/mol
# GULP energy per Si atom -5589.690315 kJ/mol
# Density = 2.162830 g / cm^3
# Si number density = 21.677643 Si / 1000 Ang^3
#
#
#
# Elastic Constant Matrix: (Units=GPa)
#
#
# Indices 1 2 3 4 5 6 
#
# 1 110.5996 -0.3260 19.1545 0.0000 -10.1094 0.0000
# 2 -0.3260 81.4874 -20.1689 0.0000 -22.6467 0.0000
# 3 19.1545 -20.1689 60.5338 0.0000 -2.1095 0.0000
# 4 0.0000 0.0000 0.0000 -5.4349 0.0000 0.6609
# 5 -10.1094 -22.6467 -2.1095 0.0000 51.8459 0.0000
# 6 0.0000 0.0000 0.0000 0.6609 0.0000 -10.3288
#
#
#
# Elastic Compliance Matrix: (Units=1/GPa)
#
#
# Indices 1 2 3 4 5 6 
#
# 1 0.009731 -0.000272 -0.003112 0.000000 0.001652 0.000000
# 2 -0.000272 0.015575 0.005519 0.000000 0.006975 0.000000
# 3 -0.003112 0.005519 0.019434 0.000000 0.002594 0.000000
# 4 0.000000 0.000000 0.000000 -0.185439 0.000000 -0.011866
# 5 0.001652 0.006975 0.002594 0.000000 0.022762 0.000000
# 6 0.000000 0.000000 0.000000 -0.011866 0.000000 -0.097576
#
#
# Mechanical properties :
#
#
# Convention : Reuss Voigt Hill
#
# Bulk Modulus (GPa) = 20.40503 27.77111 24.08807
# Shear Modulus (GPa) = -24.57668 24.14718 -0.21475
#
# Velocity S-wave (km/s) = -3.37075 3.34117 -0.31509
# Velocity P-wave (km/s) = 2.39079 5.26529 3.31718
#
# Compressibility (1/GPa) = 0.04900751
#
# Stress axis : x y z
#
# Youngs Moduli (GPa) = 102.76631 64.20529 51.45721
#
# Poissons Ratio (x) = 0.01748 0.16015
# Poissons Ratio (y) = 0.02798 -0.28397
# Poissons Ratio (z) = 0.31983 -0.35432
#
# Static dielectric constant tensor:
#      x y z
#    x 1.807620 0.000000 0.019900 
#    y 0.000000 1.801670 0.000000 
#    z 0.019900 0.000000 1.781460 
# 
# From -- ./inp_files/233731.got.cif
#   From: 2010.05.17/outbox.cif.g08.bks.cpg/sg12_117_cif.got.tgz:233731.got - 2010.06.03 13:09:07.
