data_PCOD9220655
_publ_section_title
;
Structure prediction by ZEFSAII (Michael W. Deem and Ramdas Pophale) SiO2 
 PCOD9220655
Probable space group: C 2/M
;
_chemical_formula_sum "Si O2"
_cell_formula_units_Z 40
_cell_length_a 17.833728
_cell_length_b 13.486100
_cell_length_c 9.442309
_cell_angle_alpha 90.000000
_cell_angle_beta 38.428125
_cell_angle_gamma 90.000000
_cell_volume 1411.466243
_symmetry_space_group_name_H-M "C 2/M"
_symmetry_group_IT_number 12
_symmetry_cell_setting 'monoclinic'
loop_
_space_group_symop_operation_xyz
x,y,z
-x,y,-z
-x,-y,-z
x,-y,z
1/2+x,1/2+y,z
1/2-x,1/2+y,-z
1/2-x,1/2-y,-z
1/2+x,1/2-y,z
loop_
_atom_site_type_symbol
_atom_site_label
_atom_site_fract_x
_atom_site_fract_y
_atom_site_fract_z
Si Si1 0.128708 0.364032 0.184424
Si Si2 0.067259 0.341882 0.759221
Si Si3 0.754413 0.138172 0.276198
Si Si4 0.526823 0.610420 0.769492
Si Si5 0.342090 0.668569 0.694975
O O1 0.018687 0.377074 0.242576
O O2 0.160543 0.400008 0.294308
O O3 0.115967 0.246738 0.245450
O O4 0.245410 0.393566 0.922344
O O5 0.197770 0.381184 0.514403
O O6 0.069107 0.220265 0.759647
O O7 0.000000 0.375290 0.000000
O O8 0.886906 0.110078 0.027817
O O9 0.741124 0.257393 0.276976
O O10 0.571200 0.500000 0.748891
O O11 0.565072 0.616276 0.546434
#
# Coordination Sequence:
#
# PCOD9220655 Si02
#       5
#     8   8   8   8   8
#     4   9  16  36  60  83 116 149 204 251 282 337
#     4  11  22  37  62  90 114 161 211 244 284 360
#     4   9  19  35  61  85 115 157 199 249 296 343
#     4  11  22  38  59  95 129 153 188 250 313 356
#     4   8  17  33  61  82 113 156 196 238 296 344
#
# _framework density 28.339324000000001
#
# number of rings (size 3 to 8) (size 9 to 14) (size 15 to 20)
#    1.200    1.200    2.000    0.600    0.000    3.600 
#    0.000    8.000    0.000    4.200    0.000    0.000 
#    0.000    0.800    0.000    0.000    0.000    0.000 
#
# Total GULP energy -111429.554717 kJ/mol
# GULP energy per Si atom -5571.477736 kJ/mol
# Density = 2.827482 g / cm^3
# Si number density = 28.339324 Si / 1000 Ang^3
#
#
#
# Elastic Constant Matrix: (Units=GPa)
#
#
# Indices 1 2 3 4 5 6 
#
# 1 103.5223 24.4200 79.7404 0.0000 1.6340 0.0000
# 2 24.4200 169.8705 54.1752 0.0000 -7.7250 0.0000
# 3 79.7404 54.1752 365.6366 0.0000 35.6574 0.0000
# 4 0.0000 0.0000 0.0000 -23.2411 0.0000 -36.2361
# 5 1.6340 -7.7250 35.6574 0.0000 45.1249 0.0000
# 6 0.0000 0.0000 0.0000 -36.2361 0.0000 -115.7117
#
#
#
# Elastic Compliance Matrix: (Units=1/GPa)
#
#
# Indices 1 2 3 4 5 6 
#
# 1 0.011834 -0.000802 -0.002608 0.000000 0.001495 0.000000
# 2 -0.000802 0.006392 -0.000955 0.000000 0.001878 0.000000
# 3 -0.002608 -0.000955 0.003740 0.000000 -0.003025 0.000000
# 4 0.000000 0.000000 0.000000 -0.084080 0.000000 0.026330
# 5 0.001495 0.001878 -0.003025 0.000000 0.024818 0.000000
# 6 0.000000 0.000000 0.000000 0.026330 0.000000 -0.016888
#
#
# Mechanical properties :
#
#
# Convention : Reuss Voigt Hill
#
# Bulk Modulus (GPa) = 75.54765 106.18896 90.86830
# Shear Modulus (GPa) = -121.82815 13.28069 -54.27373
#
# Velocity S-wave (km/s) = -6.56372 2.16714 -4.38098
# Velocity P-wave (km/s) = 5.54320 6.61920 2.55800
#
# Compressibility (1/GPa) = 0.01323668
#
# Stress axis : x y z
#
# Youngs Moduli (GPa) = 84.50222 156.44054 267.36276
#
# Poissons Ratio (x) = 0.12539 0.69725
# Poissons Ratio (y) = 0.06773 0.25546
# Poissons Ratio (z) = 0.22037 0.14948
#
# Static dielectric constant tensor:
#      x y z
#    x 2.380300 0.000000 -0.037850 
#    y 0.000000 2.224650 0.000000 
#    z -0.037850 0.000000 2.150290 
# 
# From -- ./inp_files/175604.got.cif
#   From: 2010.05.17/outbox.cif.g08.bks.cpg/sg12_88_cif.got.tgz:175604.got - 2010.06.03 13:09:07.
