data_PCOD9220513
_publ_section_title
;
Structure prediction by ZEFSAII (Michael W. Deem and Ramdas Pophale) SiO2 
 PCOD9220513
Probable space group: C 2/M
;
_chemical_formula_sum "Si O2"
_cell_formula_units_Z 48
_cell_length_a 20.670423
_cell_length_b 8.569344
_cell_length_c 16.313681
_cell_angle_alpha 90.000000
_cell_angle_beta 108.272879
_cell_angle_gamma 90.000000
_cell_volume 2743.959656
_symmetry_space_group_name_H-M "C 2/M"
_symmetry_group_IT_number 12
_symmetry_cell_setting 'monoclinic'
loop_
_space_group_symop_operation_xyz
x,y,z
-x,y,-z
-x,-y,-z
x,-y,z
1/2+x,1/2+y,z
1/2-x,1/2+y,-z
1/2-x,1/2-y,-z
1/2+x,1/2-y,z
loop_
_atom_site_type_symbol
_atom_site_label
_atom_site_fract_x
_atom_site_fract_y
_atom_site_fract_z
Si Si1 0.882309 0.312445 0.735187
Si Si2 0.097783 0.809818 0.598518
Si Si3 0.949828 0.811907 0.597955
Si Si4 0.285002 0.314212 0.932321
Si Si5 0.264178 0.310907 0.259351
Si Si6 0.571703 0.811148 0.067081
O O1 0.884341 0.500000 0.731891
O O2 0.916031 0.246872 0.667242
O O3 0.803410 0.265492 0.716582
O O4 0.920511 0.264890 0.834368
O O5 0.089661 0.761306 0.500448
O O6 0.166617 0.757285 0.669741
O O7 0.028543 0.761873 0.617454
O O8 0.098668 0.000000 0.599003
O O9 0.949448 0.000000 0.598496
O O10 0.284257 0.500000 0.932982
O O11 0.245858 0.253238 0.835960
O O12 0.362653 0.254907 0.953684
O O13 0.250000 0.250000 0.000000
O O14 0.264784 0.500000 0.254861
O O15 0.575564 0.000000 0.065162
O O16 0.500000 0.761955 0.000000
#
# Coordination Sequence:
#
# PCOD9220513 Si02
#       6
#     8   8   8   8   8   8
#     4   9  18  31  48  72 101 130 160 200 250 298
#     4   8  16  32  52  72  96 130 169 207 247 293
#     4   9  17  31  51  73  98 129 166 206 248 297
#     4  11  22  36  54  77 105 135 171 213 256 304
#     4   9  18  35  54  71  97 133 170 207 250 300
#     4   9  19  37  57  76 103 137 170 209 258 308
#
# _framework density 17.492968000000001
#
# number of rings (size 3 to 8) (size 9 to 14) (size 15 to 20)
#    0.000    2.833    0.000    3.500    0.000    5.000 
#    0.000    6.667    0.000    0.000    0.000    0.000 
#    0.000    0.000    0.000    0.000    0.000    0.000 
#
# Total GULP energy -133817.112049 kJ/mol
# GULP energy per Si atom -5575.713002 kJ/mol
# Density = 1.745315 g / cm^3
# Si number density = 17.492968 Si / 1000 Ang^3
#
#
#
# Elastic Constant Matrix: (Units=GPa)
#
#
# Indices 1 2 3 4 5 6 
#
# 1 167.2603 35.4394 152.5373 0.0000 1.0623 0.0000
# 2 35.4394 18.8697 34.8229 0.0000 0.4286 0.0000
# 3 152.5373 34.8229 162.4752 0.0000 0.3688 0.0000
# 4 0.0000 0.0000 0.0000 26.6457 0.0000 -9.7317
# 5 1.0623 0.4286 0.3688 0.0000 45.3160 0.0000
# 6 0.0000 0.0000 0.0000 -9.7317 0.0000 26.4622
#
#
#
# Elastic Compliance Matrix: (Units=1/GPa)
#
#
# Indices 1 2 3 4 5 6 
#
# 1 0.042766 -0.010279 -0.037946 0.000000 -0.000597 0.000000
# 2 -0.010279 0.090163 -0.009672 0.000000 -0.000533 0.000000
# 3 -0.037946 -0.009672 0.043851 0.000000 0.000624 0.000000
# 4 0.000000 0.000000 0.000000 0.043352 0.000000 0.015943
# 5 -0.000597 -0.000533 0.000624 0.000000 0.022081 0.000000
# 6 0.000000 0.000000 0.000000 0.015943 0.000000 0.043653
#
#
# Mechanical properties :
#
#
# Convention : Reuss Voigt Hill
#
# Bulk Modulus (GPa) = 16.39750 88.24494 52.32122
# Shear Modulus (GPa) = 11.84858 28.07181 19.96020
#
# Velocity S-wave (km/s) = 2.60539 4.01028 3.38159
# Velocity P-wave (km/s) = 4.29475 8.48520 6.72471
#
# Compressibility (1/GPa) = 0.06098492
#
# Stress axis : x y z
#
# Youngs Moduli (GPa) = 23.38289 11.09103 22.80428
#
# Poissons Ratio (x) = 0.11401 0.86533
# Poissons Ratio (y) = 0.24036 0.22057
# Poissons Ratio (z) = 0.88729 0.10728
#
# Static dielectric constant tensor:
#      x y z
#    x 1.579200 0.000000 0.017250 
#    y 0.000000 1.595750 0.000000 
#    z 0.017250 0.000000 1.579160 
# 
# From -- ./inp_files/230404.got.cif
#   From: 2010.05.17/outbox.cif.g08.bks.cpg/sg12_116_cif.got.tgz:230404.got - 2010.06.03 13:09:07.
