data_PCOD9220882
_publ_section_title
;
Structure prediction by ZEFSAII (Michael W. Deem and Ramdas Pophale) SiO2 
 PCOD9220882
Probable space group: C 2/M
;
_chemical_formula_sum "Si O2"
_cell_formula_units_Z 28
_cell_length_a 5.077012
_cell_length_b 32.033527
_cell_length_c 9.301208
_cell_angle_alpha 90.000000
_cell_angle_beta 122.809695
_cell_angle_gamma 90.000000
_cell_volume 1271.384956
_symmetry_space_group_name_H-M "C 2/M"
_symmetry_group_IT_number 12
_symmetry_cell_setting 'monoclinic'
loop_
_space_group_symop_operation_xyz
x,y,z
-x,y,-z
-x,-y,-z
x,-y,z
1/2+x,1/2+y,z
1/2-x,1/2+y,-z
1/2-x,1/2-y,-z
1/2+x,1/2-y,z
loop_
_atom_site_type_symbol
_atom_site_label
_atom_site_fract_x
_atom_site_fract_y
_atom_site_fract_z
Si Si1 0.931530 0.915147 0.313131
Si Si2 0.130601 0.000000 0.877600
Si Si3 0.198005 0.367514 0.806032
Si Si4 0.259906 0.272525 0.793032
O O1 0.954710 0.958368 0.233894
O O2 0.589378 0.893209 0.211142
O O3 0.000000 0.922310 0.500000
O O4 0.182549 0.885707 0.309490
O O5 0.500000 0.000000 0.000000
O O6 0.000000 0.000000 0.000000
O O7 0.122516 0.318849 0.761138
O O8 0.500000 0.370533 0.000000
O O9 0.485472 0.261210 0.728557
O O10 0.500000 0.269414 0.000000
#
# Coordination Sequence:
#
# PCOD9220882 Si02
#       4
#     8   4   8   8
#     4  12  25  42  63  92 129 164 200 249 313 371
#     4  12  25  44  69  94 121 156 207 256 301 362
#     4  11  22  39  65  93 123 164 213 257 302 362
#     4   9  17  31  55  88 120 153 202 261 306 344
#
# _framework density 22.023226999999999
#
# number of rings (size 3 to 8) (size 9 to 14) (size 15 to 20)
#    0.000    1.143    0.000    8.143    0.000    4.571 
#    0.000    4.286    0.000   17.143    0.000    0.000 
#    0.000    0.000    0.000    0.000    0.000    0.000 
#
# Total GULP energy -78319.745204 kJ/mol
# GULP energy per Si atom -5594.267515 kJ/mol
# Density = 2.197310 g / cm^3
# Si number density = 22.023227 Si / 1000 Ang^3
#
#
#
# Elastic Constant Matrix: (Units=GPa)
#
#
# Indices 1 2 3 4 5 6 
#
# 1 149.9873 56.5937 23.0624 0.0000 -21.5783 0.0000
# 2 56.5937 135.3251 30.6302 0.0000 -3.8993 0.0000
# 3 23.0624 30.6302 80.9140 0.0000 -20.0099 0.0000
# 4 0.0000 0.0000 0.0000 -39.7786 0.0000 -54.8781
# 5 -21.5783 -3.8993 -20.0099 0.0000 34.5655 0.0000
# 6 0.0000 0.0000 0.0000 -54.8781 0.0000 -8.6707
#
#
#
# Elastic Compliance Matrix: (Units=1/GPa)
#
#
# Indices 1 2 3 4 5 6 
#
# 1 0.008714 -0.003523 0.000113 0.000000 0.005108 0.000000
# 2 -0.003523 0.009536 -0.003365 0.000000 -0.003072 0.000000
# 3 0.000113 -0.003365 0.015784 0.000000 0.008828 0.000000
# 4 0.000000 0.000000 0.000000 0.003251 0.000000 -0.020579
# 5 0.005108 -0.003072 0.008828 0.000000 0.036883 0.000000
# 6 0.000000 0.000000 0.000000 -0.020579 0.000000 0.014917
#
#
# Mechanical properties :
#
#
# Convention : Reuss Voigt Hill
#
# Bulk Modulus (GPa) = 48.81966 65.19990 57.00978
# Shear Modulus (GPa) = 45.67746 14.28591 29.98169
#
# Velocity S-wave (km/s) = 4.55912 2.54967 3.69367
# Velocity P-wave (km/s) = 7.06609 6.19170 6.64329
#
# Compressibility (1/GPa) = 0.02048355
#
# Stress axis : x y z
#
# Youngs Moduli (GPa) = 114.75966 104.86549 63.35625
#
# Poissons Ratio (x) = 0.36940 -0.00716
# Poissons Ratio (y) = 0.40425 0.21322
# Poissons Ratio (z) = -0.01297 0.35292
#
# Static dielectric constant tensor:
#      x y z
#    x 1.749040 0.000000 0.015290 
#    y 0.000000 1.965700 0.000000 
#    z 0.015290 0.000000 1.830770 
# 
# From -- ./inp_files/34004.got.cif
#   From: 2010.05.17/outbox.cif.g08.bks.cpg/sg12_18_cif.got.tgz:34004.got - 2010.06.03 13:09:07.
