data_PCOD9220646
_publ_section_title
;
Structure prediction by ZEFSAII (Michael W. Deem and Ramdas Pophale) SiO2 
 PCOD9220646
Probable space group: C 2/M
;
_chemical_formula_sum "Si O2"
_cell_formula_units_Z 48
_cell_length_a 24.898767
_cell_length_b 8.753739
_cell_length_c 20.543950
_cell_angle_alpha 90.000000
_cell_angle_beta 144.033358
_cell_angle_gamma 90.000000
_cell_volume 2629.818881
_symmetry_space_group_name_H-M "C 2/M"
_symmetry_group_IT_number 12
_symmetry_cell_setting 'monoclinic'
loop_
_space_group_symop_operation_xyz
x,y,z
-x,y,-z
-x,-y,-z
x,-y,z
1/2+x,1/2+y,z
1/2-x,1/2+y,-z
1/2-x,1/2-y,-z
1/2+x,1/2-y,z
loop_
_atom_site_type_symbol
_atom_site_label
_atom_site_fract_x
_atom_site_fract_y
_atom_site_fract_z
Si Si1 0.327172 0.182524 0.389066
Si Si2 0.490253 0.182268 0.763822
Si Si3 0.002940 0.818246 0.373218
Si Si4 0.801215 0.817478 0.613153
Si Si5 0.814961 0.182449 0.007250
Si Si6 0.203929 0.818147 0.780917
O O1 0.424340 0.255398 0.503841
O O2 0.258418 0.214967 0.381287
O O3 0.291532 0.253373 0.287219
O O4 0.336678 0.000000 0.392155
O O5 0.481117 0.235666 0.679849
O O6 0.401469 0.244631 0.713801
O O7 0.493867 0.000000 0.770059
O O8 0.583644 0.253281 0.882521
O O9 0.899336 0.790728 0.294512
O O10 0.015491 0.000000 0.377273
O O11 0.750000 0.750000 0.500000
O O12 0.808531 0.000000 0.613022
O O13 0.772952 0.236213 0.897748
O O14 0.815518 0.000000 0.012944
O O15 0.750000 0.250000 0.000000
O O16 0.219666 0.000000 0.797261
#
# Coordination Sequence:
#
# PCOD9220646 Si02
#       6
#     8   8   8   8   8   8
#     4  11  24  40  61  91 127 166 208 256 312 371
#     4  12  24  39  63  94 125 161 208 258 309 364
#     4  11  22  37  61  91 127 164 204 254 310 369
#     4  11  23  40  63  91 125 164 209 256 310 367
#     4  12  24  41  65  92 125 163 206 256 307 367
#     4  11  24  41  62  91 127 167 208 253 310 371
#
# _framework density 18.252208
#
# number of rings (size 3 to 8) (size 9 to 14) (size 15 to 20)
#    0.000    0.667    3.333    5.500    0.000    6.000 
#    0.000    0.833    0.000    5.000    0.000    0.000 
#    0.000    0.000    0.000    0.000    0.000    0.000 
#
# Total GULP energy -134323.295791 kJ/mol
# GULP energy per Si atom -5596.803991 kJ/mol
# Density = 1.821067 g / cm^3
# Si number density = 18.252208 Si / 1000 Ang^3
#
#
#
# Elastic Constant Matrix: (Units=GPa)
#
#
# Indices 1 2 3 4 5 6 
#
# 1 49.6443 45.6360 33.6604 0.0000 -0.1248 0.0000
# 2 45.6360 105.5758 45.3002 0.0000 4.8657 0.0000
# 3 33.6604 45.3002 139.9863 0.0000 0.0289 0.0000
# 4 0.0000 0.0000 0.0000 38.5501 0.0000 -1.4977
# 5 -0.1248 4.8657 0.0289 0.0000 37.3647 0.0000
# 6 0.0000 0.0000 0.0000 -1.4977 0.0000 32.0080
#
#
#
# Elastic Compliance Matrix: (Units=1/GPa)
#
#
# Indices 1 2 3 4 5 6 
#
# 1 0.035503 -0.013669 -0.004114 0.000000 0.001902 0.000000
# 2 -0.013669 0.016339 -0.002000 0.000000 -0.002172 0.000000
# 3 -0.004114 -0.002000 0.008780 0.000000 0.000240 0.000000
# 4 0.000000 0.000000 0.000000 0.025987 0.000000 0.001216
# 5 0.001902 -0.002172 0.000240 0.000000 0.027052 0.000000
# 6 0.000000 0.000000 0.000000 0.001216 0.000000 0.031299
#
#
# Mechanical properties :
#
#
# Convention : Reuss Voigt Hill
#
# Bulk Modulus (GPa) = 47.49314 60.48883 53.99098
# Shear Modulus (GPa) = 26.10368 32.95854 29.53111
#
# Velocity S-wave (km/s) = 3.78586 4.25400 4.02674
# Velocity P-wave (km/s) = 6.72215 7.57239 7.15990
#
# Compressibility (1/GPa) = 0.02105567
#
# Stress axis : x y z
#
# Youngs Moduli (GPa) = 28.16698 61.20493 113.89588
#
# Poissons Ratio (x) = 0.83659 0.46856
# Poissons Ratio (y) = 0.38501 0.22780
# Poissons Ratio (z) = 0.11588 0.12241
#
# Static dielectric constant tensor:
#      x y z
#    x 1.610050 0.000000 0.004000 
#    y 0.000000 1.606910 0.000000 
#    z 0.004000 0.000000 1.600820 
# 
# From -- ./inp_files/327336.got.cif
#   From: 2010.05.17/outbox.cif.g08.bks.cpg/sg12_164_cif.got.tgz:327336.got - 2010.06.03 13:09:07.
