data_PCOD9220695
_publ_section_title
;
Structure prediction by ZEFSAII (Michael W. Deem and Ramdas Pophale) SiO2 
 PCOD9220695
Probable space group: C 2/M
;
_chemical_formula_sum "Si O2"
_cell_formula_units_Z 64
_cell_length_a 30.715361
_cell_length_b 19.024866
_cell_length_c 8.743765
_cell_angle_alpha 90.000000
_cell_angle_beta 141.091325
_cell_angle_gamma 90.000000
_cell_volume 3209.159345
_symmetry_space_group_name_H-M "C 2/M"
_symmetry_group_IT_number 12
_symmetry_cell_setting 'monoclinic'
loop_
_space_group_symop_operation_xyz
x,y,z
-x,y,-z
-x,-y,-z
x,-y,z
1/2+x,1/2+y,z
1/2-x,1/2+y,-z
1/2-x,1/2-y,-z
1/2+x,1/2-y,z
loop_
_atom_site_type_symbol
_atom_site_label
_atom_site_fract_x
_atom_site_fract_y
_atom_site_fract_z
Si Si1 0.828654 0.416793 0.937764
Si Si2 0.926095 0.286917 0.727641
Si Si3 0.712073 0.820617 0.461942
Si Si4 0.439124 0.623900 0.735487
Si Si5 0.078142 0.696336 0.653630
Si Si6 0.807693 0.922579 0.235048
Si Si7 0.036416 0.078571 0.759758
Si Si8 0.160795 0.834843 0.973668
O O1 0.841673 0.500000 0.944913
O O2 0.802967 0.375323 0.716161
O O3 0.765504 0.411797 0.886012
O O4 0.892425 0.375371 0.190448
O O5 0.860805 0.311586 0.648947
O O6 0.924594 0.202566 0.746214
O O7 0.920398 0.302976 0.529274
O O8 0.000000 0.311625 0.000000
O O9 0.750000 0.750000 0.500000
O O10 0.767368 0.841686 0.741335
O O11 0.368277 0.582949 0.526526
O O12 0.479827 0.626437 0.688223
O O13 0.500000 0.589935 0.000000
O O14 0.128380 0.757747 0.857350
O O15 0.000000 0.708987 0.500000
O O16 0.826549 0.866540 0.159142
O O17 0.810948 0.000000 0.172702
O O18 0.106606 0.120075 0.924695
O O19 0.000000 0.068553 0.500000
O O20 0.046527 0.000000 0.852828
#
# Coordination Sequence:
#
# PCOD9220695 Si02
#       8
#     8   8   8   8   8   8   8   8
#     4  11  27  48  71 100 137 178 228 286 354 420
#     4  11  24  42  70 102 134 174 230 293 342 402
#     4  12  26  43  70 102 138 177 229 282 348 408
#     4  11  23  36  60  89 135 179 226 268 324 395
#     4  12  24  45  74 101 134 180 236 291 350 403
#     4  11  23  42  63  94 137 183 225 273 337 415
#     4  11  22  38  58  92 136 182 221 265 325 400
#     4  12  24  39  68  98 138 179 230 280 331 404
#
# _framework density 19.942917000000001
#
# number of rings (size 3 to 8) (size 9 to 14) (size 15 to 20)
#    0.000    0.625    3.750    4.125    5.250    3.250 
#    0.000    0.625    0.000    1.500    0.000    0.000 
#    0.000    0.000    0.000    0.000    0.000    0.000 
#
# Total GULP energy -178614.345193 kJ/mol
# GULP energy per Si atom -5581.698287 kJ/mol
# Density = 1.989753 g / cm^3
# Si number density = 19.942917 Si / 1000 Ang^3
#
#
#
# Elastic Constant Matrix: (Units=GPa)
#
#
# Indices 1 2 3 4 5 6 
#
# 1 71.7601 35.2044 26.9361 0.0000 17.4803 0.0000
# 2 35.2044 107.7018 35.6008 0.0000 4.2516 0.0000
# 3 26.9361 35.6008 119.7034 0.0000 10.6232 0.0000
# 4 0.0000 0.0000 0.0000 13.3072 0.0000 -3.5315
# 5 17.4803 4.2516 10.6232 0.0000 34.3389 0.0000
# 6 0.0000 0.0000 0.0000 -3.5315 0.0000 23.9647
#
#
#
# Elastic Compliance Matrix: (Units=1/GPa)
#
#
# Indices 1 2 3 4 5 6 
#
# 1 0.019403 -0.005337 -0.002016 0.000000 -0.008593 0.000000
# 2 -0.005337 0.011769 -0.002479 0.000000 0.002026 0.000000
# 3 -0.002016 -0.002479 0.009693 0.000000 -0.001665 0.000000
# 4 0.000000 0.000000 0.000000 0.078206 0.000000 0.011525
# 5 -0.008593 0.002026 -0.001665 0.000000 0.033760 0.000000
# 6 0.000000 0.000000 0.000000 0.011525 0.000000 0.043426
#
#
# Mechanical properties :
#
#
# Convention : Reuss Voigt Hill
#
# Bulk Modulus (GPa) = 47.16850 54.96085 51.06468
# Shear Modulus (GPa) = 22.42270 27.75044 25.08657
#
# Velocity S-wave (km/s) = 3.35676 3.73432 3.55056
# Velocity P-wave (km/s) = 6.22309 6.79797 6.51688
#
# Compressibility (1/GPa) = 0.02120059
#
# Stress axis : x y z
#
# Youngs Moduli (GPa) = 51.53717 84.97084 103.16912
#
# Poissons Ratio (x) = 0.45346 0.20804
# Poissons Ratio (y) = 0.27504 0.25577
# Poissons Ratio (z) = 0.10392 0.21065
#
# Static dielectric constant tensor:
#      x y z
#    x 1.716010 0.000000 -0.077840 
#    y 0.000000 1.733330 0.000000 
#    z -0.077840 0.000000 1.826740 
# 
# From -- ./inp_files/112896.got.cif
#   From: 2010.05.17/outbox.cif.g08.bks.cpg/sg12_57_cif.got.tgz:112896.got - 2010.06.03 13:09:07.
