data_PCOD9220748
_publ_section_title
;
Structure prediction by ZEFSAII (Michael W. Deem and Ramdas Pophale) SiO2 
 PCOD9220748
Probable space group: C 2/M
;
_chemical_formula_sum "Si O2"
_cell_formula_units_Z 48
_cell_length_a 25.517091
_cell_length_b 8.418891
_cell_length_c 14.390322
_cell_angle_alpha 90.000000
_cell_angle_beta 138.165743
_cell_angle_gamma 90.000000
_cell_volume 2061.902453
_symmetry_space_group_name_H-M "C 2/M"
_symmetry_group_IT_number 12
_symmetry_cell_setting 'monoclinic'
loop_
_space_group_symop_operation_xyz
x,y,z
-x,y,-z
-x,-y,-z
x,-y,z
1/2+x,1/2+y,z
1/2-x,1/2+y,-z
1/2-x,1/2-y,-z
1/2+x,1/2-y,z
loop_
_atom_site_type_symbol
_atom_site_label
_atom_site_fract_x
_atom_site_fract_y
_atom_site_fract_z
Si Si1 0.841926 0.311805 0.502109
Si Si2 0.829246 0.683633 0.147929
Si Si3 0.407927 0.689421 0.984029
Si Si4 0.917014 0.810931 0.774314
Si Si5 0.002076 0.693886 0.610929
Si Si6 0.741734 0.317305 0.773750
O O1 0.831179 0.500000 0.476613
O O2 0.853666 0.270724 0.625114
O O3 0.774890 0.224402 0.355229
O O4 0.924369 0.258375 0.563241
O O5 0.831724 0.500000 0.127982
O O6 0.914743 0.754021 0.238206
O O7 0.814993 0.707968 0.239306
O O8 0.750000 0.750000 0.000000
O O9 0.400056 0.500000 0.990622
O O10 0.407527 0.712675 0.871689
O O11 0.331446 0.778836 0.918735
O O12 0.493718 0.743887 0.130887
O O13 0.913455 0.000000 0.753589
O O14 0.003718 0.500000 0.614912
O O15 0.000000 0.741708 0.500000
O O16 0.724021 0.500000 0.769320
#
# Coordination Sequence:
#
# PCOD9220748 Si02
#       6
#     8   8   8   8   8   8
#     4  11  22  38  62  89 119 159 199 244 301 354
#     4  11  23  41  62  88 122 158 198 245 299 354
#     4   9  20  41  65  87 119 158 194 243 304 359
#     4   9  20  40  64  91 119 151 195 246 302 362
#     4   9  18  37  61  83 114 155 196 237 286 347
#     4  12  25  40  59  88 122 158 203 250 294 349
#
# _framework density 23.27947
#
# number of rings (size 3 to 8) (size 9 to 14) (size 15 to 20)
#    0.000    1.833    1.667    3.500    2.333    2.000 
#    0.000    5.000    0.000    0.000    0.000    0.000 
#    0.000    0.000    0.000    0.000    0.000    0.000 
#
# Total GULP energy -134218.950583 kJ/mol
# GULP energy per Si atom -5592.456274 kJ/mol
# Density = 2.322649 g / cm^3
# Si number density = 23.279470 Si / 1000 Ang^3
#
#
#
# Elastic Constant Matrix: (Units=GPa)
#
#
# Indices 1 2 3 4 5 6 
#
# 1 41.9693 2.7268 -2.8670 0.0000 11.7082 0.0000
# 2 2.7268 18.0014 10.1065 0.0000 4.8423 0.0000
# 3 -2.8670 10.1065 113.2627 0.0000 7.3262 0.0000
# 4 0.0000 0.0000 0.0000 33.6416 0.0000 -3.6407
# 5 11.7082 4.8423 7.3262 0.0000 41.0987 0.0000
# 6 0.0000 0.0000 0.0000 -3.6407 0.0000 17.5178
#
#
#
# Elastic Compliance Matrix: (Units=1/GPa)
#
#
# Indices 1 2 3 4 5 6 
#
# 1 0.026158 -0.002756 0.001385 0.000000 -0.007374 0.000000
# 2 -0.002756 0.060287 -0.005099 0.000000 -0.005409 0.000000
# 3 0.001385 -0.005099 0.009414 0.000000 -0.001472 0.000000
# 4 0.000000 0.000000 0.000000 0.030409 0.000000 0.006320
# 5 -0.007374 -0.005409 -0.001472 0.000000 0.027332 0.000000
# 6 0.000000 0.000000 0.000000 0.006320 0.000000 0.058398
#
#
# Mechanical properties :
#
#
# Convention : Reuss Voigt Hill
#
# Bulk Modulus (GPa) = 12.06020 21.46289 16.76155
# Shear Modulus (GPa) = 19.79585 29.33611 24.56598
#
# Velocity S-wave (km/s) = 2.91925 3.55374 3.25201
# Velocity P-wave (km/s) = 4.06873 5.10670 4.61698
#
# Compressibility (1/GPa) = 0.08291737
#
# Stress axis : x y z
#
# Youngs Moduli (GPa) = 38.22960 16.58746 106.22123
#
# Poissons Ratio (x) = 0.04572 -0.14712
# Poissons Ratio (y) = 0.10537 0.54166
# Poissons Ratio (z) = -0.05295 0.08458
#
# Static dielectric constant tensor:
#      x y z
#    x 1.952280 0.000000 -0.029380 
#    y 0.000000 1.794790 0.000000 
#    z -0.029380 0.000000 1.910370 
# 
# From -- ./inp_files/244897.got.cif
#   From: 2010.05.17/outbox.cif.g08.bks.cpg/sg12_123_cif.got.tgz:244897.got - 2010.06.03 13:09:07.
