data_PCOD9220233
_publ_section_title
;
Structure prediction by ZEFSAII (Michael W. Deem and Ramdas Pophale) SiO2 
 PCOD9220233
Probable space group: C 2/M
;
_chemical_formula_sum "Si O2"
_cell_formula_units_Z 58
_cell_length_a 21.733328
_cell_length_b 20.980382
_cell_length_c 8.774528
_cell_angle_alpha 90.000000
_cell_angle_beta 137.341500
_cell_angle_gamma 90.000000
_cell_volume 2711.154145
_symmetry_space_group_name_H-M "C 2/M"
_symmetry_group_IT_number 12
_symmetry_cell_setting 'monoclinic'
loop_
_space_group_symop_operation_xyz
x,y,z
-x,y,-z
-x,-y,-z
x,-y,z
1/2+x,1/2+y,z
1/2-x,1/2+y,-z
1/2-x,1/2-y,-z
1/2+x,1/2-y,z
loop_
_atom_site_type_symbol
_atom_site_label
_atom_site_fract_x
_atom_site_fract_y
_atom_site_fract_z
Si Si1 0.083144 0.350475 0.265796
Si Si2 0.807323 0.574545 0.314298
Si Si3 0.364479 0.633673 0.822967
Si Si4 0.878173 0.763014 0.446402
Si Si5 0.000000 0.000000 0.500000
Si Si6 0.826333 0.717827 0.815967
Si Si7 0.899774 0.336594 0.251131
Si Si8 0.048042 0.106334 0.334291
O O1 0.109754 0.409834 0.418582
O O2 0.073478 0.289644 0.359118
O O3 0.168716 0.327550 0.321281
O O4 0.000000 0.359412 0.000000
O O5 0.795086 0.500000 0.266664
O O6 0.720740 0.605265 0.240276
O O7 0.832018 0.612290 0.204559
O O8 0.363528 0.711642 0.836392
O O9 0.378939 0.607910 0.675288
O O10 0.452254 0.608908 0.073717
O O11 0.775669 0.772851 0.314162
O O12 0.875903 0.731935 0.277998
O O13 0.932918 0.826922 0.551046
O O14 0.040854 0.945429 0.454146
O O15 0.881627 0.676916 0.042302
O O16 0.000000 0.352944 0.500000
#
# Coordination Sequence:
#
# PCOD9220233 Si02
#       8
#     8   8   8   8   2   8   8   8
#     4  11  21  40  67 101 132 170 228 295 354 416
#     4  11  26  45  67  95 135 190 236 282 347 431
#     4  11  23  44  74  96 135 182 236 285 354 413
#     4  11  22  40  65 100 140 172 227 286 359 407
#     4  12  32  46  60 100 144 186 246 264 332 422
#     4  12  21  39  70 107 136 166 229 307 357 407
#     4  11  24  41  66 103 138 178 225 290 362 418
#     4  11  26  44  67 100 136 194 223 286 338 415
#
# _framework density 21.393104999999998
#
# number of rings (size 3 to 8) (size 9 to 14) (size 15 to 20)
#    0.000    0.828    4.138    4.966    4.828    1.103 
#    0.000    0.690    0.000    0.000    0.000    0.000 
#    0.000    0.000    0.000    0.000    0.000    0.000 
#
# Total GULP energy -161649.331251 kJ/mol
# GULP energy per Si atom -5574.114871 kJ/mol
# Density = 2.134441 g / cm^3
# Si number density = 21.393105 Si / 1000 Ang^3
#
#
#
# Elastic Constant Matrix: (Units=GPa)
#
#
# Indices 1 2 3 4 5 6 
#
# 1 133.5608 56.5023 26.7214 0.0000 -13.2616 0.0000
# 2 56.5023 107.0740 21.7751 0.0000 -19.9449 0.0000
# 3 26.7214 21.7751 59.8967 0.0000 -3.1058 0.0000
# 4 0.0000 0.0000 0.0000 571.1740 0.0000 -213.3160
# 5 -13.2616 -19.9449 -3.1058 0.0000 40.9445 0.0000
# 6 0.0000 0.0000 0.0000 -213.3160 0.0000 101.2967
#
#
#
# Elastic Compliance Matrix: (Units=1/GPa)
#
#
# Indices 1 2 3 4 5 6 
#
# 1 0.010068 -0.004597 -0.002779 0.000000 0.000811 0.000000
# 2 -0.004597 0.013151 -0.002485 0.000000 0.004729 0.000000
# 3 -0.002779 -0.002485 0.018803 0.000000 -0.000684 0.000000
# 4 0.000000 0.000000 0.000000 0.008199 0.000000 0.017266
# 5 0.000811 0.004729 -0.000684 0.000000 0.026938 0.000000
# 6 0.000000 0.000000 0.000000 0.017266 0.000000 0.046233
#
#
# Mechanical properties :
#
#
# Convention : Reuss Voigt Hill
#
# Bulk Modulus (GPa) = 44.83978 56.72546 50.78262
# Shear Modulus (GPa) = 33.21224 155.71856 94.46540
#
# Velocity S-wave (km/s) = 3.94442 8.54091 6.65228
# Velocity P-wave (km/s) = 6.46143 11.12817 9.09907
#
# Compressibility (1/GPa) = 0.02230162
#
# Stress axis : x y z
#
# Youngs Moduli (GPa) = 99.32116 76.03801 53.18318
#
# Poissons Ratio (x) = 0.34954 0.14777
# Poissons Ratio (y) = 0.45657 0.13217
# Poissons Ratio (z) = 0.27596 0.18896
#
# Static dielectric constant tensor:
#      x y z
#    x 1.860690 0.000000 0.007280 
#    y 0.000000 1.716730 0.000000 
#    z 0.007280 0.000000 1.823670 
# 
# From -- ./inp_files/99295.got.cif
#   From: 2010.05.17/outbox.cif.g08.bks.cpg/sg12_50_cif.got.tgz:99295.got - 2010.06.03 13:09:07.
