data_PCOD9220404
_publ_section_title
;
Structure prediction by ZEFSAII (Michael W. Deem and Ramdas Pophale) SiO2 
 PCOD9220404
Probable space group: C 2/M
;
_chemical_formula_sum "Si O2"
_cell_formula_units_Z 48
_cell_length_a 5.332137
_cell_length_b 26.972468
_cell_length_c 24.178190
_cell_angle_alpha 90.000000
_cell_angle_beta 109.317490
_cell_angle_gamma 90.000000
_cell_volume 3281.555351
_symmetry_space_group_name_H-M "C 2/M"
_symmetry_group_IT_number 12
_symmetry_cell_setting 'monoclinic'
loop_
_space_group_symop_operation_xyz
x,y,z
-x,y,-z
-x,-y,-z
x,-y,z
1/2+x,1/2+y,z
1/2-x,1/2+y,-z
1/2-x,1/2-y,-z
1/2+x,1/2-y,z
loop_
_atom_site_type_symbol
_atom_site_label
_atom_site_fract_x
_atom_site_fract_y
_atom_site_fract_z
Si Si1 0.893065 0.278330 0.428710
Si Si2 0.198692 0.060413 0.965795
Si Si3 0.106446 0.439733 0.237629
Si Si4 0.894259 0.605886 0.429507
Si Si5 0.495313 0.439516 0.830210
Si Si6 0.188581 0.940350 0.625720
O O1 0.613364 0.250000 0.408909
O O2 0.869037 0.336036 0.412692
O O3 0.000000 0.276829 0.500000
O O4 0.097031 0.076053 0.898021
O O5 0.198537 0.000000 0.965691
O O6 0.500000 0.076131 0.000000
O O7 0.000000 0.076131 0.000000
O O8 0.104592 0.500000 0.236393
O O9 0.306041 0.423474 0.203869
O O10 0.208586 0.425707 0.305724
O O11 0.805570 0.423474 0.203868
O O12 0.606878 0.580465 0.404591
O O13 0.000000 0.602424 0.500000
O O14 0.106891 0.580464 0.404590
O O15 0.495196 0.500000 0.830132
O O16 0.183153 0.000000 0.622102
#
# Coordination Sequence:
#
# PCOD9220404 Si02
#       6
#     8   8   8   8   8   8
#     4   9  17  31  50  69  87 105 128 163 209 262
#     4   9  15  21  30  47  69  89 112 152 209 258
#     4   9  17  28  40  52  68  98 138 173 203 233
#     4  11  22  34  49  68  87 110 139 172 221 274
#     4   9  15  24  37  50  66  92 128 166 205 247
#     4  11  22  34  46  62  87 116 147 182 215 252
#
# _framework density 14.627209000000001
#
# number of rings (size 3 to 8) (size 9 to 14) (size 15 to 20)
#    0.000    2.333    0.000    4.000    0.000   11.333 
#    0.000    0.000    0.000    0.000    0.000    0.000 
#    0.000    0.000    0.000    0.000    0.000    0.000 
#
# Total GULP energy -133806.383414 kJ/mol
# GULP energy per Si atom -5575.265976 kJ/mol
# Density = 1.459392 g / cm^3
# Si number density = 14.627209 Si / 1000 Ang^3
#
#
#
# Elastic Constant Matrix: (Units=GPa)
#
#
# Indices 1 2 3 4 5 6 
#
# 1 185.5807 48.6889 86.6914 0.0000 -1.8214 0.0000
# 2 48.6889 60.2651 32.1189 0.0000 -0.6639 0.0000
# 3 86.6914 32.1189 126.0891 0.0000 -0.5623 0.0000
# 4 0.0000 0.0000 0.0000 -1.5903 0.0000 -0.6941
# 5 -1.8214 -0.6639 -0.5623 0.0000 26.7692 0.0000
# 6 0.0000 0.0000 0.0000 -0.6941 0.0000 15.7227
#
#
#
# Elastic Compliance Matrix: (Units=1/GPa)
#
#
# Indices 1 2 3 4 5 6 
#
# 1 0.008902 -0.004544 -0.004961 0.000000 0.000389 0.000000
# 2 -0.004544 0.021523 -0.002358 0.000000 0.000175 0.000000
# 3 -0.004961 -0.002358 0.011942 0.000000 -0.000145 0.000000
# 4 0.000000 0.000000 0.000000 -0.616929 0.000000 -0.027236
# 5 0.000389 0.000175 -0.000145 0.000000 0.037384 0.000000
# 6 0.000000 0.000000 0.000000 -0.027236 0.000000 0.062400
#
#
# Mechanical properties :
#
#
# Convention : Reuss Voigt Hill
#
# Bulk Modulus (GPa) = 53.64471 78.54814 66.09642
# Shear Modulus (GPa) = -11.24002 21.80937 5.28467
#
# Velocity S-wave (km/s) = -2.77507 3.86555 1.90283
# Velocity P-wave (km/s) = 5.14648 8.58720 7.07906
#
# Compressibility (1/GPa) = 0.01864117
#
# Stress axis : x y z
#
# Youngs Moduli (GPa) = 112.33476 46.46257 83.73803
#
# Poissons Ratio (x) = 0.21110 0.41545
# Poissons Ratio (y) = 0.51039 0.19745
# Poissons Ratio (z) = 0.55733 0.10955
#
# Static dielectric constant tensor:
#      x y z
#    x 1.485700 0.000000 -0.000380 
#    y 0.000000 1.446190 0.000000 
#    z -0.000380 0.000000 1.476160 
# 
# From -- ./inp_files/297950.got.cif
#   From: 2010.05.17/outbox.cif.g08.bks.cpg/sg12_149_cif.got.tgz:297950.got - 2010.06.03 13:09:07.
