data_PCOD9220567
_publ_section_title
;
Structure prediction by ZEFSAII (Michael W. Deem and Ramdas Pophale) SiO2 
 PCOD9220567
Probable space group: C 2/M
;
_chemical_formula_sum "Si O2"
_cell_formula_units_Z 48
_cell_length_a 19.958908
_cell_length_b 25.052900
_cell_length_c 5.383490
_cell_angle_alpha 90.000000
_cell_angle_beta 62.920109
_cell_angle_gamma 90.000000
_cell_volume 2396.792814
_symmetry_space_group_name_H-M "C 2/M"
_symmetry_group_IT_number 12
_symmetry_cell_setting 'monoclinic'
loop_
_space_group_symop_operation_xyz
x,y,z
-x,y,-z
-x,-y,-z
x,-y,z
1/2+x,1/2+y,z
1/2-x,1/2+y,-z
1/2-x,1/2-y,-z
1/2+x,1/2-y,z
loop_
_atom_site_type_symbol
_atom_site_label
_atom_site_fract_x
_atom_site_fract_y
_atom_site_fract_z
Si Si1 0.215675 0.063466 0.205103
Si Si2 0.300025 0.716218 0.107973
Si Si3 0.785553 0.386875 0.585702
Si Si4 0.588395 0.644750 0.400200
Si Si5 0.547074 0.853598 0.660513
Si Si6 0.918245 0.757143 0.257147
O O1 0.257272 0.087337 0.376926
O O2 0.132567 0.089723 0.350168
O O3 0.213686 0.000000 0.220026
O O4 0.254789 0.082587 0.882668
O O5 0.247786 0.673033 0.332176
O O6 0.348682 0.755691 0.196068
O O7 0.250000 0.750000 0.000000
O O8 0.365706 0.679843 0.876577
O O9 0.875649 0.385276 0.439479
O O10 0.500000 0.639031 0.500000
O O11 0.597545 0.683957 0.617606
O O12 0.500000 0.871205 0.500000
O O13 0.572197 0.791733 0.569323
O O14 0.500000 0.855187 0.000000
O O15 0.000000 0.760225 0.000000
#
# Coordination Sequence:
#
# PCOD9220567 Si02
#       6
#     8   8   8   8   8   8
#     4  11  25  45  70  96 123 166 222 283 336 377
#     4  11  24  36  61  94 136 178 221 256 313 386
#     4  11  24  44  68  94 131 171 213 273 328 387
#     4  11  22  39  61  89 133 174 219 265 322 380
#     4  11  25  40  64  97 136 174 210 253 316 397
#     4  11  22  36  60  92 137 182 210 257 308 389
#
# _framework density 20.026761
#
# number of rings (size 3 to 8) (size 9 to 14) (size 15 to 20)
#    0.000    1.000    3.333    3.000   11.667    1.667 
#    0.000    0.000    0.000   13.500    0.000    0.000 
#    0.000    0.000    0.000    0.000    0.000    0.000 
#
# Total GULP energy -134036.326909 kJ/mol
# GULP energy per Si atom -5584.846955 kJ/mol
# Density = 1.998118 g / cm^3
# Si number density = 20.026761 Si / 1000 Ang^3
#
#
#
# Elastic Constant Matrix: (Units=GPa)
#
#
# Indices 1 2 3 4 5 6 
#
# 1 194.7515 45.7256 67.4470 0.0000 -5.6602 0.0000
# 2 45.7256 84.9498 38.5062 0.0000 -9.9465 0.0000
# 3 67.4470 38.5062 103.6845 0.0000 -4.5526 0.0000
# 4 0.0000 0.0000 0.0000 13.6254 0.0000 9.3540
# 5 -5.6602 -9.9465 -4.5526 0.0000 37.5334 0.0000
# 6 0.0000 0.0000 0.0000 9.3540 0.0000 16.2775
#
#
#
# Elastic Compliance Matrix: (Units=1/GPa)
#
#
# Indices 1 2 3 4 5 6 
#
# 1 0.006905 -0.002015 -0.003741 0.000000 0.000054 0.000000
# 2 -0.002015 0.015118 -0.004163 0.000000 0.003197 0.000000
# 3 -0.003741 -0.004163 0.013624 0.000000 -0.000015 0.000000
# 4 0.000000 0.000000 0.000000 0.121213 0.000000 -0.069656
# 5 0.000054 0.003197 -0.000015 0.000000 0.027497 0.000000
# 6 0.000000 0.000000 0.000000 -0.069656 0.000000 0.101463
#
#
# Mechanical properties :
#
#
# Convention : Reuss Voigt Hill
#
# Bulk Modulus (GPa) = 63.25923 76.30484 69.78204
# Shear Modulus (GPa) = 16.08099 28.93439 22.50769
#
# Velocity S-wave (km/s) = 2.83676 3.80516 3.35607
# Velocity P-wave (km/s) = 6.51041 7.58220 7.06666
#
# Compressibility (1/GPa) = 0.01580797
#
# Stress axis : x y z
#
# Youngs Moduli (GPa) = 144.82319 66.14786 73.40086
#
# Poissons Ratio (x) = 0.13326 0.27460
# Poissons Ratio (y) = 0.29177 0.30560
# Poissons Ratio (z) = 0.54181 0.27540
#
# Static dielectric constant tensor:
#      x y z
#    x 1.673520 0.000000 0.099830 
#    y 0.000000 1.677860 0.000000 
#    z 0.099830 0.000000 1.684770 
# 
# From -- ./inp_files/16679.got.cif
#   From: 2010.05.17/outbox.cif.g08.bks.cpg/sg12_9_cif.got.tgz:16679.got - 2010.06.03 13:09:07.
