data_PCOD9220461
_publ_section_title
;
Structure prediction by ZEFSAII (Michael W. Deem and Ramdas Pophale) SiO2 
 PCOD9220461
Probable space group: C 2/M
;
_chemical_formula_sum "Si O2"
_cell_formula_units_Z 40
_cell_length_a 17.088790
_cell_length_b 9.735848
_cell_length_c 24.717432
_cell_angle_alpha 90.000000
_cell_angle_beta 31.464700
_cell_angle_gamma 90.000000
_cell_volume 2146.528267
_symmetry_space_group_name_H-M "C 2/M"
_symmetry_group_IT_number 12
_symmetry_cell_setting 'monoclinic'
loop_
_space_group_symop_operation_xyz
x,y,z
-x,y,-z
-x,-y,-z
x,-y,z
1/2+x,1/2+y,z
1/2-x,1/2+y,-z
1/2-x,1/2-y,-z
1/2+x,1/2-y,z
loop_
_atom_site_type_symbol
_atom_site_label
_atom_site_fract_x
_atom_site_fract_y
_atom_site_fract_z
Si Si1 0.199780 0.842359 0.794729
Si Si2 0.722994 0.343093 0.148497
Si Si3 0.334222 0.662005 0.619874
Si Si4 0.470126 0.150966 0.247787
Si Si5 0.405204 0.782133 0.938081
O O1 0.221634 0.751070 0.835191
O O2 0.291418 0.764820 0.693465
O O3 0.022985 0.836278 0.883607
O O4 0.245470 0.000000 0.774721
O O5 0.691603 0.500000 0.183227
O O6 0.575566 0.267097 0.211132
O O7 0.849993 0.346204 0.026753
O O8 0.500000 0.687667 0.500000
O O9 0.326296 0.500000 0.641022
O O10 0.206837 0.680724 0.648683
O O11 0.507956 0.141777 0.161253
O O12 0.501224 0.000000 0.253382
O O13 0.250000 0.750000 0.000000
#
# Coordination Sequence:
#
# PCOD9220461 Si02
#       5
#     8   8   8   8   8
#     4  11  23  37  55  81 111 143 182 225 268 318
#     4  11  22  35  53  79 113 149 183 221 267 318
#     4   9  19  38  62  84 107 137 175 223 277 328
#     4   9  18  34  56  81 109 141 179 221 267 322
#     4   9  20  34  53  78 108 143 179 217 261 314
#
# _framework density 18.634741999999999
#
# number of rings (size 3 to 8) (size 9 to 14) (size 15 to 20)
#    0.000    2.200    0.000    2.400    0.000   15.600 
#    0.000    1.000    0.000    0.000    0.000    0.000 
#    0.000    0.000    0.000    0.000    0.000    0.000 
#
# Total GULP energy -111344.390054 kJ/mol
# GULP energy per Si atom -5567.219503 kJ/mol
# Density = 1.859233 g / cm^3
# Si number density = 18.634742 Si / 1000 Ang^3
#
#
#
# Elastic Constant Matrix: (Units=GPa)
#
#
# Indices 1 2 3 4 5 6 
#
# 1 86.6041 62.3900 38.8440 0.0000 -3.4535 0.0000
# 2 62.3900 152.0268 43.8695 0.0001 -3.0859 -0.0001
# 3 38.8440 43.8695 107.1108 0.0002 -25.3240 0.0000
# 4 0.0000 0.0001 0.0002 15.2370 0.0000 -5.0424
# 5 -3.4535 -3.0859 -25.3240 0.0000 23.7440 0.0000
# 6 0.0000 -0.0001 0.0000 -5.0424 0.0000 21.3607
#
#
#
# Elastic Compliance Matrix: (Units=1/GPa)
#
#
# Indices 1 2 3 4 5 6 
#
# 1 0.017918 -0.006033 -0.004809 0.000000 -0.003307 0.000000
# 2 -0.006033 0.009661 -0.002246 0.000000 -0.002017 0.000000
# 3 -0.004809 -0.002246 0.015733 0.000000 0.015788 0.000000
# 4 0.000000 0.000000 0.000000 0.071191 0.000000 0.016805
# 5 -0.003307 -0.002017 0.015788 0.000000 0.058212 0.000000
# 6 0.000000 0.000000 0.000000 0.016805 0.000000 0.050782
#
#
# Mechanical properties :
#
#
# Convention : Reuss Voigt Hill
#
# Bulk Modulus (GPa) = 58.35614 70.66096 64.50855
# Shear Modulus (GPa) = 19.57842 25.44424 22.51133
#
# Velocity S-wave (km/s) = 3.24488 3.69917 3.47944
# Velocity P-wave (km/s) = 6.73964 7.49976 7.12983
#
# Compressibility (1/GPa) = 0.01713616
#
# Stress axis : x y z
#
# Youngs Moduli (GPa) = 55.81026 103.51246 63.56160
#
# Poissons Ratio (x) = 0.62446 0.30567
# Poissons Ratio (y) = 0.33669 0.14275
# Poissons Ratio (z) = 0.26839 0.23248
#
# Static dielectric constant tensor:
#      x y z
#    x 1.679910 0.000000 -0.028110 
#    y 0.000000 1.631220 0.000000 
#    z -0.028110 0.000000 1.677750 
# 
# From -- ./inp_files/221230.got.cif
#   From: 2010.05.17/outbox.cif.g08.bks.cpg/sg12_111_cif.got.tgz:221230.got - 2010.06.03 13:09:07.
