data_PCOD9220124
_publ_section_title
;
Structure prediction by ZEFSAII (Michael W. Deem and Ramdas Pophale) SiO2 
 PCOD9220124
Probable space group: C 2/M
;
_chemical_formula_sum "Si O2"
_cell_formula_units_Z 48
_cell_length_a 16.912048
_cell_length_b 18.604055
_cell_length_c 19.212518
_cell_angle_alpha 90.000000
_cell_angle_beta 22.359976
_cell_angle_gamma 90.000000
_cell_volume 2299.622325
_symmetry_space_group_name_H-M "C 2/M"
_symmetry_group_IT_number 12
_symmetry_cell_setting 'monoclinic'
loop_
_space_group_symop_operation_xyz
x,y,z
-x,y,-z
-x,-y,-z
x,-y,z
1/2+x,1/2+y,z
1/2-x,1/2+y,-z
1/2-x,1/2-y,-z
1/2+x,1/2-y,z
loop_
_atom_site_type_symbol
_atom_site_label
_atom_site_fract_x
_atom_site_fract_y
_atom_site_fract_z
Si Si1 0.480177 0.680269 0.191442
Si Si2 0.227847 0.585290 0.661108
Si Si3 0.330491 0.417958 0.076302
Si Si4 0.500738 0.181764 0.580338
Si Si5 0.140988 0.673175 0.016205
Si Si6 0.360283 0.347763 0.701622
O O1 0.240859 0.679443 0.407420
O O2 0.638851 0.686279 0.126114
O O3 0.554228 0.613511 0.084994
O O4 0.520136 0.751346 0.112235
O O5 0.221354 0.500000 0.669584
O O6 0.423216 0.612168 0.457290
O O7 0.278224 0.619037 0.696341
O O8 0.007656 0.619596 0.820285
O O9 0.261816 0.500000 0.121773
O O10 0.143100 0.367135 0.254056
O O11 0.500000 0.416334 0.000000
O O12 0.500000 0.157045 0.500000
O O13 0.413644 0.263266 0.651540
O O14 0.194533 0.643267 0.897229
#
# Coordination Sequence:
#
# PCOD9220124 Si02
#       6
#     8   8   8   8   8   8
#     4  11  24  42  63  96 128 166 214 265 312 378
#     4  11  24  41  63  97 134 165 210 266 317 377
#     4  11  25  42  65  94 126 161 205 270 328 372
#     4  12  21  38  70  96 121 162 218 268 316 373
#     4  11  24  40  65  92 129 173 215 253 313 381
#     4  11  21  38  67  97 123 165 216 263 311 373
#
# _framework density 20.872993000000001
#
# number of rings (size 3 to 8) (size 9 to 14) (size 15 to 20)
#    0.000    0.833    6.667    1.500    0.000    5.667 
#    0.000    0.000    0.000    0.000    0.000    0.000 
#    0.000    0.000    0.000    0.000    0.000    0.000 
#
# Total GULP energy -134214.333344 kJ/mol
# GULP energy per Si atom -5592.263889 kJ/mol
# Density = 2.082549 g / cm^3
# Si number density = 20.872993 Si / 1000 Ang^3
#
#
#
# Elastic Constant Matrix: (Units=GPa)
#
#
# Indices 1 2 3 4 5 6 
#
# 1 6.3971 -8.6858 -1.5257 -0.0118 -8.8049 0.0060
# 2 -8.6858 142.1429 42.5321 -0.0256 -4.9062 0.0177
# 3 -1.5257 42.5321 131.3123 -0.0504 -19.4880 0.0053
# 4 -0.0118 -0.0256 -0.0504 29.4209 0.0221 -2.7588
# 5 -8.8049 -4.9062 -19.4880 0.0221 30.7055 0.0022
# 6 0.0060 0.0177 0.0053 -2.7588 0.0022 0.4185
#
#
#
# Elastic Compliance Matrix: (Units=1/GPa)
#
#
# Indices 1 2 3 4 5 6 
#
# 1 0.335555 0.020233 0.013365 -0.001320 0.107938 -0.015085
# 2 0.020233 0.009015 -0.001777 -0.000145 0.006114 -0.001634
# 3 0.013365 -0.001777 0.009796 -0.000037 0.009765 -0.000534
# 4 -0.001320 -0.000145 -0.000037 0.089002 -0.000530 0.586676
# 5 0.107938 0.006114 0.009765 -0.000530 0.070695 -0.005789
# 6 -0.015085 -0.001634 -0.000534 0.586676 -0.005789 6.256591
#
#
# Mechanical properties :
#
#
# Convention : Reuss Voigt Hill
#
# Bulk Modulus (GPa) = 2.39232 38.27708 20.33470
# Shear Modulus (GPa) = 0.73032 28.61110 14.67071
#
# Velocity S-wave (km/s) = 0.59215 3.70634 2.65402
# Velocity P-wave (km/s) = 1.27128 6.05755 4.37664
#
# Compressibility (1/GPa) = 0.41800507
#
# Stress axis : x y z
#
# Youngs Moduli (GPa) = 2.98014 110.93197 102.08578
#
# Poissons Ratio (x) = -2.24445 -1.36433
# Poissons Ratio (y) = -0.06030 0.18144
# Poissons Ratio (z) = -0.03983 0.19716
#
# Static dielectric constant tensor:
#      x y z
#    x 1.783240 0.000000 -0.036800 
#    y 0.000000 1.717130 0.000020 
#    z -0.036800 0.000020 1.745560 
# 
# From -- ./inp_files/317479.got.cif
#   From: 2010.05.17/outbox.cif.g08.bks.cpg/sg12_159_cif.got.tgz:317479.got - 2010.06.03 13:09:07.
