data_PCOD9220591
_publ_section_title
;
Structure prediction by ZEFSAII (Michael W. Deem and Ramdas Pophale) SiO2 
 PCOD9220591
Probable space group: C 2/M
;
_chemical_formula_sum "Si O2"
_cell_formula_units_Z 40
_cell_length_a 14.646861
_cell_length_b 8.360322
_cell_length_c 15.728859
_cell_angle_alpha 90.000000
_cell_angle_beta 98.327725
_cell_angle_gamma 90.000000
_cell_volume 1905.729214
_symmetry_space_group_name_H-M "C 2/M"
_symmetry_group_IT_number 12
_symmetry_cell_setting 'monoclinic'
loop_
_space_group_symop_operation_xyz
x,y,z
-x,y,-z
-x,-y,-z
x,-y,z
1/2+x,1/2+y,z
1/2-x,1/2+y,-z
1/2-x,1/2-y,-z
1/2+x,1/2-y,z
loop_
_atom_site_type_symbol
_atom_site_label
_atom_site_fract_x
_atom_site_fract_y
_atom_site_fract_z
Si Si1 0.794381 0.308191 0.689759
Si Si2 0.367632 0.814079 0.443362
Si Si3 0.601432 0.192808 0.986746
Si Si4 0.232066 0.807087 0.866992
Si Si5 0.536493 0.314563 0.377377
O O1 0.796929 0.500000 0.687416
O O2 0.728526 0.245091 0.606284
O O3 0.750642 0.255774 0.773260
O O4 0.896935 0.242509 0.688576
O O5 0.404460 0.713653 0.528251
O O6 0.444439 0.786715 0.380576
O O7 0.364372 0.000000 0.467332
O O8 0.679997 0.245964 0.064413
O O9 0.599468 0.000000 0.987867
O O10 0.500000 0.250532 0.000000
O O11 0.639900 0.246067 0.900426
O O12 0.229692 0.000000 0.867762
O O13 0.512047 0.500000 0.365372
#
# Coordination Sequence:
#
# PCOD9220591 Si02
#       5
#     8   8   8   8   8
#     4  11  22  37  55  80 115 150 186 229 276 326
#     4  11  22  38  58  81 109 146 190 233 279 326
#     4   9  18  35  58  81 107 141 178 218 268 325
#     4   9  20  36  54  80 111 141 177 222 269 322
#     4  11  22  38  58  82 111 146 187 229 278 332
#
# _framework density 20.989341
#
# number of rings (size 3 to 8) (size 9 to 14) (size 15 to 20)
#    0.000    1.800    0.000    6.000    0.000    3.600 
#    0.000    2.000    0.000    0.000    0.000    0.000 
#    0.000    0.000    0.000    0.000    0.000    0.000 
#
# Total GULP energy -111778.237696 kJ/mol
# GULP energy per Si atom -5588.911885 kJ/mol
# Density = 2.094157 g / cm^3
# Si number density = 20.989341 Si / 1000 Ang^3
#
#
#
# Elastic Constant Matrix: (Units=GPa)
#
#
# Indices 1 2 3 4 5 6 
#
# 1 115.0757 -3.9118 18.8614 0.0000 -35.6828 0.0000
# 2 -3.9118 36.7271 -1.2149 0.0000 -1.6148 0.0000
# 3 18.8614 -1.2149 51.4404 0.0000 -27.3896 0.0000
# 4 0.0000 0.0000 0.0000 22.2426 0.0000 -9.2177
# 5 -35.6828 -1.6148 -27.3896 0.0000 31.8519 0.0000
# 6 0.0000 0.0000 0.0000 -9.2177 0.0000 29.7275
#
#
#
# Elastic Compliance Matrix: (Units=1/GPa)
#
#
# Indices 1 2 3 4 5 6 
#
# 1 0.014533 0.002725 0.006415 0.000000 0.021935 0.000000
# 2 0.002725 0.027982 0.003767 0.000000 0.007710 0.000000
# 3 0.006415 0.003767 0.038929 0.000000 0.040853 0.000000
# 4 0.000000 0.000000 0.000000 0.051588 0.000000 0.015996
# 5 0.021935 0.007710 0.040853 0.000000 0.091489 0.000000
# 6 0.000000 0.000000 0.000000 0.015996 0.000000 0.038599
#
#
# Mechanical properties :
#
#
# Convention : Reuss Voigt Hill
#
# Bulk Modulus (GPa) = 9.32336 25.63473 17.47905
# Shear Modulus (GPa) = 18.31112 29.39829 23.85470
#
# Velocity S-wave (km/s) = 2.95685 3.74656 3.37488
# Velocity P-wave (km/s) = 4.01358 5.56375 4.85099
#
# Compressibility (1/GPa) = 0.10725741
#
# Stress axis : x y z
#
# Youngs Moduli (GPa) = 68.80996 35.73767 25.68776
#
# Poissons Ratio (x) = -0.09737 -0.16479
# Poissons Ratio (y) = -0.18748 -0.09677
# Poissons Ratio (z) = -0.44143 -0.13463
#
# Static dielectric constant tensor:
#      x y z
#    x 1.771680 0.000000 -0.024280 
#    y 0.000000 1.712290 0.000000 
#    z -0.024280 0.000000 1.777730 
# 
# From -- ./inp_files/211359.got.cif
#   From: 2010.05.17/outbox.cif.g08.bks.cpg/sg12_106_cif.got.tgz:211359.got - 2010.06.03 13:09:07.
