data_PCOD9220526
_publ_section_title
;
Structure prediction by ZEFSAII (Michael W. Deem and Ramdas Pophale) SiO2 
 PCOD9220526
Probable space group: C 2/M
;
_chemical_formula_sum "Si O2"
_cell_formula_units_Z 58
_cell_length_a 23.409272
_cell_length_b 9.461202
_cell_length_c 15.298581
_cell_angle_alpha 90.000000
_cell_angle_beta 75.619603
_cell_angle_gamma 90.000000
_cell_volume 3282.165011
_symmetry_space_group_name_H-M "C 2/M"
_symmetry_group_IT_number 12
_symmetry_cell_setting 'monoclinic'
loop_
_space_group_symop_operation_xyz
x,y,z
-x,y,-z
-x,-y,-z
x,-y,z
1/2+x,1/2+y,z
1/2-x,1/2+y,-z
1/2-x,1/2-y,-z
1/2+x,1/2-y,z
loop_
_atom_site_type_symbol
_atom_site_label
_atom_site_fract_x
_atom_site_fract_y
_atom_site_fract_z
Si Si1 0.166438 0.829975 0.717012
Si Si2 0.451662 0.329520 0.893870
Si Si3 0.897469 0.235470 0.563419
Si Si4 0.557446 0.837339 0.273478
Si Si5 0.236846 0.164340 0.415865
Si Si6 0.000000 0.000000 0.500000
Si Si7 0.082705 0.829131 0.903164
Si Si8 0.920139 0.342171 0.369092
O O1 0.225375 0.745157 0.672132
O O2 0.137021 0.790199 0.821006
O O3 0.119084 0.776278 0.663063
O O4 0.173859 0.000000 0.708796
O O5 0.450181 0.500000 0.888033
O O6 0.428890 0.261436 0.813887
O O7 0.520226 0.286006 0.883591
O O8 0.417984 0.285050 0.995379
O O9 0.904947 0.306642 0.654695
O O10 0.832290 0.172723 0.577963
O O11 0.949065 0.121227 0.534676
O O12 0.907231 0.337086 0.476805
O O13 0.488881 0.813339 0.325642
O O14 0.563619 0.000000 0.245018
O O15 0.250000 0.250000 0.500000
O O16 0.254549 0.000000 0.418054
O O17 0.080913 0.000000 0.904798
O O18 0.906411 0.500000 0.340305
#
# Coordination Sequence:
#
# PCOD9220526 Si02
#       8
#     8   8   8   8   8   2   8   8
#     4  11  22  36  60  85 118 159 198 241 293 356
#     4   9  17  32  58  84 115 150 195 249 298 359
#     4  12  25  40  61  81 121 156 206 244 298 350
#     4  11  23  36  54  86 122 155 192 245 311 358
#     4  12  26  41  59  87 120 159 202 246 294 353
#     4  12  24  40  62  92 108 158 210 260 280 352
#     4   8  16  33  55  85 115 152 195 242 301 359
#     4  11  22  36  55  82 118 160 197 238 295 356
#
# _framework density 17.671261999999999
#
# number of rings (size 3 to 8) (size 9 to 14) (size 15 to 20)
#    0.000    1.379    4.828    2.069    1.931    2.759 
#    0.000    2.759    0.000    0.828    0.000    0.000 
#    0.000    0.000    0.000    0.000    0.000    0.000 
#
# Total GULP energy -161557.821897 kJ/mol
# GULP energy per Si atom -5570.959376 kJ/mol
# Density = 1.763104 g / cm^3
# Si number density = 17.671262 Si / 1000 Ang^3
#
#
#
# Elastic Constant Matrix: (Units=GPa)
#
#
# Indices 1 2 3 4 5 6 
#
# 1 80.0188 32.9294 40.1311 0.0000 -13.1924 0.0000
# 2 32.9294 86.3681 39.1139 0.0000 -10.0933 0.0000
# 3 40.1311 39.1139 139.4718 0.0000 -11.2957 0.0000
# 4 0.0000 0.0000 0.0000 19.6831 0.0000 -10.0379
# 5 -13.1924 -10.0933 -11.2957 0.0000 28.4142 0.0000
# 6 0.0000 0.0000 0.0000 -10.0379 0.0000 14.2379
#
#
#
# Elastic Compliance Matrix: (Units=1/GPa)
#
#
# Indices 1 2 3 4 5 6 
#
# 1 0.016698 -0.004346 -0.003185 0.000000 0.004942 0.000000
# 2 -0.004346 0.014708 -0.002701 0.000000 0.002133 0.000000
# 3 -0.003185 -0.002701 0.008934 0.000000 0.001113 0.000000
# 4 0.000000 0.000000 0.000000 0.079325 0.000000 0.055925
# 5 0.004942 0.002133 0.001113 0.000000 0.038688 0.000000
# 6 0.000000 0.000000 0.000000 0.055925 0.000000 0.109663
#
#
# Mechanical properties :
#
#
# Convention : Reuss Voigt Hill
#
# Bulk Modulus (GPa) = 50.31690 58.91196 54.61443
# Shear Modulus (GPa) = 16.94294 25.37932 21.16113
#
# Velocity S-wave (km/s) = 3.09978 3.79382 3.46423
# Velocity P-wave (km/s) = 6.43018 7.25265 6.85376
#
# Compressibility (1/GPa) = 0.01987404
#
# Stress axis : x y z
#
# Youngs Moduli (GPa) = 59.88718 67.98971 111.92880
#
# Poissons Ratio (x) = 0.29550 0.35655
# Poissons Ratio (y) = 0.26028 0.30237
# Poissons Ratio (z) = 0.19077 0.18367
#
# Static dielectric constant tensor:
#      x y z
#    x 1.597180 0.000000 -0.007390 
#    y 0.000000 1.600880 0.000000 
#    z -0.007390 0.000000 1.619350 
# 
# From -- ./inp_files/237563.got.cif
#   From: 2010.05.17/outbox.cif.g08.bks.cpg/sg12_119_cif.got.tgz:237563.got - 2010.06.03 13:09:07.
