data_PCOD9220856
_publ_section_title
;
Structure prediction by ZEFSAII (Michael W. Deem and Ramdas Pophale) SiO2 
 PCOD9220856
Probable space group: C 2/M
;
_chemical_formula_sum "Si O2"
_cell_formula_units_Z 40
_cell_length_a 21.199057
_cell_length_b 8.533071
_cell_length_c 10.186524
_cell_angle_alpha 90.000000
_cell_angle_beta 100.689891
_cell_angle_gamma 90.000000
_cell_volume 1810.692912
_symmetry_space_group_name_H-M "C 2/M"
_symmetry_group_IT_number 12
_symmetry_cell_setting 'monoclinic'
loop_
_space_group_symop_operation_xyz
x,y,z
-x,y,-z
-x,-y,-z
x,-y,z
1/2+x,1/2+y,z
1/2-x,1/2+y,-z
1/2-x,1/2-y,-z
1/2+x,1/2-y,z
loop_
_atom_site_type_symbol
_atom_site_label
_atom_site_fract_x
_atom_site_fract_y
_atom_site_fract_z
Si Si1 0.095030 0.315447 0.125810
Si Si2 0.803344 0.186204 0.421732
Si Si3 0.736182 0.312811 0.141334
Si Si4 0.535182 0.681967 0.843495
Si Si5 0.430055 0.180919 0.409948
O O1 0.098710 0.500000 0.155771
O O2 0.164683 0.237910 0.158064
O O3 0.039207 0.234819 0.189942
O O4 0.069299 0.285865 0.967728
O O5 0.750000 0.250000 0.500000
O O6 0.783603 0.240183 0.267638
O O7 0.872439 0.261090 0.478522
O O8 0.806236 0.000000 0.430534
O O9 0.741779 0.500000 0.143423
O O10 0.750000 0.250000 0.000000
O O11 0.539903 0.500000 0.882492
O O12 0.567985 0.712932 0.718212
O O13 0.500000 0.191637 0.500000
O O14 0.418828 0.000000 0.368812
#
# Coordination Sequence:
#
# PCOD9220856 Si02
#       5
#     8   8   8   8   8
#     4  11  22  39  64  95 131 172 219 273 335 398
#     4  12  27  48  72 102 141 183 231 285 345 411
#     4  12  25  44  69  99 135 178 228 281 343 410
#     4  11  22  39  63  95 133 171 220 275 334 396
#     4  11  25  45  69  96 132 177 227 277 333 400
#
# _framework density 22.090989
#
# number of rings (size 3 to 8) (size 9 to 14) (size 15 to 20)
#    0.000    0.600    0.000   10.200    2.800    1.600 
#    0.000    0.000    0.000    0.000    0.000    0.000 
#    0.000    0.000    0.000    0.000    0.000    0.000 
#
# Total GULP energy -112053.113156 kJ/mol
# GULP energy per Si atom -5602.655658 kJ/mol
# Density = 2.204071 g / cm^3
# Si number density = 22.090989 Si / 1000 Ang^3
#
#
#
# Elastic Constant Matrix: (Units=GPa)
#
#
# Indices 1 2 3 4 5 6 
#
# 1 139.7330 25.7909 7.5264 0.0000 -14.8448 0.0000
# 2 25.7909 121.3646 3.1997 0.0000 -0.0600 0.0000
# 3 7.5264 3.1997 54.4558 0.0000 -12.6234 0.0000
# 4 0.0000 0.0000 0.0000 30.2607 0.0000 -4.6346
# 5 -14.8448 -0.0600 -12.6234 0.0000 32.5573 0.0000
# 6 0.0000 0.0000 0.0000 -4.6346 0.0000 38.4546
#
#
#
# Elastic Compliance Matrix: (Units=1/GPa)
#
#
# Indices 1 2 3 4 5 6 
#
# 1 0.007845 -0.001661 -0.000174 0.000000 0.003507 0.000000
# 2 -0.001661 0.008605 -0.000492 0.000000 -0.000932 0.000000
# 3 -0.000174 -0.000492 0.020215 0.000000 0.007758 0.000000
# 4 0.000000 0.000000 0.000000 0.033668 0.000000 0.004058
# 5 0.003507 -0.000932 0.007758 0.000000 0.035320 0.000000
# 6 0.000000 0.000000 0.000000 0.004058 0.000000 0.026494
#
#
# Mechanical properties :
#
#
# Convention : Reuss Voigt Hill
#
# Bulk Modulus (GPa) = 31.23906 43.17636 37.20771
# Shear Modulus (GPa) = 33.90516 38.85695 36.38105
#
# Velocity S-wave (km/s) = 3.92190 4.19853 4.06257
# Velocity P-wave (km/s) = 5.88899 6.56436 6.23582
#
# Compressibility (1/GPa) = 0.03201121
#
# Stress axis : x y z
#
# Youngs Moduli (GPa) = 127.47087 116.21044 49.46877
#
# Poissons Ratio (x) = 0.19300 0.00860
# Poissons Ratio (y) = 0.21170 0.02435
# Poissons Ratio (z) = 0.02216 0.05720
#
# Static dielectric constant tensor:
#      x y z
#    x 1.844960 0.000000 0.003300 
#    y 0.000000 1.731470 0.000000 
#    z 0.003300 0.000000 1.814120 
# 
# From -- ./inp_files/162511.got.cif
#   From: 2010.05.17/outbox.cif.g08.bks.cpg/sg12_82_cif.got.tgz:162511.got - 2010.06.03 13:09:07.
