data_PCOD9220144
_publ_section_title
;
Structure prediction by ZEFSAII (Michael W. Deem and Ramdas Pophale) SiO2 
 PCOD9220144
Probable space group: C 2/M
;
_chemical_formula_sum "Si O2"
_cell_formula_units_Z 42
_cell_length_a 14.085194
_cell_length_b 15.900162
_cell_length_c 9.003338
_cell_angle_alpha 90.000000
_cell_angle_beta 122.395903
_cell_angle_gamma 90.000000
_cell_volume 1702.545773
_symmetry_space_group_name_H-M "C 2/M"
_symmetry_group_IT_number 12
_symmetry_cell_setting 'monoclinic'
loop_
_space_group_symop_operation_xyz
x,y,z
-x,y,-z
-x,-y,-z
x,-y,z
1/2+x,1/2+y,z
1/2-x,1/2+y,-z
1/2-x,1/2-y,-z
1/2+x,1/2-y,z
loop_
_atom_site_type_symbol
_atom_site_label
_atom_site_fract_x
_atom_site_fract_y
_atom_site_fract_z
Si Si1 0.084372 0.500000 0.858620
Si Si2 0.560386 0.358808 0.802917
Si Si3 0.697754 0.841561 0.444793
Si Si4 0.047760 0.674885 0.705280
Si Si5 0.656314 0.598190 0.191507
Si Si6 0.177498 0.500000 0.259528
Si Si7 0.500000 0.500000 0.500000
O O1 0.106466 0.587564 0.795262
O O2 0.948822 0.500000 0.776507
O O3 0.155808 0.500000 0.068271
O O4 0.597718 0.266808 0.776230
O O5 0.440317 0.357024 0.790448
O O6 0.542440 0.425777 0.656316
O O7 0.642883 0.382388 0.007421
O O8 0.750000 0.750000 0.500000
O O9 0.568144 0.828370 0.296704
O O10 0.727593 0.879312 0.630968
O O11 0.739106 0.915731 0.368903
O O12 0.000000 0.674017 0.500000
O O13 0.634576 0.500000 0.192562
#
# Coordination Sequence:
#
# PCOD9220144 Si02
#       7
#     4   8   8   8   8   4   2
#     4   9  21  38  60  83 115 155 212 242 286 356
#     4  11  22  36  65  90 120 161 200 242 300 366
#     4  11  22  37  63  89 118 153 201 251 295 351
#     4  11  23  40  62  86 119 163 197 247 304 362
#     4  11  21  39  61  91 120 156 205 248 292 355
#     4   9  20  36  60  91 113 152 202 258 290 335
#     4  12  20  38  60  92 124 156 194 240 304 366
#
# _framework density 24.668941
#
# number of rings (size 3 to 8) (size 9 to 14) (size 15 to 20)
#    0.000    1.333    5.714    0.857    2.667    1.524 
#    0.000    0.952    8.381    0.000    0.000    0.000 
#    0.000    0.000    0.000    0.000    0.000    0.000 
#
# Total GULP energy -117080.833997 kJ/mol
# GULP energy per Si atom -5575.277809 kJ/mol
# Density = 2.461279 g / cm^3
# Si number density = 24.668941 Si / 1000 Ang^3
#
#
#
# Elastic Constant Matrix: (Units=GPa)
#
#
# Indices 1 2 3 4 5 6 
#
# 1 55.3572 11.1508 9.0747 0.0000 4.0778 0.0000
# 2 11.1508 269.6685 97.3502 0.0000 -23.8494 0.0000
# 3 9.0747 97.3502 160.6166 0.0000 -16.3575 0.0000
# 4 0.0000 0.0000 0.0000 37.5721 0.0000 14.0124
# 5 4.0778 -23.8494 -16.3575 0.0000 33.7828 0.0000
# 6 0.0000 0.0000 0.0000 14.0124 0.0000 -19.2333
#
#
#
# Elastic Compliance Matrix: (Units=1/GPa)
#
#
# Indices 1 2 3 4 5 6 
#
# 1 0.018599 -0.000711 -0.000946 0.000000 -0.003205 0.000000
# 2 -0.000711 0.004914 -0.002710 0.000000 0.002243 0.000000
# 3 -0.000946 -0.002710 0.008140 0.000000 0.002143 0.000000
# 4 0.000000 0.000000 0.000000 0.020929 0.000000 0.015248
# 5 -0.003205 0.002243 0.002143 0.000000 0.032609 0.000000
# 6 0.000000 0.000000 0.000000 0.015248 0.000000 -0.040885
#
#
# Mechanical properties :
#
#
# Convention : Reuss Voigt Hill
#
# Bulk Modulus (GPa) = 43.63201 80.08820 61.86010
# Shear Modulus (GPa) = 82.39856 34.96208 58.68032
#
# Velocity S-wave (km/s) = 5.78569 3.76872 4.88250
# Velocity P-wave (km/s) = 7.89669 7.17449 7.54424
#
# Compressibility (1/GPa) = 0.02291896
#
# Stress axis : x y z
#
# Youngs Moduli (GPa) = 53.76657 203.48656 122.84691
#
# Poissons Ratio (x) = 0.14466 0.11626
# Poissons Ratio (y) = 0.03822 0.33291
# Poissons Ratio (z) = 0.05088 0.55145
#
# Static dielectric constant tensor:
#      x y z
#    x 1.414540 0.000000 0.049320 
#    y 0.000000 1.748030 0.000000 
#    z 0.049320 0.000000 1.882350 
# 
# From -- ./inp_files/73778.got.cif
#   From: 2010.05.17/outbox.cif.g08.bks.cpg/sg12_37_cif.got.tgz:73778.got - 2010.06.03 13:09:07.
