data_PCOD9220901
_publ_section_title
;
Structure prediction by ZEFSAII (Michael W. Deem and Ramdas Pophale) SiO2 
 PCOD9220901
Probable space group: C 2/M
;
_chemical_formula_sum "Si O2"
_cell_formula_units_Z 48
_cell_length_a 16.764432
_cell_length_b 17.966994
_cell_length_c 13.052173
_cell_angle_alpha 90.000000
_cell_angle_beta 37.704694
_cell_angle_gamma 90.000000
_cell_volume 2404.411432
_symmetry_space_group_name_H-M "C 2/M"
_symmetry_group_IT_number 12
_symmetry_cell_setting 'monoclinic'
loop_
_space_group_symop_operation_xyz
x,y,z
-x,y,-z
-x,-y,-z
x,-y,z
1/2+x,1/2+y,z
1/2-x,1/2+y,-z
1/2-x,1/2-y,-z
1/2+x,1/2-y,z
loop_
_atom_site_type_symbol
_atom_site_label
_atom_site_fract_x
_atom_site_fract_y
_atom_site_fract_z
Si Si1 0.656285 0.087759 0.363891
Si Si2 0.904688 0.917993 0.499826
Si Si3 0.203435 0.775596 0.884219
Si Si4 0.625098 0.850117 0.815075
Si Si5 0.651355 0.184211 0.562310
Si Si6 0.561557 0.293544 0.237163
O O1 0.500000 0.091722 0.500000
O O2 0.730361 0.146368 0.214282
O O3 0.690816 0.120945 0.441948
O O4 0.692157 0.000000 0.317718
O O5 0.764051 0.890391 0.679781
O O6 0.000000 0.918314 0.500000
O O7 0.976704 0.865722 0.346051
O O8 0.890104 0.000000 0.471855
O O9 0.148652 0.731404 0.841777
O O10 0.308237 0.719117 0.829538
O O11 0.098270 0.788065 0.080664
O O12 0.598278 0.848783 0.721851
O O13 0.500000 0.882972 0.000000
O O14 0.750000 0.250000 0.500000
O O15 0.533167 0.227745 0.630244
#
# Coordination Sequence:
#
# PCOD9220901 Si02
#       6
#     8   8   8   8   8   8
#     4  11  24  42  64  94 133 173 215 273 343 398
#     4  11  24  42  64  91 130 179 219 263 328 398
#     4  11  22  39  68  95 128 166 220 278 322 387
#     4  12  24  40  66  99 129 166 218 277 328 385
#     4  12  22  37  67  94 122 165 217 265 319 392
#     4  11  22  39  66  97 121 168 228 267 315 393
#
# _framework density 19.963304999999998
#
# number of rings (size 3 to 8) (size 9 to 14) (size 15 to 20)
#    0.000    0.667    8.333    0.000    0.000    1.667 
#    0.000    0.000    0.000    1.500    0.000    0.000 
#    0.000    0.000    0.000    0.000    0.000    0.000 
#
# Total GULP energy -133871.624756 kJ/mol
# GULP energy per Si atom -5577.984365 kJ/mol
# Density = 1.991787 g / cm^3
# Si number density = 19.963305 Si / 1000 Ang^3
#
#
#
# Elastic Constant Matrix: (Units=GPa)
#
#
# Indices 1 2 3 4 5 6 
#
# 1 49.0337 24.4806 16.9229 0.0000 -4.2949 0.0002
# 2 24.4806 134.3115 62.9227 0.0000 -4.2215 0.0001
# 3 16.9229 62.9227 110.0328 -0.0001 -11.1790 0.0001
# 4 0.0000 0.0000 -0.0001 54.0410 0.0000 73.1403
# 5 -4.2949 -4.2215 -11.1790 0.0000 37.5769 -0.0002
# 6 0.0002 0.0001 0.0001 73.1403 -0.0002 112.8555
#
#
#
# Elastic Compliance Matrix: (Units=1/GPa)
#
#
# Indices 1 2 3 4 5 6 
#
# 1 0.022742 -0.003464 -0.001333 0.000000 0.001814 0.000000
# 2 -0.003464 0.010711 -0.005682 0.000000 -0.000883 0.000000
# 3 -0.001333 -0.005682 0.012851 0.000000 0.003032 0.000000
# 4 0.000000 0.000000 0.000000 0.150612 0.000000 -0.097610
# 5 0.001814 -0.000883 0.003032 0.000000 0.027622 0.000000
# 6 0.000000 0.000000 0.000000 -0.097610 0.000000 0.072121
#
#
# Mechanical properties :
#
#
# Convention : Reuss Voigt Hill
#
# Bulk Modulus (GPa) = 39.45291 55.78114 47.61703
# Shear Modulus (GPa) = 15.33439 53.49814 34.41627
#
# Velocity S-wave (km/s) = 2.77452 5.18232 4.15658
# Velocity P-wave (km/s) = 5.48357 7.98818 6.85130
#
# Compressibility (1/GPa) = 0.02534667
#
# Stress axis : x y z
#
# Youngs Moduli (GPa) = 43.97090 93.36256 77.81767
#
# Poissons Ratio (x) = 0.32339 0.10370
# Poissons Ratio (y) = 0.15231 0.44217
# Poissons Ratio (z) = 0.05860 0.53049
#
# Static dielectric constant tensor:
#      x y z
#    x 1.792250 0.000000 -0.016860 
#    y 0.000000 1.719710 0.000000 
#    z -0.016860 0.000000 1.696710 
# 
# From -- ./inp_files/159118.got.cif
#   From: 2010.05.17/outbox.cif.g08.bks.cpg/sg12_80_cif.got.tgz:159118.got - 2010.06.03 13:09:07.
