data_PCOD9220588
_publ_section_title
;
Structure prediction by ZEFSAII (Michael W. Deem and Ramdas Pophale) SiO2 
 PCOD9220588
Probable space group: C 2/M
;
_chemical_formula_sum "Si O2"
_cell_formula_units_Z 40
_cell_length_a 30.862500
_cell_length_b 8.813382
_cell_length_c 29.221381
_cell_angle_alpha 90.000000
_cell_angle_beta 161.959926
_cell_angle_gamma 90.000000
_cell_volume 2461.447352
_symmetry_space_group_name_H-M "C 2/M"
_symmetry_group_IT_number 12
_symmetry_cell_setting 'monoclinic'
loop_
_space_group_symop_operation_xyz
x,y,z
-x,y,-z
-x,-y,-z
x,-y,z
1/2+x,1/2+y,z
1/2-x,1/2+y,-z
1/2-x,1/2-y,-z
1/2+x,1/2-y,z
loop_
_atom_site_type_symbol
_atom_site_label
_atom_site_fract_x
_atom_site_fract_y
_atom_site_fract_z
Si Si1 0.154974 0.680280 0.944666
Si Si2 0.653778 0.317147 0.363445
Si Si3 0.660342 0.177514 0.793836
Si Si4 0.348985 0.821495 0.477124
Si Si5 0.509961 0.319405 0.562794
O O1 0.147373 0.500000 0.931896
O O2 0.001304 0.751831 0.789006
O O3 0.250000 0.750000 0.000000
O O4 0.231132 0.726322 0.068373
O O5 0.651966 0.500000 0.364584
O O6 0.750000 0.250000 0.500000
O O7 0.727236 0.275104 0.388951
O O8 0.501941 0.194384 0.655199
O O9 0.633145 0.236324 0.714939
O O10 0.696899 0.000000 0.831522
O O11 0.373067 0.728776 0.454720
O O12 0.334501 0.000000 0.451665
O O13 0.500000 0.274067 0.500000
O O14 0.528631 0.500000 0.584165
#
# Coordination Sequence:
#
# PCOD9220588 Si02
#       5
#     8   8   8   8   8
#     4  12  24  37  54  77 107 144 183 223 271 323
#     4  11  22  37  55  77 108 144 182 224 269 321
#     4   9  18  34  54  78 106 138 178 220 266 317
#     4   8  18  33  52  76 105 138 177 217 263 318
#     4   9  17  30  53  83 111 140 177 221 269 318
#
# _framework density 16.250601
#
# number of rings (size 3 to 8) (size 9 to 14) (size 15 to 20)
#    1.200    1.000    0.000    4.200    0.000    4.800 
#    0.000    0.000    0.000    1.200    0.000    8.400 
#    0.000    0.000    0.000    0.000    0.000    0.000 
#
# Total GULP energy -111354.850727 kJ/mol
# GULP energy per Si atom -5567.742536 kJ/mol
# Density = 1.621361 g / cm^3
# Si number density = 16.250601 Si / 1000 Ang^3
#
#
#
# Elastic Constant Matrix: (Units=GPa)
#
#
# Indices 1 2 3 4 5 6 
#
# 1 119.3793 51.7278 62.1639 0.0000 -0.9342 0.0000
# 2 51.7278 82.1847 41.3436 0.0000 2.8337 0.0000
# 3 62.1639 41.3436 95.4533 -0.0006 1.6134 -0.0003
# 4 0.0000 0.0000 -0.0006 28.6849 -0.0004 -1.4344
# 5 -0.9342 2.8337 1.6134 -0.0004 24.2569 -0.0002
# 6 0.0000 0.0000 -0.0003 -1.4344 -0.0002 26.3513
#
#
#
# Elastic Compliance Matrix: (Units=1/GPa)
#
#
# Indices 1 2 3 4 5 6 
#
# 1 0.014493 -0.005648 -0.007021 0.000000 0.001685 0.000000
# 2 -0.005648 0.017805 -0.003999 0.000000 -0.002032 0.000000
# 3 -0.007021 -0.003999 0.016796 0.000000 -0.000920 0.000000
# 4 0.000000 0.000000 0.000000 0.034957 0.000001 0.001903
# 5 0.001685 -0.002032 -0.000920 0.000001 0.041589 0.000000
# 6 0.000000 0.000000 0.000000 0.001903 0.000000 0.038052
#
#
# Mechanical properties :
#
#
# Convention : Reuss Voigt Hill
#
# Bulk Modulus (GPa) = 63.45966 67.49866 65.47916
# Shear Modulus (GPa) = 24.71817 25.31073 25.01445
#
# Velocity S-wave (km/s) = 3.90431 3.95083 3.92764
# Velocity P-wave (km/s) = 7.71105 7.90180 7.80700
#
# Compressibility (1/GPa) = 0.01575804
#
# Stress axis : x y z
#
# Youngs Moduli (GPa) = 68.99783 56.16527 59.53772
#
# Poissons Ratio (x) = 0.31725 0.41799
# Poissons Ratio (y) = 0.38973 0.23808
# Poissons Ratio (z) = 0.48441 0.22459
#
# Static dielectric constant tensor:
#      x y z
#    x 1.548880 0.000000 0.000320 
#    y 0.000000 1.538330 0.000000 
#    z 0.000320 0.000000 1.534260 
# 
# From -- ./inp_files/370472.got.cif
#   From: 2010.05.17/outbox.cif.g08.bks.cpg/sg12_186_cif.got.tgz:370472.got - 2010.06.03 13:09:07.
