data_PCOD9220602
_publ_section_title
;
Structure prediction by ZEFSAII (Michael W. Deem and Ramdas Pophale) SiO2 
 PCOD9220602
Probable space group: C 2/M
;
_chemical_formula_sum "Si O2"
_cell_formula_units_Z 48
_cell_length_a 10.749278
_cell_length_b 27.729804
_cell_length_c 8.095067
_cell_angle_alpha 90.000000
_cell_angle_beta 91.967410
_cell_angle_gamma 90.000000
_cell_volume 2411.517719
_symmetry_space_group_name_H-M "C 2/M"
_symmetry_group_IT_number 12
_symmetry_cell_setting 'monoclinic'
loop_
_space_group_symop_operation_xyz
x,y,z
-x,y,-z
-x,-y,-z
x,-y,z
1/2+x,1/2+y,z
1/2-x,1/2+y,-z
1/2-x,1/2-y,-z
1/2+x,1/2-y,z
loop_
_atom_site_type_symbol
_atom_site_label
_atom_site_fract_x
_atom_site_fract_y
_atom_site_fract_z
Si Si1 0.523724 0.731466 0.309889
Si Si2 0.286009 0.780918 0.159613
Si Si3 0.228287 0.057404 0.814392
Si Si4 0.496289 0.377180 0.201690
Si Si5 0.740012 0.894176 0.828509
Si Si6 0.500650 0.943828 0.798570
O O1 0.500000 0.738675 0.500000
O O2 0.426896 0.767322 0.215621
O O3 0.671685 0.732933 0.277908
O O4 0.481130 0.677672 0.255979
O O5 0.276545 0.838040 0.125448
O O6 0.250000 0.750000 0.000000
O O7 0.113935 0.088584 0.745036
O O8 0.361370 0.069590 0.739519
O O9 0.209234 0.000000 0.803483
O O10 0.240798 0.072875 0.007967
O O11 0.631242 0.395974 0.264593
O O12 0.500000 0.377251 0.000000
O O13 0.614419 0.912566 0.738539
O O14 0.521512 0.000000 0.762601
O O15 0.500000 0.939079 0.000000
#
# Coordination Sequence:
#
# PCOD9220602 Si02
#       6
#     8   8   8   8   8   8
#     4  11  23  39  56  78 111 148 185 228 278 332
#     4  11  22  37  57  82 109 142 186 232 279 330
#     4   9  16  26  44  73 105 134 168 215 270 321
#     4   9  18  32  49  73 102 134 174 220 268 317
#     4   9  17  27  43  69 100 130 166 211 264 315
#     4   8  14  24  38  63  99 130 156 197 256 314
#
# _framework density 19.904477
#
# number of rings (size 3 to 8) (size 9 to 14) (size 15 to 20)
#    0.000    2.500    0.000    5.500    0.000    9.000 
#    0.000    0.000    0.000    0.500    0.000    0.000 
#    0.000   13.333    0.000    0.000    0.000    0.167 
#
# Total GULP energy -133759.113846 kJ/mol
# GULP energy per Si atom -5573.296410 kJ/mol
# Density = 1.985917 g / cm^3
# Si number density = 19.904477 Si / 1000 Ang^3
#
#
#
# Elastic Constant Matrix: (Units=GPa)
#
#
# Indices 1 2 3 4 5 6 
#
# 1 117.1190 58.3900 -17.8887 0.0000 9.0152 0.0000
# 2 58.3900 52.3507 -11.7264 0.0000 5.1706 0.0000
# 3 -17.8887 -11.7264 17.8867 0.0000 -2.0257 0.0000
# 4 0.0000 0.0000 0.0000 -6.0829 0.0000 -7.4932
# 5 9.0152 5.1706 -2.0257 0.0000 10.0627 0.0000
# 6 0.0000 0.0000 0.0000 -7.4932 0.0000 39.8990
#
#
#
# Elastic Compliance Matrix: (Units=1/GPa)
#
#
# Indices 1 2 3 4 5 6 
#
# 1 0.020183 -0.020543 0.006002 0.000000 -0.006318 0.000000
# 2 -0.020543 0.044078 0.008055 0.000000 -0.002623 0.000000
# 3 0.006002 0.008055 0.067656 0.000000 0.004103 0.000000
# 4 0.000000 0.000000 0.000000 -0.133509 0.000000 -0.025074
# 5 -0.006318 -0.002623 0.004103 0.000000 0.107211 0.000000
# 6 0.000000 0.000000 0.000000 -0.025074 0.000000 0.020354
#
#
# Mechanical properties :
#
#
# Convention : Reuss Voigt Hill
#
# Bulk Modulus (GPa) = 8.40724 27.21178 17.80951
# Shear Modulus (GPa) = 27.99637 19.34787 23.67212
#
# Velocity S-wave (km/s) = 3.75445 3.12113 3.45234
# Velocity P-wave (km/s) = 4.79870 5.16619 4.98583
#
# Compressibility (1/GPa) = 0.11894511
#
# Stress axis : x y z
#
# Youngs Moduli (GPa) = 49.54597 22.68683 14.78071
#
# Poissons Ratio (x) = 0.46606 -0.08871
# Poissons Ratio (y) = 1.01783 -0.11906
# Poissons Ratio (z) = -0.29738 -0.18274
#
# Static dielectric constant tensor:
#      x y z
#    x 1.809750 0.000000 0.019370 
#    y 0.000000 1.662470 0.000000 
#    z 0.019370 0.000000 1.700640 
# 
# From -- ./inp_files/50690.got.cif
#   From: 2010.05.17/outbox.cif.g08.bks.cpg/sg12_26_cif.got.tgz:50690.got - 2010.06.03 13:09:07.
