data_PCOD9220343
_publ_section_title
;
Structure prediction by ZEFSAII (Michael W. Deem and Ramdas Pophale) SiO2 
 PCOD9220343
Probable space group: C 2/M
;
_chemical_formula_sum "Si O2"
_cell_formula_units_Z 56
_cell_length_a 17.534721
_cell_length_b 15.060262
_cell_length_c 11.483347
_cell_angle_alpha 90.000000
_cell_angle_beta 119.148297
_cell_angle_gamma 90.000000
_cell_volume 2648.464450
_symmetry_space_group_name_H-M "C 2/M"
_symmetry_group_IT_number 12
_symmetry_cell_setting 'monoclinic'
loop_
_space_group_symop_operation_xyz
x,y,z
-x,y,-z
-x,-y,-z
x,-y,z
1/2+x,1/2+y,z
1/2-x,1/2+y,-z
1/2-x,1/2-y,-z
1/2+x,1/2-y,z
loop_
_atom_site_type_symbol
_atom_site_label
_atom_site_fract_x
_atom_site_fract_y
_atom_site_fract_z
Si Si1 0.626295 0.902254 0.929774
Si Si2 0.543140 0.836390 0.645157
Si Si3 0.374564 0.772106 0.661526
Si Si4 0.830625 0.099628 0.067061
Si Si5 0.711511 0.397208 0.511556
Si Si6 0.407831 0.357833 0.369860
Si Si7 0.406679 0.263483 0.949157
O O1 0.605196 0.890407 0.777186
O O2 0.597945 0.000000 0.945593
O O3 0.729521 0.892385 0.028675
O O4 0.579750 0.824865 0.965166
O O5 0.500000 0.881735 0.500000
O O6 0.465095 0.799480 0.668909
O O7 0.592837 0.749545 0.632855
O O8 0.350459 0.672754 0.601506
O O9 0.304323 0.847371 0.574739
O O10 0.372964 0.765515 0.799132
O O11 0.892742 0.113955 0.225331
O O12 0.843790 0.000000 0.032084
O O13 0.847620 0.172059 0.981299
O O14 0.713740 0.500000 0.474121
O O15 0.671014 0.394679 0.611361
O O16 0.500000 0.383756 0.500000
O O17 0.500000 0.309192 0.000000
#
# Coordination Sequence:
#
# PCOD9220343 Si02
#       7
#     8   8   8   8   8   8   8
#     4  11  25  44  69 100 132 176 229 274 326 395
#     4  11  22  44  70  96 129 174 224 275 332 394
#     4  11  24  44  65  98 136 176 217 266 340 396
#     4  11  25  42  66 100 134 176 222 272 335 401
#     4  11  25  42  68 101 134 173 220 276 330 393
#     4  11  21  42  69  99 127 171 225 275 327 388
#     4  12  24  42  66  94 133 176 219 272 331 389
#
# _framework density 21.144328000000002
#
# number of rings (size 3 to 8) (size 9 to 14) (size 15 to 20)
#    0.000    0.857    5.714    1.714    2.000    4.857 
#    0.000    1.429    0.000    0.000    0.000    0.000 
#    0.000    0.000    0.000    0.000    0.000    0.000 
#
# Total GULP energy -156416.844255 kJ/mol
# GULP energy per Si atom -5586.315866 kJ/mol
# Density = 2.109620 g / cm^3
# Si number density = 21.144328 Si / 1000 Ang^3
#
#
#
# Elastic Constant Matrix: (Units=GPa)
#
#
# Indices 1 2 3 4 5 6 
#
# 1 39.0847 26.8833 12.3081 0.0000 0.4106 0.0000
# 2 26.8833 102.5094 14.5861 0.0000 -3.2124 0.0000
# 3 12.3081 14.5861 115.5733 0.0000 -8.4269 0.0000
# 4 0.0000 0.0000 0.0000 11.6234 0.0000 31.0913
# 5 0.4106 -3.2124 -8.4269 0.0000 33.0740 0.0000
# 6 0.0000 0.0000 0.0000 31.0913 0.0000 72.2391
#
#
#
# Elastic Compliance Matrix: (Units=1/GPa)
#
#
# Indices 1 2 3 4 5 6 
#
# 1 0.031954 -0.008079 -0.002516 0.000000 -0.001823 0.000000
# 2 -0.008079 0.011990 -0.000571 0.000000 0.001119 0.000000
# 3 -0.002516 -0.000571 0.009161 0.000000 0.002310 0.000000
# 4 0.000000 0.000000 0.000000 -0.568786 0.000000 0.244803
# 5 -0.001823 0.001119 0.002310 0.000000 0.030955 0.000000
# 6 0.000000 0.000000 0.000000 0.244803 0.000000 -0.091519
#
#
# Mechanical properties :
#
#
# Convention : Reuss Voigt Hill
#
# Bulk Modulus (GPa) = 32.49686 40.52468 36.51077
# Shear Modulus (GPa) = -9.19702 36.94663 13.87481
#
# Velocity S-wave (km/s) = -2.08784 4.18467 2.56441
# Velocity P-wave (km/s) = 3.09682 6.52350 5.10619
#
# Compressibility (1/GPa) = 0.03077221
#
# Stress axis : x y z
#
# Youngs Moduli (GPa) = 31.29504 83.40067 109.15834
#
# Poissons Ratio (x) = 0.67380 0.27467
# Poissons Ratio (y) = 0.25283 0.06236
# Poissons Ratio (z) = 0.07875 0.04764
#
# Static dielectric constant tensor:
#      x y z
#    x 1.749050 0.000000 0.007810 
#    y 0.000000 1.751400 0.000000 
#    z 0.007810 0.000000 1.801880 
# 
# From -- ./inp_files/156731.got.cif
#   From: 2010.05.17/outbox.cif.g08.bks.cpg/sg12_79_cif.got.tgz:156731.got - 2010.06.03 13:09:07.
