data_PCOD9220847
_publ_section_title
;
Structure prediction by ZEFSAII (Michael W. Deem and Ramdas Pophale) SiO2 
 PCOD9220847
Probable space group: C 2/M
;
_chemical_formula_sum "Si O2"
_cell_formula_units_Z 54
_cell_length_a 21.664028
_cell_length_b 23.394729
_cell_length_c 12.203350
_cell_angle_alpha 90.000000
_cell_angle_beta 25.467149
_cell_angle_gamma 90.000000
_cell_volume 2659.489051
_symmetry_space_group_name_H-M "C 2/M"
_symmetry_group_IT_number 12
_symmetry_cell_setting 'monoclinic'
loop_
_space_group_symop_operation_xyz
x,y,z
-x,y,-z
-x,-y,-z
x,-y,z
1/2+x,1/2+y,z
1/2-x,1/2+y,-z
1/2-x,1/2-y,-z
1/2+x,1/2-y,z
loop_
_atom_site_type_symbol
_atom_site_label
_atom_site_fract_x
_atom_site_fract_y
_atom_site_fract_z
Si Si1 0.280665 0.761547 0.246631
Si Si2 0.895005 0.566452 0.070977
Si Si3 0.000000 0.500000 0.500000
Si Si4 0.605613 0.102545 0.180748
Si Si5 0.857577 0.128026 0.439074
Si Si6 0.552156 0.770161 0.250014
Si Si7 0.500000 0.328336 0.000000
Si Si8 0.093153 0.145159 0.244962
O O1 0.252884 0.819245 0.360293
O O2 0.377852 0.713767 0.147967
O O3 0.117326 0.741685 0.490964
O O4 0.362627 0.773248 0.001708
O O5 0.928943 0.500000 0.999365
O O6 0.735412 0.574279 0.375546
O O7 0.901293 0.595445 0.940716
O O8 0.000000 0.588144 0.000000
O O9 0.024883 0.550741 0.367124
O O10 0.556756 0.166434 0.289885
O O11 0.768456 0.105724 0.965259
O O12 0.920372 0.133717 0.217957
O O13 0.995532 0.134260 0.296122
O O14 0.617413 0.714149 0.205755
O O15 0.000000 0.132728 0.500000
#
# Coordination Sequence:
#
# PCOD9220847 Si02
#       8
#     8   8   2   8   8   8   4   8
#     4  11  22  39  63 106 139 180 227 279 353 434
#     4  11  25  48  72  96 126 182 248 293 340 413
#     4  12  32  44  64 108 138 190 242 272 356 418
#     4  12  25  46  71  97 146 185 234 290 346 425
#     4  11  24  42  66 100 137 180 231 280 359 412
#     4  11  24  40  69 103 143 184 230 292 363 419
#     4  12  24  38  63 102 151 178 226 282 348 444
#     4  11  22  44  69 104 138 175 235 288 357 433
#
# _framework density 20.304651
#
# number of rings (size 3 to 8) (size 9 to 14) (size 15 to 20)
#    0.000    0.741    6.667    1.778    6.222    0.000 
#    1.333    1.481    0.000    0.000    0.000    0.000 
#    0.000    0.000    0.000    0.000    0.000    0.000 
#
# Total GULP energy -150449.422590 kJ/mol
# GULP energy per Si atom -5572.200837 kJ/mol
# Density = 2.025844 g / cm^3
# Si number density = 20.304651 Si / 1000 Ang^3
#
#
#
# Elastic Constant Matrix: (Units=GPa)
#
#
# Indices 1 2 3 4 5 6 
#
# 1 103.7226 24.0949 41.5525 -0.0028 14.5776 0.0032
# 2 24.0949 46.8260 7.4823 -0.0008 4.5093 0.0006
# 3 41.5525 7.4823 102.2779 0.0018 23.8939 -0.0003
# 4 -0.0028 -0.0008 0.0018 16.4007 -0.0020 13.4687
# 5 14.5776 4.5093 23.8939 -0.0020 42.4564 -0.0011
# 6 0.0032 0.0006 -0.0003 13.4687 -0.0011 30.4649
#
#
#
# Elastic Compliance Matrix: (Units=1/GPa)
#
#
# Indices 1 2 3 4 5 6 
#
# 1 0.013003 -0.005839 -0.004556 0.000005 -0.001280 -0.000004
# 2 -0.005839 0.024328 0.000838 0.000000 -0.001051 0.000000
# 3 -0.004556 0.000838 0.012921 -0.000005 -0.005796 0.000003
# 4 0.000005 0.000000 -0.000005 0.095730 0.000005 -0.042323
# 5 -0.001280 -0.001051 -0.005796 0.000005 0.027367 -0.000001
# 6 -0.000004 0.000000 0.000003 -0.042323 -0.000001 0.051536
#
#
# Mechanical properties :
#
#
# Convention : Reuss Voigt Hill
#
# Bulk Modulus (GPa) = 32.11695 44.34287 38.22991
# Shear Modulus (GPa) = 19.65571 29.84417 24.74994
#
# Velocity S-wave (km/s) = 3.11471 3.83798 3.49510
# Velocity P-wave (km/s) = 5.36536 6.44409 5.92931
#
# Compressibility (1/GPa) = 0.03113621
#
# Stress axis : x y z
#
# Youngs Moduli (GPa) = 76.90597 41.10548 77.39166
#
# Poissons Ratio (x) = 0.24003 0.35263
# Poissons Ratio (y) = 0.44909 -0.06486
# Poissons Ratio (z) = 0.35042 -0.03445
#
# Static dielectric constant tensor:
#      x y z
#    x 1.750610 0.000000 -0.024970 
#    y 0.000000 1.711150 0.000000 
#    z -0.024970 0.000000 1.732590 
# 
# From -- ./inp_files/170311.got.cif
#   From: 2010.05.17/outbox.cif.g08.bks.cpg/sg12_86_cif.got.tgz:170311.got - 2010.06.03 13:09:07.
