data_PCOD9220169
_publ_section_title
;
Structure prediction by ZEFSAII (Michael W. Deem and Ramdas Pophale) SiO2 
 PCOD9220169
Probable space group: C 2/M
;
_chemical_formula_sum "Si O2"
_cell_formula_units_Z 64
_cell_length_a 18.964063
_cell_length_b 21.361303
_cell_length_c 15.308560
_cell_angle_alpha 90.000000
_cell_angle_beta 28.286835
_cell_angle_gamma 90.000000
_cell_volume 2938.781149
_symmetry_space_group_name_H-M "C 2/M"
_symmetry_group_IT_number 12
_symmetry_cell_setting 'monoclinic'
loop_
_space_group_symop_operation_xyz
x,y,z
-x,y,-z
-x,-y,-z
x,-y,z
1/2+x,1/2+y,z
1/2-x,1/2+y,-z
1/2-x,1/2-y,-z
1/2+x,1/2-y,z
loop_
_atom_site_type_symbol
_atom_site_label
_atom_site_fract_x
_atom_site_fract_y
_atom_site_fract_z
Si Si1 0.695814 0.573144 0.040669
Si Si2 0.727566 0.830582 0.395919
Si Si3 0.218246 0.833805 0.856160
Si Si4 0.025813 0.893565 0.565288
Si Si5 0.037727 0.756284 0.332758
Si Si6 0.859674 0.429295 0.208458
Si Si7 0.484441 0.115379 0.239238
Si Si8 0.990639 0.756926 0.186574
O O1 0.719831 0.500000 0.994656
O O2 0.676065 0.613502 0.973468
O O3 0.845339 0.600817 0.923010
O O4 0.558433 0.578255 0.258690
O O5 0.777552 0.856252 0.247844
O O6 0.630001 0.768952 0.481282
O O7 0.617554 0.878371 0.563956
O O8 0.852586 0.803909 0.324878
O O9 0.366642 0.798323 0.727429
O O10 0.099328 0.778153 0.992208
O O11 0.204109 0.892595 0.380250
O O12 0.000000 0.925736 0.500000
O O13 0.952564 0.824575 0.638400
O O14 0.069505 0.765282 0.194883
O O15 0.829121 0.500000 0.208646
O O16 0.919390 0.432223 0.241515
O O17 0.000000 0.403688 0.000000
O O18 0.462340 0.183400 0.217772
#
# Coordination Sequence:
#
# PCOD9220169 Si02
#       8
#     8   8   8   8   8   8   8   8
#     4  12  26  44  67  94 133 185 238 283 329 399
#     4  11  23  38  64 100 138 171 216 279 339 405
#     4  12  23  42  66  96 140 181 224 277 342 402
#     4  12  24  41  69 103 134 171 222 280 349 410
#     4  11  21  40  66  99 136 170 215 276 347 409
#     4  11  25  45  66  93 137 181 224 275 330 406
#     4  11  23  41  67  96 135 171 226 275 344 408
#     4  11  21  39  65  97 134 171 211 281 348 407
#
# _framework density 21.777735
#
# number of rings (size 3 to 8) (size 9 to 14) (size 15 to 20)
#    0.000    0.625    3.750    7.125    0.000    4.000 
#    0.000    1.875    0.000    1.500    0.000    0.000 
#    0.000    0.000    0.000    0.000    0.000    0.000 
#
# Total GULP energy -178672.630979 kJ/mol
# GULP energy per Si atom -5583.519718 kJ/mol
# Density = 2.172817 g / cm^3
# Si number density = 21.777735 Si / 1000 Ang^3
#
#
#
# Elastic Constant Matrix: (Units=GPa)
#
#
# Indices 1 2 3 4 5 6 
#
# 1 87.9019 24.6550 51.3892 0.0014 22.9085 -0.0003
# 2 24.6550 79.6622 26.5642 0.0014 15.2593 -0.0011
# 3 51.3892 26.5642 130.0416 0.0016 18.9581 -0.0005
# 4 0.0014 0.0014 0.0016 3.8825 -0.0017 0.2025
# 5 22.9085 15.2593 18.9581 -0.0017 37.6536 0.0009
# 6 -0.0003 -0.0011 -0.0005 0.2025 0.0009 11.9604
#
#
#
# Elastic Compliance Matrix: (Units=1/GPa)
#
#
# Indices 1 2 3 4 5 6 
#
# 1 0.016778 -0.002171 -0.005209 -0.000006 -0.006705 0.000001
# 2 -0.002171 0.014461 -0.001548 -0.000006 -0.003760 0.000002
# 3 -0.005209 -0.001548 0.010265 -0.000002 -0.001371 0.000000
# 4 -0.000006 -0.000006 -0.000002 0.257792 0.000019 -0.004364
# 5 -0.006705 -0.003760 -0.001371 0.000019 0.032852 -0.000003
# 6 0.000001 0.000002 0.000000 -0.004364 -0.000003 0.083683
#
#
# Mechanical properties :
#
#
# Convention : Reuss Voigt Hill
#
# Bulk Modulus (GPa) = 42.28813 55.86917 49.07865
# Shear Modulus (GPa) = 11.32321 23.69911 17.51116
#
# Velocity S-wave (km/s) = 2.28270 3.30241 2.83872
# Velocity P-wave (km/s) = 5.13886 6.34438 5.77317
#
# Compressibility (1/GPa) = 0.02364730
#
# Stress axis : x y z
#
# Youngs Moduli (GPa) = 59.60090 69.14944 97.42249
#
# Poissons Ratio (x) = 0.15014 0.50750
# Poissons Ratio (y) = 0.12941 0.15080
# Poissons Ratio (z) = 0.31048 0.10704
#
# Static dielectric constant tensor:
#      x y z
#    x 1.876250 0.000000 -0.000690 
#    y 0.000000 1.797030 0.000000 
#    z -0.000690 0.000000 1.859820 
# 
# From -- ./inp_files/228118.got.cif
#   From: 2010.05.17/outbox.cif.g08.bks.cpg/sg12_115_cif.got.tgz:228118.got - 2010.06.03 13:09:07.
