data_PCOD9220377
_publ_section_title
;
Structure prediction by ZEFSAII (Michael W. Deem and Ramdas Pophale) SiO2 
 PCOD9220377
Probable space group: C 2/M
;
_chemical_formula_sum "Si O2"
_cell_formula_units_Z 40
_cell_length_a 14.382912
_cell_length_b 26.735689
_cell_length_c 7.882797
_cell_angle_alpha 90.000000
_cell_angle_beta 139.038527
_cell_angle_gamma 90.000000
_cell_volume 1987.125487
_symmetry_space_group_name_H-M "C 2/M"
_symmetry_group_IT_number 12
_symmetry_cell_setting 'monoclinic'
loop_
_space_group_symop_operation_xyz
x,y,z
-x,y,-z
-x,-y,-z
x,-y,z
1/2+x,1/2+y,z
1/2-x,1/2+y,-z
1/2-x,1/2-y,-z
1/2+x,1/2-y,z
loop_
_atom_site_type_symbol
_atom_site_label
_atom_site_fract_x
_atom_site_fract_y
_atom_site_fract_z
Si Si1 0.840037 0.059730 0.736548
Si Si2 0.112543 0.718164 0.767603
Si Si3 0.883973 0.717213 0.732576
Si Si4 0.341607 0.106915 0.219140
Si Si5 0.836332 0.608559 0.810681
O O1 0.755262 0.077041 0.785667
O O2 0.769407 0.082750 0.469089
O O3 0.836240 0.000000 0.713534
O O4 0.000000 0.075722 0.000000
O O5 0.172315 0.666803 0.773216
O O6 0.000000 0.749327 0.500000
O O7 0.994250 0.699653 0.740289
O O8 0.250000 0.750000 0.000000
O O9 0.750000 0.750000 0.500000
O O10 0.830410 0.667926 0.756392
O O11 0.000000 0.748583 0.000000
O O12 0.500000 0.094313 0.500000
O O13 0.312243 0.098748 0.977892
O O14 0.000000 0.593271 0.000000
#
# Coordination Sequence:
#
# PCOD9220377 Si02
#       5
#     8   8   8   8   8
#     4  11  27  48  69 100 137 170 218 290 356 407
#     4  11  22  37  59  92 131 171 218 270 316 384
#     4  11  22  39  61  92 135 176 220 271 325 386
#     4  11  22  44  70  97 136 178 225 279 330 400
#     4  11  21  44  71  98 134 179 228 277 331 401
#
# _framework density 20.129579
#
# number of rings (size 3 to 8) (size 9 to 14) (size 15 to 20)
#    0.000    1.000    6.000    2.400    0.000    4.800 
#    0.000    2.000    0.000    0.000    0.000    0.000 
#    0.000    0.000    0.000    0.000    0.000    0.000 
#
# Total GULP energy -111349.885530 kJ/mol
# GULP energy per Si atom -5567.494277 kJ/mol
# Density = 2.008376 g / cm^3
# Si number density = 20.129579 Si / 1000 Ang^3
#
#
#
# Elastic Constant Matrix: (Units=GPa)
#
#
# Indices 1 2 3 4 5 6 
#
# 1 87.4302 23.3286 73.3746 0.0000 -19.0242 0.0000
# 2 23.3286 34.9548 67.0761 0.0000 -3.2692 0.0000
# 3 73.3746 67.0761 235.0988 0.0000 -8.5301 0.0000
# 4 0.0000 0.0000 0.0000 36.2299 0.0000 5.3968
# 5 -19.0242 -3.2692 -8.5301 0.0000 41.6461 0.0000
# 6 0.0000 0.0000 0.0000 5.3968 0.0000 13.5903
#
#
#
# Elastic Compliance Matrix: (Units=1/GPa)
#
#
# Indices 1 2 3 4 5 6 
#
# 1 0.017306 -0.002260 -0.004510 0.000000 0.006804 0.000000
# 2 -0.002260 0.063585 -0.017422 0.000000 0.000391 0.000000
# 3 -0.004510 -0.017422 0.010586 0.000000 -0.001259 0.000000
# 4 0.000000 0.000000 0.000000 0.029337 0.000000 -0.011650
# 5 0.006804 0.000391 -0.001259 0.000000 0.026893 0.000000
# 6 0.000000 0.000000 0.000000 -0.011650 0.000000 0.078208
#
#
# Mechanical properties :
#
#
# Convention : Reuss Voigt Hill
#
# Bulk Modulus (GPa) = 23.20517 76.11584 49.66050
# Shear Modulus (GPa) = 17.32130 31.20689 24.26409
#
# Velocity S-wave (km/s) = 2.93659 3.94166 3.47565
# Velocity P-wave (km/s) = 4.80115 7.65575 6.38990
#
# Compressibility (1/GPa) = 0.04309385
#
# Stress axis : x y z
#
# Youngs Moduli (GPa) = 57.78395 15.72702 94.46518
#
# Poissons Ratio (x) = 0.03554 0.42599
# Poissons Ratio (y) = 0.13059 1.64576
# Poissons Ratio (z) = 0.26058 0.27399
#
# Static dielectric constant tensor:
#      x y z
#    x 1.901450 0.000000 -0.148400 
#    y 0.000000 1.642270 0.000000 
#    z -0.148400 0.000000 1.847340 
# 
# From -- ./inp_files/68732.got.cif
#   From: 2010.05.17/outbox.cif.g08.bks.cpg/sg12_35_cif.got.tgz:68732.got - 2010.06.03 13:09:07.
