data_PCOD9220414
_publ_section_title
;
Structure prediction by ZEFSAII (Michael W. Deem and Ramdas Pophale) SiO2 
 PCOD9220414
Probable space group: C 2/M
;
_chemical_formula_sum "Si O2"
_cell_formula_units_Z 48
_cell_length_a 18.765993
_cell_length_b 7.501568
_cell_length_c 21.617255
_cell_angle_alpha 90.000000
_cell_angle_beta 130.122097
_cell_angle_gamma 90.000000
_cell_volume 2327.018633
_symmetry_space_group_name_H-M "C 2/M"
_symmetry_group_IT_number 12
_symmetry_cell_setting 'monoclinic'
loop_
_space_group_symop_operation_xyz
x,y,z
-x,y,-z
-x,-y,-z
x,-y,z
1/2+x,1/2+y,z
1/2-x,1/2+y,-z
1/2-x,1/2-y,-z
1/2+x,1/2-y,z
loop_
_atom_site_type_symbol
_atom_site_label
_atom_site_fract_x
_atom_site_fract_y
_atom_site_fract_z
Si Si1 0.217838 0.718461 0.736687
Si Si2 0.020863 0.787208 0.912659
Si Si3 0.145665 0.710553 0.419798
Si Si4 0.650670 0.286966 0.086551
Si Si5 0.617114 0.288526 0.260830
Si Si6 0.514615 0.781535 0.578939
O O1 0.217808 0.500000 0.737093
O O2 0.258740 0.778628 0.825977
O O3 0.291898 0.777179 0.725593
O O4 0.114354 0.775165 0.661575
O O5 0.934199 0.764721 0.911877
O O6 0.977786 0.717608 0.824373
O O7 0.036977 0.000000 0.915280
O O8 0.111403 0.714748 0.999467
O O9 0.135024 0.500000 0.415347
O O10 0.250000 0.750000 0.500000
O O11 0.127244 0.764479 0.339070
O O12 0.069189 0.783098 0.424624
O O13 0.662642 0.500000 0.085696
O O14 0.615628 0.500000 0.248331
O O15 0.500000 0.725869 0.500000
O O16 0.514524 0.000000 0.578617
#
# Coordination Sequence:
#
# PCOD9220414 Si02
#       6
#     8   8   8   8   8   8
#     4   8  13  23  43  69  92 116 149 188 222 250
#     4   7  10  17  33  61  92 116 139 174 217 251
#     4  11  22  34  49  67  88 114 144 181 223 267
#     4   7   9  15  31  60  93 115 139 180 219 245
#     4   9  16  28  48  71  94 118 144 178 220 262
#     4   9  17  29  45  64  85 111 146 185 222 260
#
# _framework density 20.627251000000001
#
# number of rings (size 3 to 8) (size 9 to 14) (size 15 to 20)
#    0.000    3.500    0.000    4.500    0.000    2.667 
#    0.000    0.000    0.000   10.000    0.000    9.333 
#    0.000    0.000    0.000    0.000    0.000    0.167 
#
# Total GULP energy -133658.220286 kJ/mol
# GULP energy per Si atom -5569.092512 kJ/mol
# Density = 2.058030 g / cm^3
# Si number density = 20.627251 Si / 1000 Ang^3
#
#
#
# Elastic Constant Matrix: (Units=GPa)
#
#
# Indices 1 2 3 4 5 6 
#
# 1 96.0087 1.7635 101.0379 0.0000 4.0535 0.0000
# 2 1.7635 49.7748 2.5875 0.0001 2.6479 -0.0001
# 3 101.0379 2.5875 276.2965 0.0000 7.3713 0.0000
# 4 0.0000 0.0001 0.0000 68.2031 0.0000 -25.3454
# 5 4.0535 2.6479 7.3713 0.0000 26.9234 0.0000
# 6 0.0000 -0.0001 0.0000 -25.3454 0.0000 12.8128
#
#
#
# Elastic Compliance Matrix: (Units=1/GPa)
#
#
# Indices 1 2 3 4 5 6 
#
# 1 0.016954 -0.000235 -0.006175 0.000000 -0.000839 0.000000
# 2 -0.000235 0.020205 -0.000052 0.000000 -0.001938 0.000000
# 3 -0.006175 -0.000052 0.005896 0.000000 -0.000679 0.000000
# 4 0.000000 0.000000 0.000000 0.055351 0.000000 0.109492
# 5 -0.000839 -0.001938 -0.000679 0.000000 0.037645 0.000000
# 6 0.000000 0.000000 0.000000 0.109492 0.000000 0.294636
#
#
# Mechanical properties :
#
#
# Convention : Reuss Voigt Hill
#
# Bulk Modulus (GPa) = 33.18834 70.31754 51.75294
# Shear Modulus (GPa) = 11.02158 42.70058 26.86108
#
# Velocity S-wave (km/s) = 2.31405 4.55478 3.61253
# Velocity P-wave (km/s) = 4.82330 7.86288 6.52262
#
# Compressibility (1/GPa) = 0.03013107
#
# Stress axis : x y z
#
# Youngs Moduli (GPa) = 58.98199 49.49374 169.60159
#
# Poissons Ratio (x) = 0.01163 1.04736
# Poissons Ratio (y) = 0.01386 0.00875
# Poissons Ratio (z) = 0.36424 0.00255
#
# Static dielectric constant tensor:
#      x y z
#    x 1.705990 0.000000 0.001960 
#    y 0.000000 1.811350 0.000000 
#    z 0.001960 0.000000 1.760420 
# 
# From -- ./inp_files/314484.got.cif
#   From: 2010.05.17/outbox.cif.g08.bks.cpg/sg12_158_cif.got.tgz:314484.got - 2010.06.03 13:09:07.
