data_PCOD9220621
_publ_section_title
;
Structure prediction by ZEFSAII (Michael W. Deem and Ramdas Pophale) SiO2 
 PCOD9220621
Probable space group: C 2/M
;
_chemical_formula_sum "Si O2"
_cell_formula_units_Z 56
_cell_length_a 9.114007
_cell_length_b 27.257665
_cell_length_c 17.784699
_cell_angle_alpha 90.000000
_cell_angle_beta 140.424527
_cell_angle_gamma 90.000000
_cell_volume 2814.803646
_symmetry_space_group_name_H-M "C 2/M"
_symmetry_group_IT_number 12
_symmetry_cell_setting 'monoclinic'
loop_
_space_group_symop_operation_xyz
x,y,z
-x,y,-z
-x,-y,-z
x,-y,z
1/2+x,1/2+y,z
1/2-x,1/2+y,-z
1/2-x,1/2-y,-z
1/2+x,1/2-y,z
loop_
_atom_site_type_symbol
_atom_site_label
_atom_site_fract_x
_atom_site_fract_y
_atom_site_fract_z
Si Si1 0.381472 0.802128 0.373789
Si Si2 0.504956 0.056966 0.366971
Si Si3 0.415357 0.603846 0.747212
Si Si4 0.261380 0.803430 0.625632
Si Si5 0.992442 0.942237 0.628792
Si Si6 0.181416 0.557843 0.002624
Si Si7 0.057182 0.600234 0.238236
O O1 0.500000 0.816920 0.500000
O O2 0.184516 0.842133 0.280275
O O3 0.573455 0.800026 0.383165
O O4 0.272167 0.749018 0.347627
O O5 0.307756 0.068708 0.348561
O O6 0.754436 0.072016 0.495417
O O7 0.426631 0.086968 0.263220
O O8 0.511096 0.000000 0.352625
O O9 0.537605 0.594213 0.716010
O O10 0.587067 0.583857 0.877830
O O11 0.367430 0.843640 0.723311
O O12 0.000000 0.818700 0.500000
O O13 0.214078 0.933551 0.665149
O O14 0.984486 0.000000 0.647100
O O15 0.219621 0.500000 0.002102
O O16 0.000000 0.560546 0.000000
O O17 0.078598 0.584288 0.888982
#
# Coordination Sequence:
#
# PCOD9220621 Si02
#       7
#     8   8   8   8   8   8   8
#     4  11  24  42  69 102 134 171 217 272 337 399
#     4  11  22  37  58  94 131 163 205 268 338 392
#     4  12  24  40  64  93 131 173 220 267 323 388
#     4  11  24  42  69 102 134 171 217 272 337 399
#     4  11  22  37  62  92 129 171 213 264 326 400
#     4  11  24  43  66  91 126 181 234 269 312 383
#     4  12  24  40  64  93 131 173 220 267 323 388
#
# _framework density 19.894815000000001
#
# number of rings (size 3 to 8) (size 9 to 14) (size 15 to 20)
#    0.000    0.714    2.857    6.857    4.000    2.857 
#    0.000    2.143    0.000    0.000    0.000    0.000 
#    0.000    0.000    0.000    0.000    0.000    0.000 
#
# Total GULP energy -156472.334707 kJ/mol
# GULP energy per Si atom -5588.297668 kJ/mol
# Density = 1.984953 g / cm^3
# Si number density = 19.894815 Si / 1000 Ang^3
#
#
#
# Elastic Constant Matrix: (Units=GPa)
#
#
# Indices 1 2 3 4 5 6 
#
# 1 82.1346 37.8029 24.7186 0.0000 -2.8896 0.0000
# 2 37.8029 131.0755 74.1781 -0.0001 -5.2156 -0.0001
# 3 24.7186 74.1781 126.8497 0.0004 -6.8477 0.0003
# 4 0.0000 -0.0001 0.0004 28.7027 0.0001 -4.3472
# 5 -2.8896 -5.2156 -6.8477 0.0001 30.4736 0.0001
# 6 0.0000 -0.0001 0.0003 -4.3472 0.0001 28.9849
#
#
#
# Elastic Compliance Matrix: (Units=1/GPa)
#
#
# Indices 1 2 3 4 5 6 
#
# 1 0.014074 -0.003739 -0.000525 0.000000 0.000577 0.000000
# 2 -0.003739 0.012402 -0.006507 0.000000 0.000306 0.000000
# 3 -0.000525 -0.006507 0.011872 0.000000 0.001504 0.000000
# 4 0.000000 0.000000 0.000000 0.035650 0.000000 0.005347
# 5 0.000577 0.000306 0.001504 0.000000 0.033260 0.000000
# 6 0.000000 0.000000 0.000000 0.005347 0.000000 0.035303
#
#
# Mechanical properties :
#
#
# Convention : Reuss Voigt Hill
#
# Bulk Modulus (GPa) = 59.50263 68.16212 63.83238
# Shear Modulus (GPa) = 29.46261 31.18960 30.32611
#
# Velocity S-wave (km/s) = 3.85245 3.96375 3.90849
# Velocity P-wave (km/s) = 7.05422 7.43532 7.24728
#
# Compressibility (1/GPa) = 0.01680598
#
# Stress axis : x y z
#
# Youngs Moduli (GPa) = 71.05124 80.62941 84.23024
#
# Poissons Ratio (x) = 0.30148 0.04422
# Poissons Ratio (y) = 0.26567 0.54812
# Poissons Ratio (z) = 0.03730 0.52469
#
# Static dielectric constant tensor:
#      x y z
#    x 1.689320 0.000000 -0.002820 
#    y 0.000000 1.689840 0.000000 
#    z -0.002820 0.000000 1.672820 
# 
# From -- ./inp_files/259795.got.cif
#   From: 2010.05.17/outbox.cif.g08.bks.cpg/sg12_130_cif.got.tgz:259795.got - 2010.06.03 13:09:07.
