data_PCOD9220230
_publ_section_title
;
Structure prediction by ZEFSAII (Michael W. Deem and Ramdas Pophale) SiO2 
 PCOD9220230
Probable space group: C 2/M
;
_chemical_formula_sum "Si O2"
_cell_formula_units_Z 40
_cell_length_a 7.124170
_cell_length_b 19.196270
_cell_length_c 15.614306
_cell_angle_alpha 90.000000
_cell_angle_beta 60.680943
_cell_angle_gamma 90.000000
_cell_volume 1861.845766
_symmetry_space_group_name_H-M "C 2/M"
_symmetry_group_IT_number 12
_symmetry_cell_setting 'monoclinic'
loop_
_space_group_symop_operation_xyz
x,y,z
-x,y,-z
-x,-y,-z
x,-y,z
1/2+x,1/2+y,z
1/2-x,1/2+y,-z
1/2-x,1/2-y,-z
1/2+x,1/2-y,z
loop_
_atom_site_type_symbol
_atom_site_label
_atom_site_fract_x
_atom_site_fract_y
_atom_site_fract_z
Si Si1 0.477467 0.682518 0.880084
Si Si2 0.634418 0.156026 0.077771
Si Si3 0.681283 0.831497 0.334169
Si Si4 0.116890 0.417889 0.724852
Si Si5 0.009204 0.819063 0.599933
O O1 0.457405 0.765659 0.896517
O O2 0.660361 0.657281 0.904305
O O3 0.584648 0.669187 0.765144
O O4 0.248641 0.649131 0.959190
O O5 0.479245 0.102856 0.160414
O O6 0.538413 0.887364 0.315679
O O7 0.565718 0.756802 0.348879
O O8 0.755065 0.837750 0.416036
O O9 0.137118 0.500000 0.712657
O O10 0.339414 0.377595 0.664057
O O11 0.000000 0.814375 0.500000
#
# Coordination Sequence:
#
# PCOD9220230 Si02
#       5
#     8   8   8   8   8
#     4   9  16  30  56  91 112 153 202 252 294 365
#     4   9  17  31  55  87 120 153 200 250 301 362
#     4  11  21  40  66  94 122 162 211 267 312 374
#     4  11  25  42  61  93 135 170 204 259 322 374
#     4  12  24  40  69  96 122 161 222 272 313 370
#
# _framework density 21.484055999999999
#
# number of rings (size 3 to 8) (size 9 to 14) (size 15 to 20)
#    0.000    1.600    4.000    1.800    0.000    1.200 
#    0.000    9.000    0.000    1.200    0.000    0.000 
#    0.000    0.000    0.000    0.000    0.000    0.000 
#
# Total GULP energy -111689.951256 kJ/mol
# GULP energy per Si atom -5584.497563 kJ/mol
# Density = 2.143516 g / cm^3
# Si number density = 21.484056 Si / 1000 Ang^3
#
#
#
# Elastic Constant Matrix: (Units=GPa)
#
#
# Indices 1 2 3 4 5 6 
#
# 1 92.5176 23.8510 15.8342 0.0000 7.8127 0.0000
# 2 23.8510 127.4462 32.4371 0.0000 -12.6546 0.0000
# 3 15.8342 32.4371 55.6308 0.0000 -4.3310 0.0000
# 4 0.0000 0.0000 0.0000 15.3561 0.0000 1.9895
# 5 7.8127 -12.6546 -4.3310 0.0000 39.4515 0.0000
# 6 0.0000 0.0000 0.0000 1.9895 0.0000 21.4995
#
#
#
# Elastic Compliance Matrix: (Units=1/GPa)
#
#
# Indices 1 2 3 4 5 6 
#
# 1 0.012019 -0.001925 -0.002554 0.000000 -0.003278 0.000000
# 2 -0.001925 0.009750 -0.004906 0.000000 0.002970 0.000000
# 3 -0.002554 -0.004906 0.021665 0.000000 0.001310 0.000000
# 4 0.000000 0.000000 0.000000 0.065911 0.000000 -0.006099
# 5 -0.003278 0.002970 0.001310 0.000000 0.027093 0.000000
# 6 0.000000 0.000000 0.000000 -0.006099 0.000000 0.047077
#
#
# Mechanical properties :
#
#
# Convention : Reuss Voigt Hill
#
# Bulk Modulus (GPa) = 40.54337 46.64882 43.59609
# Shear Modulus (GPa) = 23.75221 28.82623 26.28922
#
# Velocity S-wave (km/s) = 3.32862 3.66696 3.50188
# Velocity P-wave (km/s) = 5.80391 6.29994 6.05700
#
# Compressibility (1/GPa) = 0.02466495
#
# Stress axis : x y z
#
# Youngs Moduli (GPa) = 83.20266 102.56149 46.15692
#
# Poissons Ratio (x) = 0.19741 0.11788
# Poissons Ratio (y) = 0.16015 0.22645
# Poissons Ratio (z) = 0.21249 0.50318
#
# Static dielectric constant tensor:
#      x y z
#    x 1.826400 0.000000 0.035740 
#    y 0.000000 1.685650 0.000000 
#    z 0.035740 0.000000 1.941370 
# 
# From -- ./inp_files/195011.got.cif
#   From: 2010.05.17/outbox.cif.g08.bks.cpg/sg12_98_cif.got.tgz:195011.got - 2010.06.03 13:09:07.
