data_PCOD9220836
_publ_section_title
;
Structure prediction by ZEFSAII (Michael W. Deem and Ramdas Pophale) SiO2 
 PCOD9220836
Probable space group: C 2/M
;
_chemical_formula_sum "Si O2"
_cell_formula_units_Z 42
_cell_length_a 12.867816
_cell_length_b 20.964909
_cell_length_c 8.231096
_cell_angle_alpha 90.000000
_cell_angle_beta 77.767104
_cell_angle_gamma 90.000000
_cell_volume 2170.105772
_symmetry_space_group_name_H-M "C 2/M"
_symmetry_group_IT_number 12
_symmetry_cell_setting 'monoclinic'
loop_
_space_group_symop_operation_xyz
x,y,z
-x,y,-z
-x,-y,-z
x,-y,z
1/2+x,1/2+y,z
1/2-x,1/2+y,-z
1/2-x,1/2-y,-z
1/2+x,1/2-y,z
loop_
_atom_site_type_symbol
_atom_site_label
_atom_site_fract_x
_atom_site_fract_y
_atom_site_fract_z
Si Si1 0.731251 0.199974 0.259176
Si Si2 0.386552 0.074027 0.129395
Si Si3 0.872826 0.307452 0.367728
Si Si4 0.944504 0.234739 0.844343
Si Si5 0.500000 0.500000 0.000000
Si Si6 0.332396 0.612368 0.978777
O O1 0.784964 0.265263 0.302404
O O2 0.666004 0.177987 0.438082
O O3 0.653534 0.217206 0.137559
O O4 0.810984 0.148894 0.157342
O O5 0.391363 0.126670 0.269008
O O6 0.376920 0.000000 0.186363
O O7 0.500000 0.079426 0.000000
O O8 0.280759 0.090254 0.058370
O O9 0.973427 0.259950 0.317304
O O10 0.894578 0.164591 0.847723
O O11 0.000000 0.240743 0.000000
O O12 0.411748 0.555084 0.982697
#
# Coordination Sequence:
#
# PCOD9220836 Si02
#       6
#     8   8   8   8   2   8
#     4  11  23  37  62  95 128 165 208 266 326 374
#     4  11  24  42  66  92 125 174 221 261 313 386
#     4  11  22  39  61  93 131 163 208 264 325 380
#     4  12  21  37  66  94 126 161 217 271 319 369
#     4  12  24  40  66  90 134 164 218 256 318 386
#     4  12  22  41  64  97 126 171 217 266 315 384
#
# _framework density 19.353895000000001
#
# number of rings (size 3 to 8) (size 9 to 14) (size 15 to 20)
#    0.000    0.571    5.714    4.000    0.000    0.000 
#    1.714    0.000    0.000    4.571    0.000    0.000 
#    0.000    0.000    0.000    0.000    0.000    0.000 
#
# Total GULP energy -116965.186782 kJ/mol
# GULP energy per Si atom -5569.770799 kJ/mol
# Density = 1.930984 g / cm^3
# Si number density = 19.353895 Si / 1000 Ang^3
#
#
#
# Elastic Constant Matrix: (Units=GPa)
#
#
# Indices 1 2 3 4 5 6 
#
# 1 126.0505 56.1412 34.5529 0.0000 -2.3384 0.0000
# 2 56.1412 179.3914 65.6309 0.0000 -17.3989 0.0000
# 3 34.5529 65.6309 78.0852 0.0000 -18.9171 0.0000
# 4 0.0000 0.0000 0.0000 12.9660 0.0000 -4.3077
# 5 -2.3384 -17.3989 -18.9171 0.0000 24.4986 0.0000
# 6 0.0000 0.0000 0.0000 -4.3077 0.0000 31.2944
#
#
#
# Elastic Compliance Matrix: (Units=1/GPa)
#
#
# Indices 1 2 3 4 5 6 
#
# 1 0.009726 -0.002159 -0.003242 0.000000 -0.003109 0.000000
# 2 -0.002159 0.008536 -0.005905 0.000000 0.001297 0.000000
# 3 -0.003242 -0.005905 0.022282 0.000000 0.012702 0.000000
# 4 0.000000 0.000000 0.000000 0.080821 0.000000 0.011125
# 5 -0.003109 0.001297 0.012702 0.000000 0.051251 0.000000
# 6 0.000000 0.000000 0.000000 0.011125 0.000000 0.033486
#
#
# Mechanical properties :
#
#
# Convention : Reuss Voigt Hill
#
# Bulk Modulus (GPa) = 55.76917 77.35302 66.56110
# Shear Modulus (GPa) = 21.30450 28.89858 25.10154
#
# Velocity S-wave (km/s) = 3.32141 3.86834 3.60526
# Velocity P-wave (km/s) = 6.60205 7.74639 7.19700
#
# Compressibility (1/GPa) = 0.01793105
#
# Stress axis : x y z
#
# Youngs Moduli (GPa) = 102.81666 117.14614 44.87971
#
# Poissons Ratio (x) = 0.25294 0.14550
# Poissons Ratio (y) = 0.22200 0.26503
# Poissons Ratio (z) = 0.33334 0.69178
#
# Static dielectric constant tensor:
#      x y z
#    x 1.763420 0.000000 -0.023490 
#    y 0.000000 1.647900 0.000000 
#    z -0.023490 0.000000 1.678260 
# 
# From -- ./inp_files/49177.got.cif
#   From: 2010.05.17/outbox.cif.g08.bks.cpg/sg12_25_cif.got.tgz:49177.got - 2010.06.03 13:09:07.
