data_PCOD9220906
_publ_section_title
;
Structure prediction by ZEFSAII (Michael W. Deem and Ramdas Pophale) SiO2 
 PCOD9220906
Probable space group: C 2/M
;
_chemical_formula_sum "Si O2"
_cell_formula_units_Z 40
_cell_length_a 9.110116
_cell_length_b 15.517338
_cell_length_c 15.531520
_cell_angle_alpha 90.000000
_cell_angle_beta 64.409074
_cell_angle_gamma 90.000000
_cell_volume 1980.222219
_symmetry_space_group_name_H-M "C 2/M"
_symmetry_group_IT_number 12
_symmetry_cell_setting 'monoclinic'
loop_
_space_group_symop_operation_xyz
x,y,z
-x,y,-z
-x,-y,-z
x,-y,z
1/2+x,1/2+y,z
1/2-x,1/2+y,-z
1/2-x,1/2-y,-z
1/2+x,1/2-y,z
loop_
_atom_site_type_symbol
_atom_site_label
_atom_site_fract_x
_atom_site_fract_y
_atom_site_fract_z
Si Si1 0.498213 0.344662 0.597700
Si Si2 0.291787 0.902020 0.211232
Si Si3 0.626836 0.095378 0.221445
Si Si4 0.823940 0.758748 0.074371
Si Si5 0.646344 0.845216 0.405161
O O1 0.500000 0.382545 0.500000
O O2 0.378804 0.390647 0.695550
O O3 0.417484 0.249989 0.606036
O O4 0.681722 0.339693 0.588518
O O5 0.438012 0.890434 0.243421
O O6 0.317233 0.829452 0.131740
O O7 0.302917 0.000000 0.174494
O O8 0.730737 0.169557 0.151601
O O9 0.657846 0.102034 0.314779
O O10 0.671154 0.000000 0.178717
O O11 0.750000 0.750000 0.000000
O O12 0.000000 0.787646 0.000000
O O13 0.500000 0.881534 0.500000
#
# Coordination Sequence:
#
# PCOD9220906 Si02
#       5
#     8   8   8   8   8
#     4  11  22  39  67 100 136 180 223 268 328 396
#     4  11  25  45  70 100 136 177 224 273 334 403
#     4  11  25  45  69 101 137 175 222 277 335 398
#     4  12  26  46  72  97 129 174 225 281 338 394
#     4  11  22  39  67 100 137 179 222 269 329 396
#
# _framework density 20.199753000000001
#
# number of rings (size 3 to 8) (size 9 to 14) (size 15 to 20)
#    0.000    0.800    4.000    4.800    2.800    3.200 
#    0.000    0.000    0.000    0.000    0.000    0.000 
#    0.000    0.000    0.000    0.000    0.000    0.000 
#
# Total GULP energy -111693.947177 kJ/mol
# GULP energy per Si atom -5584.697359 kJ/mol
# Density = 2.015378 g / cm^3
# Si number density = 20.199753 Si / 1000 Ang^3
#
#
#
# Elastic Constant Matrix: (Units=GPa)
#
#
# Indices 1 2 3 4 5 6 
#
# 1 185.0357 39.2713 50.6955 0.0000 0.9963 0.0000
# 2 39.2713 104.4357 42.1677 0.0000 -1.9291 0.0000
# 3 50.6955 42.1677 109.9982 0.0000 0.3099 0.0000
# 4 0.0000 0.0000 0.0000 -38.1490 0.0000 -7.1022
# 5 0.9963 -1.9291 0.3099 0.0000 45.4262 0.0000
# 6 0.0000 0.0000 0.0000 -7.1022 0.0000 15.1522
#
#
#
# Elastic Compliance Matrix: (Units=1/GPa)
#
#
# Indices 1 2 3 4 5 6 
#
# 1 0.006362 -0.001434 -0.002382 0.000000 -0.000184 0.000000
# 2 -0.001434 0.011664 -0.003812 0.000000 0.000553 0.000000
# 3 -0.002382 -0.003812 0.011651 0.000000 -0.000189 0.000000
# 4 0.000000 0.000000 0.000000 -0.024109 0.000000 -0.011301
# 5 -0.000184 0.000553 -0.000189 0.000000 0.022043 0.000000
# 6 0.000000 0.000000 0.000000 -0.011301 0.000000 0.060700
#
#
# Mechanical properties :
#
#
# Convention : Reuss Voigt Hill
#
# Bulk Modulus (GPa) = 69.34391 73.74873 71.54632
# Shear Modulus (GPa) = 46.13676 22.30823 34.22250
#
# Velocity S-wave (km/s) = 4.78433 3.32683 4.12054
# Velocity P-wave (km/s) = 8.05751 7.16561 7.62461
#
# Compressibility (1/GPa) = 0.01442088
#
# Stress axis : x y z
#
# Youngs Moduli (GPa) = 157.17529 85.73472 85.83176
#
# Poissons Ratio (x) = 0.12295 0.20445
# Poissons Ratio (y) = 0.22540 0.32719
# Poissons Ratio (z) = 0.37439 0.32682
#
# Static dielectric constant tensor:
#      x y z
#    x 1.672350 0.000000 -0.002750 
#    y 0.000000 1.737130 0.000000 
#    z -0.002750 0.000000 1.671850 
# 
# From -- ./inp_files/194415.got.cif
#   From: 2010.05.17/outbox.cif.g08.bks.cpg/sg12_98_cif.got.tgz:194415.got - 2010.06.03 13:09:07.
