data_PCOD9220678
_publ_section_title
;
Structure prediction by ZEFSAII (Michael W. Deem and Ramdas Pophale) SiO2 
 PCOD9220678
Probable space group: C 2/M
;
_chemical_formula_sum "Si O2"
_cell_formula_units_Z 32
_cell_length_a 12.004536
_cell_length_b 23.695681
_cell_length_c 5.012751
_cell_angle_alpha 90.000000
_cell_angle_beta 79.161114
_cell_angle_gamma 90.000000
_cell_volume 1400.467008
_symmetry_space_group_name_H-M "C 2/M"
_symmetry_group_IT_number 12
_symmetry_cell_setting 'monoclinic'
loop_
_space_group_symop_operation_xyz
x,y,z
-x,y,-z
-x,-y,-z
x,-y,z
1/2+x,1/2+y,z
1/2-x,1/2+y,-z
1/2-x,1/2-y,-z
1/2+x,1/2-y,z
loop_
_atom_site_type_symbol
_atom_site_label
_atom_site_fract_x
_atom_site_fract_y
_atom_site_fract_z
Si Si1 0.181810 0.500000 0.448226
Si Si2 0.267356 0.709996 0.741247
Si Si3 0.000000 0.090063 0.000000
Si Si4 0.500000 0.342429 0.500000
Si Si5 0.824093 0.000000 0.877415
Si Si6 0.076576 0.617147 0.704432
O O1 0.214846 0.500000 0.121777
O O2 0.119645 0.557371 0.565743
O O3 0.294535 0.500000 0.580694
O O4 0.250000 0.750000 0.500000
O O5 0.396676 0.690049 0.678622
O O6 0.180419 0.657521 0.747273
O O7 0.250000 0.750000 0.000000
O O8 0.949470 0.123424 0.272976
O O9 0.900227 0.053181 0.918715
O O10 0.000000 0.643463 0.500000
O O11 0.000000 0.607712 0.000000
#
# Coordination Sequence:
#
# PCOD9220678 Si02
#       6
#     4   8   4   4   4   8
#     4  12  24  44  70 105 148 194 238 293 366 441
#     4  12  28  47  75 103 142 191 244 310 366 428
#     4  11  22  40  66 104 138 190 228 303 352 428
#     4  12  26  47  72 100 140 179 250 292 374 430
#     4  11  22  37  68 101 150 181 240 281 358 426
#     4  12  26  46  74 106 149 192 246 300 366 436
#
# _framework density 22.849519000000001
#
# number of rings (size 3 to 8) (size 9 to 14) (size 15 to 20)
#    0.000    0.250    0.000    9.750    5.250    2.000 
#    0.000    0.000    0.000    0.000    0.000    0.000 
#    0.000    0.000    0.000    0.000    0.000    0.000 
#
# Total GULP energy -89624.512891 kJ/mol
# GULP energy per Si atom -5601.532056 kJ/mol
# Density = 2.279751 g / cm^3
# Si number density = 22.849519 Si / 1000 Ang^3
#
#
#
# Elastic Constant Matrix: (Units=GPa)
#
#
# Indices 1 2 3 4 5 6 
#
# 1 102.8609 33.4933 3.6432 0.0000 -3.6939 0.0000
# 2 33.4933 101.3890 25.2675 0.0000 -19.2063 0.0000
# 3 3.6432 25.2675 120.9252 0.0000 -3.8343 0.0000
# 4 0.0000 0.0000 0.0000 10.2202 0.0000 -13.2975
# 5 -3.6939 -19.2063 -3.8343 0.0000 52.4631 0.0000
# 6 0.0000 0.0000 0.0000 -13.2975 0.0000 3.2778
#
#
#
# Elastic Compliance Matrix: (Units=1/GPa)
#
#
# Indices 1 2 3 4 5 6 
#
# 1 0.010934 -0.003839 0.000454 0.000000 -0.000603 0.000000
# 2 -0.003839 0.012504 -0.002366 0.000000 0.004134 0.000000
# 3 0.000454 -0.002366 0.008744 0.000000 -0.000195 0.000000
# 4 0.000000 0.000000 0.000000 -0.022870 0.000000 -0.092779
# 5 -0.000603 0.004134 -0.000195 0.000000 0.020518 0.000000
# 6 0.000000 0.000000 0.000000 -0.092779 0.000000 -0.071309
#
#
# Mechanical properties :
#
#
# Convention : Reuss Voigt Hill
#
# Bulk Modulus (GPa) = 48.35742 49.99812 49.17777
# Shear Modulus (GPa) = -216.61852 30.71031 -92.95410
#
# Velocity S-wave (km/s) = -9.74721 3.67007 -6.38508
# Velocity P-wave (km/s) = 10.26976 6.31571 5.72625
#
# Compressibility (1/GPa) = 0.02067935
#
# Stress axis : x y z
#
# Youngs Moduli (GPa) = 91.45533 79.97362 114.36284
#
# Poissons Ratio (x) = 0.30704 -0.05189
# Poissons Ratio (y) = 0.35112 0.27058
# Poissons Ratio (z) = -0.04149 0.18922
#
# Static dielectric constant tensor:
#      x y z
#    x 4.424930 0.000000 0.852530 
#    y 0.000000 1.890590 0.000000 
#    z 0.852530 0.000000 2.081080 
# 
# From -- ./inp_files/6891.got.cif
#   From: 2010.05.17/outbox.cif.g08.bks.cpg/sg12_4_cif.got.tgz:6891.got - 2010.06.03 13:09:07.
