data_PCOD9220536
_publ_section_title
;
Structure prediction by ZEFSAII (Michael W. Deem and Ramdas Pophale) SiO2 
 PCOD9220536
Probable space group: C 2/M
;
_chemical_formula_sum "Si O2"
_cell_formula_units_Z 56
_cell_length_a 7.798626
_cell_length_b 28.632881
_cell_length_c 14.690666
_cell_angle_alpha 90.000000
_cell_angle_beta 68.620045
_cell_angle_gamma 90.000000
_cell_volume 3054.638753
_symmetry_space_group_name_H-M "C 2/M"
_symmetry_group_IT_number 12
_symmetry_cell_setting 'monoclinic'
loop_
_space_group_symop_operation_xyz
x,y,z
-x,y,-z
-x,-y,-z
x,-y,z
1/2+x,1/2+y,z
1/2-x,1/2+y,-z
1/2-x,1/2-y,-z
1/2+x,1/2-y,z
loop_
_atom_site_type_symbol
_atom_site_label
_atom_site_fract_x
_atom_site_fract_y
_atom_site_fract_z
Si Si1 0.662605 0.275673 0.896658
Si Si2 0.654527 0.701608 0.392867
Si Si3 0.139522 0.385061 0.701528
Si Si4 0.856620 0.392721 0.610104
Si Si5 0.848052 0.798217 0.310198
Si Si6 0.465510 0.824186 0.105583
Si Si7 0.005396 0.944537 0.390135
O O1 0.631868 0.295633 0.801889
O O2 0.672169 0.219476 0.884010
O O3 0.850514 0.297620 0.896503
O O4 0.500000 0.285404 0.000000
O O5 0.500000 0.704719 0.500000
O O6 0.785452 0.657103 0.377856
O O7 0.770075 0.748757 0.360910
O O8 0.540358 0.693656 0.322711
O O9 0.089231 0.360193 0.805910
O O10 0.306538 0.420883 0.680366
O O11 0.964933 0.405865 0.681767
O O12 0.789086 0.339442 0.635235
O O13 0.673743 0.422040 0.622083
O O14 0.000000 0.398181 0.500000
O O15 0.500000 0.846160 0.000000
O O16 0.000000 0.935079 0.500000
O O17 0.006302 0.000000 0.376701
#
# Coordination Sequence:
#
# PCOD9220536 Si02
#       7
#     8   8   8   8   8   8   8
#     4  11  22  36  56  85 121 170 219 257 302 356
#     4  12  23  36  54  82 127 175 209 247 292 363
#     4  12  23  41  63  93 127 162 211 256 314 372
#     4  12  23  39  63  93 129 166 206 254 303 379
#     4  12  22  36  55  86 125 172 212 249 301 356
#     4  11  23  37  59  87 121 169 213 262 309 357
#     4  11  25  45  69  95 123 161 205 260 321 372
#
# _framework density 18.332771999999999
#
# number of rings (size 3 to 8) (size 9 to 14) (size 15 to 20)
#    0.000    0.429    5.714    5.571    2.000    0.857 
#    0.000    0.000    0.000    0.429    0.000    1.000 
#    0.000    0.000    0.000    0.000    0.000    0.000 
#
# Total GULP energy -156644.192991 kJ/mol
# GULP energy per Si atom -5594.435464 kJ/mol
# Density = 1.829105 g / cm^3
# Si number density = 18.332772 Si / 1000 Ang^3
#
#
#
# Elastic Constant Matrix: (Units=GPa)
#
#
# Indices 1 2 3 4 5 6 
#
# 1 130.6143 45.2985 39.1345 0.0000 7.7349 0.0000
# 2 45.2985 74.5840 34.2354 0.0000 -2.0728 0.0000
# 3 39.1345 34.2354 113.1861 0.0000 10.5403 0.0000
# 4 0.0000 0.0000 0.0000 16.6673 0.0000 -0.3015
# 5 7.7349 -2.0728 10.5403 0.0000 28.2989 0.0000
# 6 0.0000 0.0000 0.0000 -0.3015 0.0000 20.3176
#
#
#
# Elastic Compliance Matrix: (Units=1/GPa)
#
#
# Indices 1 2 3 4 5 6 
#
# 1 0.010213 -0.005533 -0.001616 0.000000 -0.002595 0.000000
# 2 -0.005533 0.018817 -0.004193 0.000000 0.004452 0.000000
# 3 -0.001616 -0.004193 0.011032 0.000000 -0.003974 0.000000
# 4 0.000000 0.000000 0.000000 0.060014 0.000000 0.000891
# 5 -0.002595 0.004452 -0.003974 0.000000 0.037853 0.000000
# 6 0.000000 0.000000 0.000000 0.000891 0.000000 0.049232
#
#
# Mechanical properties :
#
#
# Convention : Reuss Voigt Hill
#
# Bulk Modulus (GPa) = 57.54551 61.74681 59.64616
# Shear Modulus (GPa) = 23.18716 26.37115 24.77915
#
# Velocity S-wave (km/s) = 3.56025 3.79683 3.68044
# Velocity P-wave (km/s) = 6.95400 7.27843 7.11806
#
# Compressibility (1/GPa) = 0.01737755
#
# Stress axis : x y z
#
# Youngs Moduli (GPa) = 97.91509 53.14433 90.64480
#
# Poissons Ratio (x) = 0.29406 0.14647
# Poissons Ratio (y) = 0.54178 0.38007
# Poissons Ratio (z) = 0.15822 0.22283
#
# Static dielectric constant tensor:
#      x y z
#    x 1.678590 0.000000 0.012370 
#    y 0.000000 1.613020 0.000000 
#    z 0.012370 0.000000 1.661140 
# 
# From -- ./inp_files/200533.got.cif
#   From: 2010.05.17/outbox.cif.g08.bks.cpg/sg12_101_cif.got.tgz:200533.got - 2010.06.03 13:09:07.
