data_PCOD9220319
_publ_section_title
;
Structure prediction by ZEFSAII (Michael W. Deem and Ramdas Pophale) SiO2 
 PCOD9220319
Probable space group: C 2/M
;
_chemical_formula_sum "Si O2"
_cell_formula_units_Z 48
_cell_length_a 12.538706
_cell_length_b 19.054842
_cell_length_c 17.201238
_cell_angle_alpha 90.000000
_cell_angle_beta 32.255323
_cell_angle_gamma 90.000000
_cell_volume 2193.357137
_symmetry_space_group_name_H-M "C 2/M"
_symmetry_group_IT_number 12
_symmetry_cell_setting 'monoclinic'
loop_
_space_group_symop_operation_xyz
x,y,z
-x,y,-z
-x,-y,-z
x,-y,z
1/2+x,1/2+y,z
1/2-x,1/2+y,-z
1/2-x,1/2-y,-z
1/2+x,1/2-y,z
loop_
_atom_site_type_symbol
_atom_site_label
_atom_site_fract_x
_atom_site_fract_y
_atom_site_fract_z
Si Si1 0.440096 0.728926 0.332544
Si Si2 0.549247 0.000000 0.267001
Si Si3 0.609884 0.500000 0.119212
Si Si4 0.579960 0.621194 0.365591
Si Si5 0.404489 0.000000 0.188323
Si Si6 0.844466 0.000000 0.435355
Si Si7 0.949413 0.149720 0.164479
Si Si8 0.286926 0.151282 0.837034
O O1 0.250000 0.750000 0.500000
O O2 0.586522 0.684517 0.299695
O O3 0.416935 0.684556 0.267953
O O4 0.523819 0.804213 0.256907
O O5 0.407975 0.000000 0.278998
O O6 0.680420 0.068624 0.178866
O O7 0.392451 0.000000 0.434573
O O8 0.496744 0.500000 0.270466
O O9 0.523163 0.569832 0.132222
O O10 0.854466 0.500000 0.979672
O O11 0.500000 0.644018 0.500000
O O12 0.777108 0.570094 0.243790
O O13 0.404529 0.570041 0.443591
O O14 0.761390 0.160513 0.224250
O O15 0.122430 0.177516 0.999872
#
# Coordination Sequence:
#
# PCOD9220319 Si02
#       8
#     8   4   4   8   4   4   8   8
#     4  12  28  46  71  99 148 187 231 291 354 421
#     4  12  21  44  73 102 134 191 233 290 359 412
#     4  12  23  44  72 105 140 181 227 301 353 409
#     4  11  23  42  69 106 139 183 232 291 351 424
#     4  11  23  40  77 103 140 182 235 291 354 413
#     4  11  21  42  64 104 144 174 235 288 354 423
#     4  11  25  49  70 103 141 181 237 291 348 425
#     4  11  26  46  73 102 135 188 239 286 352 423
#
# _framework density 21.884260000000001
#
# number of rings (size 3 to 8) (size 9 to 14) (size 15 to 20)
#    0.000    0.667    5.000    2.500    2.333    2.667 
#    6.000    0.833    0.000    0.000    0.000    0.000 
#    0.000    0.000    0.000    0.000    0.000    0.000 
#
# Total GULP energy -133813.160285 kJ/mol
# GULP energy per Si atom -5575.548345 kJ/mol
# Density = 2.183445 g / cm^3
# Si number density = 21.884260 Si / 1000 Ang^3
#
#
#
# Elastic Constant Matrix: (Units=GPa)
#
#
# Indices 1 2 3 4 5 6 
#
# 1 66.6326 24.4554 20.7702 0.0059 27.7912 0.0010
# 2 24.4554 92.7525 18.2354 0.0058 8.8715 -0.0019
# 3 20.7702 18.2354 97.7831 0.0250 19.9949 -0.0162
# 4 0.0059 0.0058 0.0250 17.5154 0.0022 -16.2725
# 5 27.7912 8.8715 19.9949 0.0022 34.3698 0.0016
# 6 0.0010 -0.0019 -0.0162 -16.2725 0.0016 -21.8330
#
#
#
# Elastic Compliance Matrix: (Units=1/GPa)
#
#
# Indices 1 2 3 4 5 6 
#
# 1 0.024506 -0.004593 -0.000612 -0.000002 -0.018274 0.000002
# 2 -0.004593 0.012163 -0.001601 0.000000 0.001506 0.000000
# 3 -0.000612 -0.001601 0.011883 -0.000014 -0.006005 0.000001
# 4 -0.000002 0.000000 -0.000014 0.033734 0.000009 -0.025143
# 5 -0.018274 0.001506 -0.006005 0.000009 0.046976 0.000000
# 6 0.000002 0.000000 0.000001 -0.025143 0.000000 -0.027063
#
#
# Mechanical properties :
#
#
# Convention : Reuss Voigt Hill
#
# Bulk Modulus (GPa) = 28.62005 42.67669 35.64837
# Shear Modulus (GPa) = 39.22878 18.92427 29.07652
#
# Velocity S-wave (km/s) = 4.23845 2.94384 3.64902
# Velocity P-wave (km/s) = 6.08761 5.57659 5.83769
#
# Compressibility (1/GPa) = 0.03494054
#
# Stress axis : x y z
#
# Youngs Moduli (GPa) = 40.80664 82.21608 84.15287
#
# Poissons Ratio (x) = 0.37763 0.05151
# Poissons Ratio (y) = 0.18743 0.13469
# Poissons Ratio (z) = 0.02498 0.13159
#
# Static dielectric constant tensor:
#      x y z
#    x 1.839030 0.000000 -0.018220 
#    y 0.000000 1.865240 0.000000 
#    z -0.018220 0.000000 1.832020 
# 
# From -- ./inp_files/271663.got.cif
#   From: 2010.05.17/outbox.cif.g08.bks.cpg/sg12_136_cif.got.tgz:271663.got - 2010.06.03 13:09:07.
