data_PCOD9220694
_publ_section_title
;
Structure prediction by ZEFSAII (Michael W. Deem and Ramdas Pophale) SiO2 
 PCOD9220694
Probable space group: C 2/M
;
_chemical_formula_sum "Si O2"
_cell_formula_units_Z 56
_cell_length_a 17.989911
_cell_length_b 18.695898
_cell_length_c 9.301701
_cell_angle_alpha 90.000000
_cell_angle_beta 107.490202
_cell_angle_gamma 90.000000
_cell_volume 2983.875036
_symmetry_space_group_name_H-M "C 2/M"
_symmetry_group_IT_number 12
_symmetry_cell_setting 'monoclinic'
loop_
_space_group_symop_operation_xyz
x,y,z
-x,y,-z
-x,-y,-z
x,-y,z
1/2+x,1/2+y,z
1/2-x,1/2+y,-z
1/2-x,1/2-y,-z
1/2+x,1/2-y,z
loop_
_atom_site_type_symbol
_atom_site_label
_atom_site_fract_x
_atom_site_fract_y
_atom_site_fract_z
Si Si1 0.722626 0.678014 0.567794
Si Si2 0.567579 0.584205 0.419202
Si Si3 0.474121 0.670600 0.148403
Si Si4 0.367391 0.919207 0.695556
Si Si5 0.341703 0.919290 0.026804
Si Si6 0.708140 0.317790 0.902684
Si Si7 0.987500 0.329602 0.167315
O O1 0.750000 0.750000 0.500000
O O2 0.641973 0.637226 0.479127
O O3 0.793584 0.622292 0.591322
O O4 0.715915 0.691924 0.735358
O O5 0.500000 0.594793 0.500000
O O6 0.590608 0.500000 0.435487
O O7 0.520881 0.607479 0.250687
O O8 0.381201 0.669766 0.109307
O O9 0.495443 0.748669 0.224627
O O10 0.500000 0.671569 0.000000
O O11 0.358903 0.920949 0.865080
O O12 0.447214 0.877103 0.720027
O O13 0.371095 0.000000 0.645559
O O14 0.256311 0.886470 0.984177
O O15 0.349157 0.000000 0.085373
O O16 0.403284 0.865788 0.135261
O O17 0.750000 0.250000 0.000000
O O18 0.000000 0.328891 0.000000
#
# Coordination Sequence:
#
# PCOD9220694 Si02
#       7
#     8   8   8   8   8   8   8
#     4  11  23  39  64  91 121 158 207 252 313 369
#     4  11  24  43  63  90 127 170 218 264 309 374
#     4  11  23  39  64  87 123 161 207 258 315 369
#     4   9  17  30  52  82 114 147 188 238 292 354
#     4   9  17  29  51  80 114 150 188 241 297 354
#     4  11  22  38  58  91 122 158 202 253 307 369
#     4   9  16  29  51  84 116 147 188 238 297 361
#
# _framework density 18.767541999999999
#
# number of rings (size 3 to 8) (size 9 to 14) (size 15 to 20)
#    0.000    1.857    2.857    1.714    4.000    3.143 
#    0.000    0.000    0.000    0.000    0.000    1.000 
#    0.000    0.000    0.000    0.000    0.000    0.000 
#
# Total GULP energy -156088.597687 kJ/mol
# GULP energy per Si atom -5574.592775 kJ/mol
# Density = 1.872483 g / cm^3
# Si number density = 18.767542 Si / 1000 Ang^3
#
#
#
# Elastic Constant Matrix: (Units=GPa)
#
#
# Indices 1 2 3 4 5 6 
#
# 1 127.5200 50.0316 39.1204 0.0000 22.9698 0.0000
# 2 50.0316 86.3037 18.5586 0.0000 5.0709 0.0000
# 3 39.1204 18.5586 41.5810 0.0000 11.0580 0.0000
# 4 0.0000 0.0000 0.0000 25.3363 0.0000 5.0482
# 5 22.9698 5.0709 11.0580 0.0000 23.8783 0.0000
# 6 0.0000 0.0000 0.0000 5.0482 0.0000 31.2374
#
#
#
# Elastic Compliance Matrix: (Units=1/GPa)
#
#
# Indices 1 2 3 4 5 6 
#
# 1 0.014359 -0.005980 -0.008559 0.000000 -0.008579 0.000000
# 2 -0.005980 0.015307 -0.002134 0.000000 0.003490 0.000000
# 3 -0.008559 -0.002134 0.035063 0.000000 -0.007551 0.000000
# 4 0.000000 0.000000 0.000000 0.040782 0.000000 -0.006591
# 5 -0.008579 0.003490 -0.007551 0.000000 0.052887 0.000000
# 6 0.000000 0.000000 0.000000 -0.006591 0.000000 0.033078
#
#
# Mechanical properties :
#
#
# Convention : Reuss Voigt Hill
#
# Bulk Modulus (GPa) = 31.86419 52.31399 42.08909
# Shear Modulus (GPa) = 21.25097 25.93667 23.59382
#
# Velocity S-wave (km/s) = 3.36865 3.72155 3.54949
# Velocity P-wave (km/s) = 5.66971 6.81189 6.26688
#
# Compressibility (1/GPa) = 0.03138319
#
# Stress axis : x y z
#
# Youngs Moduli (GPa) = 69.64286 65.32804 28.52041
#
# Poissons Ratio (x) = 0.39063 0.24410
# Poissons Ratio (y) = 0.41643 0.06087
# Poissons Ratio (z) = 0.59607 0.13944
#
# Static dielectric constant tensor:
#      x y z
#    x 1.643380 0.000000 0.005470 
#    y 0.000000 1.663100 0.000000 
#    z 0.005470 0.000000 1.616910 
# 
# From -- ./inp_files/76002.got.cif
#   From: 2010.05.17/outbox.cif.g08.bks.cpg/sg12_39_cif.got.tgz:76002.got - 2010.06.03 13:09:07.
