data_PCOD9220618
_publ_section_title
;
Structure prediction by ZEFSAII (Michael W. Deem and Ramdas Pophale) SiO2 
 PCOD9220618
Probable space group: C 2/M
;
_chemical_formula_sum "Si O2"
_cell_formula_units_Z 42
_cell_length_a 13.615229
_cell_length_b 15.215963
_cell_length_c 13.562856
_cell_angle_alpha 90.000000
_cell_angle_beta 51.919329
_cell_angle_gamma 90.000000
_cell_volume 2211.715482
_symmetry_space_group_name_H-M "C 2/M"
_symmetry_group_IT_number 12
_symmetry_cell_setting 'monoclinic'
loop_
_space_group_symop_operation_xyz
x,y,z
-x,y,-z
-x,-y,-z
x,-y,z
1/2+x,1/2+y,z
1/2-x,1/2+y,-z
1/2-x,1/2-y,-z
1/2+x,1/2-y,z
loop_
_atom_site_type_symbol
_atom_site_label
_atom_site_fract_x
_atom_site_fract_y
_atom_site_fract_z
Si Si1 0.708170 0.669081 0.591113
Si Si2 0.000000 0.500000 0.500000
Si Si3 0.877770 0.000000 0.698005
Si Si4 0.152855 0.354369 0.290108
Si Si5 0.622777 0.399815 0.988704
Si Si6 0.819676 0.000000 0.513230
Si Si7 0.911052 0.177141 0.788040
O O1 0.750000 0.750000 0.500000
O O2 0.777911 0.670448 0.651222
O O3 0.735353 0.582567 0.510271
O O4 0.560458 0.667213 0.700832
O O5 0.951599 0.422570 0.608658
O O6 0.804955 0.000000 0.639518
O O7 0.854082 0.091996 0.767666
O O8 0.028967 0.000000 0.590599
O O9 0.257011 0.397399 0.155243
O O10 0.111458 0.266274 0.258594
O O11 0.605109 0.500000 0.038680
O O12 0.500000 0.379630 0.000000
O O13 0.635193 0.332159 0.071083
#
# Coordination Sequence:
#
# PCOD9220618 Si02
#       7
#     8   2   4   8   8   4   8
#     4  11  22  37  58  90 126 170 211 259 325 386
#     4  12  26  42  60 100 134 170 208 262 342 396
#     4   9  18  35  56  86 120 157 211 266 317 381
#     4  12  24  41  65  93 134 171 215 272 326 400
#     4  11  22  41  69  95 126 171 221 275 326 384
#     4   9  19  32  54  79 120 162 205 253 309 381
#     4  11  22  39  64  94 125 168 221 272 326 386
#
# _framework density 18.989785000000001
#
# number of rings (size 3 to 8) (size 9 to 14) (size 15 to 20)
#    0.000    1.143    3.810    3.429    0.000    3.048 
#    0.000    0.000    0.000    0.000    0.000    2.667 
#    0.000    0.000    0.000    0.000    0.000    0.000 
#
# Total GULP energy -116952.115637 kJ/mol
# GULP energy per Si atom -5569.148364 kJ/mol
# Density = 1.894656 g / cm^3
# Si number density = 18.989785 Si / 1000 Ang^3
#
#
#
# Elastic Constant Matrix: (Units=GPa)
#
#
# Indices 1 2 3 4 5 6 
#
# 1 69.1269 43.6581 34.5359 0.0000 27.2222 0.0000
# 2 43.6581 160.4607 60.0101 0.0000 24.9268 0.0000
# 3 34.5359 60.0101 129.4239 0.0000 17.7418 0.0000
# 4 0.0000 0.0000 0.0000 39.3793 0.0000 5.9392
# 5 27.2222 24.9268 17.7418 0.0000 38.0828 0.0000
# 6 0.0000 0.0000 0.0000 5.9392 0.0000 22.5163
#
#
#
# Elastic Compliance Matrix: (Units=1/GPa)
#
#
# Indices 1 2 3 4 5 6 
#
# 1 0.023052 -0.003160 -0.002896 0.000000 -0.013060 0.000000
# 2 -0.003160 0.008445 -0.002803 0.000000 -0.001963 0.000000
# 3 -0.002896 -0.002803 0.009896 0.000000 -0.000705 0.000000
# 4 0.000000 0.000000 0.000000 0.026446 0.000000 -0.006976
# 5 -0.013060 -0.001963 -0.000705 0.000000 0.037208 0.000000
# 6 0.000000 0.000000 0.000000 -0.006976 0.000000 0.046252
#
#
# Mechanical properties :
#
#
# Convention : Reuss Voigt Hill
#
# Bulk Modulus (GPa) = 42.23976 70.60217 56.42096
# Shear Modulus (GPa) = 28.26313 34.71617 31.48965
#
# Velocity S-wave (km/s) = 3.86208 4.28033 4.07657
# Velocity P-wave (km/s) = 6.49455 7.85417 7.20650
#
# Compressibility (1/GPa) = 0.02367438
#
# Stress axis : x y z
#
# Youngs Moduli (GPa) = 43.38055 118.40987 101.05289
#
# Poissons Ratio (x) = 0.37419 0.29261
# Poissons Ratio (y) = 0.13709 0.28330
# Poissons Ratio (z) = 0.12561 0.33196
#
# Static dielectric constant tensor:
#      x y z
#    x 1.657700 0.000000 -0.020620 
#    y 0.000000 1.658090 0.000000 
#    z -0.020620 0.000000 1.652510 
# 
# From -- ./inp_files/142647.got.cif
#   From: 2010.05.17/outbox.cif.g08.bks.cpg/sg12_72_cif.got.tgz:142647.got - 2010.06.03 13:09:07.
