data_PCOD9220817
_publ_section_title
;
Structure prediction by ZEFSAII (Michael W. Deem and Ramdas Pophale) SiO2 
 PCOD9220817
Probable space group: C 2/M
;
_chemical_formula_sum "Si O2"
_cell_formula_units_Z 64
_cell_length_a 10.103100
_cell_length_b 18.218850
_cell_length_c 32.157486
_cell_angle_alpha 90.000000
_cell_angle_beta 142.897023
_cell_angle_gamma 90.000000
_cell_volume 3570.710330
_symmetry_space_group_name_H-M "C 2/M"
_symmetry_group_IT_number 12
_symmetry_cell_setting 'monoclinic'
loop_
_space_group_symop_operation_xyz
x,y,z
-x,y,-z
-x,-y,-z
x,-y,z
1/2+x,1/2+y,z
1/2-x,1/2+y,-z
1/2-x,1/2-y,-z
1/2+x,1/2-y,z
loop_
_atom_site_type_symbol
_atom_site_label
_atom_site_fract_x
_atom_site_fract_y
_atom_site_fract_z
Si Si1 0.528957 0.821026 0.574278
Si Si2 0.861185 0.913096 0.708072
Si Si3 0.186190 0.087123 0.713815
Si Si4 0.645435 0.680139 0.420602
Si Si5 0.868111 0.412112 0.133080
Si Si6 0.487410 0.841719 0.075334
Si Si7 0.008642 0.830233 0.916024
Si Si8 0.426091 0.588609 0.151662
O O1 0.648962 0.874787 0.636057
O O2 0.450341 0.750901 0.580410
O O3 0.706475 0.801111 0.582857
O O4 0.319442 0.853689 0.497087
O O5 0.059059 0.897830 0.725374
O O6 0.932647 0.891419 0.772109
O O7 0.828329 0.000000 0.699941
O O8 0.439225 0.106177 0.785482
O O9 0.052265 0.129607 0.644965
O O10 0.172778 0.000000 0.702896
O O11 0.836762 0.500000 0.125233
O O12 0.947307 0.385602 0.107862
O O13 0.649769 0.369176 0.090680
O O14 0.541520 0.756473 0.098446
O O15 0.682449 0.880696 0.099321
O O16 0.260767 0.840146 0.993041
O O17 0.980590 0.871571 0.865398
O O18 0.422821 0.500000 0.146307
#
# Coordination Sequence:
#
# PCOD9220817 Si02
#       8
#     8   8   8   8   8   8   8   8
#     4   9  18  33  54  81 111 142 179 222 266 317
#     4   9  18  35  56  79 108 142 182 225 269 321
#     4   9  18  35  56  79 108 142 182 225 269 321
#     4   9  18  33  54  81 111 142 179 222 266 317
#     4  11  22  39  60  83 112 148 189 233 280 334
#     4  11  23  41  59  81 112 151 184 229 287 342
#     4  11  25  39  57  85 116 141 186 239 283 334
#     4  11  22  39  60  83 112 148 189 233 280 334
#
# _framework density 17.923604000000001
#
# number of rings (size 3 to 8) (size 9 to 14) (size 15 to 20)
#    0.000    2.000    1.250    2.250    0.000    7.500 
#    2.250    2.500    0.000    0.000    0.000    3.500 
#    0.000    0.000    0.000    0.000    0.000    0.000 
#
# Total GULP energy -178557.190082 kJ/mol
# GULP energy per Si atom -5579.912190 kJ/mol
# Density = 1.788281 g / cm^3
# Si number density = 17.923604 Si / 1000 Ang^3
#
#
#
# Elastic Constant Matrix: (Units=GPa)
#
#
# Indices 1 2 3 4 5 6 
#
# 1 29.5505 7.4683 -4.2956 0.0000 -2.9672 0.0000
# 2 7.4683 48.1571 26.8475 0.0000 -7.5783 -0.0001
# 3 -4.2956 26.8475 66.2401 -0.0002 -14.4490 -0.0002
# 4 0.0000 0.0000 -0.0002 26.3727 -0.0001 2.0379
# 5 -2.9672 -7.5783 -14.4490 -0.0001 17.9240 0.0000
# 6 0.0000 -0.0001 -0.0002 2.0379 0.0000 37.0158
#
#
#
# Elastic Compliance Matrix: (Units=1/GPa)
#
#
# Indices 1 2 3 4 5 6 
#
# 1 0.038207 -0.009022 0.008107 0.000000 0.009046 0.000000
# 2 -0.009022 0.029103 -0.012161 0.000000 0.001008 0.000000
# 3 0.008107 -0.012161 0.023930 0.000000 0.015491 0.000000
# 4 0.000000 0.000000 0.000000 0.038080 0.000000 -0.002096
# 5 0.009046 0.001008 0.015491 0.000000 0.070203 0.000000
# 6 0.000000 0.000000 0.000000 -0.002096 0.000000 0.027131
#
#
# Mechanical properties :
#
#
# Convention : Reuss Voigt Hill
#
# Bulk Modulus (GPa) = 15.36316 22.66535 19.01425
# Shear Modulus (GPa) = 18.21491 23.85767 21.03629
#
# Velocity S-wave (km/s) = 3.19133 3.65235 3.42959
# Velocity P-wave (km/s) = 4.70845 5.51898 5.12975
#
# Compressibility (1/GPa) = 0.06509080
#
# Stress axis : x y z
#
# Youngs Moduli (GPa) = 26.17299 34.36119 41.78809
#
# Poissons Ratio (x) = 0.30999 -0.33879
# Poissons Ratio (y) = 0.23612 0.50817
# Poissons Ratio (z) = -0.21220 0.41785
#
# Static dielectric constant tensor:
#      x y z
#    x 1.605710 0.000000 0.005190 
#    y 0.000000 1.582570 0.000000 
#    z 0.005190 0.000000 1.631520 
# 
# From -- ./inp_files/373000.got.cif
#   From: 2010.05.17/outbox.cif.g08.bks.cpg/sg12_187_cif.got.tgz:373000.got - 2010.06.03 13:09:07.
