data_PCOD9220684
_publ_section_title
;
Structure prediction by ZEFSAII (Michael W. Deem and Ramdas Pophale) SiO2 
 PCOD9220684
Probable space group: C 2/M
;
_chemical_formula_sum "Si O2"
_cell_formula_units_Z 50
_cell_length_a 12.419697
_cell_length_b 15.358753
_cell_length_c 13.438970
_cell_angle_alpha 90.000000
_cell_angle_beta 78.458498
_cell_angle_gamma 90.000000
_cell_volume 2511.663921
_symmetry_space_group_name_H-M "C 2/M"
_symmetry_group_IT_number 12
_symmetry_cell_setting 'monoclinic'
loop_
_space_group_symop_operation_xyz
x,y,z
-x,y,-z
-x,-y,-z
x,-y,z
1/2+x,1/2+y,z
1/2-x,1/2+y,-z
1/2-x,1/2-y,-z
1/2+x,1/2-y,z
loop_
_atom_site_type_symbol
_atom_site_label
_atom_site_fract_x
_atom_site_fract_y
_atom_site_fract_z
Si Si1 0.793053 0.604990 0.272413
Si Si2 0.500000 0.000000 0.000000
Si Si3 0.523701 0.142365 0.176393
Si Si4 0.563211 0.394250 0.388313
Si Si5 0.739628 0.395850 0.850727
Si Si6 0.490131 0.661599 0.186357
Si Si7 0.210364 0.900528 0.075976
O O1 0.791080 0.500000 0.268506
O O2 0.917270 0.632193 0.266617
O O3 0.692660 0.630021 0.362250
O O4 0.760851 0.638596 0.167071
O O5 0.511046 0.076077 0.086286
O O6 0.638650 0.123685 0.209569
O O7 0.522082 0.242425 0.144934
O O8 0.500000 0.370287 0.500000
O O9 0.556062 0.500000 0.378377
O O10 0.511390 0.352267 0.299410
O O11 0.724015 0.500000 0.856683
O O12 0.635418 0.357549 0.814635
O O13 0.738929 0.361404 0.964854
O O14 0.579323 0.599879 0.115507
O O15 0.255494 0.000000 0.064023
#
# Coordination Sequence:
#
# PCOD9220684 Si02
#       7
#     8   2   8   8   8   8   8
#     4   9  17  35  58  81 114 155 206 250 293 365
#     4  12  24  44  56  84 128 188 226 240 280 392
#     4  12  25  37  58  85 125 173 217 251 304 368
#     4   9  19  40  71  97 116 153 205 263 334 396
#     4  11  22  38  56  85 127 171 209 249 315 381
#     4  11  24  36  59  91 126 156 209 274 315 366
#     4   9  19  35  56  80 116 165 204 248 305 364
#
# _framework density 19.907122999999999
#
# number of rings (size 3 to 8) (size 9 to 14) (size 15 to 20)
#    0.000    1.760    1.600    3.840    8.960    1.920 
#    0.000    0.800    0.000    0.000    0.000    5.040 
#    0.000    0.000    0.000    0.000    0.000    0.000 
#
# Total GULP energy -139283.193450 kJ/mol
# GULP energy per Si atom -5571.327738 kJ/mol
# Density = 1.986181 g / cm^3
# Si number density = 19.907123 Si / 1000 Ang^3
#
#
#
# Elastic Constant Matrix: (Units=GPa)
#
#
# Indices 1 2 3 4 5 6 
#
# 1 124.7858 3.3951 37.8263 0.0000 -23.2837 0.0000
# 2 3.3951 69.2067 9.9957 0.0000 4.9106 0.0000
# 3 37.8263 9.9957 81.6478 0.0000 -20.9594 0.0000
# 4 0.0000 0.0000 0.0000 5.7392 0.0000 0.3264
# 5 -23.2837 4.9106 -20.9594 0.0000 15.9800 0.0000
# 6 0.0000 0.0000 0.0000 0.3264 0.0000 20.8874
#
#
#
# Elastic Compliance Matrix: (Units=1/GPa)
#
#
# Indices 1 2 3 4 5 6 
#
# 1 0.011265 -0.001498 -0.001061 0.000000 0.015482 0.000000
# 2 -0.001498 0.016146 -0.004699 0.000000 -0.013307 0.000000
# 3 -0.001061 -0.004699 0.020034 0.000000 0.026174 0.000000
# 4 0.000000 0.000000 0.000000 0.174396 0.000000 -0.002725
# 5 0.015482 -0.013307 0.026174 0.000000 0.123555 0.000000
# 6 0.000000 0.000000 0.000000 -0.002725 0.000000 0.047918
#
#
# Mechanical properties :
#
#
# Convention : Reuss Voigt Hill
#
# Bulk Modulus (GPa) = 30.36849 42.00827 36.18838
# Shear Modulus (GPa) = 11.93870 23.48286 17.71078
#
# Velocity S-wave (km/s) = 2.45158 3.43829 2.98597
# Velocity P-wave (km/s) = 4.82720 6.07539 5.48690
#
# Compressibility (1/GPa) = 0.03292887
#
# Stress axis : x y z
#
# Youngs Moduli (GPa) = 88.77086 61.93561 49.91630
#
# Poissons Ratio (x) = 0.09277 0.05297
# Poissons Ratio (y) = 0.13297 0.23454
# Poissons Ratio (z) = 0.09420 0.29101
#
# Static dielectric constant tensor:
#      x y z
#    x 1.788600 0.000000 -0.044870 
#    y 0.000000 1.733020 0.000000 
#    z -0.044870 0.000000 1.676810 
# 
# From -- ./inp_files/204950.got.cif
#   From: 2010.05.17/outbox.cif.g08.bks.cpg/sg12_103_cif.got.tgz:204950.got - 2010.06.03 13:09:07.
