data_PCOD9220289
_publ_section_title
;
Structure prediction by ZEFSAII (Michael W. Deem and Ramdas Pophale) SiO2 
 PCOD9220289
Probable space group: C 2/M
;
_chemical_formula_sum "Si O2"
_cell_formula_units_Z 52
_cell_length_a 10.251357
_cell_length_b 20.834746
_cell_length_c 11.840472
_cell_angle_alpha 90.000000
_cell_angle_beta 64.059118
_cell_angle_gamma 90.000000
_cell_volume 2274.139180
_symmetry_space_group_name_H-M "C 2/M"
_symmetry_group_IT_number 12
_symmetry_cell_setting 'monoclinic'
loop_
_space_group_symop_operation_xyz
x,y,z
-x,y,-z
-x,-y,-z
x,-y,z
1/2+x,1/2+y,z
1/2-x,1/2+y,-z
1/2-x,1/2-y,-z
1/2+x,1/2-y,z
loop_
_atom_site_type_symbol
_atom_site_label
_atom_site_fract_x
_atom_site_fract_y
_atom_site_fract_z
Si Si1 0.129900 0.500000 0.791591
Si Si2 0.073861 0.252007 0.214380
Si Si3 0.447597 0.500000 0.760137
Si Si4 0.091504 0.881586 0.078292
Si Si5 0.117199 0.601027 0.145855
Si Si6 0.788214 0.000000 0.490129
Si Si7 0.347626 0.893419 0.611808
Si Si8 0.751423 0.758619 0.364686
O O1 0.274288 0.500000 0.811335
O O2 0.213042 0.500000 0.639590
O O3 0.025792 0.562961 0.842938
O O4 0.110098 0.187156 0.133186
O O5 0.131641 0.320720 0.149098
O O6 0.124473 0.238577 0.325523
O O7 0.904151 0.268224 0.269313
O O8 0.484556 0.435185 0.814470
O O9 0.541359 0.500000 0.608423
O O10 0.242769 0.913405 0.981393
O O11 0.000000 0.870246 0.000000
O O12 0.128073 0.579458 0.272852
O O13 0.719499 0.059472 0.451368
O O14 0.500000 0.869856 0.500000
O O15 0.241751 0.833917 0.660202
O O16 0.750000 0.750000 0.500000
#
# Coordination Sequence:
#
# PCOD9220289 Si02
#       8
#     4   8   4   8   8   4   8   8
#     4  12  27  47  71 108 145 193 243 305 385 437
#     4  11  25  44  70 109 144 197 254 300 375 437
#     4  12  29  47  71 108 144 192 241 305 382 444
#     4  12  26  50  73 103 146 195 251 308 368 446
#     4  11  24  44  72 104 144 191 246 300 365 443
#     4  12  23  43  74 101 143 181 241 305 366 458
#     4  11  21  41  68 105 133 182 243 298 368 437
#     4  11  23  41  68 102 149 192 240 308 368 437
#
# _framework density 22.865794999999999
#
# number of rings (size 3 to 8) (size 9 to 14) (size 15 to 20)
#    0.000    0.615    1.538    8.077    2.154    1.231 
#    0.000    3.077    0.000    0.000    0.000    0.000 
#    0.000    0.000    0.000    0.000    0.000    0.000 
#
# Total GULP energy -145103.849106 kJ/mol
# GULP energy per Si atom -5580.917273 kJ/mol
# Density = 2.281375 g / cm^3
# Si number density = 22.865795 Si / 1000 Ang^3
#
#
#
# Elastic Constant Matrix: (Units=GPa)
#
#
# Indices 1 2 3 4 5 6 
#
# 1 99.4918 34.0724 25.3961 0.0000 11.9478 0.0000
# 2 34.0724 103.4220 47.5241 0.0000 23.0283 0.0000
# 3 25.3961 47.5241 112.0655 0.0000 -1.6541 0.0000
# 4 0.0000 0.0000 0.0000 19.7747 0.0000 -6.5103
# 5 11.9478 23.0283 -1.6541 0.0000 43.5185 0.0000
# 6 0.0000 0.0000 0.0000 -6.5103 0.0000 30.0194
#
#
#
# Elastic Compliance Matrix: (Units=1/GPa)
#
#
# Indices 1 2 3 4 5 6 
#
# 1 0.011583 -0.002731 -0.001493 0.000000 -0.001792 0.000000
# 2 -0.002731 0.014864 -0.005793 0.000000 -0.007336 0.000000
# 3 -0.001493 -0.005793 0.011776 0.000000 0.003923 0.000000
# 4 0.000000 0.000000 0.000000 0.054458 0.000000 0.011810
# 5 -0.001792 -0.007336 0.003923 0.000000 0.027502 0.000000
# 6 0.000000 0.000000 0.000000 0.011810 0.000000 0.035873
#
#
# Mechanical properties :
#
#
# Convention : Reuss Voigt Hill
#
# Bulk Modulus (GPa) = 54.97784 58.77385 56.87585
# Shear Modulus (GPa) = 27.44952 32.52831 29.98891
#
# Velocity S-wave (km/s) = 3.46853 3.77580 3.62542
# Velocity P-wave (km/s) = 6.33536 6.69092 6.51557
#
# Compressibility (1/GPa) = 0.01818915
#
# Stress axis : x y z
#
# Youngs Moduli (GPa) = 86.33648 67.27571 84.91641
#
# Poissons Ratio (x) = 0.18372 0.12680
# Poissons Ratio (y) = 0.23577 0.49192
# Poissons Ratio (z) = 0.12892 0.38973
#
# Static dielectric constant tensor:
#      x y z
#    x 1.942580 0.000000 0.091720 
#    y 0.000000 1.735170 0.000000 
#    z 0.091720 0.000000 2.033010 
# 
# From -- ./inp_files/133824.got.cif
#   From: 2010.05.17/outbox.cif.g08.bks.cpg/sg12_67_cif.got.tgz:133824.got - 2010.06.03 13:09:07.
