data_PCOD9220126
_publ_section_title
;
Structure prediction by ZEFSAII (Michael W. Deem and Ramdas Pophale) SiO2 
 PCOD9220126
Probable space group: C 2/M
;
_chemical_formula_sum "Si O2"
_cell_formula_units_Z 52
_cell_length_a 18.843871
_cell_length_b 15.130469
_cell_length_c 14.208069
_cell_angle_alpha 90.000000
_cell_angle_beta 38.905656
_cell_angle_gamma 90.000000
_cell_volume 2544.162176
_symmetry_space_group_name_H-M "C 2/M"
_symmetry_group_IT_number 12
_symmetry_cell_setting 'monoclinic'
loop_
_space_group_symop_operation_xyz
x,y,z
-x,y,-z
-x,-y,-z
x,-y,z
1/2+x,1/2+y,z
1/2-x,1/2+y,-z
1/2-x,1/2-y,-z
1/2+x,1/2-y,z
loop_
_atom_site_type_symbol
_atom_site_label
_atom_site_fract_x
_atom_site_fract_y
_atom_site_fract_z
Si Si1 0.224308 0.665562 0.091211
Si Si2 0.990079 0.629181 0.900702
Si Si3 0.482082 0.223045 0.406966
Si Si4 0.309727 0.000000 0.992968
Si Si5 0.942930 0.836631 0.961800
Si Si6 0.931851 0.899237 0.347863
Si Si7 0.674709 0.898777 0.550315
O O1 0.249284 0.577547 0.008503
O O2 0.093013 0.673573 0.252581
O O3 0.250000 0.750000 0.000000
O O4 0.307226 0.663606 0.095648
O O5 0.095731 0.606500 0.724771
O O6 0.883311 0.577012 0.971593
O O7 0.976324 0.734518 0.909802
O O8 0.000000 0.606471 0.000000
O O9 0.500000 0.224399 0.500000
O O10 0.471861 0.322775 0.377752
O O11 0.376303 0.168169 0.474049
O O12 0.993988 0.890200 0.822439
O O13 0.000000 0.865198 0.000000
O O14 0.802657 0.880343 0.449459
O O15 0.937515 0.000000 0.379178
O O16 0.668298 0.000000 0.521507
#
# Coordination Sequence:
#
# PCOD9220126 Si02
#       7
#     8   8   8   4   8   8   8
#     4  12  23  45  65  95 133 174 214 269 330 381
#     4  11  21  38  68 101 128 165 223 271 323 378
#     4  12  26  43  67  96 132 170 217 270 330 382
#     4  12  21  40  66  96 135 170 213 281 323 372
#     4  11  25  43  67  95 128 169 223 264 322 396
#     4  11  25  45  66  93 133 178 213 260 321 390
#     4  11  22  43  66  95 133 169 216 266 323 384
#
# _framework density 20.438946999999999
#
# number of rings (size 3 to 8) (size 9 to 14) (size 15 to 20)
#    0.000    0.615    6.923    0.692    3.231    2.154 
#    0.000    0.000    0.000    0.000    0.000    0.000 
#    0.000    0.000    0.000    0.000    0.000    0.000 
#
# Total GULP energy -144777.480948 kJ/mol
# GULP energy per Si atom -5568.364652 kJ/mol
# Density = 2.039243 g / cm^3
# Si number density = 20.438947 Si / 1000 Ang^3
#
#
#
# Elastic Constant Matrix: (Units=GPa)
#
#
# Indices 1 2 3 4 5 6 
#
# 1 132.5418 42.5630 37.0710 0.0000 1.1125 0.0000
# 2 42.5630 106.2925 7.7643 0.0000 5.3102 0.0000
# 3 37.0710 7.7643 23.5530 0.0000 3.5083 0.0000
# 4 0.0000 0.0000 0.0000 16.1237 0.0000 -11.5093
# 5 1.1125 5.3102 3.5083 0.0000 31.4986 0.0000
# 6 0.0000 0.0000 0.0000 -11.5093 0.0000 35.5022
#
#
#
# Elastic Compliance Matrix: (Units=1/GPa)
#
#
# Indices 1 2 3 4 5 6 
#
# 1 0.015554 -0.004663 -0.023367 0.000000 0.002839 0.000000
# 2 -0.004663 0.011090 0.004004 0.000000 -0.002151 0.000000
# 3 -0.023367 0.004004 0.079207 0.000000 -0.008672 0.000000
# 4 0.000000 0.000000 0.000000 0.080694 0.000000 0.026160
# 5 0.002839 -0.002151 -0.008672 0.000000 0.032976 0.000000
# 6 0.000000 0.000000 0.000000 0.026160 0.000000 0.036648
#
#
# Mechanical properties :
#
#
# Convention : Reuss Voigt Hill
#
# Bulk Modulus (GPa) = 17.30112 48.57597 32.93854
# Shear Modulus (GPa) = 15.45658 28.29082 21.87370
#
# Velocity S-wave (km/s) = 2.75295 3.72447 3.27494
# Velocity P-wave (km/s) = 4.31140 6.50489 5.51823
#
# Compressibility (1/GPa) = 0.05779973
#
# Stress axis : x y z
#
# Youngs Moduli (GPa) = 64.29215 90.16880 12.62513
#
# Poissons Ratio (x) = 0.42049 0.29501
# Poissons Ratio (y) = 0.29981 -0.05055
# Poissons Ratio (z) = 1.50230 -0.36106
#
# Static dielectric constant tensor:
#      x y z
#    x 1.818670 0.000000 -0.033720 
#    y 0.000000 1.739420 0.000000 
#    z -0.033720 0.000000 1.740980 
# 
# From -- ./inp_files/225636.got.cif
#   From: 2010.05.17/outbox.cif.g08.bks.cpg/sg12_113_cif.got.tgz:225636.got - 2010.06.03 13:09:07.
