data_PCOD9220064
_publ_section_title
;
Structure prediction by ZEFSAII (Michael W. Deem and Ramdas Pophale) SiO2 
 PCOD9220064
Probable space group: C 2/M
;
_chemical_formula_sum "Si O2"
_cell_formula_units_Z 48
_cell_length_a 17.528502
_cell_length_b 32.492469
_cell_length_c 8.347212
_cell_angle_alpha 90.000000
_cell_angle_beta 156.445168
_cell_angle_gamma 90.000000
_cell_volume 1899.867229
_symmetry_space_group_name_H-M "C 2/M"
_symmetry_group_IT_number 12
_symmetry_cell_setting 'monoclinic'
loop_
_space_group_symop_operation_xyz
x,y,z
-x,y,-z
-x,-y,-z
x,-y,z
1/2+x,1/2+y,z
1/2-x,1/2+y,-z
1/2-x,1/2-y,-z
1/2+x,1/2-y,z
loop_
_atom_site_type_symbol
_atom_site_label
_atom_site_fract_x
_atom_site_fract_y
_atom_site_fract_z
Si Si1 0.650791 0.123434 0.511122
Si Si2 0.290885 0.631199 0.417566
Si Si3 0.570294 0.451734 0.449439
Si Si4 0.018680 0.457528 0.346279
Si Si5 0.274509 0.222048 0.706237
Si Si6 0.621496 0.795482 0.574823
O O1 0.728508 0.126506 0.482202
O O2 0.671431 0.077059 0.605308
O O3 0.727346 0.161090 0.762505
O O4 0.415321 0.126668 0.069943
O O5 0.437115 0.595097 0.646185
O O6 0.347453 0.679984 0.518391
O O7 0.500000 0.447739 0.500000
O O8 0.510531 0.500000 0.288394
O O9 0.800902 0.454480 0.872874
O O10 0.093262 0.500000 0.421381
O O11 0.000000 0.458669 0.500000
O O12 0.250000 0.250000 0.500000
O O13 0.238231 0.254003 0.780375
O O14 0.486337 0.206598 0.155842
O O15 0.500000 0.796768 0.500000
#
# Coordination Sequence:
#
# PCOD9220064 Si02
#       6
#     8   8   8   8   8   8
#     4   9  17  32  52  78 107 140 181 227 281 327
#     4   9  18  32  54  78 106 144 184 226 277 337
#     4   9  18  33  54  79 109 144 180 223 278 335
#     4   9  17  30  51  77 104 136 174 220 270 323
#     4  11  21  38  58  79 112 152 188 233 285 342
#     4  11  22  36  57  83 111 146 189 239 286 339
#
# _framework density 25.264924000000001
#
# number of rings (size 3 to 8) (size 9 to 14) (size 15 to 20)
#    0.000    2.333    1.667    1.500    0.000    1.333 
#    0.000    6.667    0.000    0.000    0.000    4.667 
#    0.000    0.000    0.000    0.000    0.000    0.167 
#
# Total GULP energy -133615.269199 kJ/mol
# GULP energy per Si atom -5567.302883 kJ/mol
# Density = 2.520742 g / cm^3
# Si number density = 25.264924 Si / 1000 Ang^3
#
#
#
# Elastic Constant Matrix: (Units=GPa)
#
#
# Indices 1 2 3 4 5 6 
#
# 1 85.8686 78.9821 -7.0109 0.0000 16.2216 0.0000
# 2 78.9821 274.0917 0.2345 -0.0001 26.1485 0.0000
# 3 -7.0109 0.2345 53.0341 0.0000 19.1163 0.0000
# 4 0.0000 -0.0001 0.0000 16.4249 0.0000 2.2980
# 5 16.2216 26.1485 19.1163 0.0000 34.0787 0.0000
# 6 0.0000 0.0000 0.0000 2.2980 0.0000 39.0000
#
#
#
# Elastic Compliance Matrix: (Units=1/GPa)
#
#
# Indices 1 2 3 4 5 6 
#
# 1 0.017527 -0.004295 0.005208 0.000000 -0.007969 0.000000
# 2 -0.004295 0.005067 0.000093 0.000000 -0.001896 0.000000
# 3 0.005208 0.000093 0.025650 0.000000 -0.016939 0.000000
# 4 0.000000 0.000000 0.000000 0.061389 0.000000 -0.003617
# 5 -0.007969 -0.001896 -0.016939 0.000000 0.044093 0.000000
# 6 0.000000 0.000000 0.000000 -0.003617 0.000000 0.025854
#
#
# Mechanical properties :
#
#
# Convention : Reuss Voigt Hill
#
# Bulk Modulus (GPa) = 19.89779 61.93397 40.91588
# Shear Modulus (GPa) = 25.73097 40.61997 33.17547
#
# Velocity S-wave (km/s) = 3.19477 4.01404 3.62761
# Velocity P-wave (km/s) = 4.63697 6.78604 5.81171
#
# Compressibility (1/GPa) = 0.05025683
#
# Stress axis : x y z
#
# Youngs Moduli (GPa) = 57.05598 197.36587 38.98701
#
# Poissons Ratio (x) = 0.84762 -0.20306
# Poissons Ratio (y) = 0.24504 -0.00363
# Poissons Ratio (z) = -0.29717 -0.01839
#
# Static dielectric constant tensor:
#      x y z
#    x 1.900120 0.000000 0.004370 
#    y 0.000000 2.314300 0.000000 
#    z 0.004370 0.000000 2.100540 
# 
# From -- ./inp_files/80857.got.cif
#   From: 2010.05.17/outbox.cif.g08.bks.cpg/sg12_41_cif.got.tgz:80857.got - 2010.06.03 13:09:07.
