data_PCOD9220935
_publ_section_title
;
Structure prediction by ZEFSAII (Michael W. Deem and Ramdas Pophale) SiO2 
 PCOD9220935
Probable space group: C 2/M
;
_chemical_formula_sum "Si O2"
_cell_formula_units_Z 38
_cell_length_a 7.805164
_cell_length_b 12.595175
_cell_length_c 16.256624
_cell_angle_alpha 90.000000
_cell_angle_beta 93.994732
_cell_angle_gamma 90.000000
_cell_volume 1594.263782
_symmetry_space_group_name_H-M "C 2/M"
_symmetry_group_IT_number 12
_symmetry_cell_setting 'monoclinic'
loop_
_space_group_symop_operation_xyz
x,y,z
-x,y,-z
-x,-y,-z
x,-y,z
1/2+x,1/2+y,z
1/2-x,1/2+y,-z
1/2-x,1/2-y,-z
1/2+x,1/2-y,z
loop_
_atom_site_type_symbol
_atom_site_label
_atom_site_fract_x
_atom_site_fract_y
_atom_site_fract_z
Si Si1 0.205114 0.655433 0.623091
Si Si2 0.242325 0.186489 0.877140
Si Si3 0.576966 0.615875 0.594682
Si Si4 0.000000 0.182915 0.000000
Si Si5 0.047571 0.384834 0.790224
Si Si6 0.000000 0.500000 0.500000
O O1 0.404025 0.625380 0.643788
O O2 0.085979 0.622211 0.695272
O O3 0.192919 0.781917 0.611802
O O4 0.127367 0.592598 0.543508
O O5 0.377806 0.239812 0.943629
O O6 0.145830 0.284616 0.831291
O O7 0.350323 0.125349 0.812106
O O8 0.111483 0.125865 0.933391
O O9 0.500000 0.620814 0.500000
O O10 0.660797 0.500000 0.609245
O O11 0.111449 0.500000 0.822571
#
# Coordination Sequence:
#
# PCOD9220935 Si02
#       6
#     8   8   8   4   8   2
#     4  12  24  42  63  89 127 168 216 273 318 370
#     4   9  19  38  64  92 125 164 201 248 311 375
#     4  11  24  41  61  89 117 157 212 272 328 380
#     4   8  16  38  64  90 130 160 196 254 298 374
#     4  11  22  40  61  90 126 165 206 256 316 370
#     4  12  24  40  68  88 124 174 226 266 318 374
#
# _framework density 23.835453000000001
#
# number of rings (size 3 to 8) (size 9 to 14) (size 15 to 20)
#    0.000    1.474    3.158    1.895    0.000    0.000 
#    0.000   25.263    0.000    0.000    0.000    0.000 
#    0.000    0.000    0.000    0.000    0.000    0.000 
#
# Total GULP energy -105966.738164 kJ/mol
# GULP energy per Si atom -5577.196745 kJ/mol
# Density = 2.378120 g / cm^3
# Si number density = 23.835453 Si / 1000 Ang^3
#
#
#
# Elastic Constant Matrix: (Units=GPa)
#
#
# Indices 1 2 3 4 5 6 
#
# 1 56.2150 19.6349 29.3638 0.0000 -19.4773 0.0000
# 2 19.6349 183.8286 24.3128 0.0000 -1.5675 0.0000
# 3 29.3638 24.3128 68.3116 0.0000 -44.9718 0.0000
# 4 0.0000 0.0000 0.0000 -19.8916 0.0000 -10.8320
# 5 -19.4773 -1.5675 -44.9718 0.0000 46.4598 0.0000
# 6 0.0000 0.0000 0.0000 -10.8320 0.0000 20.9529
#
#
#
# Elastic Compliance Matrix: (Units=1/GPa)
#
#
# Indices 1 2 3 4 5 6 
#
# 1 0.023224 -0.001328 -0.008629 0.000000 0.001339 0.000000
# 2 -0.001328 0.006218 -0.005157 0.000000 -0.005339 0.000000
# 3 -0.008629 -0.005157 0.048758 0.000000 0.043405 0.000000
# 4 0.000000 0.000000 0.000000 -0.039229 0.000000 -0.020280
# 5 0.001339 -0.005339 0.043405 0.000000 0.063921 0.000000
# 6 0.000000 0.000000 0.000000 -0.020280 0.000000 0.037242
#
#
# Mechanical properties :
#
#
# Convention : Reuss Voigt Hill
#
# Bulk Modulus (GPa) = 20.84485 50.55313 35.69899
# Shear Modulus (GPa) = 26.83094 25.17379 26.00236
#
# Velocity S-wave (km/s) = 3.35875 3.25337 3.30648
# Velocity P-wave (km/s) = 4.87912 5.94708 5.43938
#
# Compressibility (1/GPa) = 0.04797349
#
# Stress axis : x y z
#
# Youngs Moduli (GPa) = 43.05939 160.81795 20.50927
#
# Poissons Ratio (x) = 0.21356 0.17697
# Poissons Ratio (y) = 0.05718 0.10577
# Poissons Ratio (z) = 0.37154 0.82933
#
# Static dielectric constant tensor:
#      x y z
#    x 1.947280 0.000000 -0.092140 
#    y 0.000000 1.799540 0.000000 
#    z -0.092140 0.000000 1.975900 
# 
# From -- ./inp_files/254635.got.cif
#   From: 2010.05.17/outbox.cif.g08.bks.cpg/sg12_128_cif.got.tgz:254635.got - 2010.06.03 13:09:07.
