data_PCOD9220668
_publ_section_title
;
Structure prediction by ZEFSAII (Michael W. Deem and Ramdas Pophale) SiO2 
 PCOD9220668
Probable space group: C 2/M
;
_chemical_formula_sum "Si O2"
_cell_formula_units_Z 60
_cell_length_a 12.506534
_cell_length_b 20.072090
_cell_length_c 23.851977
_cell_angle_alpha 90.000000
_cell_angle_beta 150.720824
_cell_angle_gamma 90.000000
_cell_volume 2928.336258
_symmetry_space_group_name_H-M "C 2/M"
_symmetry_group_IT_number 12
_symmetry_cell_setting 'monoclinic'
loop_
_space_group_symop_operation_xyz
x,y,z
-x,y,-z
-x,-y,-z
x,-y,z
1/2+x,1/2+y,z
1/2-x,1/2+y,-z
1/2-x,1/2-y,-z
1/2+x,1/2-y,z
loop_
_atom_site_type_symbol
_atom_site_label
_atom_site_fract_x
_atom_site_fract_y
_atom_site_fract_z
Si Si1 0.350768 0.324872 0.053638
Si Si2 0.526640 0.787566 0.381946
Si Si3 0.019211 0.576191 0.075850
Si Si4 0.955776 0.147226 0.312506
Si Si5 0.686950 0.313476 0.310135
Si Si6 0.126411 0.078608 0.615989
Si Si7 0.500000 0.330057 0.000000
Si Si8 0.011344 0.328409 0.256282
O O1 0.511135 0.327041 0.180529
O O2 0.250000 0.250000 0.000000
O O3 0.473659 0.349782 0.053708
O O4 0.155608 0.374927 0.977184
O O5 0.750000 0.750000 0.500000
O O6 0.387454 0.723862 0.294641
O O7 0.419848 0.820249 0.387329
O O8 0.529266 0.837782 0.331323
O O9 0.991641 0.500000 0.081678
O O10 0.253738 0.604721 0.198506
O O11 0.000000 0.578612 0.000000
O O12 0.128122 0.149146 0.340558
O O13 0.008324 0.113904 0.395899
O O14 0.659695 0.235853 0.312391
O O15 0.367657 0.111887 0.720794
O O16 0.000000 0.089898 0.500000
O O17 0.143934 0.000000 0.634042
O O18 0.237945 0.309904 0.874476
#
# Coordination Sequence:
#
# PCOD9220668 Si02
#       8
#     8   8   8   8   8   8   4   8
#     4  12  23  38  63  95 140 176 228 275 338 407
#     4  11  23  40  64  97 137 173 220 288 358 413
#     4  11  24  42  67 100 138 185 231 278 338 419
#     4  11  22  39  65  97 132 172 224 277 342 408
#     4  11  22  37  63  95 133 175 216 280 344 403
#     4  11  24  45  70  95 128 177 237 289 335 410
#     4  12  24  36  61  94 129 182 210 274 342 416
#     4  11  23  37  62  96 133 172 224 272 349 411
#
# _framework density 20.489450999999999
#
# number of rings (size 3 to 8) (size 9 to 14) (size 15 to 20)
#    0.000    0.800    5.333    2.800    2.800    1.600 
#    0.000    1.333    0.000    1.600    0.000    5.600 
#    0.000    0.000    0.000    0.000    0.000    0.000 
#
# Total GULP energy -167234.851873 kJ/mol
# GULP energy per Si atom -5574.495062 kJ/mol
# Density = 2.044282 g / cm^3
# Si number density = 20.489451 Si / 1000 Ang^3
#
#
#
# Elastic Constant Matrix: (Units=GPa)
#
#
# Indices 1 2 3 4 5 6 
#
# 1 193.8546 39.0001 33.2502 0.0002 -8.4048 -0.0001
# 2 39.0001 90.5210 17.7117 0.0013 -0.2428 0.0006
# 3 33.2502 17.7117 83.6500 0.0028 -5.8734 0.0006
# 4 0.0002 0.0013 0.0028 17.5216 0.0015 3.2025
# 5 -8.4048 -0.2428 -5.8734 0.0015 32.7834 0.0005
# 6 -0.0001 0.0006 0.0006 3.2025 0.0005 20.5666
#
#
#
# Elastic Compliance Matrix: (Units=1/GPa)
#
#
# Indices 1 2 3 4 5 6 
#
# 1 0.005967 -0.002212 -0.001820 0.000000 0.001187 0.000000
# 2 -0.002212 0.012348 -0.001791 -0.000001 -0.000796 0.000000
# 3 -0.001820 -0.001791 0.013190 -0.000002 0.001883 0.000000
# 4 0.000000 -0.000001 -0.000002 0.058744 -0.000003 -0.009147
# 5 0.001187 -0.000796 0.001883 -0.000003 0.031139 0.000000
# 6 0.000000 0.000000 0.000000 -0.009147 0.000000 0.050047
#
#
# Mechanical properties :
#
#
# Convention : Reuss Voigt Hill
#
# Bulk Modulus (GPa) = 50.35588 60.88330 55.61959
# Shear Modulus (GPa) = 26.35718 32.71188 29.53453
#
# Velocity S-wave (km/s) = 3.59050 3.99999 3.80076
# Velocity P-wave (km/s) = 6.46674 7.14928 6.81656
#
# Compressibility (1/GPa) = 0.01985866
#
# Stress axis : x y z
#
# Youngs Moduli (GPa) = 167.58516 80.98240 75.81706
#
# Poissons Ratio (x) = 0.17910 0.13801
# Poissons Ratio (y) = 0.37062 0.13582
# Poissons Ratio (z) = 0.30505 0.14508
#
# Static dielectric constant tensor:
#      x y z
#    x 1.805310 0.000000 -0.041630 
#    y 0.000000 1.700490 0.000000 
#    z -0.041630 0.000000 1.849200 
# 
# From -- ./inp_files/336888.got.cif
#   From: 2010.05.17/outbox.cif.g08.bks.cpg/sg12_169_cif.got.tgz:336888.got - 2010.06.03 13:09:07.
