data_PCOD9220198
_publ_section_title
;
Structure prediction by ZEFSAII (Michael W. Deem and Ramdas Pophale) SiO2 
 PCOD9220198
Probable space group: C 2/M
;
_chemical_formula_sum "Si O2"
_cell_formula_units_Z 52
_cell_length_a 23.329973
_cell_length_b 27.085405
_cell_length_c 5.122042
_cell_angle_alpha 90.000000
_cell_angle_beta 66.237855
_cell_angle_gamma 90.000000
_cell_volume 2962.245827
_symmetry_space_group_name_H-M "C 2/M"
_symmetry_group_IT_number 12
_symmetry_cell_setting 'monoclinic'
loop_
_space_group_symop_operation_xyz
x,y,z
-x,y,-z
-x,-y,-z
x,-y,z
1/2+x,1/2+y,z
1/2-x,1/2+y,-z
1/2-x,1/2-y,-z
1/2+x,1/2-y,z
loop_
_atom_site_type_symbol
_atom_site_label
_atom_site_fract_x
_atom_site_fract_y
_atom_site_fract_z
Si Si1 0.570115 0.259507 0.768381
Si Si2 0.852234 0.767123 0.877883
Si Si3 0.000000 0.584117 0.500000
Si Si4 0.567375 0.142032 0.755654
Si Si5 0.229435 0.331376 0.004217
Si Si6 0.334997 0.000000 0.535286
Si Si7 0.077236 0.500000 0.112708
Si Si8 0.699035 0.105959 0.572923
O O1 0.592714 0.273464 0.437210
O O2 0.576060 0.200151 0.752891
O O3 0.500000 0.271348 0.000000
O O4 0.619569 0.278472 0.890666
O O5 0.823689 0.711225 0.937098
O O6 0.794588 0.802058 0.908204
O O7 0.943887 0.619371 0.508613
O O8 0.967418 0.546570 0.758978
O O9 0.625869 0.114749 0.768658
O O10 0.500000 0.132534 0.000000
O O11 0.215179 0.359034 0.299837
O O12 0.232155 0.371596 0.767048
O O13 0.367341 0.000000 0.764280
O O14 0.296233 0.049524 0.533869
O O15 0.392415 0.000000 0.225856
#
# Coordination Sequence:
#
# PCOD9220198 Si02
#       8
#     8   8   4   8   8   4   4   8
#     4  11  23  34  56  82 114 140 174 226 282 316
#     4  11  21  40  56  82 106 143 183 227 263 335
#     4  11  24  34  50  66 100 146 194 236 286 317
#     4  11  23  32  51  71 107 143 188 234 284 316
#     4  11  23  38  60  75 106 144 190 224 268 320
#     4  12  24  39  54  74 106 134 187 244 283 313
#     4  11  24  38  50  68  96 146 190 240 286 317
#     4  12  23  39  54  79 101 146 186 239 273 326
#
# _framework density 17.554248999999999
#
# number of rings (size 3 to 8) (size 9 to 14) (size 15 to 20)
#    0.000    0.769    4.615    3.231    6.462    3.077 
#    0.000    0.000    0.000    0.000    0.000    0.000 
#    0.000    0.000    0.000   48.462    0.000    0.000 
#
# Total GULP energy -145175.562567 kJ/mol
# GULP energy per Si atom -5583.675483 kJ/mol
# Density = 1.751429 g / cm^3
# Si number density = 17.554249 Si / 1000 Ang^3
#
#
#
# Elastic Constant Matrix: (Units=GPa)
#
#
# Indices 1 2 3 4 5 6 
#
# 1 55.5242 23.4571 -1.8896 0.0000 9.9227 0.0000
# 2 23.4571 63.6387 10.9904 0.0000 -2.0706 0.0000
# 3 -1.8896 10.9904 48.0490 0.0000 8.5889 0.0000
# 4 0.0000 0.0000 0.0000 20.8640 0.0000 2.4416
# 5 9.9227 -2.0706 8.5889 0.0000 28.8698 0.0000
# 6 0.0000 0.0000 0.0000 2.4416 0.0000 10.5396
#
#
#
# Elastic Compliance Matrix: (Units=1/GPa)
#
#
# Indices 1 2 3 4 5 6 
#
# 1 0.024428 -0.010252 0.005215 0.000000 -0.010683 0.000000
# 2 -0.010252 0.020824 -0.006404 0.000000 0.006922 0.000000
# 3 0.005215 -0.006404 0.024170 0.000000 -0.009442 0.000000
# 4 0.000000 0.000000 0.000000 0.049265 0.000000 -0.011413
# 5 -0.010683 0.006922 -0.009442 0.000000 0.041616 0.000000
# 6 0.000000 0.000000 0.000000 -0.011413 0.000000 0.097525
#
#
# Mechanical properties :
#
#
# Convention : Reuss Voigt Hill
#
# Bulk Modulus (GPa) = 21.48682 25.81421 23.65051
# Shear Modulus (GPa) = 16.87923 21.03163 18.95543
#
# Velocity S-wave (km/s) = 3.10425 3.46510 3.28963
# Velocity P-wave (km/s) = 5.01151 5.54496 5.28497
#
# Compressibility (1/GPa) = 0.04654016
#
# Stress axis : x y z
#
# Youngs Moduli (GPa) = 40.93649 48.02178 41.37398
#
# Poissons Ratio (x) = 0.49234 -0.21578
# Poissons Ratio (y) = 0.41970 0.26495
# Poissons Ratio (z) = -0.21350 0.30752
#
# Static dielectric constant tensor:
#      x y z
#    x 1.625660 0.000000 0.058290 
#    y 0.000000 1.598070 0.000000 
#    z 0.058290 0.000000 1.716210 
# 
# From -- ./inp_files/25905.got.cif
#   From: 2010.05.17/outbox.cif.g08.bks.cpg/sg12_13_cif.got.tgz:25905.got - 2010.06.03 13:09:07.
