data_PCOD9220969
_publ_section_title
;
Structure prediction by ZEFSAII (Michael W. Deem and Ramdas Pophale) SiO2 
 PCOD9220969
Probable space group: C 2/M
;
_chemical_formula_sum "Si O2"
_cell_formula_units_Z 42
_cell_length_a 17.354247
_cell_length_b 14.963943
_cell_length_c 9.534320
_cell_angle_alpha 90.000000
_cell_angle_beta 70.550300
_cell_angle_gamma 90.000000
_cell_volume 2334.656120
_symmetry_space_group_name_H-M "C 2/M"
_symmetry_group_IT_number 12
_symmetry_cell_setting 'monoclinic'
loop_
_space_group_symop_operation_xyz
x,y,z
-x,y,-z
-x,-y,-z
x,-y,z
1/2+x,1/2+y,z
1/2-x,1/2+y,-z
1/2-x,1/2-y,-z
1/2+x,1/2-y,z
loop_
_atom_site_type_symbol
_atom_site_label
_atom_site_fract_x
_atom_site_fract_y
_atom_site_fract_z
Si Si1 0.740703 0.600528 0.148801
Si Si2 0.233484 0.269060 0.347992
Si Si3 0.083364 0.396133 0.366521
Si Si4 0.578124 0.853165 0.043683
Si Si5 0.500000 0.500000 0.000000
Si Si6 0.135353 0.843718 0.943276
O O1 0.716749 0.500000 0.203578
O O2 0.718897 0.675886 0.275021
O O3 0.837884 0.605614 0.065424
O O4 0.697356 0.626245 0.028887
O O5 0.250000 0.250000 0.500000
O O6 0.155771 0.332601 0.373972
O O7 0.310444 0.315719 0.223848
O O8 0.105397 0.500000 0.375344
O O9 0.069194 0.380135 0.210304
O O10 0.000000 0.377500 0.500000
O O11 0.500000 0.879795 0.000000
O O12 0.590890 0.746347 0.023130
O O13 0.571452 0.421607 0.953980
#
# Coordination Sequence:
#
# PCOD9220969 Si02
#       6
#     8   8   8   8   2   8
#     4  11  22  42  69  93 127 170 216 275 327 383
#     4  11  25  44  65  92 136 180 212 264 334 396
#     4  11  25  41  63  93 128 171 215 267 322 385
#     4  11  22  40  65  93 128 167 215 268 326 381
#     4  12  24  36  76 106 118 164 240 274 324 396
#     4  11  22  42  67  97 127 170 220 275 326 384
#
# _framework density 17.989799999999999
#
# number of rings (size 3 to 8) (size 9 to 14) (size 15 to 20)
#    0.000    0.952    5.714    1.714    6.667    2.286 
#    0.000    0.000    0.000    1.714    0.000    0.000 
#    0.000    0.000    0.000    0.000    0.000    0.000 
#
# Total GULP energy -117100.140717 kJ/mol
# GULP energy per Si atom -5576.197177 kJ/mol
# Density = 1.794885 g / cm^3
# Si number density = 17.989800 Si / 1000 Ang^3
#
#
#
# Elastic Constant Matrix: (Units=GPa)
#
#
# Indices 1 2 3 4 5 6 
#
# 1 140.6836 53.6770 68.6450 0.0000 10.3973 0.0000
# 2 53.6770 137.2072 63.3468 0.0000 -6.1273 0.0000
# 3 68.6450 63.3468 124.4509 0.0000 9.5370 0.0000
# 4 0.0000 0.0000 0.0000 9.1220 0.0000 0.0137
# 5 10.3973 -6.1273 9.5370 0.0000 23.7793 0.0000
# 6 0.0000 0.0000 0.0000 0.0137 0.0000 17.2435
#
#
#
# Elastic Compliance Matrix: (Units=1/GPa)
#
#
# Indices 1 2 3 4 5 6 
#
# 1 0.010291 -0.002186 -0.004308 0.000000 -0.003335 0.000000
# 2 -0.002186 0.010491 -0.004555 0.000000 0.005486 0.000000
# 3 -0.004308 -0.004555 0.013078 0.000000 -0.004535 0.000000
# 4 0.000000 0.000000 0.000000 0.109626 0.000000 -0.000087
# 5 -0.003335 0.005486 -0.004535 0.000000 0.046744 0.000000
# 6 0.000000 0.000000 0.000000 -0.000087 0.000000 0.057993
#
#
# Mechanical properties :
#
#
# Convention : Reuss Voigt Hill
#
# Bulk Modulus (GPa) = 85.01916 85.96437 85.49177
# Shear Modulus (GPa) = 18.23220 24.47381 21.35300
#
# Velocity S-wave (km/s) = 3.18696 3.69240 3.44895
# Velocity P-wave (km/s) = 7.80414 8.12817 7.96780
#
# Compressibility (1/GPa) = 0.01176205
#
# Stress axis : x y z
#
# Youngs Moduli (GPa) = 97.17584 95.31715 76.46707
#
# Poissons Ratio (x) = 0.20834 0.32942
# Poissons Ratio (y) = 0.21241 0.34830
# Poissons Ratio (z) = 0.41863 0.43416
#
# Static dielectric constant tensor:
#      x y z
#    x 1.600900 0.000000 -0.004960 
#    y 0.000000 1.622110 0.000000 
#    z -0.004960 0.000000 1.583510 
# 
# From -- ./inp_files/72968.got.cif
#   From: 2010.05.17/outbox.cif.g08.bks.cpg/sg12_37_cif.got.tgz:72968.got - 2010.06.03 13:09:07.
