data_PCOD9220950
_publ_section_title
;
Structure prediction by ZEFSAII (Michael W. Deem and Ramdas Pophale) SiO2 
 PCOD9220950
Probable space group: C 2/M
;
_chemical_formula_sum "Si O2"
_cell_formula_units_Z 48
_cell_length_a 29.063774
_cell_length_b 12.084456
_cell_length_c 16.564713
_cell_angle_alpha 90.000000
_cell_angle_beta 27.467717
_cell_angle_gamma 90.000000
_cell_volume 2683.479231
_symmetry_space_group_name_H-M "C 2/M"
_symmetry_group_IT_number 12
_symmetry_cell_setting 'monoclinic'
loop_
_space_group_symop_operation_xyz
x,y,z
-x,y,-z
-x,-y,-z
x,-y,z
1/2+x,1/2+y,z
1/2-x,1/2+y,-z
1/2-x,1/2-y,-z
1/2+x,1/2-y,z
loop_
_atom_site_type_symbol
_atom_site_label
_atom_site_fract_x
_atom_site_fract_y
_atom_site_fract_z
Si Si1 0.666311 0.500000 0.254869
Si Si2 0.507032 0.500000 0.358897
Si Si3 0.346502 0.368158 0.202540
Si Si4 0.502070 0.733649 0.708919
Si Si5 0.727529 0.771411 0.940432
Si Si6 0.441480 0.633654 0.216846
Si Si7 0.829501 0.365819 0.642462
O O1 0.586099 0.500000 0.307684
O O2 0.603851 0.500000 0.433674
O O3 0.728058 0.389329 0.151732
O O4 0.519409 0.611303 0.290945
O O5 0.335642 0.500000 0.227009
O O6 0.365965 0.329424 0.263575
O O7 0.251987 0.330721 0.298481
O O8 0.447839 0.351957 0.993673
O O9 0.560459 0.709347 0.701132
O O10 0.567868 0.806671 0.544816
O O11 0.390352 0.778190 0.893648
O O12 0.784306 0.680399 0.796739
O O13 0.750000 0.750000 0.000000
O O14 0.429534 0.500000 0.251676
O O15 0.838491 0.500000 0.630677
#
# Coordination Sequence:
#
# PCOD9220950 Si02
#       7
#     4   4   8   8   8   8   8
#     4  11  24  44  60  84 121 155 205 256 294 351
#     4  11  22  40  64  86 115 151 213 255 286 347
#     4   8  16  33  56  88 122 152 195 247 293 347
#     4  12  23  38  63  93 118 161 200 244 302 355
#     4  12  26  41  64  88 117 161 199 248 307 350
#     4   9  16  30  61  92 115 152 203 246 288 349
#     4  11  25  42  59  90 128 158 196 248 301 362
#
# _framework density 17.887225999999998
#
# number of rings (size 3 to 8) (size 9 to 14) (size 15 to 20)
#    0.000    1.500    5.833    1.000    3.500    1.333 
#    0.000    0.833    0.000    0.000    0.000    2.333 
#    0.000    0.000    0.000    0.000    0.000    0.000 
#
# Total GULP energy -133804.627925 kJ/mol
# GULP energy per Si atom -5575.192830 kJ/mol
# Density = 1.784651 g / cm^3
# Si number density = 17.887226 Si / 1000 Ang^3
#
#
#
# Elastic Constant Matrix: (Units=GPa)
#
#
# Indices 1 2 3 4 5 6 
#
# 1 69.8593 14.7155 23.3844 0.0000 7.1536 0.0000
# 2 14.7155 68.6889 34.1308 0.0000 -11.9334 0.0000
# 3 23.3844 34.1308 91.1426 0.0000 -4.4724 0.0000
# 4 0.0000 0.0000 0.0000 84.2057 0.0000 -39.2362
# 5 7.1536 -11.9334 -4.4724 0.0000 18.6834 0.0000
# 6 0.0000 0.0000 0.0000 -39.2362 0.0000 78.5580
#
#
#
# Elastic Compliance Matrix: (Units=1/GPa)
#
#
# Indices 1 2 3 4 5 6 
#
# 1 0.017271 -0.003636 -0.003550 0.000000 -0.009785 0.000000
# 2 -0.003636 0.020683 -0.006168 0.000000 0.013126 0.000000
# 3 -0.003550 -0.006168 0.014233 0.000000 0.000826 0.000000
# 4 0.000000 0.000000 0.000000 0.015478 0.000000 0.007730
# 5 -0.009785 0.013126 0.000826 0.000000 0.065851 0.000000
# 6 0.000000 0.000000 0.000000 0.007730 0.000000 0.016590
#
#
# Mechanical properties :
#
#
# Convention : Reuss Voigt Hill
#
# Bulk Modulus (GPa) = 39.24892 41.57246 40.41069
# Shear Modulus (GPa) = 26.98237 46.78676 36.88457
#
# Velocity S-wave (km/s) = 3.88812 5.11989 4.54592
# Velocity P-wave (km/s) = 6.49205 7.63171 7.08483
#
# Compressibility (1/GPa) = 0.02547841
#
# Stress axis : x y z
#
# Youngs Moduli (GPa) = 57.90206 48.34973 70.25956
#
# Poissons Ratio (x) = 0.17580 0.24939
# Poissons Ratio (y) = 0.21054 0.43337
# Poissons Ratio (z) = 0.20553 0.29823
#
# Static dielectric constant tensor:
#      x y z
#    x 1.664650 0.000000 0.018090 
#    y 0.000000 1.556560 0.000000 
#    z 0.018090 0.000000 1.618000 
# 
# From -- ./inp_files/245879.got.cif
#   From: 2010.05.17/outbox.cif.g08.bks.cpg/sg12_123_cif.got.tgz:245879.got - 2010.06.03 13:09:07.
