data_PCOD9220430
_publ_section_title
;
Structure prediction by ZEFSAII (Michael W. Deem and Ramdas Pophale) SiO2 
 PCOD9220430
Probable space group: C 2/M
;
_chemical_formula_sum "Si O2"
_cell_formula_units_Z 48
_cell_length_a 20.610082
_cell_length_b 8.987321
_cell_length_c 17.249300
_cell_angle_alpha 90.000000
_cell_angle_beta 115.502345
_cell_angle_gamma 90.000000
_cell_volume 2883.773979
_symmetry_space_group_name_H-M "C 2/M"
_symmetry_group_IT_number 12
_symmetry_cell_setting 'monoclinic'
loop_
_space_group_symop_operation_xyz
x,y,z
-x,y,-z
-x,-y,-z
x,-y,z
1/2+x,1/2+y,z
1/2-x,1/2+y,-z
1/2-x,1/2-y,-z
1/2+x,1/2-y,z
loop_
_atom_site_type_symbol
_atom_site_label
_atom_site_fract_x
_atom_site_fract_y
_atom_site_fract_z
Si Si1 0.432607 0.677367 0.276608
Si Si2 0.799476 0.821256 0.459999
Si Si3 0.712906 0.323476 0.098825
Si Si4 0.350809 0.678303 0.087569
Si Si5 0.545124 0.823870 0.444511
Si Si6 0.277279 0.677903 0.272782
O O1 0.444186 0.500000 0.292479
O O2 0.418193 0.708001 0.178123
O O3 0.496560 0.766550 0.348716
O O4 0.357406 0.715275 0.281781
O O5 0.750000 0.750000 0.500000
O O6 0.880432 0.763484 0.512054
O O7 0.773334 0.777024 0.360195
O O8 0.797878 0.000000 0.463719
O O9 0.715038 0.500000 0.109636
O O10 0.784807 0.267137 0.091865
O O11 0.718536 0.248365 0.185392
O O12 0.649909 0.287162 0.004370
O O13 0.335926 0.500000 0.087413
O O14 0.500000 0.796770 0.500000
O O15 0.558632 0.000000 0.445161
O O16 0.271287 0.500000 0.264543
#
# Coordination Sequence:
#
# PCOD9220430 Si02
#       6
#     8   8   8   8   8   8
#     4   9  16  29  48  69  97 133 170 202 246 302
#     4  11  23  39  56  74 101 136 173 213 257 305
#     4   9  15  23  40  64  93 127 163 202 243 291
#     4   8  15  26  38  61  96 130 161 198 246 296
#     4  11  22  34  51  77 105 132 170 215 254 299
#     4   9  18  31  47  68  97 132 166 202 250 303
#
# _framework density 16.644855
#
# number of rings (size 3 to 8) (size 9 to 14) (size 15 to 20)
#    0.000    2.500    1.667    2.500    0.000    5.333 
#    0.000    0.000    0.000    0.000    0.000    1.167 
#    0.000    9.333    0.000    0.000    0.000    0.000 
#
# Total GULP energy -133674.504161 kJ/mol
# GULP energy per Si atom -5569.771007 kJ/mol
# Density = 1.660697 g / cm^3
# Si number density = 16.644855 Si / 1000 Ang^3
#
#
#
# Elastic Constant Matrix: (Units=GPa)
#
#
# Indices 1 2 3 4 5 6 
#
# 1 39.8514 28.7069 46.0093 0.0000 -6.1100 0.0000
# 2 28.7069 39.0957 56.1906 0.0000 -0.2218 0.0000
# 3 46.0093 56.1906 193.8998 0.0000 3.3398 0.0000
# 4 0.0000 0.0000 0.0000 31.4848 0.0000 2.1961
# 5 -6.1100 -0.2218 3.3398 0.0000 12.7865 0.0000
# 6 0.0000 0.0000 0.0000 2.1961 0.0000 19.4488
#
#
#
# Elastic Compliance Matrix: (Units=1/GPa)
#
#
# Indices 1 2 3 4 5 6 
#
# 1 0.063959 -0.041498 -0.003681 0.000000 0.030804 0.000000
# 2 -0.041498 0.070975 -0.010448 0.000000 -0.015869 0.000000
# 3 -0.003681 -0.010448 0.009133 0.000000 -0.004326 0.000000
# 4 0.000000 0.000000 0.000000 0.032013 0.000000 -0.003615
# 5 0.030804 -0.015869 -0.004326 0.000000 0.093782 0.000000
# 6 0.000000 0.000000 0.000000 -0.003615 0.000000 0.051825
#
#
# Mechanical properties :
#
#
# Convention : Reuss Voigt Hill
#
# Bulk Modulus (GPa) = 30.47527 59.40673 44.94100
# Shear Modulus (GPa) = 11.26429 22.20669 16.73549
#
# Velocity S-wave (km/s) = 2.60425 3.65656 3.17432
# Velocity P-wave (km/s) = 5.23371 7.32089 6.36346
#
# Compressibility (1/GPa) = 0.03281349
#
# Stress axis : x y z
#
# Youngs Moduli (GPa) = 15.63494 14.08937 109.49192
#
# Poissons Ratio (x) = 0.58468 0.40308
# Poissons Ratio (y) = 0.64882 1.14398
# Poissons Ratio (z) = 0.05756 0.14721
#
# Static dielectric constant tensor:
#      x y z
#    x 1.523770 0.000000 0.001500 
#    y 0.000000 1.555900 0.000000 
#    z 0.001500 0.000000 1.617600 
# 
# From -- ./inp_files/230366.got.cif
#   From: 2010.05.17/outbox.cif.g08.bks.cpg/sg12_116_cif.got.tgz:230366.got - 2010.06.03 13:09:07.
