data_PCOD9220155
_publ_section_title
;
Structure prediction by ZEFSAII (Michael W. Deem and Ramdas Pophale) SiO2 
 PCOD9220155
Probable space group: C 2/M
;
_chemical_formula_sum "Si O2"
_cell_formula_units_Z 56
_cell_length_a 18.986173
_cell_length_b 17.919545
_cell_length_c 8.663782
_cell_angle_alpha 90.000000
_cell_angle_beta 109.017698
_cell_angle_gamma 90.000000
_cell_volume 2786.735686
_symmetry_space_group_name_H-M "C 2/M"
_symmetry_group_IT_number 12
_symmetry_cell_setting 'monoclinic'
loop_
_space_group_symop_operation_xyz
x,y,z
-x,y,-z
-x,-y,-z
x,-y,z
1/2+x,1/2+y,z
1/2-x,1/2+y,-z
1/2-x,1/2-y,-z
1/2+x,1/2-y,z
loop_
_atom_site_type_symbol
_atom_site_label
_atom_site_fract_x
_atom_site_fract_y
_atom_site_fract_z
Si Si1 0.027957 0.631977 0.346961
Si Si2 0.766445 0.912032 0.857536
Si Si3 0.121822 0.354890 0.919845
Si Si4 0.215861 0.166425 0.460037
Si Si5 0.897906 0.185165 0.061767
Si Si6 0.555910 0.301443 0.266262
Si Si7 0.334914 0.084222 0.730225
O O1 0.958499 0.614247 0.186509
O O2 0.000000 0.621084 0.500000
O O3 0.045372 0.718735 0.325614
O O4 0.103102 0.588846 0.359673
O O5 0.687343 0.897035 0.879290
O O6 0.766315 0.868879 0.694266
O O7 0.779965 0.000000 0.846020
O O8 0.831180 0.873667 0.007244
O O9 0.125439 0.266073 0.888824
O O10 0.134013 0.366448 0.109047
O O11 0.250000 0.250000 0.500000
O O12 0.126352 0.165576 0.406897
O O13 0.257978 0.117143 0.615340
O O14 0.973935 0.161707 0.203275
O O15 0.919725 0.199663 0.896998
O O16 0.326519 0.000000 0.778096
#
# Coordination Sequence:
#
# PCOD9220155 Si02
#       7
#     8   8   8   8   8   8   8
#     4  11  22  38  61  89 119 154 201 258 303 355
#     4  11  23  39  59  93 128 159 203 259 311 360
#     4  11  22  39  63  86 125 165 206 247 300 365
#     4  11  21  39  64  84 119 159 203 253 298 358
#     4   9  18  37  64  89 116 157 208 251 296 361
#     4   9  18  37  61  89 114 150 207 254 296 359
#     4  12  24  39  58  87 124 165 199 241 307 372
#
# _framework density 20.095196000000001
#
# number of rings (size 3 to 8) (size 9 to 14) (size 15 to 20)
#    0.000    1.429    2.857    3.429    0.000    2.000 
#    2.571    6.429    0.000    0.000    0.000    2.000 
#    0.000    0.000    0.000    0.000    0.000    0.000 
#
# Total GULP energy -156386.552942 kJ/mol
# GULP energy per Si atom -5585.234034 kJ/mol
# Density = 2.004946 g / cm^3
# Si number density = 20.095196 Si / 1000 Ang^3
#
#
#
# Elastic Constant Matrix: (Units=GPa)
#
#
# Indices 1 2 3 4 5 6 
#
# 1 77.7854 38.5481 43.2864 0.0000 35.1948 0.0000
# 2 38.5481 81.4032 10.3619 0.0000 18.4583 0.0000
# 3 43.2864 10.3619 85.3720 0.0000 36.1185 0.0000
# 4 0.0000 0.0000 0.0000 2.2598 0.0000 -9.4756
# 5 35.1948 18.4583 36.1185 0.0000 44.1643 0.0000
# 6 0.0000 0.0000 0.0000 -9.4756 0.0000 6.0400
#
#
#
# Elastic Compliance Matrix: (Units=1/GPa)
#
#
# Indices 1 2 3 4 5 6 
#
# 1 0.026741 -0.009147 -0.007722 0.000000 -0.011172 0.000000
# 2 -0.009147 0.016774 0.003798 0.000000 -0.002827 0.000000
# 3 -0.007722 0.003798 0.020238 0.000000 -0.011985 0.000000
# 4 0.000000 0.000000 0.000000 -0.079330 0.000000 -0.124453
# 5 -0.011172 -0.002827 -0.011985 0.000000 0.042529 0.000000
# 6 0.000000 0.000000 0.000000 -0.124453 0.000000 -0.029681
#
#
# Mechanical properties :
#
#
# Convention : Reuss Voigt Hill
#
# Bulk Modulus (GPa) = 26.58746 47.66149 37.12447
# Shear Modulus (GPa) = 139.08595 20.65045 79.86820
#
# Velocity S-wave (km/s) = 8.32849 3.20915 6.31120
# Velocity P-wave (km/s) = 10.28322 6.12379 8.46302
#
# Compressibility (1/GPa) = 0.03761172
#
# Stress axis : x y z
#
# Youngs Moduli (GPa) = 37.39638 59.61746 49.41169
#
# Poissons Ratio (x) = 0.54530 0.38154
# Poissons Ratio (y) = 0.34205 -0.18767
# Poissons Ratio (z) = 0.28876 -0.22643
#
# Static dielectric constant tensor:
#      x y z
#    x 1.698110 0.000000 0.035440 
#    y 0.000000 1.687780 0.000000 
#    z 0.035440 0.000000 1.667200 
# 
# From -- ./inp_files/75972.got.cif
#   From: 2010.05.17/outbox.cif.g08.bks.cpg/sg12_38_cif.got.tgz:75972.got - 2010.06.03 13:09:07.
