data_PCOD9220692
_publ_section_title
;
Structure prediction by ZEFSAII (Michael W. Deem and Ramdas Pophale) SiO2 
 PCOD9220692
Probable space group: C 2/M
;
_chemical_formula_sum "Si O2"
_cell_formula_units_Z 56
_cell_length_a 23.213895
_cell_length_b 17.753868
_cell_length_c 21.463661
_cell_angle_alpha 90.000000
_cell_angle_beta 18.915806
_cell_angle_gamma 90.000000
_cell_volume 2867.668041
_symmetry_space_group_name_H-M "C 2/M"
_symmetry_group_IT_number 12
_symmetry_cell_setting 'monoclinic'
loop_
_space_group_symop_operation_xyz
x,y,z
-x,y,-z
-x,-y,-z
x,-y,z
1/2+x,1/2+y,z
1/2-x,1/2+y,-z
1/2-x,1/2-y,-z
1/2+x,1/2-y,z
loop_
_atom_site_type_symbol
_atom_site_label
_atom_site_fract_x
_atom_site_fract_y
_atom_site_fract_z
Si Si1 0.384678 0.410253 0.864005
Si Si2 0.260206 0.839957 0.498190
Si Si3 0.213431 0.914237 0.788999
Si Si4 0.746227 0.171569 0.128896
Si Si5 0.066379 0.588967 0.101233
Si Si6 0.344004 0.806299 0.547801
Si Si7 0.478117 0.208357 0.096468
O O1 0.385485 0.500000 0.876099
O O2 0.583161 0.379375 0.654482
O O3 0.299399 0.364882 0.009071
O O4 0.262062 0.397387 0.929171
O O5 0.250000 0.750000 0.500000
O O6 0.428983 0.873221 0.290069
O O7 0.278083 0.851192 0.554147
O O8 0.259640 0.892629 0.812178
O O9 0.307030 0.856952 0.646203
O O10 0.262042 0.000000 0.724955
O O11 0.000000 0.906312 0.000000
O O12 0.551712 0.208510 0.325952
O O13 0.893448 0.230469 0.001930
O O14 0.036345 0.500000 0.129380
O O15 0.032011 0.629275 0.071013
O O16 0.221518 0.732952 0.681284
O O17 0.500000 0.211660 0.000000
#
# Coordination Sequence:
#
# PCOD9220692 Si02
#       7
#     8   8   8   8   8   8   8
#     4  11  24  41  63  96 133 171 210 260 323 390
#     4  12  23  41  67  95 129 165 207 263 327 384
#     4  11  22  38  58  87 131 174 211 255 312 381
#     4  12  22  38  64  93 131 169 211 258 315 385
#     4  11  26  45  67  96 129 169 219 271 327 383
#     4  12  23  38  62  94 127 170 215 255 316 383
#     4  12  25  45  66  93 128 167 221 273 320 372
#
# _framework density 19.528061999999998
#
# number of rings (size 3 to 8) (size 9 to 14) (size 15 to 20)
#    0.000    0.429    7.143    1.286    2.000    5.429 
#    0.000    0.000    0.000    0.000    0.000    5.000 
#    0.000    0.000    0.000    0.000    0.000    0.000 
#
# Total GULP energy -156650.658884 kJ/mol
# GULP energy per Si atom -5594.666389 kJ/mol
# Density = 1.948362 g / cm^3
# Si number density = 19.528062 Si / 1000 Ang^3
#
#
#
# Elastic Constant Matrix: (Units=GPa)
#
#
# Indices 1 2 3 4 5 6 
#
# 1 57.0088 26.9446 11.8522 -0.0095 -11.8265 0.0032
# 2 26.9446 74.5638 6.9291 -0.0346 -14.7791 -0.0067
# 3 11.8522 6.9291 95.6213 -0.0404 -26.5509 -0.0022
# 4 -0.0095 -0.0346 -0.0404 16.6655 0.0021 -2.0972
# 5 -11.8265 -14.7791 -26.5509 0.0021 28.5768 0.0032
# 6 0.0032 -0.0067 -0.0022 -2.0972 0.0032 33.8405
#
#
#
# Elastic Compliance Matrix: (Units=1/GPa)
#
#
# Indices 1 2 3 4 5 6 
#
# 1 0.021975 -0.006934 -0.000932 -0.000005 0.004642 -0.000004
# 2 -0.006934 0.017278 0.001741 0.000036 0.007684 0.000006
# 3 -0.000932 0.001741 0.014272 0.000036 0.013775 0.000002
# 4 -0.000005 0.000036 0.000036 0.060476 0.000045 0.003748
# 5 0.004642 0.007684 0.013775 0.000045 0.053687 0.000000
# 6 -0.000004 0.000006 0.000002 0.003748 0.000000 0.029783
#
#
# Mechanical properties :
#
#
# Convention : Reuss Voigt Hill
#
# Bulk Modulus (GPa) = 24.22818 35.40508 29.81663
# Shear Modulus (GPa) = 22.37327 27.91443 25.14385
#
# Velocity S-wave (km/s) = 3.38849 3.78491 3.59217
# Velocity P-wave (km/s) = 5.26716 6.10495 5.70146
#
# Compressibility (1/GPa) = 0.04127425
#
# Stress axis : x y z
#
# Youngs Moduli (GPa) = 45.50539 57.87597 70.06634
#
# Poissons Ratio (x) = 0.40133 0.06533
# Poissons Ratio (y) = 0.31555 -0.12198
# Poissons Ratio (z) = 0.04243 -0.10076
#
# Static dielectric constant tensor:
#      x y z
#    x 1.686100 0.000000 -0.014620 
#    y 0.000000 1.662870 0.000010 
#    z -0.014620 0.000010 1.687960 
# 
# From -- ./inp_files/322649.got.cif
#   From: 2010.05.17/outbox.cif.g08.bks.cpg/sg12_162_cif.got.tgz:322649.got - 2010.06.03 13:09:07.
