data_PCOD9220094
_publ_section_title
;
Structure prediction by ZEFSAII (Michael W. Deem and Ramdas Pophale) SiO2 
 PCOD9220094
Probable space group: C 2/M
;
_chemical_formula_sum "Si O2"
_cell_formula_units_Z 40
_cell_length_a 23.128221
_cell_length_b 7.788948
_cell_length_c 14.916370
_cell_angle_alpha 90.000000
_cell_angle_beta 42.530039
_cell_angle_gamma 90.000000
_cell_volume 1816.418338
_symmetry_space_group_name_H-M "C 2/M"
_symmetry_group_IT_number 12
_symmetry_cell_setting 'monoclinic'
loop_
_space_group_symop_operation_xyz
x,y,z
-x,y,-z
-x,-y,-z
x,-y,z
1/2+x,1/2+y,z
1/2-x,1/2+y,-z
1/2-x,1/2-y,-z
1/2+x,1/2-y,z
loop_
_atom_site_type_symbol
_atom_site_label
_atom_site_fract_x
_atom_site_fract_y
_atom_site_fract_z
Si Si1 0.160311 0.193327 0.559539
Si Si2 0.819814 0.794434 0.843803
Si Si3 0.970872 0.210430 0.791297
Si Si4 0.914112 0.209243 0.049918
Si Si5 0.228569 0.299013 0.301183
O O1 0.250000 0.250000 0.500000
O O2 0.172121 0.203674 0.438936
O O3 0.068149 0.276607 0.684989
O O4 0.150724 0.000000 0.603299
O O5 0.912417 0.735921 0.774771
O O6 0.798417 0.719199 0.771202
O O7 0.820521 0.000000 0.833778
O O8 0.750000 0.750000 0.000000
O O9 0.973214 0.000000 0.786135
O O10 0.920976 0.259414 0.938580
O O11 0.826232 0.266875 0.194691
O O12 0.912453 0.000000 0.054758
O O13 0.000000 0.266949 0.000000
O O14 0.226630 0.500000 0.327892
#
# Coordination Sequence:
#
# PCOD9220094 Si02
#       5
#     8   8   8   8   8
#     4  11  23  41  63  88 121 159 201 246 296 355
#     4  11  21  38  62  89 121 156 201 250 299 353
#     4   9  19  36  59  85 115 160 204 238 289 363
#     4   9  16  30  56  84 108 147 202 243 280 346
#     4  11  22  38  61  88 121 158 199 247 300 353
#
# _framework density 22.021360000000001
#
# number of rings (size 3 to 8) (size 9 to 14) (size 15 to 20)
#    0.000    1.800    2.000    3.000    0.000    4.000 
#    0.000    8.000    0.000    2.400    0.000    0.000 
#    0.000    0.000    0.000    0.000    0.000    0.000 
#
# Total GULP energy -111704.644037 kJ/mol
# GULP energy per Si atom -5585.232202 kJ/mol
# Density = 2.197124 g / cm^3
# Si number density = 22.021360 Si / 1000 Ang^3
#
#
#
# Elastic Constant Matrix: (Units=GPa)
#
#
# Indices 1 2 3 4 5 6 
#
# 1 82.1327 -2.2735 -10.8391 -0.0043 -10.3009 0.0009
# 2 -2.2735 34.7684 -9.2204 -0.0057 -9.1418 0.0040
# 3 -10.8391 -9.2204 63.1428 -0.0099 -13.3750 0.0056
# 4 -0.0043 -0.0057 -0.0099 18.0595 0.0040 3.1986
# 5 -10.3009 -9.1418 -13.3750 0.0040 40.7042 -0.0009
# 6 0.0009 0.0040 0.0056 3.1986 -0.0009 25.5379
#
#
#
# Elastic Compliance Matrix: (Units=1/GPa)
#
#
# Indices 1 2 3 4 5 6 
#
# 1 0.013478 0.003371 0.003965 0.000006 0.005471 -0.000002
# 2 0.003371 0.033987 0.007888 0.000015 0.011078 -0.000009
# 3 0.003965 0.007888 0.019623 0.000013 0.009223 -0.000007
# 4 0.000006 0.000015 0.000013 0.056629 0.000003 -0.007093
# 5 0.005471 0.011078 0.009223 0.000003 0.031471 -0.000003
# 6 -0.000002 -0.000009 -0.000007 -0.007093 -0.000003 0.040046
#
#
# Mechanical properties :
#
#
# Convention : Reuss Voigt Hill
#
# Bulk Modulus (GPa) = 10.25255 15.04202 12.64729
# Shear Modulus (GPa) = 25.34246 30.35212 27.84729
#
# Velocity S-wave (km/s) = 3.39604 3.71658 3.55992
# Velocity P-wave (km/s) = 4.47698 5.02621 4.75952
#
# Compressibility (1/GPa) = 0.09753668
#
# Stress axis : x y z
#
# Youngs Moduli (GPa) = 74.19447 29.42304 50.96009
#
# Poissons Ratio (x) = -0.09919 -0.20204
# Poissons Ratio (y) = -0.25012 -0.40199
# Poissons Ratio (z) = -0.29416 -0.23210
#
# Static dielectric constant tensor:
#      x y z
#    x 1.830780 0.000000 -0.016900 
#    y 0.000000 1.858840 0.000000 
#    z -0.016900 0.000000 1.774330 
# 
# From -- ./inp_files/220572.got.cif
#   From: 2010.05.17/outbox.cif.g08.bks.cpg/sg12_111_cif.got.tgz:220572.got - 2010.06.03 13:09:07.
