data_PCOD9220080
_publ_section_title
;
Structure prediction by ZEFSAII (Michael W. Deem and Ramdas Pophale) SiO2 
 PCOD9220080
Probable space group: C 2/M
;
_chemical_formula_sum "Si O2"
_cell_formula_units_Z 40
_cell_length_a 16.273629
_cell_length_b 17.133291
_cell_length_c 10.827892
_cell_angle_alpha 90.000000
_cell_angle_beta 139.909739
_cell_angle_gamma 90.000000
_cell_volume 1944.243562
_symmetry_space_group_name_H-M "C 2/M"
_symmetry_group_IT_number 12
_symmetry_cell_setting 'monoclinic'
loop_
_space_group_symop_operation_xyz
x,y,z
-x,y,-z
-x,-y,-z
x,-y,z
1/2+x,1/2+y,z
1/2-x,1/2+y,-z
1/2-x,1/2-y,-z
1/2+x,1/2-y,z
loop_
_atom_site_type_symbol
_atom_site_label
_atom_site_fract_x
_atom_site_fract_y
_atom_site_fract_z
Si Si1 0.047294 0.258279 0.693630
Si Si2 0.303285 0.844978 0.497361
Si Si3 0.904087 0.500000 0.012047
Si Si4 0.647131 0.781858 0.203025
Si Si5 0.743157 0.847672 0.074614
Si Si6 0.922859 0.500000 0.541518
O O1 0.111421 0.173650 0.793706
O O2 0.000000 0.263269 0.500000
O O3 0.921457 0.284090 0.621447
O O4 0.150480 0.322768 0.856698
O O5 0.300726 0.848756 0.643187
O O6 0.182582 0.801457 0.301969
O O7 0.339233 0.922188 0.464805
O O8 0.989139 0.500000 0.234464
O O9 0.810546 0.425859 0.924635
O O10 0.000000 0.500000 0.000000
O O11 0.720984 0.786308 0.159541
O O12 0.500000 0.793623 0.000000
O O13 0.000000 0.500000 0.500000
#
# Coordination Sequence:
#
# PCOD9220080 Si02
#       6
#     8   8   4   8   8   4
#     4  11  21  38  60  88 120 159 200 254 296 362
#     4  11  23  38  63  90 122 157 205 252 305 362
#     4  12  24  40  59  93 130 158 203 258 309 361
#     4  11  21  39  62  89 118 163 204 247 297 369
#     4  11  23  36  64  86 122 156 204 254 299 360
#     4  12  24  38  63  91 122 156 202 259 307 352
#
# _framework density 20.573551999999999
#
# number of rings (size 3 to 8) (size 9 to 14) (size 15 to 20)
#    0.000    0.800    6.000    2.400    0.000    0.000 
#    0.000    1.000    0.000    1.200    0.000    0.000 
#    0.000    0.000    0.000    0.000    0.000    0.000 
#
# Total GULP energy -111400.606020 kJ/mol
# GULP energy per Si atom -5570.030301 kJ/mol
# Density = 2.052673 g / cm^3
# Si number density = 20.573552 Si / 1000 Ang^3
#
#
#
# Elastic Constant Matrix: (Units=GPa)
#
#
# Indices 1 2 3 4 5 6 
#
# 1 57.4564 49.0402 9.0531 0.0000 -11.1959 0.0000
# 2 49.0402 126.8034 27.2549 0.0000 -2.8818 0.0000
# 3 9.0531 27.2549 90.9908 0.0000 -23.0676 0.0000
# 4 0.0000 0.0000 0.0000 17.3269 0.0000 8.0406
# 5 -11.1959 -2.8818 -23.0676 0.0000 29.5294 0.0000
# 6 0.0000 0.0000 0.0000 8.0406 0.0000 38.5949
#
#
#
# Elastic Compliance Matrix: (Units=1/GPa)
#
#
# Indices 1 2 3 4 5 6 
#
# 1 0.029581 -0.011998 0.003987 0.000000 0.013159 0.000000
# 2 -0.011998 0.013344 -0.004522 0.000000 -0.006779 0.000000
# 3 0.003987 -0.004522 0.015237 0.000000 0.012973 0.000000
# 4 0.000000 0.000000 0.000000 0.063891 0.000000 -0.013311
# 5 0.013159 -0.006779 0.012973 0.000000 0.048326 0.000000
# 6 0.000000 0.000000 0.000000 -0.013311 0.000000 0.028683
#
#
# Mechanical properties :
#
#
# Convention : Reuss Voigt Hill
#
# Bulk Modulus (GPa) = 30.21576 49.54967 39.88272
# Shear Modulus (GPa) = 21.26211 29.75039 25.50625
#
# Velocity S-wave (km/s) = 3.21825 3.80682 3.52484
# Velocity P-wave (km/s) = 5.34117 6.59234 5.99946
#
# Compressibility (1/GPa) = 0.03309531
#
# Stress axis : x y z
#
# Youngs Moduli (GPa) = 33.80552 74.93879 65.63078
#
# Poissons Ratio (x) = 0.89912 -0.26165
# Poissons Ratio (y) = 0.40560 0.29678
# Poissons Ratio (z) = -0.13477 0.33887
#
# Static dielectric constant tensor:
#      x y z
#    x 1.928170 0.000000 -0.003090 
#    y 0.000000 1.806160 0.000000 
#    z -0.003090 0.000000 1.792230 
# 
# From -- ./inp_files/158083.got.cif
#   From: 2010.05.17/outbox.cif.g08.bks.cpg/sg12_80_cif.got.tgz:158083.got - 2010.06.03 13:09:07.
