data_PCOD9220891
_publ_section_title
;
Structure prediction by ZEFSAII (Michael W. Deem and Ramdas Pophale) SiO2 
 PCOD9220891
Probable space group: C 2/M
;
_chemical_formula_sum "Si O2"
_cell_formula_units_Z 40
_cell_length_a 19.425386
_cell_length_b 16.894905
_cell_length_c 12.856386
_cell_angle_alpha 90.000000
_cell_angle_beta 154.400209
_cell_angle_gamma 90.000000
_cell_volume 1823.101929
_symmetry_space_group_name_H-M "C 2/M"
_symmetry_group_IT_number 12
_symmetry_cell_setting 'monoclinic'
loop_
_space_group_symop_operation_xyz
x,y,z
-x,y,-z
-x,-y,-z
x,-y,z
1/2+x,1/2+y,z
1/2-x,1/2+y,-z
1/2-x,1/2-y,-z
1/2+x,1/2-y,z
loop_
_atom_site_type_symbol
_atom_site_label
_atom_site_fract_x
_atom_site_fract_y
_atom_site_fract_z
Si Si1 0.505264 0.912956 0.395767
Si Si2 0.682387 0.189348 0.223407
Si Si3 0.012991 0.095492 0.294952
Si Si4 0.352425 0.371708 0.858092
Si Si5 0.255308 0.327712 0.080043
O O1 0.500000 0.868868 0.500000
O O2 0.688890 0.916152 0.620186
O O3 0.433567 0.000000 0.314497
O O4 0.403855 0.872691 0.170596
O O5 0.817018 0.140884 0.469902
O O6 0.677926 0.284402 0.231667
O O7 0.737910 0.183496 0.178801
O O8 0.500000 0.162376 0.000000
O O9 0.908829 0.122332 0.252872
O O10 0.029912 0.000000 0.313601
O O11 0.907584 0.126171 0.053410
O O12 0.500000 0.408351 0.000000
O O13 0.250000 0.250000 0.000000
#
# Coordination Sequence:
#
# PCOD9220891 Si02
#       5
#     8   8   8   8   8
#     4  11  22  39  65  98 133 169 223 285 340 398
#     4  11  27  46  71 101 139 183 232 281 340 411
#     4  12  26  46  72 105 140 181 232 287 347 412
#     4  11  25  44  71 100 140 181 231 281 344 408
#     4  12  23  44  72  98 134 185 231 279 339 412
#
# _framework density 21.940628
#
# number of rings (size 3 to 8) (size 9 to 14) (size 15 to 20)
#    0.000    0.600    4.000    3.000    2.800    6.000 
#    0.000    0.000    0.000    0.000    0.000    0.000 
#    0.000    0.000    0.000    0.000    0.000    0.000 
#
# Total GULP energy -111720.704055 kJ/mol
# GULP energy per Si atom -5586.035203 kJ/mol
# Density = 2.189069 g / cm^3
# Si number density = 21.940628 Si / 1000 Ang^3
#
#
#
# Elastic Constant Matrix: (Units=GPa)
#
#
# Indices 1 2 3 4 5 6 
#
# 1 52.0130 -6.6997 2.0121 0.0000 21.0872 0.0000
# 2 -6.6997 110.0797 48.7352 0.0000 0.1450 0.0000
# 3 2.0121 48.7352 142.8629 0.0000 21.3383 0.0000
# 4 0.0000 0.0000 0.0000 13.4616 0.0000 -44.8467
# 5 21.0872 0.1450 21.3383 0.0000 41.5530 0.0000
# 6 0.0000 0.0000 0.0000 -44.8467 0.0000 -203.0354
#
#
#
# Elastic Compliance Matrix: (Units=1/GPa)
#
#
# Indices 1 2 3 4 5 6 
#
# 1 0.024638 0.000942 0.001299 0.000000 -0.013174 0.000000
# 2 0.000942 0.010890 -0.003955 0.000000 0.001515 0.000000
# 3 0.001299 -0.003955 0.009127 0.000000 -0.005333 0.000000
# 4 0.000000 0.000000 0.000000 0.042795 0.000000 -0.009453
# 5 -0.013174 0.001515 -0.005333 0.000000 0.033484 0.000000
# 6 0.000000 0.000000 0.000000 -0.009453 0.000000 -0.002837
#
#
# Mechanical properties :
#
#
# Convention : Reuss Voigt Hill
#
# Bulk Modulus (GPa) = 24.25531 43.67231 33.96381
# Shear Modulus (GPa) = 36.96404 -12.21029 12.37687
#
# Velocity S-wave (km/s) = 4.10900 -2.36162 2.37767
# Velocity P-wave (km/s) = 5.79576 3.53718 4.80117
#
# Compressibility (1/GPa) = 0.04122808
#
# Stress axis : x y z
#
# Youngs Moduli (GPa) = 40.58787 91.82347 109.56568
#
# Poissons Ratio (x) = -0.08646 -0.14238
# Poissons Ratio (y) = -0.03822 0.43329
# Poissons Ratio (z) = -0.05274 0.36313
#
# Static dielectric constant tensor:
#      x y z
#    x 1.865410 0.000000 0.003370 
#    y 0.000000 1.813010 0.000000 
#    z 0.003370 0.000000 1.787840 
# 
# From -- ./inp_files/47038.got.cif
#   From: 2010.05.17/outbox.cif.g08.bks.cpg/sg12_24_cif.got.tgz:47038.got - 2010.06.03 13:09:07.
