data_PCOD9220053
_publ_section_title
;
Structure prediction by ZEFSAII (Michael W. Deem and Ramdas Pophale) SiO2 
 PCOD9220053
Probable space group: C 2/M
;
_chemical_formula_sum "Si O2"
_cell_formula_units_Z 48
_cell_length_a 11.886054
_cell_length_b 25.026521
_cell_length_c 12.106174
_cell_angle_alpha 90.000000
_cell_angle_beta 129.982506
_cell_angle_gamma 90.000000
_cell_volume 2759.372238
_symmetry_space_group_name_H-M "C 2/M"
_symmetry_group_IT_number 12
_symmetry_cell_setting 'monoclinic'
loop_
_space_group_symop_operation_xyz
x,y,z
-x,y,-z
-x,-y,-z
x,-y,z
1/2+x,1/2+y,z
1/2-x,1/2+y,-z
1/2-x,1/2-y,-z
1/2+x,1/2-y,z
loop_
_atom_site_type_symbol
_atom_site_label
_atom_site_fract_x
_atom_site_fract_y
_atom_site_fract_z
Si Si1 0.406587 0.142622 0.688474
Si Si2 0.172458 0.000000 0.966138
Si Si3 0.117891 0.591563 0.977446
Si Si4 0.172174 0.000000 0.230583
Si Si5 0.825646 0.607152 0.410144
Si Si6 0.834425 0.302844 0.869648
Si Si7 0.889997 0.287226 0.332187
O O1 0.520061 0.098631 0.806089
O O2 0.306718 0.119352 0.528239
O O3 0.332674 0.167508 0.749662
O O4 0.503383 0.188535 0.692701
O O5 0.253950 0.050330 0.963167
O O6 0.193149 0.000000 0.111548
O O7 0.998260 0.000000 0.842898
O O8 0.182708 0.649498 0.052356
O O9 0.000000 0.577292 0.000000
O O10 0.242595 0.945325 0.319909
O O11 0.799011 0.662369 0.325950
O O12 0.000000 0.598215 0.500000
O O13 0.715061 0.256907 0.785814
O O14 0.000000 0.282256 0.000000
O O15 0.000000 0.268095 0.500000
#
# Coordination Sequence:
#
# PCOD9220053 Si02
#       7
#     8   4   8   4   8   8   8
#     4   8  17  34  55  76 104 136 180 226 257 321
#     4  11  21  38  53  79 117 139 172 229 278 316
#     4   9  19  36  60  76 103 145 191 218 262 322
#     4  11  23  36  53  85 112 141 171 225 282 326
#     4   9  18  34  55  77 106 141 186 217 267 326
#     4   9  19  35  52  82 106 141 187 220 264 321
#     4   9  18  33  52  80 108 140 181 222 271 320
#
# _framework density 17.395261000000001
#
# number of rings (size 3 to 8) (size 9 to 14) (size 15 to 20)
#    0.000    3.500    0.000    2.500    0.000    6.000 
#   12.000    0.833    0.000    4.000    0.000    0.000 
#    0.000    0.000    0.000    0.000    0.000    0.000 
#
# Total GULP energy -133616.559820 kJ/mol
# GULP energy per Si atom -5567.356659 kJ/mol
# Density = 1.735567 g / cm^3
# Si number density = 17.395261 Si / 1000 Ang^3
#
#
#
# Elastic Constant Matrix: (Units=GPa)
#
#
# Indices 1 2 3 4 5 6 
#
# 1 41.5676 31.9426 19.4492 0.0000 10.1405 0.0000
# 2 31.9426 103.0862 48.3798 0.0000 21.7701 0.0000
# 3 19.4492 48.3798 53.5505 0.0000 3.0721 0.0000
# 4 0.0000 0.0000 0.0000 -7.3406 0.0000 -20.0273
# 5 10.1405 21.7701 3.0721 0.0000 23.2452 0.0000
# 6 0.0000 0.0000 0.0000 -20.0273 0.0000 -11.4728
#
#
#
# Elastic Compliance Matrix: (Units=1/GPa)
#
#
# Indices 1 2 3 4 5 6 
#
# 1 0.033476 -0.005312 -0.006859 0.000000 -0.008722 0.000000
# 2 -0.005312 0.023706 -0.018487 0.000000 -0.017441 0.000000
# 3 -0.006859 -0.018487 0.036983 0.000000 0.015419 0.000000
# 4 0.000000 0.000000 0.000000 0.036206 0.000000 -0.063203
# 5 -0.008722 -0.017441 0.015419 0.000000 0.061121 0.000000
# 6 0.000000 0.000000 0.000000 -0.063203 0.000000 0.023166
#
#
# Mechanical properties :
#
#
# Convention : Reuss Voigt Hill
#
# Bulk Modulus (GPa) = 30.44257 44.19418 37.31837
# Shear Modulus (GPa) = 17.42616 7.44853 12.43735
#
# Velocity S-wave (km/s) = 3.16852 2.07153 2.67682
# Velocity P-wave (km/s) = 5.56098 5.58414 5.57257
#
# Compressibility (1/GPa) = 0.03284873
#
# Stress axis : x y z
#
# Youngs Moduli (GPa) = 29.87190 42.18281 27.03959
#
# Poissons Ratio (x) = 0.22408 0.18546
# Poissons Ratio (y) = 0.15868 0.49989
# Poissons Ratio (z) = 0.20489 0.77985
#
# Static dielectric constant tensor:
#      x y z
#    x 1.593020 0.000000 -0.022740 
#    y 0.000000 1.601490 0.000000 
#    z -0.022740 0.000000 1.615770 
# 
# From -- ./inp_files/136785.got.cif
#   From: 2010.05.17/outbox.cif.g08.bks.cpg/sg12_69_cif.got.tgz:136785.got - 2010.06.03 13:09:07.
