data_PCOD9220949
_publ_section_title
;
Structure prediction by ZEFSAII (Michael W. Deem and Ramdas Pophale) SiO2 
 PCOD9220949
Probable space group: C 2/M
;
_chemical_formula_sum "Si O2"
_cell_formula_units_Z 28
_cell_length_a 22.009331
_cell_length_b 9.933683
_cell_length_c 6.484899
_cell_angle_alpha 90.000000
_cell_angle_beta 60.237390
_cell_angle_gamma 90.000000
_cell_volume 1230.792667
_symmetry_space_group_name_H-M "C 2/M"
_symmetry_group_IT_number 12
_symmetry_cell_setting 'monoclinic'
loop_
_space_group_symop_operation_xyz
x,y,z
-x,y,-z
-x,-y,-z
x,-y,z
1/2+x,1/2+y,z
1/2-x,1/2+y,-z
1/2-x,1/2-y,-z
1/2+x,1/2-y,z
loop_
_atom_site_type_symbol
_atom_site_label
_atom_site_fract_x
_atom_site_fract_y
_atom_site_fract_z
Si Si1 0.327127 0.500000 0.173108
Si Si2 0.917170 0.500000 0.196399
Si Si3 0.677915 0.000000 0.271651
Si Si4 0.055044 0.000000 0.714856
Si Si5 0.869517 0.707735 0.956838
Si Si6 0.500000 0.277966 0.500000
O O1 0.243741 0.500000 0.313001
O O2 0.367744 0.500000 0.321091
O O3 0.351849 0.363522 0.018589
O O4 0.892730 0.500000 0.473685
O O5 0.880272 0.629540 0.152464
O O6 0.000000 0.500000 0.000000
O O7 0.680578 0.872274 0.113907
O O8 0.040099 0.872445 0.596348
O O9 0.000000 0.000000 0.000000
O O10 0.944723 0.696532 0.722528
#
# Coordination Sequence:
#
# PCOD9220949 Si02
#       6
#     4   4   4   4   8   4
#     4  12  25  45  72 102 141 178 231 285 336 416
#     4  11  26  47  70  99 138 183 235 279 337 416
#     4  11  27  48  66 100 143 190 218 276 359 401
#     4  11  22  40  64 107 140 169 226 288 340 395
#     4  11  25  45  70 101 138 179 231 285 335 409
#     4  11  22  41  70 104 132 176 224 288 346 386
#
# _framework density 22.749566999999999
#
# number of rings (size 3 to 8) (size 9 to 14) (size 15 to 20)
#    0.000    0.857    2.857    3.429    8.000    3.429 
#   10.286    0.000    0.000    0.000    0.000    0.000 
#    0.000    0.000    0.000    0.000    0.000    0.000 
#
# Total GULP energy -78332.603512 kJ/mol
# GULP energy per Si atom -5595.185965 kJ/mol
# Density = 2.269779 g / cm^3
# Si number density = 22.749567 Si / 1000 Ang^3
#
#
#
# Elastic Constant Matrix: (Units=GPa)
#
#
# Indices 1 2 3 4 5 6 
#
# 1 147.7078 33.6433 15.9100 0.0000 22.4398 0.0000
# 2 33.6433 140.8566 41.5695 0.0000 14.8115 0.0000
# 3 15.9100 41.5695 78.4203 0.0000 18.8777 0.0000
# 4 0.0000 0.0000 0.0000 24.4097 0.0000 -8.2504
# 5 22.4398 14.8115 18.8777 0.0000 39.8462 0.0000
# 6 0.0000 0.0000 0.0000 -8.2504 0.0000 7.8422
#
#
#
# Elastic Compliance Matrix: (Units=1/GPa)
#
#
# Indices 1 2 3 4 5 6 
#
# 1 0.007674 -0.001473 0.000149 0.000000 -0.003845 0.000000
# 2 -0.001473 0.008745 -0.004237 0.000000 -0.000414 0.000000
# 3 0.000149 -0.004237 0.016489 0.000000 -0.006321 0.000000
# 4 0.000000 0.000000 0.000000 0.063573 0.000000 0.066882
# 5 -0.003845 -0.000414 -0.006321 0.000000 0.030410 0.000000
# 6 0.000000 0.000000 0.000000 0.066882 0.000000 0.197877
#
#
# Mechanical properties :
#
#
# Convention : Reuss Voigt Hill
#
# Bulk Modulus (GPa) = 45.89919 61.02557 53.46238
# Shear Modulus (GPa) = 14.57080 32.81043 23.69061
#
# Velocity S-wave (km/s) = 2.53353 3.80181 3.23052
# Velocity P-wave (km/s) = 5.36451 6.79374 6.12098
#
# Compressibility (1/GPa) = 0.02178687
#
# Stress axis : x y z
#
# Youngs Moduli (GPa) = 130.31775 114.34882 60.64555
#
# Poissons Ratio (x) = 0.16839 -0.00906
# Poissons Ratio (y) = 0.19190 0.25697
# Poissons Ratio (z) = -0.01946 0.48453
#
# Static dielectric constant tensor:
#      x y z
#    x 1.860140 0.000000 0.004530 
#    y 0.000000 1.843260 0.000000 
#    z 0.004530 0.000000 1.800990 
# 
# From -- ./inp_files/19003.got.cif
#   From: 2010.05.17/outbox.cif.g08.bks.cpg/sg12_10_cif.got.tgz:19003.got - 2010.06.03 13:09:07.
