data_PCOD9220764
_publ_section_title
;
Structure prediction by ZEFSAII (Michael W. Deem and Ramdas Pophale) SiO2 
 PCOD9220764
Probable space group: C 2/M
;
_chemical_formula_sum "Si O2"
_cell_formula_units_Z 64
_cell_length_a 7.962845
_cell_length_b 29.932782
_cell_length_c 16.309205
_cell_angle_alpha 90.000000
_cell_angle_beta 44.372639
_cell_angle_gamma 90.000000
_cell_volume 2718.475179
_symmetry_space_group_name_H-M "C 2/M"
_symmetry_group_IT_number 12
_symmetry_cell_setting 'monoclinic'
loop_
_space_group_symop_operation_xyz
x,y,z
-x,y,-z
-x,-y,-z
x,-y,z
1/2+x,1/2+y,z
1/2-x,1/2+y,-z
1/2-x,1/2-y,-z
1/2+x,1/2-y,z
loop_
_atom_site_type_symbol
_atom_site_label
_atom_site_fract_x
_atom_site_fract_y
_atom_site_fract_z
Si Si1 0.864363 0.144194 0.324972
Si Si2 0.630979 0.855504 0.041645
Si Si3 0.339097 0.853817 0.432787
Si Si4 0.986784 0.048994 0.718462
Si Si5 0.031713 0.695854 0.761401
Si Si6 0.244870 0.547364 0.545058
Si Si7 0.939043 0.548449 0.923881
Si Si8 0.030036 0.208227 0.843806
O O1 0.856135 0.146639 0.426088
O O2 0.594463 0.152811 0.387537
O O3 0.004547 0.182538 0.230098
O O4 0.953249 0.096108 0.261156
O O5 0.456045 0.843479 0.177045
O O6 0.712416 0.906261 0.033075
O O7 0.500000 0.857000 0.000000
O O8 0.817263 0.814188 0.971061
O O9 0.304686 0.817655 0.373524
O O10 0.359957 0.904982 0.394149
O O11 0.706348 0.052097 0.790036
O O12 0.180641 0.048574 0.576908
O O13 0.007273 0.000000 0.752621
O O14 0.768752 0.697056 0.811179
O O15 0.056423 0.741024 0.804805
O O16 0.500000 0.545266 0.500000
O O17 0.114984 0.500000 0.606269
O O18 0.836116 0.500000 0.936287
O O19 0.000000 0.546578 0.000000
#
# Coordination Sequence:
#
# PCOD9220764 Si02
#       8
#     8   8   8   8   8   8   8   8
#     4   9  18  36  58  78 116 150 188 234 282 341
#     4  11  22  38  63  88 114 150 191 235 287 339
#     4   9  20  36  55  84 112 151 188 231 285 339
#     4   9  17  30  52  82 114 151 191 230 274 333
#     4  11  24  41  62  84 113 146 190 243 293 345
#     4   9  18  32  51  79 116 151 187 230 273 327
#     4   9  18  32  53  84 117 148 186 228 274 333
#     4  11  23  41  60  84 113 147 192 243 293 345
#
# _framework density 23.542611000000001
#
# number of rings (size 3 to 8) (size 9 to 14) (size 15 to 20)
#    0.000    2.250    0.000    3.000    1.750    1.000 
#    2.250    2.500    0.000    3.000    0.000    0.000 
#    0.000    0.000    0.000    0.000    0.000    0.000 
#
# Total GULP energy -178305.602243 kJ/mol
# GULP energy per Si atom -5572.050070 kJ/mol
# Density = 2.348903 g / cm^3
# Si number density = 23.542611 Si / 1000 Ang^3
#
#
#
# Elastic Constant Matrix: (Units=GPa)
#
#
# Indices 1 2 3 4 5 6 
#
# 1 54.5396 10.5264 9.5994 0.0000 3.7051 0.0000
# 2 10.5264 147.1252 33.4641 0.0000 28.8722 0.0000
# 3 9.5994 33.4641 76.4158 0.0000 12.3597 0.0000
# 4 0.0000 0.0000 0.0000 23.1937 0.0000 -0.4041
# 5 3.7051 28.8722 12.3597 0.0000 20.0668 0.0000
# 6 0.0000 0.0000 0.0000 -0.4041 0.0000 51.7544
#
#
#
# Elastic Compliance Matrix: (Units=1/GPa)
#
#
# Indices 1 2 3 4 5 6 
#
# 1 0.018884 -0.000653 -0.001859 0.000000 -0.001402 0.000000
# 2 -0.000653 0.009826 -0.002170 0.000000 -0.012680 0.000000
# 3 -0.001859 -0.002170 0.015227 0.000000 -0.005913 0.000000
# 4 0.000000 0.000000 0.000000 0.043121 0.000000 0.000337
# 5 -0.001402 -0.012680 -0.005913 0.000000 0.071978 0.000000
# 6 0.000000 0.000000 0.000000 0.000337 0.000000 0.019325
#
#
# Mechanical properties :
#
#
# Convention : Reuss Voigt Hill
#
# Bulk Modulus (GPa) = 28.92596 42.80672 35.86634
# Shear Modulus (GPa) = 25.09431 33.96903 29.53167
#
# Velocity S-wave (km/s) = 3.26837 3.80264 3.54558
# Velocity P-wave (km/s) = 5.15328 6.12391 5.65944
#
# Compressibility (1/GPa) = 0.03457102
#
# Stress axis : x y z
#
# Youngs Moduli (GPa) = 52.95527 101.77542 65.67493
#
# Poissons Ratio (x) = 0.06647 0.12212
# Poissons Ratio (y) = 0.03458 0.14251
# Poissons Ratio (z) = 0.09847 0.22084
#
# Static dielectric constant tensor:
#      x y z
#    x 1.871990 0.000000 0.008760 
#    y 0.000000 1.934600 0.000000 
#    z 0.008760 0.000000 1.973520 
# 
# From -- ./inp_files/260313.got.cif
#   From: 2010.05.17/outbox.cif.g08.bks.cpg/sg12_131_cif.got.tgz:260313.got - 2010.06.03 13:09:07.
