data_PCOD9220796
_publ_section_title
;
Structure prediction by ZEFSAII (Michael W. Deem and Ramdas Pophale) SiO2 
 PCOD9220796
Probable space group: C 2/M
;
_chemical_formula_sum "Si O2"
_cell_formula_units_Z 64
_cell_length_a 8.944498
_cell_length_b 17.242613
_cell_length_c 28.578381
_cell_angle_alpha 90.000000
_cell_angle_beta 133.446293
_cell_angle_gamma 90.000000
_cell_volume 3199.962099
_symmetry_space_group_name_H-M "C 2/M"
_symmetry_group_IT_number 12
_symmetry_cell_setting 'monoclinic'
loop_
_space_group_symop_operation_xyz
x,y,z
-x,y,-z
-x,-y,-z
x,-y,z
1/2+x,1/2+y,z
1/2-x,1/2+y,-z
1/2-x,1/2-y,-z
1/2+x,1/2-y,z
loop_
_atom_site_type_symbol
_atom_site_label
_atom_site_fract_x
_atom_site_fract_y
_atom_site_fract_z
Si Si1 0.118092 0.360883 0.748672
Si Si2 0.932616 0.793710 0.670006
Si Si3 0.068930 0.184210 0.870793
Si Si4 0.581581 0.849962 0.130958
Si Si5 0.264196 0.696891 0.457295
Si Si6 0.402243 0.910929 0.360711
Si Si7 0.275654 0.913538 0.742614
Si Si8 0.803887 0.586207 0.992882
O O1 0.359555 0.358077 0.810766
O O2 0.078934 0.403427 0.691190
O O3 0.033561 0.272680 0.724112
O O4 0.988406 0.400499 0.761392
O O5 0.816389 0.748725 0.603607
O O6 0.776946 0.851062 0.662931
O O7 0.116461 0.848134 0.691326
O O8 0.243298 0.173034 0.868999
O O9 0.151697 0.148294 0.937217
O O10 0.012252 0.273482 0.865734
O O11 0.683994 0.900412 0.193740
O O12 0.399719 0.891768 0.063297
O O13 0.500000 0.674065 0.500000
O O14 0.250000 0.750000 0.500000
O O15 0.111625 0.623809 0.427461
O O16 0.362678 0.000000 0.365379
O O17 0.196742 0.000000 0.717110
O O18 0.712219 0.500000 0.973759
O O19 0.000000 0.584367 0.000000
#
# Coordination Sequence:
#
# PCOD9220796 Si02
#       8
#     8   8   8   8   8   8   8   8
#     4  11  23  41  64  94 127 171 214 264 317 383
#     4  11  23  42  69  91 129 174 215 253 311 384
#     4  11  22  38  66  89 120 167 219 262 316 389
#     4  11  22  39  62  92 123 165 214 266 322 385
#     4  11  23  44  70  97 126 170 211 254 307 376
#     4  11  24  42  66  98 132 167 213 264 314 368
#     4  12  25  40  63  96 132 166 211 271 324 370
#     4   9  20  38  59  86 122 163 209 265 327 384
#
# _framework density 20.000236999999998
#
# number of rings (size 3 to 8) (size 9 to 14) (size 15 to 20)
#    0.000    1.125    2.500    4.500    1.750    1.750 
#    0.000    3.750    0.000    3.750    0.000    0.000 
#    0.000    0.000    0.000    0.000    0.000    0.000 
#
# Total GULP energy -178926.042946 kJ/mol
# GULP energy per Si atom -5591.438842 kJ/mol
# Density = 1.995472 g / cm^3
# Si number density = 20.000237 Si / 1000 Ang^3
#
#
#
# Elastic Constant Matrix: (Units=GPa)
#
#
# Indices 1 2 3 4 5 6 
#
# 1 67.5979 6.5645 3.1818 0.0000 5.1646 0.0000
# 2 6.5645 87.4411 9.7681 0.0000 12.7544 0.0000
# 3 3.1818 9.7681 79.3425 0.0000 9.1294 0.0000
# 4 0.0000 0.0000 0.0000 10.3107 0.0000 -3.5834
# 5 5.1646 12.7544 9.1294 0.0000 27.0341 0.0000
# 6 0.0000 0.0000 0.0000 -3.5834 0.0000 11.3896
#
#
#
# Elastic Compliance Matrix: (Units=1/GPa)
#
#
# Indices 1 2 3 4 5 6 
#
# 1 0.015064 -0.000748 -0.000230 0.000000 -0.002447 0.000000
# 2 -0.000748 0.012378 -0.000872 0.000000 -0.005402 0.000000
# 3 -0.000230 -0.000872 0.013180 0.000000 -0.003995 0.000000
# 4 0.000000 0.000000 0.000000 0.108893 0.000000 0.034260
# 5 -0.002447 -0.005402 -0.003995 0.000000 0.041356 0.000000
# 6 0.000000 0.000000 0.000000 0.034260 0.000000 0.098578
#
#
# Mechanical properties :
#
#
# Convention : Reuss Voigt Hill
#
# Bulk Modulus (GPa) = 27.08577 30.37893 28.73235
# Shear Modulus (GPa) = 16.36891 24.07133 20.22012
#
# Velocity S-wave (km/s) = 2.86393 3.47299 3.18306
# Velocity P-wave (km/s) = 4.95058 5.59504 5.28265
#
# Compressibility (1/GPa) = 0.03691976
#
# Stress axis : x y z
#
# Youngs Moduli (GPa) = 66.38418 80.78936 75.87296
#
# Poissons Ratio (x) = 0.06045 0.01748
# Poissons Ratio (y) = 0.04967 0.06618
# Poissons Ratio (z) = 0.01530 0.07047
#
# Static dielectric constant tensor:
#      x y z
#    x 1.704040 0.000000 0.001280 
#    y 0.000000 1.697680 0.000000 
#    z 0.001280 0.000000 1.693450 
# 
# From -- ./inp_files/372947.got.cif
#   From: 2010.05.17/outbox.cif.g08.bks.cpg/sg12_187_cif.got.tgz:372947.got - 2010.06.03 13:09:07.
