data_PCOD9220732
_publ_section_title
;
Structure prediction by ZEFSAII (Michael W. Deem and Ramdas Pophale) SiO2 
 PCOD9220732
Probable space group: C 2/M
;
_chemical_formula_sum "Si O2"
_cell_formula_units_Z 52
_cell_length_a 9.575608
_cell_length_b 17.284780
_cell_length_c 19.703146
_cell_angle_alpha 90.000000
_cell_angle_beta 53.671008
_cell_angle_gamma 90.000000
_cell_volume 2627.245610
_symmetry_space_group_name_H-M "C 2/M"
_symmetry_group_IT_number 12
_symmetry_cell_setting 'monoclinic'
loop_
_space_group_symop_operation_xyz
x,y,z
-x,y,-z
-x,-y,-z
x,-y,z
1/2+x,1/2+y,z
1/2-x,1/2+y,-z
1/2-x,1/2-y,-z
1/2+x,1/2-y,z
loop_
_atom_site_type_symbol
_atom_site_label
_atom_site_fract_x
_atom_site_fract_y
_atom_site_fract_z
Si Si1 0.184192 0.217669 0.242655
Si Si2 0.418735 0.627785 0.597721
Si Si3 0.611028 0.357335 0.028386
Si Si4 0.850180 0.500000 0.368228
Si Si5 0.516636 0.173790 0.071941
Si Si6 0.577916 0.352476 0.786977
Si Si7 0.279797 0.000000 0.681791
Si Si8 0.190247 0.000000 0.561646
O O1 0.127826 0.193444 0.334561
O O2 0.345502 0.167465 0.166146
O O3 0.267993 0.302673 0.222646
O O4 0.029017 0.202716 0.234037
O O5 0.500000 0.649368 0.500000
O O6 0.247731 0.574848 0.634524
O O7 0.561767 0.573498 0.592793
O O8 0.562986 0.265426 0.050283
O O9 0.554995 0.385077 0.118387
O O10 0.500000 0.391243 0.000000
O O11 0.809715 0.363829 0.950320
O O12 0.796423 0.500000 0.462260
O O13 0.057182 0.500000 0.313858
O O14 0.500000 0.144436 0.000000
O O15 0.665668 0.424121 0.725931
O O16 0.310864 0.000000 0.592214
#
# Coordination Sequence:
#
# PCOD9220732 Si02
#       8
#     8   8   8   4   8   8   4   4
#     4  11  22  38  61  91 123 156 206 256 304 351
#     4   9  19  39  63  88 122 160 200 249 305 360
#     4   9  18  32  53  85 117 156 194 249 294 351
#     4   9  21  35  63  92 115 155 220 237 299 364
#     4   9  16  29  53  82 114 146 200 244 291 347
#     4  11  25  38  61  90 126 160 203 248 307 360
#     4  12  23  40  61  88 127 163 198 244 308 367
#     4   9  17  39  63  85 114 166 199 251 291 378
#
# _framework density 19.792591999999999
#
# number of rings (size 3 to 8) (size 9 to 14) (size 15 to 20)
#    0.000    2.154    3.077    1.154    8.615    0.000 
#    0.000    2.692    0.000    3.692    0.000    0.000 
#    0.000    0.000    0.000    0.000    0.000    0.000 
#
# Total GULP energy -144824.682168 kJ/mol
# GULP energy per Si atom -5570.180083 kJ/mol
# Density = 1.974754 g / cm^3
# Si number density = 19.792592 Si / 1000 Ang^3
#
#
#
# Elastic Constant Matrix: (Units=GPa)
#
#
# Indices 1 2 3 4 5 6 
#
# 1 94.3887 6.0548 10.3521 0.0000 -4.3798 0.0000
# 2 6.0548 23.8858 6.6530 0.0000 -3.8669 0.0000
# 3 10.3521 6.6530 70.9992 -0.0001 4.5899 0.0000
# 4 0.0000 0.0000 -0.0001 -6.0151 0.0000 6.9459
# 5 -4.3798 -3.8669 4.5899 0.0000 31.5249 0.0000
# 6 0.0000 0.0000 0.0000 6.9459 0.0000 2.2599
#
#
#
# Elastic Compliance Matrix: (Units=1/GPa)
#
#
# Indices 1 2 3 4 5 6 
#
# 1 0.010963 -0.002123 -0.001495 0.000000 0.001480 0.000000
# 2 -0.002123 0.044520 -0.004236 0.000000 0.005783 0.000000
# 3 -0.001495 -0.004236 0.014887 0.000000 -0.002895 0.000000
# 4 0.000000 0.000000 0.000000 -0.036545 0.000000 0.112322
# 5 0.001480 0.005783 -0.002895 0.000000 0.033057 0.000000
# 6 0.000000 0.000000 0.000000 0.112322 0.000000 0.097270
#
#
# Mechanical properties :
#
#
# Convention : Reuss Voigt Hill
#
# Bulk Modulus (GPa) = 18.29439 26.15484 22.22462
# Shear Modulus (GPa) = 25.24212 16.63487 20.93850
#
# Velocity S-wave (km/s) = 3.57505 2.90221 3.25606
# Velocity P-wave (km/s) = 5.12879 4.94708 5.03875
#
# Compressibility (1/GPa) = 0.05466156
#
# Stress axis : x y z
#
# Youngs Moduli (GPa) = 91.21295 22.46180 67.17373
#
# Poissons Ratio (x) = 0.04768 0.10044
# Poissons Ratio (y) = 0.19364 0.28455
# Poissons Ratio (z) = 0.13639 0.09515
#
# Static dielectric constant tensor:
#      x y z
#    x 1.768890 0.000000 0.007250 
#    y 0.000000 1.716060 0.000000 
#    z 0.007250 0.000000 1.723900 
# 
# From -- ./inp_files/301083.got.cif
#   From: 2010.05.17/outbox.cif.g08.bks.cpg/sg12_151_cif.got.tgz:301083.got - 2010.06.03 13:09:07.
