data_PCOD9220807
_publ_section_title
;
Structure prediction by ZEFSAII (Michael W. Deem and Ramdas Pophale) SiO2 
 PCOD9220807
Probable space group: C 2/M
;
_chemical_formula_sum "Si O2"
_cell_formula_units_Z 50
_cell_length_a 9.913047
_cell_length_b 26.440860
_cell_length_c 11.973930
_cell_angle_alpha 90.000000
_cell_angle_beta 117.816328
_cell_angle_gamma 90.000000
_cell_volume 2775.823036
_symmetry_space_group_name_H-M "C 2/M"
_symmetry_group_IT_number 12
_symmetry_cell_setting 'monoclinic'
loop_
_space_group_symop_operation_xyz
x,y,z
-x,y,-z
-x,-y,-z
x,-y,z
1/2+x,1/2+y,z
1/2-x,1/2+y,-z
1/2-x,1/2-y,-z
1/2+x,1/2-y,z
loop_
_atom_site_type_symbol
_atom_site_label
_atom_site_fract_x
_atom_site_fract_y
_atom_site_fract_z
Si Si1 0.340950 0.374714 0.995911
Si Si2 0.204500 0.800888 0.414452
Si Si3 0.357387 0.673016 0.238742
Si Si4 0.187462 0.287302 0.797877
Si Si5 0.066012 0.555755 0.813611
Si Si6 0.385601 0.148763 0.663269
Si Si7 0.500000 0.000000 0.000000
O O1 0.281320 0.322620 0.917318
O O2 0.220659 0.417560 0.914671
O O3 0.500000 0.387175 0.000000
O O4 0.358341 0.365051 0.134556
O O5 0.250000 0.750000 0.500000
O O6 0.249519 0.794518 0.303215
O O7 0.306466 0.843043 0.514047
O O8 0.026984 0.815946 0.351758
O O9 0.304283 0.728095 0.174261
O O10 0.242941 0.655145 0.291216
O O11 0.014111 0.308061 0.732212
O O12 0.094339 0.500000 0.773327
O O13 0.978195 0.543141 0.894268
O O14 0.971905 0.595632 0.706129
#
# Coordination Sequence:
#
# PCOD9220807 Si02
#       7
#     8   8   8   8   8   8   2
#     4  11  23  39  59  92 121 156 202 259 313 361
#     4  12  22  38  58  85 130 173 202 235 289 368
#     4  12  22  37  58  89 126 166 204 244 297 358
#     4  11  22  39  56  85 130 171 198 244 294 362
#     4   9  21  41  65  86 114 151 204 262 311 360
#     4  11  23  35  63  91 118 162 210 243 295 359
#     4   8  16  40  66  88 104 144 204 252 324 344
#
# _framework density 18.012675999999999
#
# number of rings (size 3 to 8) (size 9 to 14) (size 15 to 20)
#    0.480    0.640    4.800    2.400    0.000    2.240 
#    0.000    0.000    0.000   10.560    0.000    0.000 
#    0.000    0.000    0.000    0.000    0.000    0.000 
#
# Total GULP energy -139224.944615 kJ/mol
# GULP energy per Si atom -5568.997785 kJ/mol
# Density = 1.797168 g / cm^3
# Si number density = 18.012676 Si / 1000 Ang^3
#
#
#
# Elastic Constant Matrix: (Units=GPa)
#
#
# Indices 1 2 3 4 5 6 
#
# 1 87.4131 12.7651 17.7206 0.0000 10.0147 0.0000
# 2 12.7651 100.3048 20.7675 0.0000 19.0956 0.0000
# 3 17.7206 20.7675 58.2842 0.0000 11.8141 0.0000
# 4 0.0000 0.0000 0.0000 20.8982 0.0000 -0.5189
# 5 10.0147 19.0956 11.8141 0.0000 28.3815 0.0000
# 6 0.0000 0.0000 0.0000 -0.5189 0.0000 -0.7235
#
#
#
# Elastic Compliance Matrix: (Units=1/GPa)
#
#
# Indices 1 2 3 4 5 6 
#
# 1 0.012446 -0.000409 -0.003062 0.000000 -0.002842 0.000000
# 2 -0.000409 0.011865 -0.002746 0.000000 -0.006696 0.000000
# 3 -0.003062 -0.002746 0.020176 0.000000 -0.005470 0.000000
# 4 0.000000 0.000000 0.000000 0.047014 0.000000 -0.033721
# 5 -0.002842 -0.006696 -0.005470 0.000000 0.043019 0.000000
# 6 0.000000 0.000000 0.000000 -0.033721 0.000000 -1.357996
#
#
# Mechanical properties :
#
#
# Convention : Reuss Voigt Hill
#
# Bulk Modulus (GPa) = 31.19943 38.72316 34.96129
# Shear Modulus (GPa) = -4.16542 22.69450 9.26454
#
# Velocity S-wave (km/s) = -1.52234 3.55338 2.27035
# Velocity P-wave (km/s) = 3.77735 6.19514 5.13070
#
# Compressibility (1/GPa) = 0.03205187
#
# Stress axis : x y z
#
# Youngs Moduli (GPa) = 80.34683 84.28235 49.56472
#
# Poissons Ratio (x) = 0.03446 0.15178
# Poissons Ratio (y) = 0.03285 0.13611
# Poissons Ratio (z) = 0.24605 0.23145
#
# Static dielectric constant tensor:
#      x y z
#    x 1.636010 0.000000 0.018750 
#    y 0.000000 1.640000 0.000000 
#    z 0.018750 0.000000 1.608240 
# 
# From -- ./inp_files/125387.got.cif
#   From: 2010.05.17/outbox.cif.g08.bks.cpg/sg12_63_cif.got.tgz:125387.got - 2010.06.03 13:09:07.
