data_PCOD9220819
_publ_section_title
;
Structure prediction by ZEFSAII (Michael W. Deem and Ramdas Pophale) SiO2 
 PCOD9220819
Probable space group: C 2/M
;
_chemical_formula_sum "Si O2"
_cell_formula_units_Z 40
_cell_length_a 14.653044
_cell_length_b 8.523012
_cell_length_c 18.120534
_cell_angle_alpha 90.000000
_cell_angle_beta 121.198524
_cell_angle_gamma 90.000000
_cell_volume 1935.752465
_symmetry_space_group_name_H-M "C 2/M"
_symmetry_group_IT_number 12
_symmetry_cell_setting 'monoclinic'
loop_
_space_group_symop_operation_xyz
x,y,z
-x,y,-z
-x,-y,-z
x,-y,z
1/2+x,1/2+y,z
1/2-x,1/2+y,-z
1/2-x,1/2-y,-z
1/2+x,1/2-y,z
loop_
_atom_site_type_symbol
_atom_site_label
_atom_site_fract_x
_atom_site_fract_y
_atom_site_fract_z
Si Si1 0.085250 0.689676 0.639383
Si Si2 0.387498 0.685454 0.187585
Si Si3 0.844509 0.688134 0.488783
Si Si4 0.839033 0.815581 0.940565
Si Si5 0.021911 0.316121 0.121801
O O1 0.093625 0.500000 0.650666
O O2 0.115783 0.770157 0.728166
O O3 0.153691 0.739289 0.596352
O O4 0.961530 0.727829 0.569721
O O5 0.390604 0.500000 0.178311
O O6 0.280567 0.754567 0.106315
O O7 0.488604 0.762552 0.189144
O O8 0.838375 0.500000 0.485214
O O9 0.750000 0.750000 0.500000
O O10 0.884096 0.781295 0.877317
O O11 0.845724 0.000000 0.959739
O O12 0.918574 0.722686 0.027729
O O13 0.046002 0.500000 0.128793
#
# Coordination Sequence:
#
# PCOD9220819 Si02
#       5
#     8   8   8   8   8
#     4   9  20  39  57  81 114 149 184 227 280 339
#     4  12  24  38  57  85 117 153 192 236 285 336
#     4   9  19  37  62  84 110 145 183 225 279 338
#     4  11  22  39  60  84 114 151 193 239 285 338
#     4  11  22  39  60  84 114 151 193 239 285 338
#
# _framework density 20.663799000000001
#
# number of rings (size 3 to 8) (size 9 to 14) (size 15 to 20)
#    0.000    1.600    0.000    8.400    0.000    3.200 
#    0.000    6.000    0.000    0.000    0.000    0.000 
#    0.000    0.000    0.000    0.000    0.000    0.000 
#
# Total GULP energy -111820.578771 kJ/mol
# GULP energy per Si atom -5591.028939 kJ/mol
# Density = 2.061677 g / cm^3
# Si number density = 20.663799 Si / 1000 Ang^3
#
#
#
# Elastic Constant Matrix: (Units=GPa)
#
#
# Indices 1 2 3 4 5 6 
#
# 1 116.7512 1.2161 12.4484 0.0000 -26.6306 0.0000
# 2 1.2161 59.0022 5.0093 0.0000 -1.9735 0.0000
# 3 12.4484 5.0093 43.3839 0.0000 -22.9873 0.0000
# 4 0.0000 0.0000 0.0000 28.2553 0.0000 -4.9242
# 5 -26.6306 -1.9735 -22.9873 0.0000 23.8204 0.0000
# 6 0.0000 0.0000 0.0000 -4.9242 0.0000 37.2983
#
#
#
# Elastic Compliance Matrix: (Units=1/GPa)
#
#
# Indices 1 2 3 4 5 6 
#
# 1 0.012710 -0.000207 0.007974 0.000000 0.021887 0.000000
# 2 -0.000207 0.017131 -0.002638 0.000000 -0.001358 0.000000
# 3 0.007974 -0.002638 0.052539 0.000000 0.059398 0.000000
# 4 0.000000 0.000000 0.000000 0.036225 0.000000 0.004783
# 5 0.021887 -0.001358 0.059398 0.000000 0.123658 0.000000
# 6 0.000000 0.000000 0.000000 0.004783 0.000000 0.027442
#
#
# Mechanical properties :
#
#
# Convention : Reuss Voigt Hill
#
# Bulk Modulus (GPa) = 10.79468 28.49832 19.64650
# Shear Modulus (GPa) = 17.22194 31.23903 24.23049
#
# Velocity S-wave (km/s) = 2.89006 3.89237 3.42805
# Velocity P-wave (km/s) = 4.04622 5.83285 5.01966
#
# Compressibility (1/GPa) = 0.09263826
#
# Stress axis : x y z
#
# Youngs Moduli (GPa) = 78.68126 58.37251 19.03337
#
# Poissons Ratio (x) = 0.01208 -0.15177
# Poissons Ratio (y) = 0.01628 0.05021
# Poissons Ratio (z) = -0.62741 0.15400
#
# Static dielectric constant tensor:
#      x y z
#    x 1.795770 0.000000 -0.017900 
#    y 0.000000 1.689550 0.000000 
#    z -0.017900 0.000000 1.766810 
# 
# From -- ./inp_files/267380.got.cif
#   From: 2010.05.17/outbox.cif.g08.bks.cpg/sg12_134_cif.got.tgz:267380.got - 2010.06.03 13:09:07.
