data_PCOD9220463
_publ_section_title
;
Structure prediction by ZEFSAII (Michael W. Deem and Ramdas Pophale) SiO2 
 PCOD9220463
Probable space group: C 2/M
;
_chemical_formula_sum "Si O2"
_cell_formula_units_Z 48
_cell_length_a 14.220906
_cell_length_b 24.076390
_cell_length_c 13.120066
_cell_angle_alpha 90.000000
_cell_angle_beta 33.508005
_cell_angle_gamma 90.000000
_cell_volume 2479.909379
_symmetry_space_group_name_H-M "C 2/M"
_symmetry_group_IT_number 12
_symmetry_cell_setting 'monoclinic'
loop_
_space_group_symop_operation_xyz
x,y,z
-x,y,-z
-x,-y,-z
x,-y,z
1/2+x,1/2+y,z
1/2-x,1/2+y,-z
1/2-x,1/2-y,-z
1/2+x,1/2-y,z
loop_
_atom_site_type_symbol
_atom_site_label
_atom_site_fract_x
_atom_site_fract_y
_atom_site_fract_z
Si Si1 0.003786 0.163232 0.657265
Si Si2 0.435282 0.221357 0.667592
Si Si3 0.558739 0.705349 0.061366
Si Si4 0.947511 0.561634 0.207433
Si Si5 0.704662 0.439338 0.236266
Si Si6 0.389919 0.184918 0.302085
O O1 0.896252 0.213212 0.705617
O O2 0.998052 0.171053 0.786082
O O3 0.923334 0.107175 0.687502
O O4 0.194884 0.176379 0.448856
O O5 0.500000 0.202582 0.500000
O O6 0.589342 0.210520 0.605016
O O7 0.262439 0.197761 0.870862
O O8 0.491428 0.769212 0.142449
O O9 0.500000 0.689622 0.000000
O O10 0.932527 0.500000 0.271578
O O11 0.789086 0.565931 0.271695
O O12 0.955121 0.621485 0.253886
O O13 0.125204 0.560875 0.986188
O O14 0.623777 0.500000 0.299722
#
# Coordination Sequence:
#
# PCOD9220463 Si02
#       6
#     8   8   8   8   8   8
#     4  11  22  35  53  82 113 146 186 224 277 328
#     4  11  22  37  56  80 109 144 187 227 278 328
#     4  11  22  37  56  79 109 148 183 228 277 328
#     4   9  19  35  55  80 109 148 189 227 275 324
#     4   9  19  35  56  80 110 148 188 228 274 326
#     4  11  22  35  54  82 112 147 185 226 272 333
#
# _framework density 19.355546
#
# number of rings (size 3 to 8) (size 9 to 14) (size 15 to 20)
#    0.000    1.667    0.000    9.000    7.000    0.667 
#    0.000    1.667    0.000    1.000    0.000    0.000 
#    0.000    0.000    0.000    0.000    0.000    0.000 
#
# Total GULP energy -133680.785640 kJ/mol
# GULP energy per Si atom -5570.032735 kJ/mol
# Density = 1.931149 g / cm^3
# Si number density = 19.355546 Si / 1000 Ang^3
#
#
#
# Elastic Constant Matrix: (Units=GPa)
#
#
# Indices 1 2 3 4 5 6 
#
# 1 72.9672 24.4833 20.5743 0.0004 -2.9745 0.0000
# 2 24.4833 132.8941 17.2026 0.0008 -8.6535 -0.0001
# 3 20.5743 17.2026 78.9261 -0.0047 -8.9256 0.0010
# 4 0.0004 0.0008 -0.0047 21.9147 0.0019 -11.6495
# 5 -2.9745 -8.6535 -8.9256 0.0019 32.0922 -0.0002
# 6 0.0000 -0.0001 0.0010 -11.6495 -0.0002 27.2883
#
#
#
# Elastic Compliance Matrix: (Units=1/GPa)
#
#
# Indices 1 2 3 4 5 6 
#
# 1 0.015503 -0.002411 -0.003538 -0.000001 -0.000197 0.000000
# 2 -0.002411 0.008206 -0.000965 -0.000001 0.001721 0.000000
# 3 -0.003538 -0.000965 0.014182 0.000003 0.003356 0.000001
# 4 -0.000001 -0.000001 0.000003 0.059026 -0.000003 0.025199
# 5 -0.000197 0.001721 0.003356 -0.000003 0.032539 -0.000001
# 6 0.000000 0.000000 0.000001 0.025199 -0.000001 0.047403
#
#
# Mechanical properties :
#
#
# Convention : Reuss Voigt Hill
#
# Bulk Modulus (GPa) = 41.55868 45.47865 43.51867
# Shear Modulus (GPa) = 25.16219 31.09420 28.12819
#
# Velocity S-wave (km/s) = 3.60946 4.01243 3.81627
# Velocity P-wave (km/s) = 6.23609 6.70922 6.47697
#
# Compressibility (1/GPa) = 0.02406236
#
# Stress axis : x y z
#
# Youngs Moduli (GPa) = 64.50196 121.86208 70.51000
#
# Poissons Ratio (x) = 0.29382 0.24948
# Poissons Ratio (y) = 0.15552 0.06808
# Poissons Ratio (z) = 0.22822 0.11765
#
# Static dielectric constant tensor:
#      x y z
#    x 1.683080 0.000000 -0.005720 
#    y 0.000000 1.748680 0.000000 
#    z -0.005720 0.000000 1.733690 
# 
# From -- ./inp_files/218413.got.cif
#   From: 2010.05.17/outbox.cif.g08.bks.cpg/sg12_110_cif.got.tgz:218413.got - 2010.06.03 13:09:07.
