data_PCOD9220385
_publ_section_title
;
Structure prediction by ZEFSAII (Michael W. Deem and Ramdas Pophale) SiO2 
 PCOD9220385
Probable space group: C 2/M
;
_chemical_formula_sum "Si O2"
_cell_formula_units_Z 52
_cell_length_a 5.250695
_cell_length_b 23.637432
_cell_length_c 17.209809
_cell_angle_alpha 90.000000
_cell_angle_beta 102.898679
_cell_angle_gamma 90.000000
_cell_volume 2082.062007
_symmetry_space_group_name_H-M "C 2/M"
_symmetry_group_IT_number 12
_symmetry_cell_setting 'monoclinic'
loop_
_space_group_symop_operation_xyz
x,y,z
-x,y,-z
-x,-y,-z
x,-y,z
1/2+x,1/2+y,z
1/2-x,1/2+y,-z
1/2-x,1/2-y,-z
1/2+x,1/2-y,z
loop_
_atom_site_type_symbol
_atom_site_label
_atom_site_fract_x
_atom_site_fract_y
_atom_site_fract_z
Si Si1 0.256415 0.717932 0.172503
Si Si2 0.398653 0.063885 0.614898
Si Si3 0.214457 0.582334 0.954632
Si Si4 0.017520 0.393607 0.215950
Si Si5 0.500000 0.193887 0.000000
Si Si6 0.761557 0.341980 0.337266
Si Si7 0.823125 0.820942 0.419261
O O1 0.035708 0.753655 0.202112
O O2 0.214139 0.651780 0.190681
O O3 0.179954 0.723293 0.075898
O O4 0.358607 0.069582 0.706277
O O5 0.680991 0.094780 0.623060
O O6 0.216862 0.111921 0.566691
O O7 0.380513 0.000000 0.587852
O O8 0.126874 0.571952 0.860857
O O9 0.185325 0.650418 0.964081
O O10 0.500000 0.565021 0.000000
O O11 0.000000 0.560211 0.000000
O O12 0.809948 0.356067 0.250698
O O13 0.496579 0.318442 0.353350
O O14 0.017877 0.306196 0.383586
O O15 0.000000 0.796232 0.500000
#
# Coordination Sequence:
#
# PCOD9220385 Si02
#       7
#     8   8   8   8   4   8   8
#     4  11  22  31  50  73 102 132 167 204 260 309
#     4   8  19  34  54  75 102 142 174 200 252 302
#     4   9  18  29  51  70  94 132 171 208 258 295
#     4   8  20  36  51  72 105 136 172 216 246 308
#     4   8  20  30  46  70 105 122 161 202 260 326
#     4   8  19  31  51  71 104 139 171 193 250 295
#     4   9  17  31  50  79 109 133 164 201 247 309
#
# _framework density 24.975239999999999
#
# number of rings (size 3 to 8) (size 9 to 14) (size 15 to 20)
#    2.308    0.615    0.000    0.923    4.308    5.846 
#    0.000    0.769    0.000    0.923    0.000    0.000 
#    0.000   65.231    0.000    0.000    0.000    0.000 
#
# Total GULP energy -144841.322061 kJ/mol
# GULP energy per Si atom -5570.820079 kJ/mol
# Density = 2.491840 g / cm^3
# Si number density = 24.975240 Si / 1000 Ang^3
#
#
#
# Elastic Constant Matrix: (Units=GPa)
#
#
# Indices 1 2 3 4 5 6 
#
# 1 105.7414 -1.8180 5.0130 0.0000 22.2257 0.0000
# 2 -1.8180 110.7385 -17.9293 0.0000 5.0738 0.0000
# 3 5.0130 -17.9293 103.4718 0.0000 2.1789 0.0000
# 4 0.0000 0.0000 0.0000 -5.7398 0.0000 15.0309
# 5 22.2257 5.0738 2.1789 0.0000 34.1486 0.0000
# 6 0.0000 0.0000 0.0000 15.0309 0.0000 28.2426
#
#
#
# Elastic Compliance Matrix: (Units=1/GPa)
#
#
# Indices 1 2 3 4 5 6 
#
# 1 0.010994 0.000462 -0.000301 0.000000 -0.007205 0.000000
# 2 0.000462 0.009386 0.001642 0.000000 -0.001800 0.000000
# 3 -0.000301 0.001642 0.009978 0.000000 -0.000685 0.000000
# 4 0.000000 0.000000 0.000000 -0.072784 0.000000 0.038736
# 5 -0.007205 -0.001800 -0.000685 0.000000 0.034284 0.000000
# 6 0.000000 0.000000 0.000000 0.038736 0.000000 0.014792
#
#
# Mechanical properties :
#
#
# Convention : Reuss Voigt Hill
#
# Bulk Modulus (GPa) = 29.44330 32.27592 30.85961
# Shear Modulus (GPa) = 348.05745 33.64267 190.85006
#
# Velocity S-wave (km/s) = 11.81793 3.67419 8.75109
# Velocity P-wave (km/s) = 14.07241 5.56334 10.70008
#
# Compressibility (1/GPa) = 0.03396358
#
# Stress axis : x y z
#
# Youngs Moduli (GPa) = 90.96232 106.53961 100.22075
#
# Poissons Ratio (x) = -0.04921 0.03015
# Poissons Ratio (y) = -0.04201 -0.16456
# Poissons Ratio (z) = 0.02737 -0.17493
#
# Static dielectric constant tensor:
#      x y z
#    x 1.981120 0.000000 0.004390 
#    y 0.000000 2.002920 0.000000 
#    z 0.004390 0.000000 2.068030 
# 
# From -- ./inp_files/298231.got.cif
#   From: 2010.05.17/outbox.cif.g08.bks.cpg/sg12_150_cif.got.tgz:298231.got - 2010.06.03 13:09:07.
