data_PCOD9220937
_publ_section_title
;
Structure prediction by ZEFSAII (Michael W. Deem and Ramdas Pophale) SiO2 
 PCOD9220937
Probable space group: C 2/M
;
_chemical_formula_sum "Si O2"
_cell_formula_units_Z 44
_cell_length_a 17.304384
_cell_length_b 23.586793
_cell_length_c 5.480329
_cell_angle_alpha 90.000000
_cell_angle_beta 67.291235
_cell_angle_gamma 90.000000
_cell_volume 2063.422584
_symmetry_space_group_name_H-M "C 2/M"
_symmetry_group_IT_number 12
_symmetry_cell_setting 'monoclinic'
loop_
_space_group_symop_operation_xyz
x,y,z
-x,y,-z
-x,-y,-z
x,-y,z
1/2+x,1/2+y,z
1/2-x,1/2+y,-z
1/2-x,1/2-y,-z
1/2+x,1/2-y,z
loop_
_atom_site_type_symbol
_atom_site_label
_atom_site_fract_x
_atom_site_fract_y
_atom_site_fract_z
Si Si1 0.500000 0.356661 0.000000
Si Si2 0.264987 0.064257 0.176097
Si Si3 0.291725 0.792558 0.637624
Si Si4 0.430303 0.744505 0.774312
Si Si5 0.819655 0.101357 0.210324
Si Si6 0.093038 0.648469 0.867852
O O1 0.531815 0.314088 0.173940
O O2 0.417959 0.393549 0.146831
O O3 0.221115 0.077003 0.491074
O O4 0.340408 0.109772 0.069983
O O5 0.297278 0.000000 0.142365
O O6 0.205358 0.070235 0.011104
O O7 0.250000 0.750000 0.500000
O O8 0.340727 0.749792 0.754463
O O9 0.217671 0.835642 0.793966
O O10 0.362313 0.835689 0.441675
O O11 0.500000 0.765804 0.500000
O O12 0.418294 0.789743 0.001346
O O13 0.000000 0.622549 0.000000
#
# Coordination Sequence:
#
# PCOD9220937 Si02
#       6
#     4   8   8   8   8   8
#     4  12  28  40  65 106 141 184 224 280 348 426
#     4  11  26  50  75  97 132 181 241 300 351 397
#     4  11  23  38  62  97 142 190 221 270 340 420
#     4  12  21  37  62  97 146 179 222 264 337 421
#     4  11  26  46  70 103 139 178 236 289 346 413
#     4  11  22  40  62 101 137 177 222 283 336 415
#
# _framework density 21.323796000000002
#
# number of rings (size 3 to 8) (size 9 to 14) (size 15 to 20)
#    0.000    0.727    4.545    2.727    7.636    1.818 
#    0.000    2.727    0.000    3.818    0.000    0.000 
#    0.000    0.000    0.000    0.000    0.000    0.000 
#
# Total GULP energy -122738.912714 kJ/mol
# GULP energy per Si atom -5579.041487 kJ/mol
# Density = 2.127526 g / cm^3
# Si number density = 21.323796 Si / 1000 Ang^3
#
#
#
# Elastic Constant Matrix: (Units=GPa)
#
#
# Indices 1 2 3 4 5 6 
#
# 1 149.8113 8.4548 30.0391 0.0000 -2.5592 0.0000
# 2 8.4548 56.7193 3.2538 0.0000 3.2040 0.0000
# 3 30.0391 3.2538 79.6904 0.0000 -3.8557 0.0000
# 4 0.0000 0.0000 0.0000 5.6938 0.0000 12.5104
# 5 -2.5592 3.2040 -3.8557 0.0000 43.1168 0.0000
# 6 0.0000 0.0000 0.0000 12.5104 0.0000 1.5882
#
#
#
# Elastic Compliance Matrix: (Units=1/GPa)
#
#
# Indices 1 2 3 4 5 6 
#
# 1 0.007272 -0.000944 -0.002690 0.000000 0.000261 0.000000
# 2 -0.000944 0.017877 -0.000443 0.000000 -0.001424 0.000000
# 3 -0.002690 -0.000443 0.013634 0.000000 0.001092 0.000000
# 4 0.000000 0.000000 0.000000 -0.010770 0.000000 0.084835
# 5 0.000261 -0.001424 0.001092 0.000000 0.023412 0.000000
# 6 0.000000 0.000000 0.000000 0.084835 0.000000 -0.038611
#
#
# Mechanical properties :
#
#
# Convention : Reuss Voigt Hill
#
# Bulk Modulus (GPa) = 32.64946 41.07958 36.86452
# Shear Modulus (GPa) = 160.36754 26.37797 93.37275
#
# Velocity S-wave (km/s) = 8.68154 3.52095 6.62443
# Velocity P-wave (km/s) = 10.76275 5.98631 8.70841
#
# Compressibility (1/GPa) = 0.03062838
#
# Stress axis : x y z
#
# Youngs Moduli (GPa) = 137.50966 55.93679 73.34868
#
# Poissons Ratio (x) = 0.05283 0.19731
# Poissons Ratio (y) = 0.12987 0.03248
# Poissons Ratio (z) = 0.36991 0.02477
#
# Static dielectric constant tensor:
#      x y z
#    x 2.026300 0.000000 0.163680 
#    y 0.000000 1.747160 0.000000 
#    z 0.163680 0.000000 1.980120 
# 
# From -- ./inp_files/16818.got.cif
#   From: 2010.05.17/outbox.cif.g08.bks.cpg/sg12_9_cif.got.tgz:16818.got - 2010.06.03 13:09:07.
