data_PCOD9220519
_publ_section_title
;
Structure prediction by ZEFSAII (Michael W. Deem and Ramdas Pophale) SiO2 
 PCOD9220519
Probable space group: C 2/M
;
_chemical_formula_sum "Si O2"
_cell_formula_units_Z 40
_cell_length_a 8.854923
_cell_length_b 27.892546
_cell_length_c 11.704348
_cell_angle_alpha 90.000000
_cell_angle_beta 136.357553
_cell_angle_gamma 90.000000
_cell_volume 1995.112302
_symmetry_space_group_name_H-M "C 2/M"
_symmetry_group_IT_number 12
_symmetry_cell_setting 'monoclinic'
loop_
_space_group_symop_operation_xyz
x,y,z
-x,y,-z
-x,-y,-z
x,-y,z
1/2+x,1/2+y,z
1/2-x,1/2+y,-z
1/2-x,1/2-y,-z
1/2+x,1/2-y,z
loop_
_atom_site_type_symbol
_atom_site_label
_atom_site_fract_x
_atom_site_fract_y
_atom_site_fract_z
Si Si1 0.965519 0.142860 0.848125
Si Si2 0.260494 0.551738 0.807504
Si Si3 0.963004 0.231783 0.681223
Si Si4 0.064908 0.406315 0.913555
Si Si5 0.894135 0.694199 0.817803
O O1 0.784739 0.100276 0.747754
O O2 0.916184 0.187016 0.739434
O O3 0.000000 0.157589 0.000000
O O4 0.197880 0.119312 0.940100
O O5 0.225313 0.500000 0.731776
O O6 0.093132 0.560000 0.820004
O O7 0.500000 0.549864 0.000000
O O8 0.750000 0.250000 0.500000
O O9 0.029048 0.276171 0.798507
O O10 0.153165 0.215668 0.699868
O O11 0.903211 0.362200 0.797402
O O12 0.000000 0.428324 0.000000
O O13 0.000000 0.700344 0.000000
#
# Coordination Sequence:
#
# PCOD9220519 Si02
#       5
#     8   8   8   8   8
#     4   9  18  33  55  75 109 155 193 223 280 339
#     4   8  16  29  51  81 112 142 185 238 281 324
#     4  12  24  36  51  81 113 148 192 240 281 324
#     4   9  16  30  51  77 106 145 191 225 277 327
#     4  11  22  36  55  75 107 155 193 221 276 346
#
# _framework density 20.048995999999999
#
# number of rings (size 3 to 8) (size 9 to 14) (size 15 to 20)
#    0.000    2.600    4.000    1.800    5.600    0.400 
#    0.000    0.000    0.000    0.000    0.000    2.800 
#    0.000    3.200    0.000    0.000    0.000    0.200 
#
# Total GULP energy -111511.170785 kJ/mol
# GULP energy per Si atom -5575.558539 kJ/mol
# Density = 2.000336 g / cm^3
# Si number density = 20.048996 Si / 1000 Ang^3
#
#
#
# Elastic Constant Matrix: (Units=GPa)
#
#
# Indices 1 2 3 4 5 6 
#
# 1 103.1611 16.6539 6.6611 0.0000 5.7583 0.0000
# 2 16.6539 87.9350 10.4569 0.0000 -5.1451 0.0000
# 3 6.6611 10.4569 41.5208 0.0000 4.6359 0.0000
# 4 0.0000 0.0000 0.0000 -2.3544 0.0000 2.5420
# 5 5.7583 -5.1451 4.6359 0.0000 20.8873 0.0000
# 6 0.0000 0.0000 0.0000 2.5420 0.0000 15.2867
#
#
#
# Elastic Compliance Matrix: (Units=1/GPa)
#
#
# Indices 1 2 3 4 5 6 
#
# 1 0.010248 -0.002033 -0.000780 0.000000 -0.003153 0.000000
# 2 -0.002033 0.012401 -0.003282 0.000000 0.004344 0.000000
# 3 -0.000780 -0.003282 0.025740 0.000000 -0.006306 0.000000
# 4 0.000000 0.000000 0.000000 -0.360086 0.000000 0.059877
# 5 -0.003153 0.004344 -0.006306 0.000000 0.051215 0.000000
# 6 0.000000 0.000000 0.000000 0.059877 0.000000 0.055460
#
#
# Mechanical properties :
#
#
# Convention : Reuss Voigt Hill
#
# Bulk Modulus (GPa) = 27.62437 33.35118 30.48778
# Shear Modulus (GPa) = -27.66015 20.02024 -3.81995
#
# Velocity S-wave (km/s) = -3.71836 3.16344 -1.38183
# Velocity P-wave (km/s) = 2.15096 5.47851 3.56283
#
# Compressibility (1/GPa) = 0.03619992
#
# Stress axis : x y z
#
# Youngs Moduli (GPa) = 97.57946 80.63591 38.84972
#
# Poissons Ratio (x) = 0.16390 0.03031
# Poissons Ratio (y) = 0.19834 0.12751
# Poissons Ratio (z) = 0.07613 0.26466
#
# Static dielectric constant tensor:
#      x y z
#    x 1.763700 0.000000 0.015830 
#    y 0.000000 1.768760 0.000000 
#    z 0.015830 0.000000 1.733380 
# 
# From -- ./inp_files/125001.got.cif
#   From: 2010.05.17/outbox.cif.g08.bks.cpg/sg12_63_cif.got.tgz:125001.got - 2010.06.03 13:09:07.
