data_PCOD9220929
_publ_section_title
;
Structure prediction by ZEFSAII (Michael W. Deem and Ramdas Pophale) SiO2 
 PCOD9220929
Probable space group: C 2/M
;
_chemical_formula_sum "Si O2"
_cell_formula_units_Z 46
_cell_length_a 7.723694
_cell_length_b 12.521375
_cell_length_c 20.954062
_cell_angle_alpha 90.000000
_cell_angle_beta 93.943970
_cell_angle_gamma 90.000000
_cell_volume 2021.694760
_symmetry_space_group_name_H-M "C 2/M"
_symmetry_group_IT_number 12
_symmetry_cell_setting 'monoclinic'
loop_
_space_group_symop_operation_xyz
x,y,z
-x,y,-z
-x,-y,-z
x,-y,z
1/2+x,1/2+y,z
1/2-x,1/2+y,-z
1/2-x,1/2-y,-z
1/2+x,1/2-y,z
loop_
_atom_site_type_symbol
_atom_site_label
_atom_site_fract_x
_atom_site_fract_y
_atom_site_fract_z
Si Si1 0.705361 0.343922 0.600725
Si Si2 0.212781 0.677107 0.906059
Si Si3 0.500000 0.677801 0.000000
Si Si4 0.420529 0.116121 0.427073
Si Si5 0.500000 0.500000 0.500000
Si Si6 0.912023 0.116634 0.262310
Si Si7 0.575497 0.814899 0.189365
O O1 0.698584 0.217019 0.588561
O O2 0.906486 0.377449 0.611513
O O3 0.613867 0.407210 0.541144
O O4 0.600644 0.368574 0.662347
O O5 0.103372 0.745488 0.954168
O O6 0.314652 0.759981 0.864061
O O7 0.080020 0.625925 0.851968
O O8 0.358271 0.618800 0.952329
O O9 0.500000 0.123160 0.500000
O O10 0.331512 0.000000 0.418485
O O11 0.713751 0.118898 0.232460
O O12 0.004975 0.217356 0.231488
O O13 0.989857 0.000000 0.248741
#
# Coordination Sequence:
#
# PCOD9220929 Si02
#       7
#     8   8   4   8   2   8   8
#     4  12  24  42  63  88 120 154 204 260 316 388
#     4   8  14  27  50  86 122 153 204 244 285 353
#     4   8  12  22  50  90 120 158 200 240 290 348
#     4  11  24  41  61  89 118 153 190 242 313 388
#     4  12  24  40  68  88 120 156 202 266 336 372
#     4  11  22  40  60  83 114 157 200 250 307 361
#     4   9  19  35  55  84 119 156 202 249 291 355
#
# _framework density 22.753185999999999
#
# number of rings (size 3 to 8) (size 9 to 14) (size 15 to 20)
#    0.000    1.913    2.609    1.565    0.000    0.000 
#    0.000    4.348    0.000    0.000    0.000  275.130 
#    0.000    0.000    0.000    0.000    0.000    0.000 
#
# Total GULP energy -128119.234000 kJ/mol
# GULP energy per Si atom -5570.401478 kJ/mol
# Density = 2.270140 g / cm^3
# Si number density = 22.753186 Si / 1000 Ang^3
#
#
#
# Elastic Constant Matrix: (Units=GPa)
#
#
# Indices 1 2 3 4 5 6 
#
# 1 55.0161 14.4336 24.2112 0.0000 -3.2549 0.0000
# 2 14.4336 157.2972 22.2440 0.0000 -0.4876 0.0000
# 3 24.2112 22.2440 72.2572 0.0000 -10.1509 0.0000
# 4 0.0000 0.0000 0.0000 -208.7259 0.0000 -3.4621
# 5 -3.2549 -0.4876 -10.1509 0.0000 43.5970 0.0000
# 6 0.0000 0.0000 0.0000 -3.4621 0.0000 14.3246
#
#
#
# Elastic Compliance Matrix: (Units=1/GPa)
#
#
# Indices 1 2 3 4 5 6 
#
# 1 0.021469 -0.000996 -0.006889 0.000000 -0.000012 0.000000
# 2 -0.000996 0.006700 -0.001787 0.000000 -0.000416 0.000000
# 3 -0.006889 -0.001787 0.017185 0.000000 0.003467 0.000000
# 4 0.000000 0.000000 0.000000 -0.004772 0.000000 -0.001153
# 5 -0.000012 -0.000416 0.003467 0.000000 0.023739 0.000000
# 6 0.000000 0.000000 0.000000 -0.001153 0.000000 0.069531
#
#
# Mechanical properties :
#
#
# Convention : Reuss Voigt Hill
#
# Bulk Modulus (GPa) = 38.44664 45.14980 41.79822
# Shear Modulus (GPa) = 30.88978 -15.24875 7.82051
#
# Velocity S-wave (km/s) = 3.68856 -2.59159 1.85596
# Velocity P-wave (km/s) = 5.92238 3.30624 4.79614
#
# Compressibility (1/GPa) = 0.02601007
#
# Stress axis : x y z
#
# Youngs Moduli (GPa) = 46.57978 149.24849 58.19066
#
# Poissons Ratio (x) = 0.14863 0.40085
# Poissons Ratio (y) = 0.04639 0.10401
# Poissons Ratio (z) = 0.32087 0.26676
#
# Static dielectric constant tensor:
#      x y z
#    x 1.911480 0.000000 0.020490 
#    y 0.000000 1.825910 0.000000 
#    z 0.020490 0.000000 1.869310 
# 
# From -- ./inp_files/332070.got.cif
#   From: 2010.05.17/outbox.cif.g08.bks.cpg/sg12_167_cif.got.tgz:332070.got - 2010.06.03 13:09:07.
