data_PCOD9220865
_publ_section_title
;
Structure prediction by ZEFSAII (Michael W. Deem and Ramdas Pophale) SiO2 
 PCOD9220865
Probable space group: C 2/M
;
_chemical_formula_sum "Si O2"
_cell_formula_units_Z 40
_cell_length_a 13.469935
_cell_length_b 13.417201
_cell_length_c 11.848995
_cell_angle_alpha 90.000000
_cell_angle_beta 113.428065
_cell_angle_gamma 90.000000
_cell_volume 1964.913363
_symmetry_space_group_name_H-M "C 2/M"
_symmetry_group_IT_number 12
_symmetry_cell_setting 'monoclinic'
loop_
_space_group_symop_operation_xyz
x,y,z
-x,y,-z
-x,-y,-z
x,-y,z
1/2+x,1/2+y,z
1/2-x,1/2+y,-z
1/2-x,1/2-y,-z
1/2+x,1/2-y,z
loop_
_atom_site_type_symbol
_atom_site_label
_atom_site_fract_x
_atom_site_fract_y
_atom_site_fract_z
Si Si1 0.881268 0.262916 0.439594
Si Si2 0.329269 0.386232 0.621696
Si Si3 0.934071 0.391832 0.854421
Si Si4 0.819881 0.115917 0.215577
Si Si5 0.009446 0.819184 0.868936
O O1 0.786528 0.343982 0.391437
O O2 0.863667 0.189873 0.538644
O O3 0.872605 0.189351 0.329446
O O4 0.000000 0.308424 0.500000
O O5 0.321931 0.500000 0.577508
O O6 0.417114 0.380293 0.761603
O O7 0.940167 0.500000 0.798349
O O8 0.809114 0.372420 0.830066
O O9 0.984354 0.294957 0.819903
O O10 0.000000 0.399769 0.000000
O O11 0.873675 0.145254 0.121106
O O12 0.844960 0.000000 0.249628
O O13 0.000000 0.825686 0.000000
#
# Coordination Sequence:
#
# PCOD9220865 Si02
#       5
#     8   8   8   8   8
#     4  11  23  42  65  89 122 161 208 257 302 361
#     4  11  24  42  64  93 125 160 204 256 311 361
#     4   9  20  40  62  86 121 164 207 248 299 365
#     4  11  22  39  64  92 120 163 211 250 303 367
#     4  11  23  39  65  93 129 159 203 255 307 361
#
# _framework density 20.357130999999999
#
# number of rings (size 3 to 8) (size 9 to 14) (size 15 to 20)
#    0.000    1.400    4.000    1.200    0.000    6.000 
#    0.000    1.000    0.000    0.000    0.000    0.000 
#    0.000    0.000    0.000    0.000    0.000    0.000 
#
# Total GULP energy -111658.731495 kJ/mol
# GULP energy per Si atom -5582.936575 kJ/mol
# Density = 2.031080 g / cm^3
# Si number density = 20.357131 Si / 1000 Ang^3
#
#
#
# Elastic Constant Matrix: (Units=GPa)
#
#
# Indices 1 2 3 4 5 6 
#
# 1 42.7295 3.1275 -2.5490 0.0000 15.6571 0.0000
# 2 3.1275 70.7506 -9.9551 0.0000 11.9313 0.0000
# 3 -2.5490 -9.9551 58.0231 0.0000 -2.8111 0.0000
# 4 0.0000 0.0000 0.0000 12.3935 0.0000 -9.6001
# 5 15.6571 11.9313 -2.8111 0.0000 29.5550 0.0000
# 6 0.0000 0.0000 0.0000 -9.6001 0.0000 14.0203
#
#
#
# Elastic Compliance Matrix: (Units=1/GPa)
#
#
# Indices 1 2 3 4 5 6 
#
# 1 0.029205 0.001517 0.000768 0.000000 -0.016011 0.000000
# 2 0.001517 0.015562 0.002404 0.000000 -0.006857 0.000000
# 3 0.000768 0.002404 0.017696 0.000000 0.000306 0.000000
# 4 0.000000 0.000000 0.000000 0.171819 0.000000 0.117650
# 5 -0.016011 -0.006857 0.000306 0.000000 0.045115 0.000000
# 6 0.000000 0.000000 0.000000 0.117650 0.000000 0.151883
#
#
# Mechanical properties :
#
#
# Convention : Reuss Voigt Hill
#
# Bulk Modulus (GPa) = 13.91980 16.97221 15.44601
# Shear Modulus (GPa) = 11.21460 23.25243 17.23351
#
# Velocity S-wave (km/s) = 2.34966 3.38335 2.91273
# Velocity P-wave (km/s) = 3.77012 4.85984 4.34925
#
# Compressibility (1/GPa) = 0.07184012
#
# Stress axis : x y z
#
# Youngs Moduli (GPa) = 34.24122 64.25982 56.51131
#
# Poissons Ratio (x) = -0.09749 -0.04338
# Poissons Ratio (y) = -0.05195 -0.13587
# Poissons Ratio (z) = -0.02628 -0.15451
#
# Static dielectric constant tensor:
#      x y z
#    x 1.763280 0.000000 -0.005740 
#    y 0.000000 1.754020 0.000000 
#    z -0.005740 0.000000 1.705080 
# 
# From -- ./inp_files/129826.got.cif
#   From: 2010.05.17/outbox.cif.g08.bks.cpg/sg12_65_cif.got.tgz:129826.got - 2010.06.03 13:09:07.
