data_PCOD9220322
_publ_section_title
;
Structure prediction by ZEFSAII (Michael W. Deem and Ramdas Pophale) SiO2 
 PCOD9220322
Probable space group: C 2/M
;
_chemical_formula_sum "Si O2"
_cell_formula_units_Z 40
_cell_length_a 9.681653
_cell_length_b 23.221967
_cell_length_c 10.002414
_cell_angle_alpha 90.000000
_cell_angle_beta 70.166003
_cell_angle_gamma 90.000000
_cell_volume 2115.412533
_symmetry_space_group_name_H-M "C 2/M"
_symmetry_group_IT_number 12
_symmetry_cell_setting 'monoclinic'
loop_
_space_group_symop_operation_xyz
x,y,z
-x,y,-z
-x,-y,-z
x,-y,z
1/2+x,1/2+y,z
1/2-x,1/2+y,-z
1/2-x,1/2-y,-z
1/2+x,1/2-y,z
loop_
_atom_site_type_symbol
_atom_site_label
_atom_site_fract_x
_atom_site_fract_y
_atom_site_fract_z
Si Si1 0.809268 0.000000 0.688805
Si Si2 0.879863 0.408588 0.643081
Si Si3 0.853549 0.000000 0.352767
Si Si4 0.418129 0.901809 0.158808
Si Si5 0.661782 0.228969 0.901028
Si Si6 0.664507 0.222457 0.408414
O O1 0.714565 0.056200 0.758560
O O2 0.824844 0.000000 0.522483
O O3 0.968883 0.000000 0.708820
O O4 0.732936 0.446591 0.686402
O O5 0.838529 0.346282 0.599378
O O6 0.000000 0.433811 0.500000
O O7 0.964422 0.400861 0.756965
O O8 0.360313 0.838069 0.136062
O O9 0.500000 0.924548 0.000000
O O10 0.752911 0.256526 0.750495
O O11 0.500000 0.248571 0.000000
O O12 0.750000 0.250000 0.000000
O O13 0.500000 0.240693 0.500000
O O14 0.750000 0.250000 0.500000
#
# Coordination Sequence:
#
# PCOD9220322 Si02
#       6
#     4   8   4   8   8   8
#     4  11  24  41  64 101 128 159 214 272 331 365
#     4  11  21  42  65  91 125 175 217 253 317 391
#     4  11  24  40  66  98 130 162 207 278 331 369
#     4  11  23  43  67  91 127 174 217 255 311 397
#     4  11  23  42  64  92 130 174 212 259 324 384
#     4  11  23  38  61  94 124 163 215 267 310 373
#
# _framework density 18.908840999999999
#
# number of rings (size 3 to 8) (size 9 to 14) (size 15 to 20)
#    0.000    1.000    2.000    7.200    0.000    3.200 
#    0.000    2.000    0.000    0.000    0.000    0.000 
#    0.000    0.000    0.000    0.000    0.000    0.000 
#
# Total GULP energy -111460.002430 kJ/mol
# GULP energy per Si atom -5573.000122 kJ/mol
# Density = 1.886580 g / cm^3
# Si number density = 18.908841 Si / 1000 Ang^3
#
#
#
# Elastic Constant Matrix: (Units=GPa)
#
#
# Indices 1 2 3 4 5 6 
#
# 1 206.5726 84.2026 50.2432 0.0000 9.1870 0.0000
# 2 84.2026 93.9926 39.1565 0.0000 1.7977 0.0000
# 3 50.2432 39.1565 109.9684 0.0000 6.4554 0.0000
# 4 0.0000 0.0000 0.0000 26.6014 0.0000 -5.8044
# 5 9.1870 1.7977 6.4554 0.0000 48.8625 0.0000
# 6 0.0000 0.0000 0.0000 -5.8044 0.0000 27.3167
#
#
#
# Elastic Compliance Matrix: (Units=1/GPa)
#
#
# Indices 1 2 3 4 5 6 
#
# 1 0.007826 -0.006490 -0.001202 0.000000 -0.001074 0.000000
# 2 -0.006490 0.017875 -0.003459 0.000000 0.001020 0.000000
# 3 -0.001202 -0.003459 0.010938 0.000000 -0.001092 0.000000
# 4 0.000000 0.000000 0.000000 0.039420 0.000000 0.008376
# 5 -0.001074 0.001020 -0.001092 0.000000 0.020774 0.000000
# 6 0.000000 0.000000 0.000000 0.008376 0.000000 0.038387
#
#
# Mechanical properties :
#
#
# Convention : Reuss Voigt Hill
#
# Bulk Modulus (GPa) = 69.74807 84.19313 76.97060
# Shear Modulus (GPa) = 30.80665 36.35154 33.57910
#
# Velocity S-wave (km/s) = 4.04074 4.38935 4.21864
# Velocity P-wave (km/s) = 7.66398 8.38516 8.03267
#
# Compressibility (1/GPa) = 0.01433731
#
# Stress axis : x y z
#
# Youngs Moduli (GPa) = 127.77183 55.94464 91.42032
#
# Poissons Ratio (x) = 0.36308 0.10987
# Poissons Ratio (y) = 0.82925 0.31625
# Poissons Ratio (z) = 0.15356 0.19353
#
# Static dielectric constant tensor:
#      x y z
#    x 1.625410 0.000000 0.013760 
#    y 0.000000 1.675790 0.000000 
#    z 0.013760 0.000000 1.640960 
# 
# From -- ./inp_files/121269.got.cif
#   From: 2010.05.17/outbox.cif.g08.bks.cpg/sg12_61_cif.got.tgz:121269.got - 2010.06.03 13:09:07.
