data_PCOD9220615
_publ_section_title
;
Structure prediction by ZEFSAII (Michael W. Deem and Ramdas Pophale) SiO2 
 PCOD9220615
Probable space group: C 2/M
;
_chemical_formula_sum "Si O2"
_cell_formula_units_Z 64
_cell_length_a 14.814110
_cell_length_b 8.120777
_cell_length_c 22.391640
_cell_angle_alpha 90.000000
_cell_angle_beta 102.814005
_cell_angle_gamma 90.000000
_cell_volume 2626.673296
_symmetry_space_group_name_H-M "C 2/M"
_symmetry_group_IT_number 12
_symmetry_cell_setting 'monoclinic'
loop_
_space_group_symop_operation_xyz
x,y,z
-x,y,-z
-x,-y,-z
x,-y,z
1/2+x,1/2+y,z
1/2-x,1/2+y,-z
1/2-x,1/2-y,-z
1/2+x,1/2-y,z
loop_
_atom_site_type_symbol
_atom_site_label
_atom_site_fract_x
_atom_site_fract_y
_atom_site_fract_z
Si Si1 0.455631 0.806840 0.715759
Si Si2 0.856866 0.198596 0.450601
Si Si3 0.857663 0.697869 0.578839
Si Si4 0.382956 0.311395 0.326937
Si Si5 0.305754 0.308176 0.144625
Si Si6 0.289190 0.314820 0.752398
Si Si7 0.962233 0.800374 0.088131
Si Si8 0.142779 0.199562 0.050246
O O1 0.410440 0.747374 0.646004
O O2 0.563000 0.773888 0.719086
O O3 0.397351 0.719299 0.758720
O O4 0.440633 0.000000 0.720444
O O5 0.896841 0.245358 0.520691
O O6 0.749335 0.255289 0.434697
O O7 0.900385 0.262223 0.395182
O O8 0.857398 0.000000 0.446536
O O9 0.857822 0.500000 0.579123
O O10 0.412254 0.500000 0.330351
O O11 0.273403 0.300859 0.298684
O O12 0.314924 0.500000 0.163733
O O13 0.250699 0.213836 0.187834
O O14 0.404732 0.241143 0.136867
O O15 0.237446 0.291470 0.077845
O O16 0.269660 0.500000 0.730698
O O17 0.066485 0.749383 0.088961
O O18 0.963425 0.000000 0.092230
O O19 0.903726 0.760369 0.019882
O O20 0.155063 0.000000 0.054766
#
# Coordination Sequence:
#
# PCOD9220615 Si02
#       8
#     8   8   8   8   8   8   8   8
#     4  11  23  42  64  89 119 154 198 249 303 362
#     4   9  18  34  57  85 118 154 190 235 293 354
#     4   9  18  34  57  85 118 153 189 237 295 353
#     4  11  23  42  64  89 120 156 198 247 301 361
#     4  11  22  37  58  86 119 156 195 245 302 353
#     4  12  26  44  63  85 114 158 208 256 306 354
#     4   8  17  34  59  87 120 159 194 234 289 346
#     4   9  17  35  60  88 120 156 199 239 280 349
#
# _framework density 24.365421000000001
#
# number of rings (size 3 to 8) (size 9 to 14) (size 15 to 20)
#    0.000    2.000    1.250    3.375    0.000    3.500 
#    0.000    9.375    0.000    0.000    0.000    0.000 
#    0.000    0.000    0.000    0.000    0.000    0.000 
#
# Total GULP energy -178926.964747 kJ/mol
# GULP energy per Si atom -5591.467648 kJ/mol
# Density = 2.430996 g / cm^3
# Si number density = 24.365421 Si / 1000 Ang^3
#
#
#
# Elastic Constant Matrix: (Units=GPa)
#
#
# Indices 1 2 3 4 5 6 
#
# 1 112.3869 1.2862 26.8341 0.0000 -32.1469 0.0000
# 2 1.2862 42.0036 1.0153 0.0000 -12.8267 0.0000
# 3 26.8341 1.0153 79.8361 0.0000 -30.7472 0.0000
# 4 0.0000 0.0000 0.0000 23.6471 0.0000 0.7507
# 5 -32.1469 -12.8267 -30.7472 0.0000 51.1914 0.0000
# 6 0.0000 0.0000 0.0000 0.7507 0.0000 21.3655
#
#
#
# Elastic Compliance Matrix: (Units=1/GPa)
#
#
# Indices 1 2 3 4 5 6 
#
# 1 0.011068 0.001730 -0.001169 0.000000 0.006682 0.000000
# 2 0.001730 0.026544 0.002681 0.000000 0.009348 0.000000
# 3 -0.001169 0.002681 0.016731 0.000000 0.009987 0.000000
# 4 0.000000 0.000000 0.000000 0.042336 0.000000 -0.001487
# 5 0.006682 0.009348 0.009987 0.000000 0.032071 0.000000
# 6 0.000000 0.000000 0.000000 -0.001487 0.000000 0.046857
#
#
# Mechanical properties :
#
#
# Convention : Reuss Voigt Hill
#
# Bulk Modulus (GPa) = 16.43994 32.49976 24.46985
# Shear Modulus (GPa) = 26.39935 32.91352 29.65643
#
# Velocity S-wave (km/s) = 3.29519 3.67935 3.49256
# Velocity P-wave (km/s) = 4.60864 5.60514 5.13114
#
# Compressibility (1/GPa) = 0.06082748
#
# Stress axis : x y z
#
# Youngs Moduli (GPa) = 90.34697 37.67296 59.77073
#
# Poissons Ratio (x) = -0.06517 0.06986
# Poissons Ratio (y) = -0.15629 -0.16025
# Poissons Ratio (z) = 0.10560 -0.10100
#
# Static dielectric constant tensor:
#      x y z
#    x 1.950790 0.000000 -0.009310 
#    y 0.000000 1.840900 0.000000 
#    z -0.009310 0.000000 1.992720 
# 
# From -- ./inp_files/338767.got.cif
#   From: 2010.05.17/outbox.cif.g08.bks.cpg/sg12_170_cif.got.tgz:338767.got - 2010.06.03 13:09:07.
