data_PCOD9220790
_publ_section_title
;
Structure prediction by ZEFSAII (Michael W. Deem and Ramdas Pophale) SiO2 
 PCOD9220790
Probable space group: C 2/M
;
_chemical_formula_sum "Si O2"
_cell_formula_units_Z 58
_cell_length_a 21.841449
_cell_length_b 19.900652
_cell_length_c 11.308244
_cell_angle_alpha 90.000000
_cell_angle_beta 37.450197
_cell_angle_gamma 90.000000
_cell_volume 2988.812287
_symmetry_space_group_name_H-M "C 2/M"
_symmetry_group_IT_number 12
_symmetry_cell_setting 'monoclinic'
loop_
_space_group_symop_operation_xyz
x,y,z
-x,y,-z
-x,-y,-z
x,-y,z
1/2+x,1/2+y,z
1/2-x,1/2+y,-z
1/2-x,1/2-y,-z
1/2+x,1/2-y,z
loop_
_atom_site_type_symbol
_atom_site_label
_atom_site_fract_x
_atom_site_fract_y
_atom_site_fract_z
Si Si1 0.697670 0.686669 0.140175
Si Si2 0.000000 0.000000 0.500000
Si Si3 0.208119 0.344967 0.505293
Si Si4 0.183705 0.195743 0.440598
Si Si5 0.846786 0.580602 0.812477
Si Si6 0.934792 0.419827 0.427384
Si Si7 0.892532 0.078753 0.098157
Si Si8 0.476819 0.376914 0.721267
O O1 0.703888 0.694754 0.270638
O O2 0.585899 0.676046 0.261323
O O3 0.750000 0.750000 0.000000
O O4 0.756132 0.619575 0.010491
O O5 0.001432 0.059368 0.601253
O O6 0.184219 0.271312 0.489968
O O7 0.233913 0.340879 0.603901
O O8 0.113400 0.389720 0.614876
O O9 0.306784 0.376312 0.290498
O O10 0.077216 0.158141 0.616471
O O11 0.832967 0.500000 0.838410
O O12 0.866951 0.600493 0.645174
O O13 0.950474 0.598913 0.720562
O O14 0.932227 0.500000 0.428562
O O15 0.862743 0.000000 0.149222
O O16 0.000000 0.085601 0.000000
O O17 0.910663 0.100003 0.934987
#
# Coordination Sequence:
#
# PCOD9220790 Si02
#       8
#     8   2   8   8   8   8   8   8
#     4  12  25  40  63  93 120 162 210 258 317 376
#     4  12  24  44  66  92 136 172 206 264 330 384
#     4  11  23  42  64  86 129 168 205 260 312 374
#     4  11  25  43  58  91 126 167 211 249 315 385
#     4   9  20  37  63  90 123 152 205 261 306 362
#     4   9  18  38  63  92 115 159 207 253 306 356
#     4  11  22  38  65  98 126 161 214 264 313 375
#     4  12  24  43  66  93 131 168 210 260 324 380
#
# _framework density 19.405702000000002
#
# number of rings (size 3 to 8) (size 9 to 14) (size 15 to 20)
#    0.000    1.241    3.448    3.724    2.897    1.103 
#    1.241    0.690    0.000    1.655    0.000    0.000 
#    0.000    0.000    0.000    0.000    0.000    0.000 
#
# Total GULP energy -161794.757948 kJ/mol
# GULP energy per Si atom -5579.129584 kJ/mol
# Density = 1.936153 g / cm^3
# Si number density = 19.405702 Si / 1000 Ang^3
#
#
#
# Elastic Constant Matrix: (Units=GPa)
#
#
# Indices 1 2 3 4 5 6 
#
# 1 143.6519 26.0451 4.3908 0.0000 7.2275 0.0000
# 2 26.0451 57.4250 5.0926 0.0000 -4.9041 0.0000
# 3 4.3908 5.0926 9.2332 0.0000 7.0360 0.0000
# 4 0.0000 0.0000 0.0000 16.9038 0.0000 3.1418
# 5 7.2275 -4.9041 7.0360 0.0000 30.0960 0.0000
# 6 0.0000 0.0000 0.0000 3.1418 0.0000 36.3374
#
#
#
# Elastic Compliance Matrix: (Units=1/GPa)
#
#
# Indices 1 2 3 4 5 6 
#
# 1 0.007763 -0.003769 0.000336 0.000000 -0.002557 0.000000
# 2 -0.003769 0.021249 -0.016129 0.000000 0.008138 0.000000
# 3 0.000336 -0.016129 0.144925 0.000000 -0.036590 0.000000
# 4 0.000000 0.000000 0.000000 0.060125 0.000000 -0.005198
# 5 -0.002557 0.008138 -0.036590 0.000000 0.043721 0.000000
# 6 0.000000 0.000000 0.000000 -0.005198 0.000000 0.027969
#
#
# Mechanical properties :
#
#
# Convention : Reuss Voigt Hill
#
# Bulk Modulus (GPa) = 7.41779 31.26301 19.34040
# Shear Modulus (GPa) = 12.82662 28.31954 20.57308
#
# Velocity S-wave (km/s) = 2.57373 3.82428 3.25954
# Velocity P-wave (km/s) = 3.55849 5.97037 4.91468
#
# Compressibility (1/GPa) = 0.13481096
#
# Stress axis : x y z
#
# Youngs Moduli (GPa) = 128.81595 47.06127 6.90014
#
# Poissons Ratio (x) = 0.17738 -0.00232
# Poissons Ratio (y) = 0.48551 0.11129
# Poissons Ratio (z) = -0.04323 0.75907
#
# Static dielectric constant tensor:
#      x y z
#    x 1.688640 0.000000 -0.017650 
#    y 0.000000 1.660410 0.000000 
#    z -0.017650 0.000000 1.683920 
# 
# From -- ./inp_files/168960.got.cif
#   From: 2010.05.17/outbox.cif.g08.bks.cpg/sg12_85_cif.got.tgz:168960.got - 2010.06.03 13:09:07.
