data_PCOD9220525
_publ_section_title
;
Structure prediction by ZEFSAII (Michael W. Deem and Ramdas Pophale) SiO2 
 PCOD9220525
Probable space group: C 2/M
;
_chemical_formula_sum "Si O2"
_cell_formula_units_Z 42
_cell_length_a 4.855960
_cell_length_b 24.045704
_cell_length_c 15.742183
_cell_angle_alpha 90.000000
_cell_angle_beta 93.067104
_cell_angle_gamma 90.000000
_cell_volume 1835.502604
_symmetry_space_group_name_H-M "C 2/M"
_symmetry_group_IT_number 12
_symmetry_cell_setting 'monoclinic'
loop_
_space_group_symop_operation_xyz
x,y,z
-x,y,-z
-x,-y,-z
x,-y,z
1/2+x,1/2+y,z
1/2-x,1/2+y,-z
1/2-x,1/2-y,-z
1/2+x,1/2-y,z
loop_
_atom_site_type_symbol
_atom_site_label
_atom_site_fract_x
_atom_site_fract_y
_atom_site_fract_z
Si Si1 0.646169 0.214774 0.239243
Si Si2 0.717914 0.325191 0.945825
Si Si3 0.326467 0.404153 0.306669
Si Si4 0.000000 0.500000 0.000000
Si Si5 0.654464 0.936268 0.585205
Si Si6 0.423584 0.559402 0.118929
O O1 0.339879 0.232192 0.258888
O O2 0.689703 0.202013 0.140689
O O3 0.740215 0.158791 0.286383
O O4 0.524043 0.378802 0.914114
O O5 0.500000 0.291756 0.000000
O O6 0.000000 0.337248 0.000000
O O7 0.574255 0.406469 0.377340
O O8 0.409810 0.434047 0.219536
O O9 0.064897 0.434530 0.342474
O O10 0.136626 0.546955 0.066905
O O11 0.500000 0.912811 0.500000
O O12 0.731979 0.000000 0.566981
O O13 0.583873 0.500000 0.097518
#
# Coordination Sequence:
#
# PCOD9220525 Si02
#       6
#     8   8   8   2   8   8
#     4  11  24  42  62  86 117 163 215 269 316 357
#     4  11  22  36  55  81 114 155 208 260 311 360
#     4  11  23  41  66  93 126 170 208 254 311 378
#     4   8  16  36  54  84 120 176 198 256 286 356
#     4  11  23  41  68 102 134 160 195 244 308 384
#     4   9  18  35  56  84 124 163 206 246 302 364
#
# _framework density 22.882017000000001
#
# number of rings (size 3 to 8) (size 9 to 14) (size 15 to 20)
#    0.571    0.952    0.952    4.571    0.000    8.762 
#    0.000    1.905    0.000   11.429    0.000    0.000 
#    0.000    0.000    0.000    0.000    0.000    0.000 
#
# Total GULP energy -117075.247209 kJ/mol
# GULP energy per Si atom -5575.011772 kJ/mol
# Density = 2.282994 g / cm^3
# Si number density = 22.882017 Si / 1000 Ang^3
#
#
#
# Elastic Constant Matrix: (Units=GPa)
#
#
# Indices 1 2 3 4 5 6 
#
# 1 73.3700 -1.5907 8.4732 0.0000 13.1429 0.0000
# 2 -1.5907 89.9276 25.5026 0.0000 19.0458 0.0000
# 3 8.4732 25.5026 64.8433 0.0000 20.7274 0.0000
# 4 0.0000 0.0000 0.0000 24.9718 0.0000 6.4253
# 5 13.1429 19.0458 20.7274 0.0000 37.3755 0.0000
# 6 0.0000 0.0000 0.0000 6.4253 0.0000 32.2900
#
#
#
# Elastic Compliance Matrix: (Units=1/GPa)
#
#
# Indices 1 2 3 4 5 6 
#
# 1 0.014761 0.001673 -0.000796 0.000000 -0.005602 0.000000
# 2 0.001673 0.013341 -0.003773 0.000000 -0.005294 0.000000
# 3 -0.000796 -0.003773 0.019819 0.000000 -0.008788 0.000000
# 4 0.000000 0.000000 0.000000 0.042206 0.000000 -0.008398
# 5 -0.005602 -0.005294 -0.008788 0.000000 0.036297 0.000000
# 6 0.000000 0.000000 0.000000 -0.008398 0.000000 0.032641
#
#
# Mechanical properties :
#
#
# Convention : Reuss Voigt Hill
#
# Bulk Modulus (GPa) = 23.73680 32.54568 28.14124
# Shear Modulus (GPa) = 27.94852 31.97786 29.96319
#
# Velocity S-wave (km/s) = 3.49867 3.74238 3.62258
# Velocity P-wave (km/s) = 5.16885 5.73830 5.46100
#
# Compressibility (1/GPa) = 0.04212869
#
# Stress axis : x y z
#
# Youngs Moduli (GPa) = 67.74495 74.95701 50.45638
#
# Poissons Ratio (x) = -0.12543 0.04018
# Poissons Ratio (y) = -0.11336 0.19039
# Poissons Ratio (z) = 0.05395 0.28284
#
# Static dielectric constant tensor:
#      x y z
#    x 1.819930 0.000000 -0.007000 
#    y 0.000000 1.943390 0.000000 
#    z -0.007000 0.000000 1.816560 
# 
# From -- ./inp_files/191623.got.cif
#   From: 2010.05.17/outbox.cif.g08.bks.cpg/sg12_96_cif.got.tgz:191623.got - 2010.06.03 13:09:07.
