data_PCOD9220868
_publ_section_title
;
Structure prediction by ZEFSAII (Michael W. Deem and Ramdas Pophale) SiO2 
 PCOD9220868
Probable space group: C 2/M
;
_chemical_formula_sum "Si O2"
_cell_formula_units_Z 56
_cell_length_a 8.477766
_cell_length_b 26.008465
_cell_length_c 14.635378
_cell_angle_alpha 90.000000
_cell_angle_beta 111.881036
_cell_angle_gamma 90.000000
_cell_volume 2994.533566
_symmetry_space_group_name_H-M "C 2/M"
_symmetry_group_IT_number 12
_symmetry_cell_setting 'monoclinic'
loop_
_space_group_symop_operation_xyz
x,y,z
-x,y,-z
-x,-y,-z
x,-y,z
1/2+x,1/2+y,z
1/2-x,1/2+y,-z
1/2-x,1/2-y,-z
1/2+x,1/2-y,z
loop_
_atom_site_type_symbol
_atom_site_label
_atom_site_fract_x
_atom_site_fract_y
_atom_site_fract_z
Si Si1 0.815730 0.000000 0.078893
Si Si2 0.366913 0.700080 0.189863
Si Si3 0.375561 0.108655 0.203901
Si Si4 0.984871 0.325114 0.398265
Si Si5 0.353712 0.300525 0.892143
Si Si6 0.355500 0.897278 0.892128
Si Si7 0.219361 0.000000 0.142762
Si Si8 0.653097 0.714013 0.601107
O O1 0.748511 0.050807 0.113824
O O2 0.018351 0.000000 0.115830
O O3 0.748070 0.000000 0.959753
O O4 0.550792 0.699861 0.184303
O O5 0.275702 0.752872 0.138790
O O6 0.263119 0.652303 0.127589
O O7 0.368585 0.695126 0.299571
O O8 0.411416 0.138086 0.305410
O O9 0.247335 0.146093 0.120419
O O10 0.547837 0.103688 0.183380
O O11 0.297375 0.052413 0.198005
O O12 0.866614 0.275624 0.392964
O O13 0.000000 0.351678 0.500000
O O14 0.165478 0.303026 0.400177
O O15 0.500000 0.294697 0.000000
O O16 0.500000 0.894810 0.000000
O O17 0.500000 0.697804 0.500000
#
# Coordination Sequence:
#
# PCOD9220868 Si02
#       8
#     4   8   8   8   8   8   4   8
#     4  11  24  43  66  92 124 168 221 258 312 360
#     4  12  23  39  60  91 134 164 215 254 320 375
#     4  12  24  41  66  93 126 164 219 258 327 369
#     4  11  23  41  65  96 126 168 211 264 319 380
#     4  12  25  39  57  91 132 179 205 256 306 392
#     4  12  22  40  63  93 126 171 206 264 307 380
#     4  11  25  44  66  93 123 165 217 268 304 380
#     4  11  22  39  64  93 126 167 210 262 312 374
#
# _framework density 18.700742000000002
#
# number of rings (size 3 to 8) (size 9 to 14) (size 15 to 20)
#    0.000    0.429    4.286    6.643    4.000    0.000 
#    0.000    0.357    0.000    0.000    0.000    2.000 
#    0.000    0.000    0.000    0.000    0.000    0.000 
#
# Total GULP energy -156665.393149 kJ/mol
# GULP energy per Si atom -5595.192612 kJ/mol
# Density = 1.865818 g / cm^3
# Si number density = 18.700742 Si / 1000 Ang^3
#
#
#
# Elastic Constant Matrix: (Units=GPa)
#
#
# Indices 1 2 3 4 5 6 
#
# 1 90.0951 42.6601 25.8208 0.0000 -8.5324 0.0000
# 2 42.6601 136.4132 26.0805 0.0000 12.6262 0.0000
# 3 25.8208 26.0805 86.6818 0.0000 -7.9115 0.0000
# 4 0.0000 0.0000 0.0000 23.6804 0.0000 -1.7005
# 5 -8.5324 12.6262 -7.9115 0.0000 32.7897 0.0000
# 6 0.0000 0.0000 0.0000 -1.7005 0.0000 36.8683
#
#
#
# Elastic Compliance Matrix: (Units=1/GPa)
#
#
# Indices 1 2 3 4 5 6 
#
# 1 0.014395 -0.004475 -0.002497 0.000000 0.004866 0.000000
# 2 -0.004475 0.009618 -0.002051 0.000000 -0.005363 0.000000
# 3 -0.002497 -0.002051 0.013201 0.000000 0.003325 0.000000
# 4 0.000000 0.000000 0.000000 0.042369 0.000000 0.001954
# 5 0.004866 -0.005363 0.003325 0.000000 0.034631 0.000000
# 6 0.000000 0.000000 0.000000 0.001954 0.000000 0.027214
#
#
# Mechanical properties :
#
#
# Convention : Reuss Voigt Hill
#
# Bulk Modulus (GPa) = 52.16813 55.81256 53.99034
# Shear Modulus (GPa) = 30.14543 33.24290 31.69417
#
# Velocity S-wave (km/s) = 4.01932 4.22076 4.12127
# Velocity P-wave (km/s) = 7.03539 7.32550 7.18191
#
# Compressibility (1/GPa) = 0.01916879
#
# Stress axis : x y z
#
# Youngs Moduli (GPa) = 69.47014 103.96754 75.75285
#
# Poissons Ratio (x) = 0.46520 0.18919
# Poissons Ratio (y) = 0.31085 0.15533
# Poissons Ratio (z) = 0.17350 0.21319
#
# Static dielectric constant tensor:
#      x y z
#    x 1.651120 0.000000 -0.006590 
#    y 0.000000 1.631700 0.000000 
#    z -0.006590 0.000000 1.692860 
# 
# From -- ./inp_files/199002.got.cif
#   From: 2010.05.17/outbox.cif.g08.bks.cpg/sg12_100_cif.got.tgz:199002.got - 2010.06.03 13:09:07.
