data_PCOD9220256
_publ_section_title
;
Structure prediction by ZEFSAII (Michael W. Deem and Ramdas Pophale) SiO2 
 PCOD9220256
Probable space group: C 2/M
;
_chemical_formula_sum "Si O2"
_cell_formula_units_Z 40
_cell_length_a 20.416201
_cell_length_b 10.892098
_cell_length_c 9.558540
_cell_angle_alpha 90.000000
_cell_angle_beta 106.848039
_cell_angle_gamma 90.000000
_cell_volume 2034.346075
_symmetry_space_group_name_H-M "C 2/M"
_symmetry_group_IT_number 12
_symmetry_cell_setting 'monoclinic'
loop_
_space_group_symop_operation_xyz
x,y,z
-x,y,-z
-x,-y,-z
x,-y,z
1/2+x,1/2+y,z
1/2-x,1/2+y,-z
1/2-x,1/2-y,-z
1/2+x,1/2-y,z
loop_
_atom_site_type_symbol
_atom_site_label
_atom_site_fract_x
_atom_site_fract_y
_atom_site_fract_z
Si Si1 0.124063 0.000000 0.425329
Si Si2 0.929969 0.642212 0.871665
Si Si3 0.835447 0.000000 0.854499
Si Si4 0.581126 0.500000 0.802387
Si Si5 0.476722 0.290218 0.632810
Si Si6 0.710781 0.239756 0.122829
Si Si7 0.280371 0.500000 0.293175
O O1 0.083696 0.118436 0.450685
O O2 0.200013 0.000000 0.531964
O O3 0.119356 0.000000 0.255926
O O4 0.910875 0.500000 0.842188
O O5 0.945640 0.702876 0.731729
O O6 0.869979 0.707623 0.922343
O O7 0.000000 0.649615 0.000000
O O8 0.789073 0.878339 0.820373
O O9 0.885124 0.000000 0.021361
O O10 0.534402 0.380182 0.738241
O O11 0.647624 0.500000 0.744908
O O12 0.500000 0.231076 0.500000
O O13 0.743340 0.126039 0.227078
O O14 0.750000 0.250000 0.000000
#
# Coordination Sequence:
#
# PCOD9220256 Si02
#       7
#     4   8   4   4   8   8   4
#     4  11  23  40  65  99 130 171 218 282 333 397
#     4  11  25  44  67  98 137 180 221 276 339 396
#     4  12  24  41  66 103 126 169 236 270 324 402
#     4  11  21  40  71 103 123 174 215 292 327 394
#     4  11  22  40  69  99 131 168 226 273 342 395
#     4  12  24  43  70 100 133 179 224 277 330 401
#     4  12  24  43  69  91 143 178 219 269 353 384
#
# _framework density 19.662337999999998
#
# number of rings (size 3 to 8) (size 9 to 14) (size 15 to 20)
#    0.000    0.600    7.000    1.800    0.000    2.000 
#    0.000    0.000    0.000    0.000    0.000    0.000 
#    0.000    0.000    0.000    0.000    0.000    0.000 
#
# Total GULP energy -111578.160603 kJ/mol
# GULP energy per Si atom -5578.908030 kJ/mol
# Density = 1.961759 g / cm^3
# Si number density = 19.662338 Si / 1000 Ang^3
#
#
#
# Elastic Constant Matrix: (Units=GPa)
#
#
# Indices 1 2 3 4 5 6 
#
# 1 98.8706 42.1946 26.7521 0.0000 -17.2843 0.0000
# 2 42.1946 134.6869 23.7826 0.0000 4.8548 0.0000
# 3 26.7521 23.7826 105.8471 0.0000 -6.1324 0.0000
# 4 0.0000 0.0000 0.0000 10.9361 0.0000 -14.2507
# 5 -17.2843 4.8548 -6.1324 0.0000 39.9958 0.0000
# 6 0.0000 0.0000 0.0000 -14.2507 0.0000 5.6793
#
#
#
# Elastic Compliance Matrix: (Units=1/GPa)
#
#
# Indices 1 2 3 4 5 6 
#
# 1 0.013473 -0.004058 -0.002147 0.000000 0.005986 0.000000
# 2 -0.004058 0.009012 -0.001175 0.000000 -0.003028 0.000000
# 3 -0.002147 -0.001175 0.010300 0.000000 0.000794 0.000000
# 4 0.000000 0.000000 0.000000 -0.040287 0.000000 -0.101089
# 5 0.005986 -0.003028 0.000794 0.000000 0.028079 0.000000
# 6 0.000000 0.000000 0.000000 -0.101089 0.000000 -0.077577
#
#
# Mechanical properties :
#
#
# Convention : Reuss Voigt Hill
#
# Bulk Modulus (GPa) = 55.47133 58.31811 56.89472
# Shear Modulus (GPa) = -138.00073 27.76726 -55.11674
#
# Velocity S-wave (km/s) = -8.38676 3.76201 -5.30023
# Velocity P-wave (km/s) = 8.09385 6.97097 2.90825
#
# Compressibility (1/GPa) = 0.01802733
#
# Stress axis : x y z
#
# Youngs Moduli (GPa) = 74.22167 110.95873 97.08588
#
# Poissons Ratio (x) = 0.45022 0.20842
# Poissons Ratio (y) = 0.30116 0.11406
# Poissons Ratio (z) = 0.15934 0.13036
#
# Static dielectric constant tensor:
#      x y z
#    x 1.738340 0.000000 -0.033260 
#    y 0.000000 1.721400 0.000000 
#    z -0.033260 0.000000 1.739100 
# 
# From -- ./inp_files/83700.got.cif
#   From: 2010.05.17/outbox.cif.g08.bks.cpg/sg12_42_cif.got.tgz:83700.got - 2010.06.03 13:09:07.
