data_PCOD9220540
_publ_section_title
;
Structure prediction by ZEFSAII (Michael W. Deem and Ramdas Pophale) SiO2 
 PCOD9220540
Probable space group: C 2/M
;
_chemical_formula_sum "Si O2"
_cell_formula_units_Z 40
_cell_length_a 19.371203
_cell_length_b 8.804816
_cell_length_c 19.603324
_cell_angle_alpha 90.000000
_cell_angle_beta 41.974819
_cell_angle_gamma 90.000000
_cell_volume 2236.173081
_symmetry_space_group_name_H-M "C 2/M"
_symmetry_group_IT_number 12
_symmetry_cell_setting 'monoclinic'
loop_
_space_group_symop_operation_xyz
x,y,z
-x,y,-z
-x,-y,-z
x,-y,z
1/2+x,1/2+y,z
1/2-x,1/2+y,-z
1/2-x,1/2-y,-z
1/2+x,1/2-y,z
loop_
_atom_site_type_symbol
_atom_site_label
_atom_site_fract_x
_atom_site_fract_y
_atom_site_fract_z
Si Si1 0.118300 0.817763 0.902082
Si Si2 0.783273 0.181097 0.683103
Si Si3 0.321483 0.182423 0.506699
Si Si4 0.726170 0.819203 0.090310
Si Si5 0.937626 0.683496 0.680676
O O1 0.178312 0.734382 0.797451
O O2 0.182377 0.785266 0.923628
O O3 0.123429 0.000000 0.886225
O O4 0.000000 0.774314 0.000000
O O5 0.790655 0.252080 0.602856
O O6 0.876416 0.243587 0.662258
O O7 0.788425 0.000000 0.675923
O O8 0.250000 0.250000 0.500000
O O9 0.442121 0.221743 0.406428
O O10 0.312849 0.000000 0.513467
O O11 0.622222 0.769417 0.206229
O O12 0.720009 0.000000 0.086870
O O13 0.750000 0.750000 0.000000
O O14 0.927404 0.500000 0.681697
#
# Coordination Sequence:
#
# PCOD9220540 Si02
#       5
#     8   8   8   8   8
#     4   9  19  37  58  79 106 144 187 227 270 321
#     4  11  22  36  57  84 112 144 184 228 274 330
#     4  11  23  39  58  81 111 145 183 230 281 329
#     4   9  18  33  53  78 106 136 174 218 266 318
#     4   9  20  39  59  78 106 147 188 226 271 326
#
# _framework density 17.887702999999998
#
# number of rings (size 3 to 8) (size 9 to 14) (size 15 to 20)
#    0.000    2.200    0.000    4.200    0.000    9.200 
#    0.000    4.000    0.000    0.000    0.000    0.000 
#    0.000    0.000    0.000    0.000    0.000    0.000 
#
# Total GULP energy -111657.018891 kJ/mol
# GULP energy per Si atom -5582.850945 kJ/mol
# Density = 1.784699 g / cm^3
# Si number density = 17.887703 Si / 1000 Ang^3
#
#
#
# Elastic Constant Matrix: (Units=GPa)
#
#
# Indices 1 2 3 4 5 6 
#
# 1 121.0383 60.8012 128.3456 0.0000 -0.8482 0.0000
# 2 60.8012 53.5868 74.0156 0.0000 -1.9201 0.0000
# 3 128.3456 74.0156 192.9182 0.0000 8.2392 0.0000
# 4 0.0000 0.0000 0.0000 30.4241 0.0000 8.4837
# 5 -0.8482 -1.9201 8.2392 0.0000 39.8305 0.0000
# 6 0.0000 0.0000 0.0000 8.4837 0.0000 28.4722
#
#
#
# Elastic Compliance Matrix: (Units=1/GPa)
#
#
# Indices 1 2 3 4 5 6 
#
# 1 0.033410 -0.014631 -0.016762 0.000000 0.003473 0.000000
# 2 -0.014631 0.047164 -0.008520 0.000000 0.003725 0.000000
# 3 -0.016762 -0.008520 0.019812 0.000000 -0.004866 0.000000
# 4 0.000000 0.000000 0.000000 0.035847 0.000000 -0.010681
# 5 0.003473 0.003725 -0.004866 0.000000 0.026366 0.000000
# 6 0.000000 0.000000 0.000000 -0.010681 0.000000 0.038305
#
#
# Mechanical properties :
#
#
# Convention : Reuss Voigt Hill
#
# Bulk Modulus (GPa) = 48.64083 99.31868 73.97976
# Shear Modulus (GPa) = 17.38623 26.70407 22.04515
#
# Velocity S-wave (km/s) = 3.12102 3.86796 3.51439
# Velocity P-wave (km/s) = 6.34342 8.69438 7.61023
#
# Compressibility (1/GPa) = 0.02055886
#
# Stress axis : x y z
#
# Youngs Moduli (GPa) = 29.93142 21.20244 50.47528
#
# Poissons Ratio (x) = 0.31022 0.84606
# Poissons Ratio (y) = 0.43794 0.43007
# Poissons Ratio (z) = 0.50171 0.18065
#
# Static dielectric constant tensor:
#      x y z
#    x 1.581790 0.000000 -0.015060 
#    y 0.000000 1.607840 0.000000 
#    z -0.015060 0.000000 1.608610 
# 
# From -- ./inp_files/229104.got.cif
#   From: 2010.05.17/outbox.cif.g08.bks.cpg/sg12_115_cif.got.tgz:229104.got - 2010.06.03 13:09:07.
