data_PCOD9220323
_publ_section_title
;
Structure prediction by ZEFSAII (Michael W. Deem and Ramdas Pophale) SiO2 
 PCOD9220323
Probable space group: C 2/M
;
_chemical_formula_sum "Si O2"
_cell_formula_units_Z 56
_cell_length_a 14.597401
_cell_length_b 18.685046
_cell_length_c 11.978743
_cell_angle_alpha 90.000000
_cell_angle_beta 57.027434
_cell_angle_gamma 90.000000
_cell_volume 2740.989239
_symmetry_space_group_name_H-M "C 2/M"
_symmetry_group_IT_number 12
_symmetry_cell_setting 'monoclinic'
loop_
_space_group_symop_operation_xyz
x,y,z
-x,y,-z
-x,-y,-z
x,-y,z
1/2+x,1/2+y,z
1/2-x,1/2+y,-z
1/2-x,1/2-y,-z
1/2+x,1/2-y,z
loop_
_atom_site_type_symbol
_atom_site_label
_atom_site_fract_x
_atom_site_fract_y
_atom_site_fract_z
Si Si1 0.751062 0.699645 0.759400
Si Si2 0.336885 0.081569 0.856097
Si Si3 0.532018 0.274374 0.807667
Si Si4 0.958114 0.390586 0.147914
Si Si5 0.799246 0.082112 0.656246
Si Si6 0.607191 0.717395 0.506008
Si Si7 0.812130 0.836052 0.868900
O O1 0.812165 0.630703 0.766117
O O2 0.624618 0.685893 0.817308
O O3 0.806283 0.730053 0.610093
O O4 0.765539 0.764405 0.839855
O O5 0.463323 0.081404 0.807166
O O6 0.298760 0.000000 0.870195
O O7 0.274633 0.122477 0.998163
O O8 0.526377 0.194875 0.859851
O O9 0.574379 0.265013 0.652704
O O10 0.416223 0.312914 0.872385
O O11 0.831933 0.409556 0.248534
O O12 0.000000 0.417089 0.000000
O O13 0.844822 0.137380 0.535325
O O14 0.843550 0.112102 0.745371
O O15 0.828295 0.000000 0.618568
O O16 0.500000 0.721453 0.500000
#
# Coordination Sequence:
#
# PCOD9220323 Si02
#       7
#     8   8   8   8   8   8   8
#     4  11  23  40  65  91 129 163 213 258 308 370
#     4  12  25  42  62  94 136 169 202 254 319 384
#     4  12  23  40  68  97 121 161 222 261 309 366
#     4  12  23  38  69  98 124 160 211 272 313 364
#     4  11  23  40  61  96 130 160 206 263 326 369
#     4  11  21  42  65  95 121 167 214 266 307 364
#     4  11  22  40  65  93 125 164 210 262 307 366
#
# _framework density 20.430579999999999
#
# number of rings (size 3 to 8) (size 9 to 14) (size 15 to 20)
#    0.000    0.571    8.571    1.714    2.000    0.857 
#    0.000    2.857    0.000    1.286    0.000    0.000 
#    0.000    0.000    0.000    0.000    0.000    0.000 
#
# Total GULP energy -156668.412116 kJ/mol
# GULP energy per Si atom -5595.300433 kJ/mol
# Density = 2.038408 g / cm^3
# Si number density = 20.430580 Si / 1000 Ang^3
#
#
#
# Elastic Constant Matrix: (Units=GPa)
#
#
# Indices 1 2 3 4 5 6 
#
# 1 128.4881 11.8672 -1.5000 0.0000 2.9162 0.0000
# 2 11.8672 96.1749 19.6463 0.0000 12.3623 0.0000
# 3 -1.5000 19.6463 62.2145 0.0000 9.0657 0.0000
# 4 0.0000 0.0000 0.0000 -2.5763 0.0000 -3.9012
# 5 2.9162 12.3623 9.0657 0.0000 25.8451 0.0000
# 6 0.0000 0.0000 0.0000 -3.9012 0.0000 0.4037
#
#
#
# Elastic Compliance Matrix: (Units=1/GPa)
#
#
# Indices 1 2 3 4 5 6 
#
# 1 0.007898 -0.001018 0.000602 0.000000 -0.000615 0.000000
# 2 -0.001018 0.011720 -0.003083 0.000000 -0.004410 0.000000
# 3 0.000602 -0.003083 0.017764 0.000000 -0.004824 0.000000
# 4 0.000000 0.000000 0.000000 -0.024831 0.000000 -0.239931
# 5 -0.000615 -0.004410 -0.004824 0.000000 0.042563 0.000000
# 6 0.000000 0.000000 0.000000 -0.239931 0.000000 0.158446
#
#
# Mechanical properties :
#
#
# Convention : Reuss Voigt Hill
#
# Bulk Modulus (GPa) = 32.91325 38.54493 35.72909
# Shear Modulus (GPa) = 21.67438 21.85879 21.76659
#
# Velocity S-wave (km/s) = 3.26065 3.27449 3.26758
# Velocity P-wave (km/s) = 5.50641 5.76226 5.63579
#
# Compressibility (1/GPa) = 0.03038290
#
# Stress axis : x y z
#
# Youngs Moduli (GPa) = 126.61655 85.32452 56.29207
#
# Poissons Ratio (x) = 0.08689 -0.03387
# Poissons Ratio (y) = 0.12894 0.17355
# Poissons Ratio (z) = -0.07618 0.26305
#
# Static dielectric constant tensor:
#      x y z
#    x 1.755840 0.000000 -0.013390 
#    y 0.000000 1.711260 0.000000 
#    z -0.013390 0.000000 1.739210 
# 
# From -- ./inp_files/146027.got.cif
#   From: 2010.05.17/outbox.cif.g08.bks.cpg/sg12_74_cif.got.tgz:146027.got - 2010.06.03 13:09:07.
