data_PCOD9220202
_publ_section_title
;
Structure prediction by ZEFSAII (Michael W. Deem and Ramdas Pophale) SiO2 
 PCOD9220202
Probable space group: C 2/M
;
_chemical_formula_sum "Si O2"
_cell_formula_units_Z 48
_cell_length_a 14.812104
_cell_length_b 15.756047
_cell_length_c 12.018967
_cell_angle_alpha 90.000000
_cell_angle_beta 112.113651
_cell_angle_gamma 90.000000
_cell_volume 2598.651116
_symmetry_space_group_name_H-M "C 2/M"
_symmetry_group_IT_number 12
_symmetry_cell_setting 'monoclinic'
loop_
_space_group_symop_operation_xyz
x,y,z
-x,y,-z
-x,-y,-z
x,-y,z
1/2+x,1/2+y,z
1/2-x,1/2+y,-z
1/2-x,1/2-y,-z
1/2+x,1/2-y,z
loop_
_atom_site_type_symbol
_atom_site_label
_atom_site_fract_x
_atom_site_fract_y
_atom_site_fract_z
Si Si1 0.617966 0.595476 0.557482
Si Si2 0.385104 0.305241 0.223025
Si Si3 0.749720 0.159968 0.751695
Si Si4 0.391390 0.905069 0.499981
Si Si5 0.605195 0.597964 0.999098
Si Si6 0.613331 0.733944 0.368598
O O1 0.500000 0.591866 0.500000
O O2 0.654119 0.500000 0.551248
O O3 0.643233 0.629201 0.691654
O O4 0.644708 0.666024 0.478395
O O5 0.322346 0.221619 0.215124
O O6 0.370089 0.345363 0.095671
O O7 0.499590 0.283921 0.291391
O O8 0.684844 0.106038 0.636009
O O9 0.822523 0.215567 0.709343
O O10 0.815082 0.107635 0.867566
O O11 0.500000 0.894348 0.500000
O O12 0.375987 0.828207 0.578178
O O13 0.384075 0.000000 0.543855
O O14 0.597248 0.500000 0.959659
O O15 0.500000 0.623089 0.000000
#
# Coordination Sequence:
#
# PCOD9220202 Si02
#       6
#     8   8   8   8   8   8
#     4   9  18  32  56  87 122 160 195 244 311 369
#     4  11  21  40  62  86 127 162 205 252 311 365
#     4  12  23  40  65  91 121 167 208 252 307 370
#     4  11  22  39  61  90 127 166 205 252 304 364
#     4  11  24  42  63  92 123 159 208 259 311 369
#     4  11  21  40  61  89 128 162 204 256 308 368
#
# _framework density 18.471122000000001
#
# number of rings (size 3 to 8) (size 9 to 14) (size 15 to 20)
#    0.000    1.167    5.000    2.500    0.000    2.000 
#    0.000    0.833    0.000    0.000    0.000    2.333 
#    0.000    0.000    0.000    0.000    0.000    0.000 
#
# Total GULP energy -134131.235997 kJ/mol
# GULP energy per Si atom -5588.801500 kJ/mol
# Density = 1.842908 g / cm^3
# Si number density = 18.471122 Si / 1000 Ang^3
#
#
#
# Elastic Constant Matrix: (Units=GPa)
#
#
# Indices 1 2 3 4 5 6 
#
# 1 88.8515 17.1921 18.2457 0.0000 0.4260 0.0000
# 2 17.1921 99.8112 15.3323 0.0000 -9.2435 0.0000
# 3 18.2457 15.3323 80.3216 0.0000 1.8427 0.0000
# 4 0.0000 0.0000 0.0000 23.1009 0.0000 12.0689
# 5 0.4260 -9.2435 1.8427 0.0000 30.0513 0.0000
# 6 0.0000 0.0000 0.0000 12.0689 0.0000 -12.9956
#
#
#
# Elastic Compliance Matrix: (Units=1/GPa)
#
#
# Indices 1 2 3 4 5 6 
#
# 1 0.012091 -0.001767 -0.002396 0.000000 -0.000568 0.000000
# 2 -0.001767 0.010917 -0.001763 0.000000 0.003491 0.000000
# 3 -0.002396 -0.001763 0.013361 0.000000 -0.001327 0.000000
# 4 0.000000 0.000000 0.000000 0.029147 0.000000 0.027068
# 5 -0.000568 0.003491 -0.001327 0.000000 0.034440 0.000000
# 6 0.000000 0.000000 0.000000 0.027068 0.000000 -0.051811
#
#
# Mechanical properties :
#
#
# Convention : Reuss Voigt Hill
#
# Bulk Modulus (GPa) = 40.78676 41.16940 40.97808
# Shear Modulus (GPa) = 73.34571 22.57894 47.96232
#
# Velocity S-wave (km/s) = 6.30829 3.50006 5.10122
# Velocity P-wave (km/s) = 8.67114 6.21859 7.54518
#
# Compressibility (1/GPa) = 0.02451776
#
# Stress axis : x y z
#
# Youngs Moduli (GPa) = 82.70285 91.59696 74.84349
#
# Poissons Ratio (x) = 0.16187 0.17935
# Poissons Ratio (y) = 0.14615 0.13192
# Poissons Ratio (z) = 0.19818 0.16145
#
# Static dielectric constant tensor:
#      x y z
#    x 1.639930 0.000000 0.008860 
#    y 0.000000 1.626160 0.000000 
#    z 0.008860 0.000000 1.609810 
# 
# From -- ./inp_files/143153.got.cif
#   From: 2010.05.17/outbox.cif.g08.bks.cpg/sg12_72_cif.got.tgz:143153.got - 2010.06.03 13:09:07.
