data_PCOD9220898
_publ_section_title
;
Structure prediction by ZEFSAII (Michael W. Deem and Ramdas Pophale) SiO2 
 PCOD9220898
Probable space group: C 2/M
;
_chemical_formula_sum "Si O2"
_cell_formula_units_Z 48
_cell_length_a 19.374183
_cell_length_b 8.468727
_cell_length_c 14.955083
_cell_angle_alpha 90.000000
_cell_angle_beta 97.083567
_cell_angle_gamma 90.000000
_cell_volume 2435.021635
_symmetry_space_group_name_H-M "C 2/M"
_symmetry_group_IT_number 12
_symmetry_cell_setting 'monoclinic'
loop_
_space_group_symop_operation_xyz
x,y,z
-x,y,-z
-x,-y,-z
x,-y,z
1/2+x,1/2+y,z
1/2-x,1/2+y,-z
1/2-x,1/2-y,-z
1/2+x,1/2-y,z
loop_
_atom_site_type_symbol
_atom_site_label
_atom_site_fract_x
_atom_site_fract_y
_atom_site_fract_z
Si Si1 0.555065 0.187358 0.088397
Si Si2 0.185247 0.809553 0.545871
Si Si3 0.971449 0.188117 0.241732
Si Si4 0.788849 0.809752 0.917099
Si Si5 0.948259 0.179755 0.574491
Si Si6 0.820287 0.311470 0.251754
O O1 0.521537 0.274714 0.167529
O O2 0.632419 0.246604 0.077484
O O3 0.558243 0.000000 0.106594
O O4 0.500000 0.213256 0.000000
O O5 0.250000 0.750000 0.500000
O O6 0.119723 0.745080 0.478820
O O7 0.185152 0.755016 0.648634
O O8 0.181481 0.000000 0.546663
O O9 0.894921 0.262348 0.222952
O O10 0.010823 0.252211 0.336203
O O11 0.961164 0.000000 0.250023
O O12 0.742162 0.759476 0.823932
O O13 0.790887 0.000000 0.919317
O O14 0.750000 0.750000 0.000000
O O15 0.000000 0.168262 0.500000
O O16 0.929470 0.000000 0.600493
O O17 0.817428 0.500000 0.256684
#
# Coordination Sequence:
#
# PCOD9220898 Si02
#       6
#     8   8   8   8   8   8
#     4  11  25  44  65  93 128 161 200 256 313 369
#     4  11  23  40  62  89 125 167 210 259 311 367
#     4  11  22  39  66  94 123 164 209 255 309 368
#     4  11  25  44  67  93 125 164 206 255 312 373
#     4   9  18  37  61  87 121 161 203 250 303 356
#     4  11  24  42  62  91 128 165 206 258 314 367
#
# _framework density 19.712349
#
# number of rings (size 3 to 8) (size 9 to 14) (size 15 to 20)
#    0.000    1.333    1.667    3.500    2.333    8.000 
#    0.000    3.333    0.000    0.000    0.000    0.000 
#    0.000    0.000    0.000    0.000    0.000    0.000 
#
# Total GULP energy -134049.074509 kJ/mol
# GULP energy per Si atom -5585.378105 kJ/mol
# Density = 1.966748 g / cm^3
# Si number density = 19.712349 Si / 1000 Ang^3
#
#
#
# Elastic Constant Matrix: (Units=GPa)
#
#
# Indices 1 2 3 4 5 6 
#
# 1 164.3785 24.3455 34.1980 0.0000 12.5448 0.0000
# 2 24.3455 43.4655 21.2587 0.0000 10.8563 0.0000
# 3 34.1980 21.2587 52.9789 0.0000 9.5794 0.0000
# 4 0.0000 0.0000 0.0000 16.3260 0.0000 -44.6174
# 5 12.5448 10.8563 9.5794 0.0000 40.7387 0.0000
# 6 0.0000 0.0000 0.0000 -44.6174 0.0000 -60.7223
#
#
#
# Elastic Compliance Matrix: (Units=1/GPa)
#
#
# Indices 1 2 3 4 5 6 
#
# 1 0.007215 -0.002031 -0.003696 0.000000 -0.000812 0.000000
# 2 -0.002031 0.030268 -0.009910 0.000000 -0.005110 0.000000
# 3 -0.003696 -0.009910 0.025645 0.000000 -0.002251 0.000000
# 4 0.000000 0.000000 0.000000 0.020362 0.000000 -0.014962
# 5 -0.000812 -0.005110 -0.002251 0.000000 0.026688 0.000000
# 6 0.000000 0.000000 0.000000 -0.014962 0.000000 -0.005475
#
#
# Mechanical properties :
#
#
# Convention : Reuss Voigt Hill
#
# Bulk Modulus (GPa) = 31.39375 46.71413 39.05394
# Shear Modulus (GPa) = 34.10750 11.33654 22.72202
#
# Velocity S-wave (km/s) = 4.16415 2.40072 3.39880
# Velocity P-wave (km/s) = 6.25146 5.60660 5.93779
#
# Compressibility (1/GPa) = 0.03185347
#
# Stress axis : x y z
#
# Youngs Moduli (GPa) = 138.59774 33.03834 38.99430
#
# Poissons Ratio (x) = 0.06710 0.14411
# Poissons Ratio (y) = 0.28150 0.38645
# Poissons Ratio (z) = 0.51221 0.32742
#
# Static dielectric constant tensor:
#      x y z
#    x 1.637170 0.000000 0.032020 
#    y 0.000000 1.694380 0.000000 
#    z 0.032020 0.000000 1.675030 
# 
# From -- ./inp_files/221537.got.cif
#   From: 2010.05.17/outbox.cif.g08.bks.cpg/sg12_111_cif.got.tgz:221537.got - 2010.06.03 13:09:07.
