data_PCOD9220880
_publ_section_title
;
Structure prediction by ZEFSAII (Michael W. Deem and Ramdas Pophale) SiO2 
 PCOD9220880
Probable space group: C 2/M
;
_chemical_formula_sum "Si O2"
_cell_formula_units_Z 48
_cell_length_a 10.041301
_cell_length_b 16.815808
_cell_length_c 14.241437
_cell_angle_alpha 90.000000
_cell_angle_beta 97.072968
_cell_angle_gamma 90.000000
_cell_volume 2386.404067
_symmetry_space_group_name_H-M "C 2/M"
_symmetry_group_IT_number 12
_symmetry_cell_setting 'monoclinic'
loop_
_space_group_symop_operation_xyz
x,y,z
-x,y,-z
-x,-y,-z
x,-y,z
1/2+x,1/2+y,z
1/2-x,1/2+y,-z
1/2-x,1/2-y,-z
1/2+x,1/2-y,z
loop_
_atom_site_type_symbol
_atom_site_label
_atom_site_fract_x
_atom_site_fract_y
_atom_site_fract_z
Si Si1 0.757183 0.711873 0.104882
Si Si2 0.680844 0.328772 0.594600
Si Si3 0.072244 0.908367 0.186271
Si Si4 0.771480 0.876560 0.207722
Si Si5 0.623467 0.678277 0.386019
Si Si6 0.982894 0.414276 0.109943
O O1 0.634881 0.651893 0.115735
O O2 0.759363 0.783615 0.178790
O O3 0.890382 0.659089 0.130286
O O4 0.750000 0.750000 0.000000
O O5 0.715667 0.389251 0.680074
O O6 0.531673 0.298806 0.609008
O O7 0.672703 0.361473 0.488041
O O8 0.785932 0.256837 0.611576
O O9 0.123001 0.874810 0.292243
O O10 0.910156 0.904395 0.173208
O O11 0.111274 0.000000 0.176130
O O12 0.632408 0.911717 0.162033
O O13 0.920742 0.500000 0.128508
O O14 0.000000 0.409185 0.000000
#
# Coordination Sequence:
#
# PCOD9220880 Si02
#       6
#     8   8   8   8   8   8
#     4  12  24  42  63  89 117 162 213 255 298 363
#     4   9  18  33  59  91 118 154 205 249 294 352
#     4  11  24  41  62  94 128 159 199 258 317 361
#     4  11  22  39  65  91 119 160 210 251 294 370
#     4   9  18  35  57  90 121 157 196 252 298 360
#     4  11  24  42  60  84 121 159 196 251 314 361
#
# _framework density 20.113944
#
# number of rings (size 3 to 8) (size 9 to 14) (size 15 to 20)
#    0.000    1.500    3.333    2.000    2.333    0.000 
#    0.000    8.333    0.000    0.000    0.000    5.833 
#    0.000    0.000    0.000    0.000    0.000    0.000 
#
# Total GULP energy -133939.252657 kJ/mol
# GULP energy per Si atom -5580.802194 kJ/mol
# Density = 2.006816 g / cm^3
# Si number density = 20.113944 Si / 1000 Ang^3
#
#
#
# Elastic Constant Matrix: (Units=GPa)
#
#
# Indices 1 2 3 4 5 6 
#
# 1 94.1205 23.2680 36.6436 0.0000 10.9693 0.0000
# 2 23.2680 96.1391 7.8096 0.0000 -9.0873 0.0000
# 3 36.6436 7.8096 95.2348 0.0000 1.0232 0.0000
# 4 0.0000 0.0000 0.0000 59.5588 0.0000 -5.9243
# 5 10.9693 -9.0873 1.0232 0.0000 28.4866 0.0000
# 6 0.0000 0.0000 0.0000 -5.9243 0.0000 7.4173
#
#
#
# Elastic Compliance Matrix: (Units=1/GPa)
#
#
# Indices 1 2 3 4 5 6 
#
# 1 0.014278 -0.003652 -0.005125 0.000000 -0.006479 0.000000
# 2 -0.003652 0.011739 0.000387 0.000000 0.005137 0.000000
# 3 -0.005125 0.000387 0.012423 0.000000 0.001651 0.000000
# 4 0.000000 0.000000 0.000000 0.018239 0.000000 0.014568
# 5 -0.006479 0.005137 0.001651 0.000000 0.039178 0.000000
# 6 0.000000 0.000000 0.000000 0.014568 0.000000 0.146455
#
#
# Mechanical properties :
#
#
# Convention : Reuss Voigt Hill
#
# Bulk Modulus (GPa) = 46.16434 46.77074 46.46754
# Shear Modulus (GPa) = 18.77504 33.61077 26.19291
#
# Velocity S-wave (km/s) = 3.05853 4.09224 3.61255
# Velocity P-wave (km/s) = 5.95601 6.75515 6.36813
#
# Compressibility (1/GPa) = 0.02166174
#
# Stress axis : x y z
#
# Youngs Moduli (GPa) = 70.03984 85.18252 80.49801
#
# Poissons Ratio (x) = 0.31105 0.41252
# Poissons Ratio (y) = 0.25576 -0.03117
# Poissons Ratio (z) = 0.35892 -0.03298
#
# Static dielectric constant tensor:
#      x y z
#    x 1.721090 0.000000 -0.016780 
#    y 0.000000 1.688460 0.000000 
#    z -0.016780 0.000000 1.751280 
# 
# From -- ./inp_files/195937.got.cif
#   From: 2010.05.17/outbox.cif.g08.bks.cpg/sg12_98_cif.got.tgz:195937.got - 2010.06.03 13:09:07.
