data_PCOD9220306
_publ_section_title
;
Structure prediction by ZEFSAII (Michael W. Deem and Ramdas Pophale) SiO2 
 PCOD9220306
Probable space group: C 2/M
;
_chemical_formula_sum "Si O2"
_cell_formula_units_Z 46
_cell_length_a 13.313073
_cell_length_b 15.243936
_cell_length_c 13.331314
_cell_angle_alpha 90.000000
_cell_angle_beta 126.040541
_cell_angle_gamma 90.000000
_cell_volume 2187.673989
_symmetry_space_group_name_H-M "C 2/M"
_symmetry_group_IT_number 12
_symmetry_cell_setting 'monoclinic'
loop_
_space_group_symop_operation_xyz
x,y,z
-x,y,-z
-x,-y,-z
x,-y,z
1/2+x,1/2+y,z
1/2-x,1/2+y,-z
1/2-x,1/2-y,-z
1/2+x,1/2-y,z
loop_
_atom_site_type_symbol
_atom_site_label
_atom_site_fract_x
_atom_site_fract_y
_atom_site_fract_z
Si Si1 0.321224 0.602034 0.195437
Si Si2 0.493659 0.334467 0.845471
Si Si3 0.419805 0.852313 0.050374
Si Si4 0.427393 0.900923 0.662217
Si Si5 0.753166 0.723616 0.664123
Si Si6 0.000000 0.000000 0.000000
Si Si7 0.000000 0.326012 0.500000
O O1 0.336623 0.500000 0.228527
O O2 0.446962 0.644913 0.227956
O O3 0.266656 0.656381 0.255722
O O4 0.218342 0.613014 0.047235
O O5 0.572610 0.253506 0.938602
O O6 0.354947 0.296452 0.754430
O O7 0.500553 0.422110 0.913823
O O8 0.482862 0.886123 0.189249
O O9 0.500000 0.880086 0.000000
O O10 0.315228 0.832858 0.612261
O O11 0.498809 0.882035 0.601188
O O12 0.380963 0.000000 0.635991
O O13 0.622202 0.767002 0.567151
#
# Coordination Sequence:
#
# PCOD9220306 Si02
#       7
#     8   8   8   8   8   2   4
#     4  12  23  40  69 109 139 174 227 279 346 415
#     4  11  23  41  62 100 141 189 214 276 338 417
#     4  11  21  41  71 101 144 179 219 271 353 415
#     4  11  24  45  71 102 136 179 229 287 335 403
#     4  11  24  47  72  93 137 181 231 282 347 399
#     4  12  20  40  60 102 148 178 220 266 344 406
#     4  12  27  50  69  96 130 192 238 277 340 407
#
# _framework density 21.026897000000002
#
# number of rings (size 3 to 8) (size 9 to 14) (size 15 to 20)
#    0.000    0.696    5.217    4.435    0.000    2.087 
#    6.261    3.478    0.000    0.000    0.000    0.000 
#    0.000    0.000    0.000    0.000    0.000    0.000 
#
# Total GULP energy -128404.203448 kJ/mol
# GULP energy per Si atom -5582.791454 kJ/mol
# Density = 2.097904 g / cm^3
# Si number density = 21.026897 Si / 1000 Ang^3
#
#
#
# Elastic Constant Matrix: (Units=GPa)
#
#
# Indices 1 2 3 4 5 6 
#
# 1 123.2135 43.4741 42.1628 0.0000 -21.6179 0.0000
# 2 43.4741 124.5604 20.4571 0.0000 -5.2526 0.0000
# 3 42.1628 20.4571 58.4904 0.0000 -14.9859 0.0000
# 4 0.0000 0.0000 0.0000 -2.6788 0.0000 4.2753
# 5 -21.6179 -5.2526 -14.9859 0.0000 34.6629 0.0000
# 6 0.0000 0.0000 0.0000 4.2753 0.0000 0.6945
#
#
#
# Elastic Compliance Matrix: (Units=1/GPa)
#
#
# Indices 1 2 3 4 5 6 
#
# 1 0.012195 -0.002984 -0.006651 0.000000 0.004278 0.000000
# 2 -0.002984 0.009247 -0.001351 0.000000 -0.001044 0.000000
# 3 -0.006651 -0.001351 0.023896 0.000000 0.005978 0.000000
# 4 0.000000 0.000000 0.000000 -0.034485 0.000000 0.212294
# 5 0.004278 -0.001044 0.005978 0.000000 0.033944 0.000000
# 6 0.000000 0.000000 0.000000 0.212294 0.000000 0.133018
#
#
# Mechanical properties :
#
#
# Convention : Reuss Voigt Hill
#
# Bulk Modulus (GPa) = 42.79639 57.60581 50.20110
# Shear Modulus (GPa) = 24.08760 19.88041 21.98400
#
# Velocity S-wave (km/s) = 3.38829 3.07819 3.23696
# Velocity P-wave (km/s) = 5.97534 6.33162 6.15606
#
# Compressibility (1/GPa) = 0.02336646
#
# Stress axis : x y z
#
# Youngs Moduli (GPa) = 81.99818 108.13791 41.84877
#
# Poissons Ratio (x) = 0.32265 0.27835
# Poissons Ratio (y) = 0.24465 0.05653
# Poissons Ratio (z) = 0.54540 0.14608
#
# Static dielectric constant tensor:
#      x y z
#    x 1.774470 0.000000 -0.024710 
#    y 0.000000 1.721090 0.000000 
#    z -0.024710 0.000000 1.780290 
# 
# From -- ./inp_files/205168.got.cif
#   From: 2010.05.17/outbox.cif.g08.bks.cpg/sg12_103_cif.got.tgz:205168.got - 2010.06.03 13:09:07.
