data_PCOD9220314
_publ_section_title
;
Structure prediction by ZEFSAII (Michael W. Deem and Ramdas Pophale) SiO2 
 PCOD9220314
Probable space group: C 2/M
;
_chemical_formula_sum "Si O2"
_cell_formula_units_Z 32
_cell_length_a 14.646832
_cell_length_b 17.771325
_cell_length_c 11.636444
_cell_angle_alpha 90.000000
_cell_angle_beta 28.884646
_cell_angle_gamma 90.000000
_cell_volume 1463.099516
_symmetry_space_group_name_H-M "C 2/M"
_symmetry_group_IT_number 12
_symmetry_cell_setting 'monoclinic'
loop_
_space_group_symop_operation_xyz
x,y,z
-x,y,-z
-x,-y,-z
x,-y,z
1/2+x,1/2+y,z
1/2-x,1/2+y,-z
1/2-x,1/2-y,-z
1/2+x,1/2-y,z
loop_
_atom_site_type_symbol
_atom_site_label
_atom_site_fract_x
_atom_site_fract_y
_atom_site_fract_z
Si Si1 0.810359 0.840438 0.281110
Si Si2 0.462044 0.628278 0.346578
Si Si3 0.000000 0.762501 0.500000
Si Si4 0.610728 0.000000 0.497464
Si Si5 0.773181 0.500000 0.264584
Si Si6 0.229209 0.000000 0.044516
O O1 0.862002 0.825036 0.356816
O O2 0.658368 0.788495 0.384790
O O3 0.733631 0.925473 0.368829
O O4 0.000000 0.835108 0.000000
O O5 0.561702 0.681736 0.329587
O O6 0.310354 0.573086 0.577026
O O7 0.620786 0.573310 0.118151
O O8 0.500000 0.000000 0.500000
O O9 0.448021 0.000000 0.773252
O O10 0.699197 0.500000 0.215011
O O11 0.000000 0.500000 0.000000
#
# Coordination Sequence:
#
# PCOD9220314 Si02
#       6
#     8   8   4   4   4   4
#     4  12  27  47  70 103 139 190 234 287 351 415
#     4  11  23  46  70 105 142 177 240 289 345 418
#     4  12  26  48  68 102 152 180 230 284 354 432
#     4  12  23  46  73 103 137 178 242 286 345 410
#     4  11  21  41  73 107 134 182 240 297 343 394
#     4  11  21  43  79 100 134 184 230 304 343 393
#
# _framework density 21.871376999999999
#
# number of rings (size 3 to 8) (size 9 to 14) (size 15 to 20)
#    0.000    0.500    3.750    6.375    0.000    2.000 
#    4.500    0.000    0.000    0.000    0.000    0.000 
#    0.000    0.000    0.000    0.000    0.000    0.000 
#
# Total GULP energy -89533.297323 kJ/mol
# GULP energy per Si atom -5595.831083 kJ/mol
# Density = 2.182160 g / cm^3
# Si number density = 21.871377 Si / 1000 Ang^3
#
#
#
# Elastic Constant Matrix: (Units=GPa)
#
#
# Indices 1 2 3 4 5 6 
#
# 1 158.1609 35.8830 9.8066 0.2584 11.3697 -0.2951
# 2 35.8830 110.9138 23.5701 0.5729 -5.6296 -0.6655
# 3 9.8066 23.5701 83.2372 0.5416 -2.2862 -0.6351
# 4 0.2584 0.5729 0.5416 -143.0836 -0.3227 175.6277
# 5 11.3697 -5.6296 -2.2862 -0.3227 35.7223 0.3772
# 6 -0.2951 -0.6655 -0.6351 175.6277 0.3772 -189.8676
#
#
#
# Elastic Compliance Matrix: (Units=1/GPa)
#
#
# Indices 1 2 3 4 5 6 
#
# 1 0.007064 -0.002370 -0.000234 0.000003 -0.002637 -0.000004
# 2 -0.002370 0.010453 -0.002619 0.000012 0.002234 -0.000009
# 3 -0.000234 -0.002619 0.012796 0.000024 0.000481 -0.000010
# 4 0.000003 0.000012 0.000024 0.051621 -0.000035 0.047749
# 5 -0.002637 0.002234 0.000481 -0.000035 0.029215 0.000020
# 6 -0.000004 -0.000009 -0.000010 0.047749 0.000020 0.038901
#
#
# Mechanical properties :
#
#
# Convention : Reuss Voigt Hill
#
# Bulk Modulus (GPa) = 50.33392 54.53683 52.43538
# Shear Modulus (GPa) = 29.91897 -40.57565 -5.32834
#
# Velocity S-wave (km/s) = 3.70259 -4.31187 -1.56253
# Velocity P-wave (km/s) = 6.42981 0.44695 4.55754
#
# Compressibility (1/GPa) = 0.01986732
#
# Stress axis : x y z
#
# Youngs Moduli (GPa) = 141.55624 95.67011 78.14872
#
# Poissons Ratio (x) = 0.22671 0.01827
# Poissons Ratio (y) = 0.33544 0.20471
# Poissons Ratio (z) = 0.03309 0.25060
#
# Static dielectric constant tensor:
#      x y z
#    x 1.834970 0.000000 0.012020 
#    y 0.000000 1.796760 0.000000 
#    z 0.012020 0.000000 1.769590 
# 
# From -- ./inp_files/131519.got.cif
#   From: 2010.05.17/outbox.cif.g08.bks.cpg/sg12_66_cif.got.tgz:131519.got - 2010.06.03 13:09:07.
