data_PCOD9220348
_publ_section_title
;
Structure prediction by ZEFSAII (Michael W. Deem and Ramdas Pophale) SiO2 
 PCOD9220348
Probable space group: C 2/M
;
_chemical_formula_sum "Si O2"
_cell_formula_units_Z 36
_cell_length_a 24.335496
_cell_length_b 13.258961
_cell_length_c 10.276398
_cell_angle_alpha 90.000000
_cell_angle_beta 33.954689
_cell_angle_gamma 90.000000
_cell_volume 1852.007071
_symmetry_space_group_name_H-M "C 2/M"
_symmetry_group_IT_number 12
_symmetry_cell_setting 'monoclinic'
loop_
_space_group_symop_operation_xyz
x,y,z
-x,y,-z
-x,-y,-z
x,-y,z
1/2+x,1/2+y,z
1/2-x,1/2+y,-z
1/2-x,1/2-y,-z
1/2+x,1/2-y,z
loop_
_atom_site_type_symbol
_atom_site_label
_atom_site_fract_x
_atom_site_fract_y
_atom_site_fract_z
Si Si1 0.500000 0.676213 0.000000
Si Si2 0.184790 0.719855 0.752778
Si Si3 0.883708 0.500000 0.712098
Si Si4 0.928750 0.000000 0.312824
Si Si5 0.916033 0.000000 0.772232
Si Si6 0.787671 0.500000 0.188129
Si Si7 0.246740 0.831104 0.892569
O O1 0.574070 0.741808 0.941268
O O2 0.566749 0.600046 0.783628
O O3 0.250000 0.750000 0.500000
O O4 0.185045 0.601379 0.787173
O O5 0.231038 0.777276 0.785929
O O6 0.842215 0.402357 0.717854
O O7 0.000000 0.500000 0.500000
O O8 0.835409 0.500000 0.951362
O O9 0.027709 0.000000 0.201634
O O10 0.830935 0.000000 0.590586
O O11 0.000000 0.000000 0.500000
O O12 0.846099 0.096306 0.901114
O O13 0.250000 0.750000 0.000000
#
# Coordination Sequence:
#
# PCOD9220348 Si02
#       7
#     4   8   4   4   4   4   8
#     4  11  24  43  70 102 134 191 228 283 350 420
#     4  12  26  45  73 104 145 186 232 296 355 421
#     4  11  26  46  70 102 144 188 235 284 351 432
#     4  11  21  42  71 100 135 172 248 284 336 416
#     4  11  24  39  72 103 129 179 234 292 351 409
#     4  12  25  46  71 105 142 185 233 297 353 423
#     4  11  24  46  69 100 141 182 236 286 350 412
#
# _framework density 19.438371
#
# number of rings (size 3 to 8) (size 9 to 14) (size 15 to 20)
#    0.000    0.667    6.667    1.333    0.000    4.889 
#    0.000    0.000    0.000    0.000    0.000    0.000 
#    0.000    0.000    0.000    0.000    0.000    0.000 
#
# Total GULP energy -100654.168453 kJ/mol
# GULP energy per Si atom -5591.898247 kJ/mol
# Density = 1.939413 g / cm^3
# Si number density = 19.438371 Si / 1000 Ang^3
#
#
#
# Elastic Constant Matrix: (Units=GPa)
#
#
# Indices 1 2 3 4 5 6 
#
# 1 165.2965 94.3960 53.1472 0.0000 -4.3793 0.0000
# 2 94.3960 178.6332 47.7858 0.0000 -1.4413 0.0000
# 3 53.1472 47.7858 113.9398 0.0000 0.3149 0.0000
# 4 0.0000 0.0000 0.0000 2.7853 0.0000 5.6329
# 5 -4.3793 -1.4413 0.3149 0.0000 47.2600 0.0000
# 6 0.0000 0.0000 0.0000 5.6329 0.0000 37.0100
#
#
#
# Elastic Compliance Matrix: (Units=1/GPa)
#
#
# Indices 1 2 3 4 5 6 
#
# 1 0.009310 -0.004225 -0.002573 0.000000 0.000751 0.000000
# 2 -0.004225 0.008225 -0.001478 0.000000 -0.000131 0.000000
# 3 -0.002573 -0.001478 0.010598 0.000000 -0.000354 0.000000
# 4 0.000000 0.000000 0.000000 0.518686 0.000000 -0.078944
# 5 0.000751 -0.000131 -0.000354 0.000000 0.021228 0.000000
# 6 0.000000 0.000000 0.000000 -0.078944 0.000000 0.039035
#
#
# Mechanical properties :
#
#
# Convention : Reuss Voigt Hill
#
# Bulk Modulus (GPa) = 86.35521 94.28083 90.31802
# Shear Modulus (GPa) = 7.96821 34.91376 21.44099
#
# Velocity S-wave (km/s) = 2.02685 4.24267 3.32478
# Velocity P-wave (km/s) = 7.07100 8.52104 7.82966
#
# Compressibility (1/GPa) = 0.01158008
#
# Stress axis : x y z
#
# Youngs Moduli (GPa) = 107.41435 121.57582 94.36183
#
# Poissons Ratio (x) = 0.51370 0.24275
# Poissons Ratio (y) = 0.45387 0.13950
# Poissons Ratio (z) = 0.27632 0.17973
#
# Static dielectric constant tensor:
#      x y z
#    x 1.685260 0.000000 0.001550 
#    y 0.000000 1.386530 0.000000 
#    z 0.001550 0.000000 1.663640 
# 
# From -- ./inp_files/86298.got.cif
#   From: 2010.05.17/outbox.cif.g08.bks.cpg/sg12_44_cif.got.tgz:86298.got - 2010.06.03 13:09:07.
