data_PCOD9220766
_publ_section_title
;
Structure prediction by ZEFSAII (Michael W. Deem and Ramdas Pophale) SiO2 
 PCOD9220766
Probable space group: C 2/M
;
_chemical_formula_sum "Si O2"
_cell_formula_units_Z 48
_cell_length_a 14.649744
_cell_length_b 8.587957
_cell_length_c 26.677116
_cell_angle_alpha 90.000000
_cell_angle_beta 43.226085
_cell_angle_gamma 90.000000
_cell_volume 2298.648512
_symmetry_space_group_name_H-M "C 2/M"
_symmetry_group_IT_number 12
_symmetry_cell_setting 'monoclinic'
loop_
_space_group_symop_operation_xyz
x,y,z
-x,y,-z
-x,-y,-z
x,-y,z
1/2+x,1/2+y,z
1/2-x,1/2+y,-z
1/2-x,1/2-y,-z
1/2+x,1/2-y,z
loop_
_atom_site_type_symbol
_atom_site_label
_atom_site_fract_x
_atom_site_fract_y
_atom_site_fract_z
Si Si1 0.854168 0.185785 0.609676
Si Si2 0.578111 0.683455 0.756861
Si Si3 0.836319 0.814485 0.011516
Si Si4 0.186475 0.684643 0.176304
Si Si5 0.423647 0.818339 0.136274
Si Si6 0.638550 0.186435 0.506555
O O1 0.720787 0.238844 0.690666
O O2 0.841013 0.246420 0.557685
O O3 0.988079 0.259206 0.579624
O O4 0.866992 0.000000 0.604337
O O5 0.585180 0.500000 0.745279
O O6 0.464793 0.759738 0.767704
O O7 0.539099 0.719964 0.829731
O O8 0.758360 0.784315 0.094100
O O9 0.853643 0.000000 0.000508
O O10 0.750000 0.750000 0.000000
O O11 0.979163 0.733972 0.947428
O O12 0.193741 0.500000 0.183268
O O13 0.273178 0.778142 0.181611
O O14 0.442176 0.000000 0.139606
O O15 0.750000 0.250000 0.500000
O O16 0.644323 0.000000 0.502768
#
# Coordination Sequence:
#
# PCOD9220766 Si02
#       6
#     8   8   8   8   8   8
#     4  11  23  42  66  96 131 167 207 254 308 365
#     4  12  25  43  65  91 126 166 208 257 313 372
#     4  11  22  38  63  89 120 159 208 262 317 373
#     4  11  24  42  63  90 122 161 209 261 316 375
#     4  12  25  41  62  90 123 163 210 260 315 375
#     4  11  22  41  68 100 132 167 210 252 301 359
#
# _framework density 20.881834000000001
#
# number of rings (size 3 to 8) (size 9 to 14) (size 15 to 20)
#    0.000    0.667    1.667    8.500    0.000    5.333 
#    0.000    6.667    0.000    0.000    0.000    0.000 
#    0.000    0.000    0.000    0.000    0.000    0.000 
#
# Total GULP energy -134348.243589 kJ/mol
# GULP energy per Si atom -5597.843483 kJ/mol
# Density = 2.083431 g / cm^3
# Si number density = 20.881834 Si / 1000 Ang^3
#
#
#
# Elastic Constant Matrix: (Units=GPa)
#
#
# Indices 1 2 3 4 5 6 
#
# 1 100.6274 12.9451 13.0454 0.0000 -29.5260 0.0000
# 2 12.9451 111.4892 18.8667 0.0000 -9.5441 0.0000
# 3 13.0454 18.8667 71.4384 0.0000 -29.6871 0.0000
# 4 0.0000 0.0000 0.0000 33.6321 0.0000 -7.1543
# 5 -29.5260 -9.5441 -29.6871 0.0000 28.7251 0.0000
# 6 0.0000 0.0000 0.0000 -7.1543 0.0000 34.6223
#
#
#
# Elastic Compliance Matrix: (Units=1/GPa)
#
#
# Indices 1 2 3 4 5 6 
#
# 1 0.016044 -0.001055 0.007110 0.000000 0.023488 0.000000
# 2 -0.001055 0.009474 -0.002545 0.000000 -0.000567 0.000000
# 3 0.007110 -0.002545 0.028145 0.000000 0.035550 0.000000
# 4 0.000000 0.000000 0.000000 0.031101 0.000000 0.006427
# 5 0.023488 -0.000567 0.035550 0.000000 0.095507 0.000000
# 6 0.000000 0.000000 0.000000 0.006427 0.000000 0.030211
#
#
# Mechanical properties :
#
#
# Convention : Reuss Voigt Hill
#
# Bulk Modulus (GPa) = 16.47952 41.47439 28.97695
# Shear Modulus (GPa) = 22.35234 35.30909 28.83071
#
# Velocity S-wave (km/s) = 3.27528 4.11652 3.71975
# Velocity P-wave (km/s) = 4.71298 6.51912 5.68819
#
# Compressibility (1/GPa) = 0.06068140
#
# Stress axis : x y z
#
# Youngs Moduli (GPa) = 62.33052 105.55039 35.53020
#
# Poissons Ratio (x) = 0.11138 -0.25261
# Poissons Ratio (y) = 0.06577 0.09043
# Poissons Ratio (z) = -0.44315 0.26863
#
# Static dielectric constant tensor:
#      x y z
#    x 1.750880 0.000000 0.000030 
#    y 0.000000 1.689000 0.000000 
#    z 0.000030 0.000000 1.781440 
# 
# From -- ./inp_files/360224.got.cif
#   From: 2010.05.17/outbox.cif.g08.bks.cpg/sg12_181_cif.got.tgz:360224.got - 2010.06.03 13:09:07.
