data_PCOD9220474
_publ_section_title
;
Structure prediction by ZEFSAII (Michael W. Deem and Ramdas Pophale) SiO2 
 PCOD9220474
Probable space group: C 2/M
;
_chemical_formula_sum "Si O2"
_cell_formula_units_Z 44
_cell_length_a 11.504560
_cell_length_b 28.047122
_cell_length_c 11.180905
_cell_angle_alpha 90.000000
_cell_angle_beta 141.751596
_cell_angle_gamma 90.000000
_cell_volume 2233.451304
_symmetry_space_group_name_H-M "C 2/M"
_symmetry_group_IT_number 12
_symmetry_cell_setting 'monoclinic'
loop_
_space_group_symop_operation_xyz
x,y,z
-x,y,-z
-x,-y,-z
x,-y,z
1/2+x,1/2+y,z
1/2-x,1/2+y,-z
1/2-x,1/2-y,-z
1/2+x,1/2-y,z
loop_
_atom_site_type_symbol
_atom_site_label
_atom_site_fract_x
_atom_site_fract_y
_atom_site_fract_z
Si Si1 0.966760 0.119351 0.735566
Si Si2 0.171226 0.203887 0.234924
Si Si3 0.854499 0.638495 0.194648
Si Si4 0.874549 0.686785 0.778631
Si Si5 0.500000 0.372351 0.500000
Si Si6 0.715227 0.445419 0.227106
O O1 0.868578 0.170221 0.683632
O O2 0.996292 0.102679 0.624808
O O3 0.829496 0.081658 0.686764
O O4 0.166640 0.128884 0.962339
O O5 0.325385 0.178308 0.275215
O O6 0.180252 0.257954 0.285477
O O7 0.000000 0.202247 0.000000
O O8 0.857272 0.587665 0.265831
O O9 0.010865 0.659400 0.232683
O O10 0.684621 0.659443 0.650984
O O11 0.000000 0.685958 0.000000
O O12 0.774185 0.500000 0.282507
O O13 0.500000 0.444820 0.000000
#
# Coordination Sequence:
#
# PCOD9220474 Si02
#       6
#     8   8   8   8   4   8
#     4   9  18  34  52  81 115 143 182 228 274 329
#     4   8  18  32  54  76 105 150 192 229 267 313
#     4   9  17  35  57  79 109 147 187 229 276 321
#     4  11  22  35  55  78 114 155 185 223 272 325
#     4  12  24  34  51  82 116 152 183 220 276 332
#     4   8  15  32  62  89 106 136 185 237 279 321
#
# _framework density 19.700451999999999
#
# number of rings (size 3 to 8) (size 9 to 14) (size 15 to 20)
#    0.000    2.727    1.818    2.182    2.545    2.909 
#    0.000    3.182    0.000    3.818    0.000    0.000 
#    0.000    0.000    0.000    0.000    0.000    0.000 
#
# Total GULP energy -122507.968909 kJ/mol
# GULP energy per Si atom -5568.544041 kJ/mol
# Density = 1.965561 g / cm^3
# Si number density = 19.700452 Si / 1000 Ang^3
#
#
#
# Elastic Constant Matrix: (Units=GPa)
#
#
# Indices 1 2 3 4 5 6 
#
# 1 137.5084 76.3172 18.2347 0.0000 -8.2756 0.0000
# 2 76.3172 149.2438 9.3138 0.0000 0.0953 0.0000
# 3 18.2347 9.3138 60.6808 0.0000 0.3726 0.0000
# 4 0.0000 0.0000 0.0000 -8.8337 0.0000 -10.2749
# 5 -8.2756 0.0953 0.3726 0.0000 31.0644 0.0000
# 6 0.0000 0.0000 0.0000 -10.2749 0.0000 15.1537
#
#
#
# Elastic Compliance Matrix: (Units=1/GPa)
#
#
# Indices 1 2 3 4 5 6 
#
# 1 0.010731 -0.005338 -0.002423 0.000000 0.002904 0.000000
# 2 -0.005338 0.009421 0.000167 0.000000 -0.001453 0.000000
# 3 -0.002423 0.000167 0.017187 0.000000 -0.000852 0.000000
# 4 0.000000 0.000000 0.000000 -0.063289 0.000000 -0.042913
# 5 0.002904 -0.001453 -0.000852 0.000000 0.032980 0.000000
# 6 0.000000 0.000000 0.000000 -0.042913 0.000000 0.036894
#
#
# Mechanical properties :
#
#
# Convention : Reuss Voigt Hill
#
# Bulk Modulus (GPa) = 45.14526 61.68493 53.41509
# Shear Modulus (GPa) = 75.19346 23.71471 49.45408
#
# Velocity S-wave (km/s) = 6.18476 3.47329 5.01573
# Velocity P-wave (km/s) = 8.60042 6.88944 7.79204
#
# Compressibility (1/GPa) = 0.02215072
#
# Stress axis : x y z
#
# Youngs Moduli (GPa) = 93.18791 106.15045 58.18196
#
# Poissons Ratio (x) = 0.56663 0.14099
# Poissons Ratio (y) = 0.49744 -0.00972
# Poissons Ratio (z) = 0.22581 -0.01773
#
# Static dielectric constant tensor:
#      x y z
#    x 1.702880 0.000000 -0.019920 
#    y 0.000000 1.668560 0.000000 
#    z -0.019920 0.000000 1.784300 
# 
# From -- ./inp_files/136083.got.cif
#   From: 2010.05.17/outbox.cif.g08.bks.cpg/sg12_69_cif.got.tgz:136083.got - 2010.06.03 13:09:07.
