data_PCOD9220825
_publ_section_title
;
Structure prediction by ZEFSAII (Michael W. Deem and Ramdas Pophale) SiO2 
 PCOD9220825
Probable space group: C 2/M
;
_chemical_formula_sum "Si O2"
_cell_formula_units_Z 56
_cell_length_a 19.257954
_cell_length_b 28.275114
_cell_length_c 11.600923
_cell_angle_alpha 90.000000
_cell_angle_beta 27.090396
_cell_angle_gamma 90.000000
_cell_volume 2876.709200
_symmetry_space_group_name_H-M "C 2/M"
_symmetry_group_IT_number 12
_symmetry_cell_setting 'monoclinic'
loop_
_space_group_symop_operation_xyz
x,y,z
-x,y,-z
-x,-y,-z
x,-y,z
1/2+x,1/2+y,z
1/2-x,1/2+y,-z
1/2-x,1/2-y,-z
1/2+x,1/2-y,z
loop_
_atom_site_type_symbol
_atom_site_label
_atom_site_fract_x
_atom_site_fract_y
_atom_site_fract_z
Si Si1 0.279718 0.231487 0.129393
Si Si2 0.326146 0.832020 0.680252
Si Si3 0.168552 0.640368 0.094102
Si Si4 0.801883 0.447672 0.384249
Si Si5 0.354906 0.361368 0.269725
Si Si6 0.377328 0.725665 0.391567
Si Si7 0.844698 0.447122 0.060619
O O1 0.187389 0.280016 0.241830
O O2 0.206751 0.219515 0.361721
O O3 0.261697 0.185694 0.075405
O O4 0.460757 0.246081 0.853824
O O5 0.267560 0.865621 0.870279
O O6 0.492237 0.846849 0.387593
O O7 0.225163 0.832632 0.715062
O O8 0.177895 0.594674 0.998014
O O9 0.740894 0.500000 0.504379
O O10 0.747136 0.402233 0.531522
O O11 0.979785 0.448915 0.156455
O O12 0.767003 0.439763 0.300170
O O13 0.404267 0.325114 0.294984
O O14 0.500000 0.385385 0.000000
O O15 0.250000 0.750000 0.500000
O O16 0.805452 0.500000 0.074638
#
# Coordination Sequence:
#
# PCOD9220825 Si02
#       7
#     8   8   8   8   8   8   8
#     4  12  22  40  57  84 120 157 199 239 286 347
#     4  11  23  38  54  85 119 158 193 239 280 352
#     4  11  22  39  61  82 118 160 195 231 296 346
#     4   9  19  35  59  89 112 140 189 241 296 344
#     4  12  21  37  57  80 121 152 186 240 290 342
#     4  12  22  35  58  85 114 153 193 242 291 339
#     4   9  18  37  62  88 113 141 189 251 291 336
#
# _framework density 19.466687
#
# number of rings (size 3 to 8) (size 9 to 14) (size 15 to 20)
#    0.000    1.143    5.714    2.571    0.000    0.286 
#    0.000    2.143    0.000    0.000    0.000    2.000 
#    0.000    0.000    0.000    0.000    0.000    0.000 
#
# Total GULP energy -155936.105731 kJ/mol
# GULP energy per Si atom -5569.146633 kJ/mol
# Density = 1.942238 g / cm^3
# Si number density = 19.466687 Si / 1000 Ang^3
#
#
#
# Elastic Constant Matrix: (Units=GPa)
#
#
# Indices 1 2 3 4 5 6 
#
# 1 60.6520 32.1839 20.6900 0.0068 35.1641 0.0038
# 2 32.1839 110.3630 17.3924 -0.0034 29.0972 -0.0013
# 3 20.6900 17.3924 74.5805 0.0015 22.1536 0.0001
# 4 0.0068 -0.0034 0.0015 -65.4855 -0.0057 -43.2287
# 5 35.1641 29.0972 22.1536 -0.0057 36.0358 -0.0031
# 6 0.0038 -0.0013 0.0001 -43.2287 -0.0031 -0.7645
#
#
#
# Elastic Compliance Matrix: (Units=1/GPa)
#
#
# Indices 1 2 3 4 5 6 
#
# 1 0.038227 -0.001665 0.000568 0.000006 -0.036307 0.000002
# 2 -0.001665 0.011585 0.000069 0.000000 -0.007772 0.000000
# 3 0.000568 0.000069 0.016413 0.000001 -0.010700 0.000001
# 4 0.000006 0.000000 0.000001 0.000420 -0.000008 -0.023770
# 5 -0.036307 -0.007772 -0.010700 -0.000008 0.076033 -0.000003
# 6 0.000002 0.000000 0.000001 -0.023770 -0.000003 0.036008
#
#
# Mechanical properties :
#
#
# Convention : Reuss Voigt Hill
#
# Bulk Modulus (GPa) = 15.58379 42.90314 29.24347
# Shear Modulus (GPa) = 24.73646 5.64577 15.19112
#
# Velocity S-wave (km/s) = 3.56857 1.70485 2.79653
# Velocity P-wave (km/s) = 5.00023 5.09534 5.04801
#
# Compressibility (1/GPa) = 0.06416922
#
# Stress axis : x y z
#
# Youngs Moduli (GPa) = 26.15957 86.32074 60.92695
#
# Poissons Ratio (x) = 0.14371 -0.03462
# Poissons Ratio (y) = 0.04355 -0.00419
# Poissons Ratio (z) = -0.01486 -0.00594
#
# Static dielectric constant tensor:
#      x y z
#    x 1.747900 0.000000 -0.006720 
#    y 0.000000 1.680350 0.000000 
#    z -0.006720 0.000000 1.724070 
# 
# From -- ./inp_files/170492.got.cif
#   From: 2010.05.17/outbox.cif.g08.bks.cpg/sg12_86_cif.got.tgz:170492.got - 2010.06.03 13:09:07.
