data_PCOD9220415
_publ_section_title
;
Structure prediction by ZEFSAII (Michael W. Deem and Ramdas Pophale) SiO2 
 PCOD9220415
Probable space group: C 2/M
;
_chemical_formula_sum "Si O2"
_cell_formula_units_Z 48
_cell_length_a 14.115856
_cell_length_b 30.585116
_cell_length_c 15.208517
_cell_angle_alpha 90.000000
_cell_angle_beta 27.712676
_cell_angle_gamma 90.000000
_cell_volume 3053.462450
_symmetry_space_group_name_H-M "C 2/M"
_symmetry_group_IT_number 12
_symmetry_cell_setting 'monoclinic'
loop_
_space_group_symop_operation_xyz
x,y,z
-x,y,-z
-x,-y,-z
x,-y,z
1/2+x,1/2+y,z
1/2-x,1/2+y,-z
1/2-x,1/2-y,-z
1/2+x,1/2-y,z
loop_
_atom_site_type_symbol
_atom_site_label
_atom_site_fract_x
_atom_site_fract_y
_atom_site_fract_z
Si Si1 0.714958 0.452431 0.205343
Si Si2 0.222692 0.358407 0.634254
Si Si3 0.710058 0.355554 0.211913
Si Si4 0.149722 0.739328 0.956886
Si Si5 0.545858 0.772740 0.700690
Si Si6 0.774166 0.546500 0.363211
O O1 0.770144 0.500000 0.119427
O O2 0.769312 0.403844 0.126486
O O3 0.468932 0.452639 0.417337
O O4 0.793678 0.453313 0.241211
O O5 0.463948 0.353859 0.414804
O O6 0.218314 0.353460 0.744482
O O7 0.100690 0.321845 0.682855
O O8 0.148705 0.406815 0.669211
O O9 0.791396 0.312280 0.097866
O O10 0.361369 0.765715 0.784464
O O11 0.000000 0.749268 0.000000
O O12 0.033873 0.748522 0.142958
O O13 0.750000 0.750000 0.500000
O O14 0.853964 0.500000 0.331491
#
# Coordination Sequence:
#
# PCOD9220415 Si02
#       6
#     8   8   8   8   8   8
#     4   7  10  17  33  59  87 117 154 186 213 255
#     4   9  15  26  45  65  90 124 158 191 230 273
#     4   9  15  26  45  64  89 127 160 189 228 271
#     4  11  22  34  49  68  92 124 162 198 240 281
#     4  11  22  34  49  69  92 121 162 202 238 277
#     4   7  10  17  33  60  88 115 150 186 218 261
#
# _framework density 15.719859
#
# number of rings (size 3 to 8) (size 9 to 14) (size 15 to 20)
#    0.000    3.000    3.333    3.000    0.000    0.667 
#    0.000    0.000    0.000    1.500    0.000    0.000 
#    0.000    0.667    0.000    2.333    0.000    2.667 
#
# Total GULP energy -133610.680737 kJ/mol
# GULP energy per Si atom -5567.111697 kJ/mol
# Density = 1.568408 g / cm^3
# Si number density = 15.719859 Si / 1000 Ang^3
#
#
#
# Elastic Constant Matrix: (Units=GPa)
#
#
# Indices 1 2 3 4 5 6 
#
# 1 58.6298 44.1366 20.5013 0.0000 -16.4778 0.0000
# 2 44.1366 133.0162 24.5999 0.0000 -18.5314 0.0000
# 3 20.5013 24.5999 70.7175 -0.0001 -11.0240 0.0001
# 4 0.0000 0.0000 -0.0001 15.8970 0.0000 -3.7862
# 5 -16.4778 -18.5314 -11.0240 0.0000 18.0983 0.0000
# 6 0.0000 0.0000 0.0001 -3.7862 0.0000 20.9648
#
#
#
# Elastic Compliance Matrix: (Units=1/GPa)
#
#
# Indices 1 2 3 4 5 6 
#
# 1 0.027579 -0.006218 -0.003216 0.000000 0.016784 0.000000
# 2 -0.006218 0.010389 -0.001144 0.000000 0.004279 0.000000
# 3 -0.003216 -0.001144 0.016388 0.000000 0.005883 0.000000
# 4 0.000000 0.000000 0.000000 0.065732 0.000000 0.011871
# 5 0.016784 0.004279 0.005883 0.000000 0.078500 0.000000
# 6 0.000000 0.000000 0.000000 0.011871 0.000000 0.049843
#
#
# Mechanical properties :
#
#
# Convention : Reuss Voigt Hill
#
# Bulk Modulus (GPa) = 30.12073 48.98213 39.55143
# Shear Modulus (GPa) = 17.81557 22.53372 20.17465
#
# Velocity S-wave (km/s) = 3.37013 3.79021 3.58632
# Velocity P-wave (km/s) = 5.86057 7.09798 6.50874
#
# Compressibility (1/GPa) = 0.03319973
#
# Stress axis : x y z
#
# Youngs Moduli (GPa) = 36.25999 96.25670 61.01980
#
# Poissons Ratio (x) = 0.59852 0.19623
# Poissons Ratio (y) = 0.22546 0.06982
# Poissons Ratio (z) = 0.11660 0.11014
#
# Static dielectric constant tensor:
#      x y z
#    x 1.483700 0.000000 -0.018930 
#    y 0.000000 1.583030 0.000000 
#    z -0.018930 0.000000 1.609170 
# 
# From -- ./inp_files/219272.got.cif
#   From: 2010.05.17/outbox.cif.g08.bks.cpg/sg12_110_cif.got.tgz:219272.got - 2010.06.03 13:09:07.
