data_PCOD9220110
_publ_section_title
;
Structure prediction by ZEFSAII (Michael W. Deem and Ramdas Pophale) SiO2 
 PCOD9220110
Probable space group: C 2/M
;
_chemical_formula_sum "Si O2"
_cell_formula_units_Z 40
_cell_length_a 10.678431
_cell_length_b 22.799318
_cell_length_c 10.911302
_cell_angle_alpha 90.000000
_cell_angle_beta 52.365916
_cell_angle_gamma 90.000000
_cell_volume 2103.733761
_symmetry_space_group_name_H-M "C 2/M"
_symmetry_group_IT_number 12
_symmetry_cell_setting 'monoclinic'
loop_
_space_group_symop_operation_xyz
x,y,z
-x,y,-z
-x,-y,-z
x,-y,z
1/2+x,1/2+y,z
1/2-x,1/2+y,-z
1/2-x,1/2-y,-z
1/2+x,1/2-y,z
loop_
_atom_site_type_symbol
_atom_site_label
_atom_site_fract_x
_atom_site_fract_y
_atom_site_fract_z
Si Si1 0.560392 0.880914 0.776502
Si Si2 0.828363 0.431849 0.541074
Si Si3 0.940387 0.254959 0.895338
Si Si4 0.723103 0.931493 0.914694
Si Si5 0.469318 0.626261 0.164074
O O1 0.652373 0.904472 0.604738
O O2 0.504895 0.813855 0.794226
O O3 0.666092 0.891965 0.834522
O O4 0.401049 0.917680 0.902089
O O5 0.782314 0.500000 0.559475
O O6 0.700482 0.397876 0.697950
O O7 0.000000 0.428372 0.500000
O O8 0.009085 0.193557 0.806760
O O9 0.750000 0.250000 0.000000
O O10 0.000000 0.260139 0.000000
O O11 0.896108 0.912902 0.853035
O O12 0.713223 0.000000 0.888117
O O13 0.500000 0.624736 0.000000
#
# Coordination Sequence:
#
# PCOD9220110 Si02
#       5
#     8   8   8   8   8
#     4  11  21  40  64  92 124 168 206 264 327 374
#     4  11  25  42  60  91 131 165 210 269 322 379
#     4  11  21  40  67  95 128 163 217 269 313 386
#     4  11  21  38  64  94 124 166 216 259 320 390
#     4  11  24  40  65  93 123 176 215 263 319 382
#
# _framework density 19.013812999999999
#
# number of rings (size 3 to 8) (size 9 to 14) (size 15 to 20)
#    0.000    1.000    4.000    4.200    2.800    4.800 
#    0.000    2.000    0.000    0.000    0.000    0.000 
#    0.000    0.000    0.000    0.000    0.000    0.000 
#
# Total GULP energy -111769.792149 kJ/mol
# GULP energy per Si atom -5588.489607 kJ/mol
# Density = 1.897054 g / cm^3
# Si number density = 19.013813 Si / 1000 Ang^3
#
#
#
# Elastic Constant Matrix: (Units=GPa)
#
#
# Indices 1 2 3 4 5 6 
#
# 1 71.6388 37.0150 22.4212 0.0000 -14.5206 0.0000
# 2 37.0150 163.9223 69.7941 0.0000 -17.5236 0.0000
# 3 22.4212 69.7941 103.6375 0.0000 -1.4426 0.0000
# 4 0.0000 0.0000 0.0000 23.8514 0.0000 -8.0148
# 5 -14.5206 -17.5236 -1.4426 0.0000 26.0716 0.0000
# 6 0.0000 0.0000 0.0000 -8.0148 0.0000 26.5415
#
#
#
# Elastic Compliance Matrix: (Units=1/GPa)
#
#
# Indices 1 2 3 4 5 6 
#
# 1 0.017398 -0.002107 -0.002231 0.000000 0.008150 0.000000
# 2 -0.002107 0.009653 -0.005976 0.000000 0.004984 0.000000
# 3 -0.002231 -0.005976 0.014094 0.000000 -0.004479 0.000000
# 4 0.000000 0.000000 0.000000 0.046661 0.000000 0.014090
# 5 0.008150 0.004984 -0.004479 0.000000 0.045997 0.000000
# 6 0.000000 0.000000 0.000000 0.014090 0.000000 0.041932
#
#
# Mechanical properties :
#
#
# Convention : Reuss Voigt Hill
#
# Bulk Modulus (GPa) = 48.74156 66.40657 57.57406
# Shear Modulus (GPa) = 24.60597 29.29081 26.94839
#
# Velocity S-wave (km/s) = 3.60128 3.92918 3.76880
# Velocity P-wave (km/s) = 6.55612 7.45559 7.02028
#
# Compressibility (1/GPa) = 0.02051637
#
# Stress axis : x y z
#
# Youngs Moduli (GPa) = 57.47777 103.58987 70.95339
#
# Poissons Ratio (x) = 0.21830 0.15832
# Poissons Ratio (y) = 0.12112 0.42400
# Poissons Ratio (z) = 0.12825 0.61903
#
# Static dielectric constant tensor:
#      x y z
#    x 1.691000 0.000000 0.025180 
#    y 0.000000 1.669230 0.000000 
#    z 0.025180 0.000000 1.635950 
# 
# From -- ./inp_files/50116.got.cif
#   From: 2010.05.17/outbox.cif.g08.bks.cpg/sg12_26_cif.got.tgz:50116.got - 2010.06.03 13:09:07.
