data_PCOD9220433
_publ_section_title
;
Structure prediction by ZEFSAII (Michael W. Deem and Ramdas Pophale) SiO2 
 PCOD9220433
Probable space group: C 2/M
;
_chemical_formula_sum "Si O2"
_cell_formula_units_Z 64
_cell_length_a 19.527798
_cell_length_b 7.625544
_cell_length_c 21.907660
_cell_angle_alpha 90.000000
_cell_angle_beta 102.925411
_cell_angle_gamma 90.000000
_cell_volume 3179.612311
_symmetry_space_group_name_H-M "C 2/M"
_symmetry_group_IT_number 12
_symmetry_cell_setting 'monoclinic'
loop_
_space_group_symop_operation_xyz
x,y,z
-x,y,-z
-x,-y,-z
x,-y,z
1/2+x,1/2+y,z
1/2-x,1/2+y,-z
1/2-x,1/2-y,-z
1/2+x,1/2-y,z
loop_
_atom_site_type_symbol
_atom_site_label
_atom_site_fract_x
_atom_site_fract_y
_atom_site_fract_z
Si Si1 0.283291 0.289956 0.314295
Si Si2 0.593023 0.209422 0.568507
Si Si3 0.186147 0.294833 0.942295
Si Si4 0.408339 0.213912 0.824846
Si Si5 0.436367 0.214661 0.569274
Si Si6 0.530221 0.784867 0.940156
Si Si7 0.751071 0.288856 0.825114
Si Si8 0.128178 0.714320 0.316685
O O1 0.279168 0.500000 0.310026
O O2 0.346725 0.248314 0.371442
O O3 0.286366 0.226491 0.244789
O O4 0.209017 0.228876 0.326728
O O5 0.516994 0.271530 0.576502
O O6 0.603486 0.270862 0.500701
O O7 0.587422 0.000000 0.563440
O O8 0.176415 0.500000 0.946868
O O9 0.109487 0.219084 0.943868
O O10 0.211019 0.259399 0.878445
O O11 0.250000 0.250000 0.000000
O O12 0.474784 0.271893 0.877391
O O13 0.332830 0.269537 0.837884
O O14 0.409239 0.267345 0.753963
O O15 0.408045 0.000000 0.825728
O O16 0.405331 0.276194 0.627038
O O17 0.435104 0.000000 0.570909
O O18 0.530509 0.000000 0.939507
O O19 0.500000 0.732738 0.000000
O O20 0.753273 0.500000 0.824221
O O21 0.127130 0.500000 0.317245
#
# Coordination Sequence:
#
# PCOD9220433 Si02
#       8
#     8   8   8   8   8   8   8   8
#     4   9  18  31  48  71  96 124 157 192 235 285
#     4   9  17  29  46  68  94 124 157 197 245 288
#     4  11  22  34  52  77 101 126 157 193 234 279
#     4   8  14  27  48  70  90 119 161 202 235 269
#     4   8  15  28  44  64  92 125 161 201 242 281
#     4   9  17  29  47  72  97 120 154 197 230 262
#     4   9  18  34  53  71  96 127 156 192 237 281
#     4   8  14  26  45  67  91 121 158 197 235 280
#
# _framework density 20.128240999999999
#
# number of rings (size 3 to 8) (size 9 to 14) (size 15 to 20)
#    0.000    3.125    0.000    3.375    0.000    4.000 
#    0.000    3.750    0.000    7.500    0.000    0.000 
#    0.000    0.000    0.000    0.000    0.000    0.000 
#
# Total GULP energy -178419.489084 kJ/mol
# GULP energy per Si atom -5575.609034 kJ/mol
# Density = 2.008243 g / cm^3
# Si number density = 20.128241 Si / 1000 Ang^3
#
#
#
# Elastic Constant Matrix: (Units=GPa)
#
#
# Indices 1 2 3 4 5 6 
#
# 1 151.0626 6.1090 146.0829 0.0000 4.3053 0.0000
# 2 6.1090 34.9170 3.8479 0.0000 0.1050 0.0000
# 3 146.0829 3.8479 220.2609 0.0000 3.2798 0.0000
# 4 0.0000 0.0000 0.0000 15.6292 0.0000 6.6999
# 5 4.3053 0.1050 3.2798 0.0000 41.3742 0.0000
# 6 0.0000 0.0000 0.0000 6.6999 0.0000 11.2796
#
#
#
# Elastic Compliance Matrix: (Units=1/GPa)
#
#
# Indices 1 2 3 4 5 6 
#
# 1 0.018621 -0.001899 -0.012302 0.000000 -0.000958 0.000000
# 2 -0.001899 0.028888 0.000754 0.000000 0.000065 0.000000
# 3 -0.012302 0.000754 0.012682 0.000000 0.000273 0.000000
# 4 0.000000 0.000000 0.000000 0.085840 0.000000 -0.050987
# 5 -0.000958 0.000065 0.000273 0.000000 0.024248 0.000000
# 6 0.000000 0.000000 0.000000 -0.050987 0.000000 0.118941
#
#
# Mechanical properties :
#
#
# Convention : Reuss Voigt Hill
#
# Bulk Modulus (GPa) = 30.03365 79.81336 54.92351
# Shear Modulus (GPa) = 15.28057 30.33665 22.80861
#
# Velocity S-wave (km/s) = 2.75828 3.88644 3.36990
# Velocity P-wave (km/s) = 5.00976 7.73807 6.51826
#
# Compressibility (1/GPa) = 0.03329598
#
# Stress axis : x y z
#
# Youngs Moduli (GPa) = 53.70424 34.61604 78.85213
#
# Poissons Ratio (x) = 0.06574 0.97005
# Poissons Ratio (y) = 0.10199 -0.05945
# Poissons Ratio (z) = 0.66068 -0.02610
#
# Static dielectric constant tensor:
#      x y z
#    x 1.696010 0.000000 -0.004200 
#    y 0.000000 1.768730 0.000000 
#    z -0.004200 0.000000 1.693350 
# 
# From -- ./inp_files/276579.got.cif
#   From: 2010.05.17/outbox.cif.g08.bks.cpg/sg12_139_cif.got.tgz:276579.got - 2010.06.03 13:09:07.
