data_PCOD9220585
_publ_section_title
;
Structure prediction by ZEFSAII (Michael W. Deem and Ramdas Pophale) SiO2 
 PCOD9220585
Probable space group: C 2/M
;
_chemical_formula_sum "Si O2"
_cell_formula_units_Z 42
_cell_length_a 21.149157
_cell_length_b 7.419458
_cell_length_c 13.961815
_cell_angle_alpha 90.000000
_cell_angle_beta 117.497857
_cell_angle_gamma 90.000000
_cell_volume 1943.320806
_symmetry_space_group_name_H-M "C 2/M"
_symmetry_group_IT_number 12
_symmetry_cell_setting 'monoclinic'
loop_
_space_group_symop_operation_xyz
x,y,z
-x,y,-z
-x,-y,-z
x,-y,z
1/2+x,1/2+y,z
1/2-x,1/2+y,-z
1/2-x,1/2-y,-z
1/2+x,1/2-y,z
loop_
_atom_site_type_symbol
_atom_site_label
_atom_site_fract_x
_atom_site_fract_y
_atom_site_fract_z
Si Si1 0.146334 0.781088 0.451726
Si Si2 0.000000 0.500000 0.500000
Si Si3 0.033131 0.282693 0.875260
Si Si4 0.018797 0.206276 0.651986
Si Si5 0.610980 0.220429 0.120009
Si Si6 0.737189 0.205456 0.328701
O O1 0.063997 0.731342 0.394313
O O2 0.190895 0.717114 0.575299
O O3 0.184796 0.706286 0.384581
O O4 0.150763 0.000000 0.450654
O O5 0.044354 0.342403 0.590339
O O6 0.031903 0.500000 0.873047
O O7 0.049948 0.220039 0.780423
O O8 0.954188 0.223552 0.855598
O O9 0.087553 0.226944 0.996934
O O10 0.022479 0.000000 0.623608
O O11 0.687297 0.285641 0.211254
O O12 0.612257 0.000000 0.124069
O O13 0.753949 0.000000 0.312200
#
# Coordination Sequence:
#
# PCOD9220585 Si02
#       6
#     8   2   8   8   8   8
#     4   9  18  28  43  70 106 137 166 208 253 297
#     4  12  26  40  60  72  96 136 182 226 280 304
#     4   9  15  28  47  72 105 142 169 203 252 301
#     4  11  22  37  54  78 104 131 174 225 267 310
#     4   8  14  23  45  74 105 142 176 195 233 315
#     4   9  15  26  45  71 104 144 172 192 236 311
#
# _framework density 21.612487999999999
#
# number of rings (size 3 to 8) (size 9 to 14) (size 15 to 20)
#    0.000    2.667    2.857    1.429    1.333    0.000 
#    0.000    2.857    0.000    0.000    0.000    1.333 
#    0.000    0.000    0.000    0.000    0.000    0.000 
#
# Total GULP energy -116907.192150 kJ/mol
# GULP energy per Si atom -5567.009150 kJ/mol
# Density = 2.156330 g / cm^3
# Si number density = 21.612488 Si / 1000 Ang^3
#
#
#
# Elastic Constant Matrix: (Units=GPa)
#
#
# Indices 1 2 3 4 5 6 
#
# 1 24.7468 0.7755 8.7768 0.0000 6.4251 0.0000
# 2 0.7755 93.5971 16.1097 0.0000 -6.4749 0.0000
# 3 8.7768 16.1097 174.9840 0.0000 11.1912 0.0000
# 4 0.0000 0.0000 0.000059065.4270 0.0000**********
# 5 6.4251 -6.4749 11.1912 0.0000 34.7516 0.0000
# 6 0.0000 0.0000 0.0000********** 0.000016027.4833
#
#
#
# Elastic Compliance Matrix: (Units=1/GPa)
#
#
# Indices 1 2 3 4 5 6 
#
# 1 0.042958 -0.000599 -0.001618 0.000000 -0.007533 0.000000
# 2 -0.000599 0.011063 -0.001151 0.000000 0.002543 0.000000
# 3 -0.001618 -0.001151 0.006021 0.000000 -0.001854 0.000000
# 4 0.000000 0.000000 0.000000 -0.231044 0.000000 -0.443551
# 5 -0.007533 0.002543 -0.001854 0.000000 0.031239 0.000000
# 6 0.000000 0.000000 0.000000 -0.443551 0.000000 -0.851456
#
#
# Mechanical properties :
#
#
# Convention : Reuss Voigt Hill
#
# Bulk Modulus (GPa) = 18.75951 38.29463 28.52707
# Shear Modulus (GPa) = -5.17216 15043.37677 7519.10231
#
# Velocity S-wave (km/s) = -1.54865 83.52013 59.04750
# Velocity P-wave (km/s) = 2.34542 96.53276 68.27912
#
# Compressibility (1/GPa) = 0.05330630
#
# Stress axis : x y z
#
# Youngs Moduli (GPa) = 23.27875 90.39080 166.09879
#
# Poissons Ratio (x) = 0.05411 0.26871
# Poissons Ratio (y) = 0.01393 0.19120
# Poissons Ratio (z) = 0.03766 0.10405
#
# Static dielectric constant tensor:
#      x y z
#    x 1.812320 0.000000 -0.005910 
#    y 0.000000 1.803910 0.000000 
#    z -0.005910 0.000000 1.829040 
# 
# From -- ./inp_files/163315.got.cif
#   From: 2010.05.17/outbox.cif.g08.bks.cpg/sg12_82_cif.got.tgz:163315.got - 2010.06.03 13:09:07.
