data_PCOD9220308
_publ_section_title
;
Structure prediction by ZEFSAII (Michael W. Deem and Ramdas Pophale) SiO2 
 PCOD9220308
Probable space group: C 2/M
;
_chemical_formula_sum "Si O2"
_cell_formula_units_Z 42
_cell_length_a 20.518770
_cell_length_b 7.802230
_cell_length_c 14.653145
_cell_angle_alpha 90.000000
_cell_angle_beta 125.479736
_cell_angle_gamma 90.000000
_cell_volume 1910.277551
_symmetry_space_group_name_H-M "C 2/M"
_symmetry_group_IT_number 12
_symmetry_cell_setting 'monoclinic'
loop_
_space_group_symop_operation_xyz
x,y,z
-x,y,-z
-x,-y,-z
x,-y,z
1/2+x,1/2+y,z
1/2-x,1/2+y,-z
1/2-x,1/2-y,-z
1/2+x,1/2-y,z
loop_
_atom_site_type_symbol
_atom_site_label
_atom_site_fract_x
_atom_site_fract_y
_atom_site_fract_z
Si Si1 0.364921 0.706837 0.673847
Si Si2 0.500000 0.500000 0.500000
Si Si3 0.700076 0.295212 0.048403
Si Si4 0.582574 0.187640 0.477190
Si Si5 0.019676 0.208649 0.913068
Si Si6 0.224745 0.805263 0.698555
O O1 0.359983 0.500000 0.667178
O O2 0.366575 0.779372 0.573558
O O3 0.448961 0.760577 0.788380
O O4 0.294172 0.772052 0.681272
O O5 0.523813 0.346560 0.445439
O O6 0.697662 0.500000 0.057867
O O7 0.739172 0.223170 0.172311
O O8 0.750000 0.250000 0.000000
O O9 0.608872 0.233344 0.962514
O O10 0.647786 0.193980 0.611354
O O11 0.544482 0.000000 0.441011
O O12 0.019441 0.000000 0.912240
O O13 0.000000 0.263293 0.000000
O O14 0.194681 0.000000 0.666230
#
# Coordination Sequence:
#
# PCOD9220308 Si02
#       6
#     8   2   8   8   8   8
#     4  11  21  41  71 104 139 179 234 296 356 418
#     4  12  26  52  68 102 146 182 230 286 348 424
#     4  11  23  42  65  98 136 186 236 286 357 426
#     4  12  26  47  73 104 140 187 235 285 353 429
#     4   9  18  37  66  95 133 181 230 286 342 410
#     4  12  24  43  68 101 140 181 232 301 356 418
#
# _framework density 21.986332999999998
#
# number of rings (size 3 to 8) (size 9 to 14) (size 15 to 20)
#    0.000    0.952    3.810    3.714    0.000    1.524 
#    3.429    6.667    0.000    0.000    0.000    0.000 
#    0.000    0.000    0.000    0.000    0.000    0.000 
#
# Total GULP energy -117244.157590 kJ/mol
# GULP energy per Si atom -5583.055123 kJ/mol
# Density = 2.193629 g / cm^3
# Si number density = 21.986333 Si / 1000 Ang^3
#
#
#
# Elastic Constant Matrix: (Units=GPa)
#
#
# Indices 1 2 3 4 5 6 
#
# 1 105.5085 6.9473 13.4506 0.0000 -21.3769 0.0000
# 2 6.9473 129.2508 5.9787 0.0000 -10.3074 0.0000
# 3 13.4506 5.9787 84.6668 0.0000 2.1845 0.0000
# 4 0.0000 0.0000 0.0000 17.1618 0.0000 -9.8161
# 5 -21.3769 -10.3074 2.1845 0.0000 33.3175 0.0000
# 6 0.0000 0.0000 0.0000 -9.8161 0.0000 22.4868
#
#
#
# Elastic Compliance Matrix: (Units=1/GPa)
#
#
# Indices 1 2 3 4 5 6 
#
# 1 0.011214 0.000075 -0.001976 0.000000 0.007347 0.000000
# 2 0.000075 0.007966 -0.000640 0.000000 0.002554 0.000000
# 3 -0.001976 -0.000640 0.012229 0.000000 -0.002268 0.000000
# 4 0.000000 0.000000 0.000000 0.077659 0.000000 0.033900
# 5 0.007347 0.002554 -0.002268 0.000000 0.035667 0.000000
# 6 0.000000 0.000000 0.000000 0.033900 0.000000 0.059269
#
#
# Mechanical properties :
#
#
# Convention : Reuss Voigt Hill
#
# Bulk Modulus (GPa) = 37.98733 41.35327 39.67030
# Shear Modulus (GPa) = 22.95031 34.12986 28.54009
#
# Velocity S-wave (km/s) = 3.23436 3.94423 3.60680
# Velocity P-wave (km/s) = 5.59136 6.29222 5.95212
#
# Compressibility (1/GPa) = 0.02632456
#
# Stress axis : x y z
#
# Youngs Moduli (GPa) = 89.17740 125.53032 81.77491
#
# Poissons Ratio (x) = -0.00937 0.16161
# Poissons Ratio (y) = -0.00665 0.05236
# Poissons Ratio (z) = 0.17624 0.08038
#
# Static dielectric constant tensor:
#      x y z
#    x 1.817660 0.000000 0.043610 
#    y 0.000000 1.820400 0.000000 
#    z 0.043610 0.000000 1.790050 
# 
# From -- ./inp_files/221833.got.cif
#   From: 2010.05.17/outbox.cif.g08.bks.cpg/sg12_111_cif.got.tgz:221833.got - 2010.06.03 13:09:07.
