data_PCOD9220624
_publ_section_title
;
Structure prediction by ZEFSAII (Michael W. Deem and Ramdas Pophale) SiO2 
 PCOD9220624
Probable space group: C 2/M
;
_chemical_formula_sum "Si O2"
_cell_formula_units_Z 42
_cell_length_a 21.101671
_cell_length_b 7.771109
_cell_length_c 14.061148
_cell_angle_alpha 90.000000
_cell_angle_beta 63.668691
_cell_angle_gamma 90.000000
_cell_volume 2066.555043
_symmetry_space_group_name_H-M "C 2/M"
_symmetry_group_IT_number 12
_symmetry_cell_setting 'monoclinic'
loop_
_space_group_symop_operation_xyz
x,y,z
-x,y,-z
-x,-y,-z
x,-y,z
1/2+x,1/2+y,z
1/2-x,1/2+y,-z
1/2-x,1/2-y,-z
1/2+x,1/2-y,z
loop_
_atom_site_type_symbol
_atom_site_label
_atom_site_fract_x
_atom_site_fract_y
_atom_site_fract_z
Si Si1 0.714283 0.800197 0.924577
Si Si2 0.078854 0.299088 0.527867
Si Si3 0.791915 0.707066 0.681907
Si Si4 0.848862 0.790388 0.325822
Si Si5 0.000000 0.000000 0.500000
Si Si6 0.925559 0.201833 0.084780
O O1 0.768302 0.765639 0.801732
O O2 0.639587 0.714332 0.945936
O O3 0.698415 0.000000 0.938393
O O4 0.750000 0.750000 0.000000
O O5 0.059020 0.500000 0.529188
O O6 0.132300 0.239518 0.407844
O O7 0.122854 0.284387 0.595608
O O8 0.018876 0.155219 0.564942
O O9 0.791698 0.500000 0.683078
O O10 0.730688 0.762459 0.649272
O O11 0.896482 0.730418 0.204680
O O12 0.850147 0.000000 0.330162
O O13 0.937874 0.000000 0.093855
O O14 0.000000 0.277200 0.000000
#
# Coordination Sequence:
#
# PCOD9220624 Si02
#       6
#     8   8   8   8   2   8
#     4  11  22  37  59  86 121 159 200 252 304 360
#     4  11  23  41  63  89 121 165 202 247 304 361
#     4   9  20  38  63  90 118 149 201 255 301 354
#     4   9  17  35  62  90 121 152 195 257 305 353
#     4  12  26  44  60  82 138 160 204 246 292 386
#     4   9  19  38  61  87 120 158 200 248 301 358
#
# _framework density 20.323677
#
# number of rings (size 3 to 8) (size 9 to 14) (size 15 to 20)
#    0.000    2.095    0.952    3.714    1.333    3.429 
#    3.429    0.000    0.000    0.000    0.000    0.000 
#    0.000    0.000    0.000    0.000    0.000    0.000 
#
# Total GULP energy -116914.040425 kJ/mol
# GULP energy per Si atom -5567.335258 kJ/mol
# Density = 2.027742 g / cm^3
# Si number density = 20.323677 Si / 1000 Ang^3
#
#
#
# Elastic Constant Matrix: (Units=GPa)
#
#
# Indices 1 2 3 4 5 6 
#
# 1 86.3445 11.9359 60.8890 0.0000 8.8175 0.0000
# 2 11.9359 63.0236 4.8110 0.0000 -6.1920 0.0000
# 3 60.8890 4.8110 76.7596 0.0000 11.0618 0.0000
# 4 0.0000 0.0000 0.0000 19.3904 0.0000 12.1500
# 5 8.8175 -6.1920 11.0618 0.0000 38.2665 0.0000
# 6 0.0000 0.0000 0.0000 12.1500 0.0000 7.3442
#
#
#
# Elastic Compliance Matrix: (Units=1/GPa)
#
#
# Indices 1 2 3 4 5 6 
#
# 1 0.027049 -0.003579 -0.021131 0.000000 -0.000704 0.000000
# 2 -0.003579 0.016752 0.001335 0.000001 0.003149 -0.000001
# 3 -0.021131 0.001335 0.030233 0.000000 -0.003654 0.000000
# 4 0.000000 0.000001 0.000000 -1.408062 0.000000 2.329456
# 5 -0.000704 0.003149 -0.003654 0.000000 0.027861 0.000000
# 6 0.000000 -0.000001 0.000000 2.329456 0.000000 -3.717623
#
#
# Mechanical properties :
#
#
# Convention : Reuss Voigt Hill
#
# Bulk Modulus (GPa) = 36.65052 42.37773 39.51413
# Shear Modulus (GPa) = -1.00645 22.89967 10.94661
#
# Velocity S-wave (km/s) = -0.70448 3.36035 2.32332
# Velocity P-wave (km/s) = 4.17263 5.99605 5.16544
#
# Compressibility (1/GPa) = 0.02728475
#
# Stress axis : x y z
#
# Youngs Moduli (GPa) = 36.96929 59.69307 33.07673
#
# Poissons Ratio (x) = 0.21363 0.69895
# Poissons Ratio (y) = 0.13231 -0.04416
# Poissons Ratio (z) = 0.78120 -0.07969
#
# Static dielectric constant tensor:
#      x y z
#    x 1.739070 0.000000 -0.101140 
#    y 0.000000 1.725240 0.000000 
#    z -0.101140 0.000000 1.676410 
# 
# From -- ./inp_files/162991.got.cif
#   From: 2010.05.17/outbox.cif.g08.bks.cpg/sg12_82_cif.got.tgz:162991.got - 2010.06.03 13:09:07.
