data_PCOD9220102
_publ_section_title
;
Structure prediction by ZEFSAII (Michael W. Deem and Ramdas Pophale) SiO2 
 PCOD9220102
Probable space group: C 2/M
;
_chemical_formula_sum "Si O2"
_cell_formula_units_Z 40
_cell_length_a 9.383537
_cell_length_b 16.255412
_cell_length_c 25.538523
_cell_angle_alpha 90.000000
_cell_angle_beta 32.255836
_cell_angle_gamma 90.000000
_cell_volume 2079.017122
_symmetry_space_group_name_H-M "C 2/M"
_symmetry_group_IT_number 12
_symmetry_cell_setting 'monoclinic'
loop_
_space_group_symop_operation_xyz
x,y,z
-x,y,-z
-x,-y,-z
x,-y,z
1/2+x,1/2+y,z
1/2-x,1/2+y,-z
1/2-x,1/2-y,-z
1/2+x,1/2-y,z
loop_
_atom_site_type_symbol
_atom_site_label
_atom_site_fract_x
_atom_site_fract_y
_atom_site_fract_z
Si Si1 0.791780 0.167346 0.285793
Si Si2 0.956208 0.500000 0.601039
Si Si3 0.757929 0.171462 0.035666
Si Si4 0.198293 0.092958 0.080560
Si Si5 0.059970 0.000000 0.623501
Si Si6 0.174129 0.831828 0.268510
O O1 0.610108 0.085658 0.348946
O O2 0.652308 0.252524 0.313001
O O3 0.993050 0.148636 0.175458
O O4 0.969486 0.176826 0.283168
O O5 0.756032 0.500000 0.613255
O O6 0.252916 0.500000 0.485486
O O7 0.473612 0.162032 0.152152
O O8 0.750000 0.250000 0.000000
O O9 0.823131 0.098492 0.974963
O O10 0.000000 0.180273 0.000000
O O11 0.160371 0.000000 0.111624
O O12 0.500000 0.117632 0.000000
O O13 0.892656 0.916459 0.680961
#
# Coordination Sequence:
#
# PCOD9220102 Si02
#       6
#     8   4   8   8   4   8
#     4  11  21  38  63  92 119 158 203 246 301 360
#     4   9  20  42  67  86 112 154 209 253 296 364
#     4  12  23  36  55  85 124 161 197 238 291 354
#     4  11  22  36  58  87 122 166 202 242 295 360
#     4   9  22  42  63  87 118 155 201 255 304 355
#     4  11  23  38  60  91 122 160 199 244 300 360
#
# _framework density 19.23986
#
# number of rings (size 3 to 8) (size 9 to 14) (size 15 to 20)
#    0.000    1.200    5.000    1.800    1.400    1.200 
#    0.000    1.000    0.000    1.200    0.000    0.000 
#    0.000    0.000    0.000    0.000    0.000    0.000 
#
# Total GULP energy -111681.411612 kJ/mol
# GULP energy per Si atom -5584.070581 kJ/mol
# Density = 1.919607 g / cm^3
# Si number density = 19.239860 Si / 1000 Ang^3
#
#
#
# Elastic Constant Matrix: (Units=GPa)
#
#
# Indices 1 2 3 4 5 6 
#
# 1 95.1544 42.8424 35.1532 0.0254 -1.6058 -0.0091
# 2 42.8424 174.1235 82.3936 -0.0133 6.5402 -0.0285
# 3 35.1532 82.3936 121.4860 0.2518 8.1632 -0.0652
# 4 0.0254 -0.0133 0.2518 16.6034 -0.0164 7.2920
# 5 -1.6058 6.5402 8.1632 -0.0164 16.4279 0.0296
# 6 -0.0091 -0.0285 -0.0652 7.2920 0.0296 33.6497
#
#
#
# Elastic Compliance Matrix: (Units=1/GPa)
#
#
# Indices 1 2 3 4 5 6 
#
# 1 0.012368 -0.002015 -0.002429 0.000024 0.003218 -0.000011
# 2 -0.002015 0.008790 -0.005308 0.000100 -0.001059 -0.000024
# 3 -0.002429 -0.005308 0.012837 -0.000232 -0.004504 0.000074
# 4 0.000024 0.000100 -0.000232 0.066568 0.000170 -0.014426
# 5 0.003218 -0.001059 -0.004504 0.000170 0.063846 -0.000102
# 6 -0.000011 -0.000024 0.000074 -0.014426 -0.000102 0.032844
#
#
# Mechanical properties :
#
#
# Convention : Reuss Voigt Hill
#
# Bulk Modulus (GPa) = 68.99914 79.06025 74.02969
# Shear Modulus (GPa) = 22.56454 28.69451 25.62952
#
# Velocity S-wave (km/s) = 3.42833 3.86607 3.65376
# Velocity P-wave (km/s) = 7.18413 7.81727 7.50738
#
# Compressibility (1/GPa) = 0.01449293
#
# Stress axis : x y z
#
# Youngs Moduli (GPa) = 80.85474 113.76480 77.89980
#
# Poissons Ratio (x) = 0.22920 0.18919
# Poissons Ratio (y) = 0.16290 0.41346
# Poissons Ratio (z) = 0.19637 0.60382
#
# Static dielectric constant tensor:
#      x y z
#    x 1.283500 0.000180 -0.026570 
#    y 0.000180 1.733310 0.000000 
#    z -0.026570 0.000000 1.641980 
# 
# From -- ./inp_files/195328.got.cif
#   From: 2010.05.17/outbox.cif.g08.bks.cpg/sg12_98_cif.got.tgz:195328.got - 2010.06.03 13:09:07.
