data_PCOD9220809
_publ_section_title
;
Structure prediction by ZEFSAII (Michael W. Deem and Ramdas Pophale) SiO2 
 PCOD9220809
Probable space group: C 2/M
;
_chemical_formula_sum "Si O2"
_cell_formula_units_Z 40
_cell_length_a 13.282009
_cell_length_b 16.274624
_cell_length_c 19.484179
_cell_angle_alpha 90.000000
_cell_angle_beta 28.958034
_cell_angle_gamma 90.000000
_cell_volume 2039.171327
_symmetry_space_group_name_H-M "C 2/M"
_symmetry_group_IT_number 12
_symmetry_cell_setting 'monoclinic'
loop_
_space_group_symop_operation_xyz
x,y,z
-x,y,-z
-x,-y,-z
x,-y,z
1/2+x,1/2+y,z
1/2-x,1/2+y,-z
1/2-x,1/2-y,-z
1/2+x,1/2-y,z
loop_
_atom_site_type_symbol
_atom_site_label
_atom_site_fract_x
_atom_site_fract_y
_atom_site_fract_z
Si Si1 0.818013 0.000000 0.272204
Si Si2 0.432532 0.821876 0.201306
Si Si3 0.263307 0.214619 0.163898
Si Si4 0.368064 0.355709 0.898909
Si Si5 0.877366 0.674422 0.390047
Si Si6 0.606263 0.000000 0.547861
O O1 0.965535 0.922205 0.180752
O O2 0.715217 0.000000 0.408866
O O3 0.639233 0.000000 0.322345
O O4 0.279413 0.828483 0.228262
O O5 0.531181 0.730365 0.138047
O O6 0.334486 0.831568 0.334281
O O7 0.642610 0.874457 0.065873
O O8 0.170658 0.156400 0.159542
O O9 0.116818 0.294406 0.253966
O O10 0.500000 0.233654 0.000000
O O11 0.750000 0.750000 0.500000
O O12 0.842104 0.585833 0.445162
#
# Coordination Sequence:
#
# PCOD9220809 Si02
#       6
#     4   8   8   8   8   4
#     4  11  22  39  57  82 118 146 190 251 296 342
#     4   9  18  35  57  82 110 148 194 235 285 346
#     4   9  18  36  60  84 110 153 204 242 288 348
#     4   9  18  34  58  81 108 146 190 242 291 337
#     4  11  23  38  58  86 123 158 194 240 292 350
#     4  11  24  37  56  86 115 155 199 233 293 365
#
# _framework density 19.615811000000001
#
# number of rings (size 3 to 8) (size 9 to 14) (size 15 to 20)
#    0.000    2.200    0.000    4.800    0.000    3.200 
#    0.000    7.000    0.000    2.400    0.000    0.000 
#    0.000    0.000    0.000    0.000    0.000    0.000 
#
# Total GULP energy -111564.446761 kJ/mol
# GULP energy per Si atom -5578.222338 kJ/mol
# Density = 1.957116 g / cm^3
# Si number density = 19.615811 Si / 1000 Ang^3
#
#
#
# Elastic Constant Matrix: (Units=GPa)
#
#
# Indices 1 2 3 4 5 6 
#
# 1 100.2142 19.8834 27.4700 -0.0062 22.5382 0.0000
# 2 19.8834 91.1347 31.5753 -0.0296 1.3102 0.0042
# 3 27.4700 31.5753 50.7742 -0.0435 15.4980 0.0016
# 4 -0.0062 -0.0296 -0.0435 28.6413 0.0039 -5.2710
# 5 22.5382 1.3102 15.4980 0.0039 35.9356 0.0018
# 6 0.0000 0.0042 0.0016 -5.2710 0.0018 13.3652
#
#
#
# Elastic Compliance Matrix: (Units=1/GPa)
#
#
# Indices 1 2 3 4 5 6 
#
# 1 0.012770 -0.001212 -0.004288 -0.000004 -0.006116 0.000000
# 2 -0.001212 0.014550 -0.009745 -0.000001 0.004433 -0.000004
# 3 -0.004288 -0.009745 0.031261 0.000041 -0.010437 0.000017
# 4 -0.000004 -0.000001 0.000041 0.037647 -0.000020 0.014847
# 5 -0.006116 0.004433 -0.010437 -0.000020 0.036003 -0.000013
# 6 0.000000 -0.000004 0.000017 0.014847 -0.000013 0.080677
#
#
# Mechanical properties :
#
#
# Convention : Reuss Voigt Hill
#
# Bulk Modulus (GPa) = 35.60074 44.44225 40.02149
# Shear Modulus (GPa) = 19.78133 26.46805 23.12469
#
# Velocity S-wave (km/s) = 3.17904 3.67730 3.43721
# Velocity P-wave (km/s) = 5.62703 6.38244 6.01660
#
# Compressibility (1/GPa) = 0.02808930
#
# Stress axis : x y z
#
# Youngs Moduli (GPa) = 78.30836 68.72833 31.98833
#
# Poissons Ratio (x) = 0.08333 0.13717
# Poissons Ratio (y) = 0.09495 0.31174
# Poissons Ratio (z) = 0.33580 0.66979
#
# Static dielectric constant tensor:
#      x y z
#    x 1.708220 0.000000 0.010160 
#    y 0.000000 1.685540 0.000000 
#    z 0.010160 0.000000 1.735050 
# 
# From -- ./inp_files/310487.got.cif
#   From: 2010.05.17/outbox.cif.g08.bks.cpg/sg12_156_cif.got.tgz:310487.got - 2010.06.03 13:09:07.
