data_PCOD9220180
_publ_section_title
;
Structure prediction by ZEFSAII (Michael W. Deem and Ramdas Pophale) SiO2 
 PCOD9220180
Probable space group: C 2/M
;
_chemical_formula_sum "Si O2"
_cell_formula_units_Z 48
_cell_length_a 11.975993
_cell_length_b 17.652899
_cell_length_c 12.718927
_cell_angle_alpha 90.000000
_cell_angle_beta 65.519825
_cell_angle_gamma 90.000000
_cell_volume 2447.199663
_symmetry_space_group_name_H-M "C 2/M"
_symmetry_group_IT_number 12
_symmetry_cell_setting 'monoclinic'
loop_
_space_group_symop_operation_xyz
x,y,z
-x,y,-z
-x,-y,-z
x,-y,z
1/2+x,1/2+y,z
1/2-x,1/2+y,-z
1/2-x,1/2-y,-z
1/2+x,1/2-y,z
loop_
_atom_site_type_symbol
_atom_site_label
_atom_site_fract_x
_atom_site_fract_y
_atom_site_fract_z
Si Si1 0.000000 0.616570 0.000000
Si Si2 0.503519 0.792885 0.214716
Si Si3 0.608535 0.853436 0.381963
Si Si4 0.222638 0.192404 0.375489
Si Si5 0.831173 0.914538 0.406949
Si Si6 0.401279 0.629065 0.779186
Si Si7 0.270296 0.000000 0.078083
O O1 0.001622 0.667846 0.895382
O O2 0.121081 0.565321 0.958223
O O3 0.567467 0.846176 0.277519
O O4 0.363777 0.782780 0.309471
O O5 0.572880 0.712466 0.183835
O O6 0.500000 0.881992 0.500000
O O7 0.639868 0.767384 0.404906
O O8 0.730505 0.900982 0.355654
O O9 0.199956 0.144239 0.488475
O O10 0.183153 0.142221 0.291051
O O11 0.967144 0.900302 0.312137
O O12 0.820832 0.000000 0.451813
O O13 0.335700 0.567270 0.876006
#
# Coordination Sequence:
#
# PCOD9220180 Si02
#       7
#     4   8   8   8   8   8   4
#     4  11  26  48  74  99 124 176 238 289 330 388
#     4  11  23  44  73  97 130 175 235 277 321 402
#     4  11  22  41  64  96 137 177 214 269 329 399
#     4  11  21  39  66  99 128 179 221 268 322 399
#     4  12  24  37  61  99 145 176 211 265 343 408
#     4  11  23  41  69  99 134 172 223 282 336 396
#     4  11  24  46  69  97 133 170 224 288 344 385
#
# _framework density 19.614255
#
# number of rings (size 3 to 8) (size 9 to 14) (size 15 to 20)
#    0.000    0.833    5.833    3.000    1.167    1.667 
#    3.000    0.000    0.000    1.500    0.000    0.000 
#    0.000    0.000    0.000    0.000    0.000    0.000 
#
# Total GULP energy -133628.651819 kJ/mol
# GULP energy per Si atom -5567.860492 kJ/mol
# Density = 1.956961 g / cm^3
# Si number density = 19.614255 Si / 1000 Ang^3
#
#
#
# Elastic Constant Matrix: (Units=GPa)
#
#
# Indices 1 2 3 4 5 6 
#
# 1 90.1379 11.7097 29.4146 0.0000 -15.0605 0.0000
# 2 11.7097 59.2042 38.6389 0.0000 -8.0299 0.0000
# 3 29.4146 38.6389 77.2801 0.0000 0.4067 0.0000
# 4 0.0000 0.0000 0.0000 4.9514 0.0000 -8.7295
# 5 -15.0605 -8.0299 0.4067 0.0000 32.2267 0.0000
# 6 0.0000 0.0000 0.0000 -8.7295 0.0000 15.4432
#
#
#
# Elastic Compliance Matrix: (Units=1/GPa)
#
#
# Indices 1 2 3 4 5 6 
#
# 1 0.014184 0.002585 -0.006730 0.000000 0.007357 0.000000
# 2 0.002585 0.026939 -0.014495 0.000000 0.008103 0.000000
# 3 -0.006730 -0.014495 0.022786 0.000000 -0.007044 0.000000
# 4 0.000000 0.000000 0.000000 59.248990 0.000000 33.491408
# 5 0.007357 0.008103 -0.007044 0.000000 0.036576 0.000000
# 6 0.000000 0.000000 0.000000 33.491408 0.000000 18.996290
#
#
# Mechanical properties :
#
#
# Convention : Reuss Voigt Hill
#
# Bulk Modulus (GPa) = 37.55509 42.90541 40.23025
# Shear Modulus (GPa) = 0.06378 20.31483 10.18930
#
# Velocity S-wave (km/s) = 0.18052 3.22175 2.28169
# Velocity P-wave (km/s) = 4.38541 5.98010 5.24373
#
# Compressibility (1/GPa) = 0.02662755
#
# Stress axis : x y z
#
# Youngs Moduli (GPa) = 70.50334 37.12122 43.88667
#
# Poissons Ratio (x) = -0.09594 0.29534
# Poissons Ratio (y) = -0.18222 0.63615
# Poissons Ratio (z) = 0.47446 0.53809
#
# Static dielectric constant tensor:
#      x y z
#    x 1.696050 0.000000 0.011060 
#    y 0.000000 1.684680 0.000000 
#    z 0.011060 0.000000 1.675570 
# 
# From -- ./inp_files/131705.got.cif
#   From: 2010.05.17/outbox.cif.g08.bks.cpg/sg12_66_cif.got.tgz:131705.got - 2010.06.03 13:09:07.
