data_PCOD9220996
_publ_section_title
;
Structure prediction by ZEFSAII (Michael W. Deem and Ramdas Pophale) SiO2 
 PCOD9220996
Probable space group: C 2/M
;
_chemical_formula_sum "Si O2"
_cell_formula_units_Z 56
_cell_length_a 22.227250
_cell_length_b 14.843494
_cell_length_c 22.453402
_cell_angle_alpha 90.000000
_cell_angle_beta 22.298084
_cell_angle_gamma 90.000000
_cell_volume 2810.801793
_symmetry_space_group_name_H-M "C 2/M"
_symmetry_group_IT_number 12
_symmetry_cell_setting 'monoclinic'
loop_
_space_group_symop_operation_xyz
x,y,z
-x,y,-z
-x,-y,-z
x,-y,z
1/2+x,1/2+y,z
1/2-x,1/2+y,-z
1/2-x,1/2-y,-z
1/2+x,1/2-y,z
loop_
_atom_site_type_symbol
_atom_site_label
_atom_site_fract_x
_atom_site_fract_y
_atom_site_fract_z
Si Si1 0.330169 0.236443 0.687676
Si Si2 0.182569 0.171850 0.018052
Si Si3 0.079835 0.735233 0.822230
Si Si4 0.331070 0.896977 0.093896
Si Si5 0.429587 0.597534 0.762207
Si Si6 0.824941 0.246047 0.496307
Si Si7 0.063732 0.605918 0.305992
O O1 0.500000 0.248399 0.500000
O O2 0.190076 0.214513 0.769320
O O3 0.273770 0.329392 0.770186
O O4 0.353858 0.158672 0.714786
O O5 0.088202 0.110184 0.151056
O O6 0.063151 0.209756 0.077404
O O7 0.250000 0.250000 0.000000
O O8 0.327043 0.124251 0.851982
O O9 0.198110 0.712252 0.660137
O O10 0.999527 0.649926 0.928008
O O11 0.241875 0.899148 0.111715
O O12 0.338366 0.000000 0.108686
O O13 0.500937 0.500000 0.683084
O O14 0.530432 0.676993 0.641430
O O15 0.750000 0.250000 0.500000
O O16 0.897733 0.342276 0.447871
O O17 0.046715 0.500000 0.332107
#
# Coordination Sequence:
#
# PCOD9220996 Si02
#       7
#     8   8   8   8   8   8   8
#     4  12  24  46  68  95 136 180 222 280 335 391
#     4  12  20  43  69  96 131 175 216 275 344 392
#     4  12  23  40  72  95 135 176 221 271 339 395
#     4  11  24  43  71 101 131 174 224 272 333 408
#     4  11  22  40  67  97 132 172 217 269 336 404
#     4  12  23  43  67  97 137 176 215 278 335 395
#     4  12  26  46  69  97 133 184 230 274 336 402
#
# _framework density 19.923141000000001
#
# number of rings (size 3 to 8) (size 9 to 14) (size 15 to 20)
#    0.000    0.286    8.571    0.857    0.000    2.857 
#    0.000    2.143    0.000    0.000    0.000    0.000 
#    0.000    0.000    0.000    0.000    0.000    0.000 
#
# Total GULP energy -156446.544922 kJ/mol
# GULP energy per Si atom -5587.376604 kJ/mol
# Density = 1.987780 g / cm^3
# Si number density = 19.923141 Si / 1000 Ang^3
#
#
#
# Elastic Constant Matrix: (Units=GPa)
#
#
# Indices 1 2 3 4 5 6 
#
# 1 116.5577 42.5163 14.3129 -0.0008 -16.6596 0.0006
# 2 42.5163 147.2154 52.7758 -0.0025 1.5507 0.0027
# 3 14.3129 52.7758 114.5081 0.0004 15.0202 0.0011
# 4 -0.0008 -0.0025 0.0004 9.7082 -0.0004 -1.5005
# 5 -16.6596 1.5507 15.0202 -0.0004 45.2890 -0.0003
# 6 0.0006 0.0027 0.0011 -1.5005 -0.0003 18.3232
#
#
#
# Elastic Compliance Matrix: (Units=1/GPa)
#
#
# Indices 1 2 3 4 5 6 
#
# 1 0.010247 -0.002819 -0.000511 0.000000 0.004035 0.000000
# 2 -0.002819 0.008957 -0.003763 0.000002 -0.000095 -0.000001
# 3 -0.000511 -0.003763 0.011018 -0.000002 -0.003713 0.000000
# 4 0.000000 0.000002 -0.000002 0.104326 0.000002 0.008543
# 5 0.004035 -0.000095 -0.003713 0.000002 0.024800 0.000001
# 6 0.000000 -0.000001 0.000000 0.008543 0.000001 0.055275
#
#
# Mechanical properties :
#
#
# Convention : Reuss Voigt Hill
#
# Bulk Modulus (GPa) = 62.35827 66.38794 64.37310
# Shear Modulus (GPa) = 21.35337 32.57584 26.96460
#
# Velocity S-wave (km/s) = 3.27737 4.04799 3.68289
# Velocity P-wave (km/s) = 6.75936 7.43254 7.10393
#
# Compressibility (1/GPa) = 0.01603637
#
# Stress axis : x y z
#
# Youngs Moduli (GPa) = 97.58813 111.64505 90.75672
#
# Poissons Ratio (x) = 0.31469 0.04638
# Poissons Ratio (y) = 0.27507 0.34155
# Poissons Ratio (z) = 0.04987 0.42016
#
# Static dielectric constant tensor:
#      x y z
#    x 1.744750 0.000000 -0.018610 
#    y 0.000000 1.710030 0.000000 
#    z -0.018610 0.000000 1.700310 
# 
# From -- ./inp_files/349706.got.cif
#   From: 2010.05.17/outbox.cif.g08.bks.cpg/sg12_175_cif.got.tgz:349706.got - 2010.06.03 13:09:07.
