data_PCOD9220544
_publ_section_title
;
Structure prediction by ZEFSAII (Michael W. Deem and Ramdas Pophale) SiO2 
 PCOD9220544
Probable space group: C 2/M
;
_chemical_formula_sum "Si O2"
_cell_formula_units_Z 40
_cell_length_a 9.246716
_cell_length_b 23.419361
_cell_length_c 16.070331
_cell_angle_alpha 90.000000
_cell_angle_beta 28.918587
_cell_angle_gamma 90.000000
_cell_volume 1682.842475
_symmetry_space_group_name_H-M "C 2/M"
_symmetry_group_IT_number 12
_symmetry_cell_setting 'monoclinic'
loop_
_space_group_symop_operation_xyz
x,y,z
-x,y,-z
-x,-y,-z
x,-y,z
1/2+x,1/2+y,z
1/2-x,1/2+y,-z
1/2-x,1/2-y,-z
1/2+x,1/2-y,z
loop_
_atom_site_type_symbol
_atom_site_label
_atom_site_fract_x
_atom_site_fract_y
_atom_site_fract_z
Si Si1 0.276514 0.934749 0.686010
Si Si2 0.128263 0.717630 0.641019
Si Si3 0.888712 0.397242 0.968824
Si Si4 0.083948 0.268679 0.844506
Si Si5 0.840565 0.583972 0.343898
O O1 0.500000 0.914374 0.500000
O O2 0.463836 0.938175 0.677385
O O3 0.183007 0.000000 0.711611
O O4 0.973750 0.897472 0.846332
O O5 0.250000 0.750000 0.500000
O O6 0.184471 0.650633 0.617089
O O7 0.224275 0.739144 0.682539
O O8 0.775832 0.731361 0.810108
O O9 0.056933 0.335489 0.881150
O O10 0.988343 0.423741 0.830204
O O11 0.000000 0.424169 0.000000
O O12 0.750000 0.250000 0.000000
O O13 0.500000 0.563889 0.500000
#
# Coordination Sequence:
#
# PCOD9220544 Si02
#       5
#     8   8   8   8   8
#     4  11  26  47  71  99 130 170 224 285 347 410
#     4  11  22  38  59  90 129 170 214 259 312 379
#     4  11  23  42  67  97 134 177 220 274 340 401
#     4  11  22  36  57  88 126 168 213 258 311 377
#     4  11  24  42  67 101 137 178 227 276 334 401
#
# _framework density 23.769307000000001
#
# number of rings (size 3 to 8) (size 9 to 14) (size 15 to 20)
#    0.000    1.000    0.000    7.800    0.000    8.800 
#    0.000    0.000    0.000    0.000    0.000    0.000 
#    0.000    0.000    0.000    0.000    0.000    0.000 
#
# Total GULP energy -111734.254804 kJ/mol
# GULP energy per Si atom -5586.712740 kJ/mol
# Density = 2.371521 g / cm^3
# Si number density = 23.769307 Si / 1000 Ang^3
#
#
#
# Elastic Constant Matrix: (Units=GPa)
#
#
# Indices 1 2 3 4 5 6 
#
# 1 201.8623 24.5443 80.7583 0.0027 9.8682 0.0025
# 2 24.5443 66.0164 15.8884 0.0007 -3.7832 0.0016
# 3 80.7583 15.8884 190.0508 -0.0753 18.9378 -0.0378
# 4 0.0027 0.0007 -0.0753 34.0266 0.0126 11.8924
# 5 9.8682 -3.7832 18.9378 0.0126 67.5510 0.0020
# 6 0.0025 0.0016 -0.0378 11.8924 0.0020 10.9439
#
#
#
# Elastic Compliance Matrix: (Units=1/GPa)
#
#
# Indices 1 2 3 4 5 6 
#
# 1 0.006154 -0.001719 -0.002441 -0.000004 -0.000311 -0.000005
# 2 -0.001719 0.016044 -0.000746 -0.000001 0.001359 -0.000004
# 3 -0.002441 -0.000746 0.006512 0.000011 -0.001511 0.000011
# 4 -0.000004 -0.000001 0.000011 0.047386 -0.000010 -0.051493
# 5 -0.000311 0.001359 -0.001511 -0.000010 0.015349 0.000003
# 6 -0.000005 -0.000004 0.000011 -0.051493 0.000003 0.147330
#
#
# Mechanical properties :
#
#
# Convention : Reuss Voigt Hill
#
# Bulk Modulus (GPa) = 52.91207 77.81240 65.36224
# Shear Modulus (GPa) = 19.61663 44.95354 32.28508
#
# Velocity S-wave (km/s) = 2.87591 4.35356 3.68947
# Velocity P-wave (km/s) = 5.77380 7.62095 6.76076
#
# Compressibility (1/GPa) = 0.01889928
#
# Stress axis : x y z
#
# Youngs Moduli (GPa) = 162.48493 62.32770 153.56829
#
# Poissons Ratio (x) = 0.10712 0.37479
# Poissons Ratio (y) = 0.27925 0.11463
# Poissons Ratio (z) = 0.39655 0.04652
#
# Static dielectric constant tensor:
#      x y z
#    x 1.814390 -0.000230 0.049620 
#    y -0.000230 1.625850 -0.000030 
#    z 0.049620 -0.000030 1.949080 
# 
# From -- ./inp_files/201121.got.cif
#   From: 2010.05.17/outbox.cif.g08.bks.cpg/sg12_101_cif.got.tgz:201121.got - 2010.06.03 13:09:07.
