data_PCOD9220990
_publ_section_title
;
Structure prediction by ZEFSAII (Michael W. Deem and Ramdas Pophale) SiO2 
 PCOD9220990
Probable space group: C 2/M
;
_chemical_formula_sum "Si O2"
_cell_formula_units_Z 40
_cell_length_a 18.989780
_cell_length_b 17.086927
_cell_length_c 12.574523
_cell_angle_alpha 90.000000
_cell_angle_beta 152.815928
_cell_angle_gamma 90.000000
_cell_volume 1864.016142
_symmetry_space_group_name_H-M "C 2/M"
_symmetry_group_IT_number 12
_symmetry_cell_setting 'monoclinic'
loop_
_space_group_symop_operation_xyz
x,y,z
-x,y,-z
-x,-y,-z
x,-y,z
1/2+x,1/2+y,z
1/2-x,1/2+y,-z
1/2-x,1/2-y,-z
1/2+x,1/2-y,z
loop_
_atom_site_type_symbol
_atom_site_label
_atom_site_fract_x
_atom_site_fract_y
_atom_site_fract_z
Si Si1 0.126192 0.407235 0.509331
Si Si2 0.328136 0.090177 0.797715
Si Si3 0.199001 0.349728 0.009500
Si Si4 0.330075 0.334421 0.603027
Si Si5 0.682829 0.670187 0.048042
O O1 0.096234 0.500000 0.478140
O O2 0.246073 0.389783 0.575289
O O3 0.200116 0.372594 0.715752
O O4 0.971010 0.361480 0.268884
O O5 0.205298 0.134983 0.562247
O O6 0.327301 0.000000 0.764069
O O7 0.500000 0.121547 0.000000
O O8 0.296011 0.098130 0.878949
O O9 0.311070 0.367073 0.061706
O O10 0.224346 0.261139 0.084327
O O11 0.250000 0.250000 0.500000
O O12 0.511685 0.331402 0.865279
#
# Coordination Sequence:
#
# PCOD9220990 Si02
#       5
#     8   8   8   8   8
#     4  12  25  45  72 102 138 181 226 279 344 409
#     4  11  22  40  67  94 128 174 224 269 326 402
#     4  11  24  45  69  97 135 181 226 275 336 409
#     4  12  23  43  70 100 133 180 225 281 336 404
#     4  11  26  43  68 101 135 175 228 279 337 403
#
# _framework density 21.459040999999999
#
# number of rings (size 3 to 8) (size 9 to 14) (size 15 to 20)
#    0.000    0.600    4.000    3.600    0.000    5.600 
#    0.000    1.000    0.000    0.000    0.000    0.000 
#    0.000    0.000    0.000    0.000    0.000    0.000 
#
# Total GULP energy -111908.538512 kJ/mol
# GULP energy per Si atom -5595.426926 kJ/mol
# Density = 2.141020 g / cm^3
# Si number density = 21.459041 Si / 1000 Ang^3
#
#
#
# Elastic Constant Matrix: (Units=GPa)
#
#
# Indices 1 2 3 4 5 6 
#
# 1 96.6761 11.4472 17.9503 0.0000 -7.6763 0.0000
# 2 11.4472 72.8503 24.8311 0.0000 -17.5993 0.0000
# 3 17.9503 24.8311 51.3983 0.0000 -24.4031 0.0000
# 4 0.0000 0.0000 0.0000 12.8961 0.0000 9.0913
# 5 -7.6763 -17.5993 -24.4031 0.0000 36.0577 0.0000
# 6 0.0000 0.0000 0.0000 9.0913 0.0000 -28.6997
#
#
#
# Elastic Compliance Matrix: (Units=1/GPa)
#
#
# Indices 1 2 3 4 5 6 
#
# 1 0.011083 -0.000555 -0.003847 0.000000 -0.000515 0.000000
# 2 -0.000555 0.016842 -0.006035 0.000000 0.004018 0.000000
# 3 -0.003847 -0.006035 0.032310 0.000000 0.018102 0.000000
# 4 0.000000 0.000000 0.000000 0.063388 0.000000 0.020079
# 5 -0.000515 0.004018 0.018102 0.000000 0.041836 0.000000
# 6 0.000000 0.000000 0.000000 0.020079 0.000000 -0.028483
#
#
# Mechanical properties :
#
#
# Convention : Reuss Voigt Hill
#
# Bulk Modulus (GPa) = 25.40628 36.59798 31.00213
# Shear Modulus (GPa) = 29.24523 15.16390 22.20456
#
# Velocity S-wave (km/s) = 3.69567 2.66116 3.22023
# Velocity P-wave (km/s) = 5.48414 5.15114 5.32024
#
# Compressibility (1/GPa) = 0.03936034
#
# Stress axis : x y z
#
# Youngs Moduli (GPa) = 90.22901 59.37681 30.95059
#
# Poissons Ratio (x) = 0.03293 0.11907
# Poissons Ratio (y) = 0.05004 0.18679
# Poissons Ratio (z) = 0.34712 0.35835
#
# Static dielectric constant tensor:
#      x y z
#    x 1.801210 0.000000 0.014100 
#    y 0.000000 1.752330 0.000000 
#    z 0.014100 0.000000 1.760970 
# 
# From -- ./inp_files/47156.got.cif
#   From: 2010.05.17/outbox.cif.g08.bks.cpg/sg12_24_cif.got.tgz:47156.got - 2010.06.03 13:09:07.
