data_PCOD9220449
_publ_section_title
;
Structure prediction by ZEFSAII (Michael W. Deem and Ramdas Pophale) SiO2 
 PCOD9220449
Probable space group: C 2/M
;
_chemical_formula_sum "Si O2"
_cell_formula_units_Z 40
_cell_length_a 11.045727
_cell_length_b 32.494459
_cell_length_c 5.091530
_cell_angle_alpha 90.000000
_cell_angle_beta 79.261161
_cell_angle_gamma 90.000000
_cell_volume 1795.471885
_symmetry_space_group_name_H-M "C 2/M"
_symmetry_group_IT_number 12
_symmetry_cell_setting 'monoclinic'
loop_
_space_group_symop_operation_xyz
x,y,z
-x,y,-z
-x,-y,-z
x,-y,z
1/2+x,1/2+y,z
1/2-x,1/2+y,-z
1/2-x,1/2-y,-z
1/2+x,1/2-y,z
loop_
_atom_site_type_symbol
_atom_site_label
_atom_site_fract_x
_atom_site_fract_y
_atom_site_fract_z
Si Si1 0.000000 0.433731 0.000000
Si Si2 0.707938 0.160952 0.453842
Si Si3 0.918728 0.906930 0.274450
Si Si4 0.826203 0.000000 0.301964
Si Si5 0.848535 0.714137 0.034413
Si Si6 0.500000 0.894185 0.500000
Si Si7 0.685592 0.000000 0.853676
O O1 0.896281 0.460909 0.183204
O O2 0.066161 0.414590 0.225599
O O3 0.817835 0.128586 0.368274
O O4 0.666618 0.181070 0.195147
O O5 0.599116 0.132652 0.609243
O O6 0.709555 0.196341 0.671883
O O7 0.000000 0.910038 0.500000
O O8 0.880191 0.954404 0.225688
O O9 0.000000 0.892012 0.000000
O O10 0.803429 0.000000 0.623649
O O11 0.709700 0.000000 0.152717
O O12 0.750000 0.750000 0.000000
O O13 0.000000 0.723201 0.000000
#
# Coordination Sequence:
#
# PCOD9220449 Si02
#       7
#     4   8   8   4   8   4   4
#     4  11  22  34  58  94 132 180 226 306 340 432
#     4  12  25  46  73 107 143 187 239 295 365 439
#     4  12  26  45  70 102 144 195 255 305 367 428
#     4  12  24  44  64  93 142 194 248 309 362 426
#     4  12  26  49  77 113 149 192 238 298 373 453
#     4  12  22  41  68  96 134 174 230 280 368 415
#     4  11  22  37  56  91 132 177 248 284 374 402
#
# _framework density 22.278267
#
# number of rings (size 3 to 8) (size 9 to 14) (size 15 to 20)
#    0.000    0.200    2.000    8.400    0.000    4.000 
#    0.000    0.000    0.000    0.000    0.000    0.000 
#    0.000    0.000    0.000    0.000    0.000    0.000 
#
# Total GULP energy -111401.816828 kJ/mol
# GULP energy per Si atom -5570.090841 kJ/mol
# Density = 2.222756 g / cm^3
# Si number density = 22.278267 Si / 1000 Ang^3
#
#
#
# Elastic Constant Matrix: (Units=GPa)
#
#
# Indices 1 2 3 4 5 6 
#
# 1 112.5202 63.8053 19.4867 0.0000 -4.8281 0.0000
# 2 63.8053 93.5120 25.3980 0.0000 -11.1733 0.0000
# 3 19.4867 25.3980 101.7477 0.0000 1.4739 0.0000
# 4 0.0000 0.0000 0.0000 21.1251 0.0000 11.7912
# 5 -4.8281 -11.1733 1.4739 0.0000 44.9975 0.0000
# 6 0.0000 0.0000 0.0000 11.7912 0.0000 56.0519
#
#
#
# Elastic Compliance Matrix: (Units=1/GPa)
#
#
# Indices 1 2 3 4 5 6 
#
# 1 0.014542 -0.009952 -0.000288 0.000000 -0.000901 0.000000
# 2 -0.009952 0.018685 -0.002811 0.000000 0.003664 0.000000
# 3 -0.000288 -0.002811 0.010601 0.000000 -0.001076 0.000000
# 4 0.000000 0.000000 0.000000 0.053635 0.000000 -0.011283
# 5 -0.000901 0.003664 -0.001076 0.000000 0.023072 0.000000
# 6 0.000000 0.000000 0.000000 -0.011283 0.000000 0.020214
#
#
# Mechanical properties :
#
#
# Convention : Reuss Voigt Hill
#
# Bulk Modulus (GPa) = 56.41397 58.35112 57.38254
# Shear Modulus (GPa) = 28.94216 37.70755 33.32486
#
# Velocity S-wave (km/s) = 3.60824 4.11855 3.87181
# Velocity P-wave (km/s) = 6.53732 6.99038 6.76764
#
# Compressibility (1/GPa) = 0.01772611
#
# Stress axis : x y z
#
# Youngs Moduli (GPa) = 68.76853 53.51794 94.33330
#
# Poissons Ratio (x) = 0.53258 0.02716
# Poissons Ratio (y) = 0.68435 0.26520
# Poissons Ratio (z) = 0.01980 0.15046
#
# Static dielectric constant tensor:
#      x y z
#    x 2.268630 0.000000 1.190930 
#    y 0.000000 1.913780 0.000000 
#    z 1.190930 0.000000 5.186810 
# 
# From -- ./inp_files/8388.got.cif
#   From: 2010.05.17/outbox.cif.g08.bks.cpg/sg12_5_cif.got.tgz:8388.got - 2010.06.03 13:09:07.
