data_PCOD9220735
_publ_section_title
;
Structure prediction by ZEFSAII (Michael W. Deem and Ramdas Pophale) SiO2 
 PCOD9220735
Probable space group: C 2/M
;
_chemical_formula_sum "Si O2"
_cell_formula_units_Z 34
_cell_length_a 5.169008
_cell_length_b 24.429520
_cell_length_c 11.378471
_cell_angle_alpha 90.000000
_cell_angle_beta 93.840410
_cell_angle_gamma 90.000000
_cell_volume 1433.605739
_symmetry_space_group_name_H-M "C 2/M"
_symmetry_group_IT_number 12
_symmetry_cell_setting 'monoclinic'
loop_
_space_group_symop_operation_xyz
x,y,z
-x,y,-z
-x,-y,-z
x,-y,z
1/2+x,1/2+y,z
1/2-x,1/2+y,-z
1/2-x,1/2-y,-z
1/2+x,1/2-y,z
loop_
_atom_site_type_symbol
_atom_site_label
_atom_site_fract_x
_atom_site_fract_y
_atom_site_fract_z
Si Si1 0.791091 0.783339 0.342371
Si Si2 0.760465 0.592005 0.575908
Si Si3 0.771338 0.178964 0.076443
Si Si4 0.782762 0.560831 0.841626
Si Si5 0.000000 0.500000 0.000000
O O1 0.577394 0.739347 0.374231
O O2 0.742047 0.842779 0.396352
O O3 0.758194 0.790596 0.200601
O O4 0.500000 0.577688 0.500000
O O5 0.773551 0.562951 0.702438
O O6 0.000000 0.578823 0.500000
O O7 0.834175 0.116170 0.115009
O O8 0.500000 0.179482 0.000000
O O9 0.000000 0.199579 0.000000
O O10 0.701352 0.500000 0.892678
O O11 0.069080 0.550559 0.902802
#
# Coordination Sequence:
#
# PCOD9220735 Si02
#       5
#     8   8   8   8   2
#     4  11  24  41  62  92 123 166 216 262 319 377
#     4  11  25  44  66  95 128 168 215 266 315 371
#     4  11  22  38  61  91 130 167 207 260 315 379
#     4   9  20  41  68  96 131 169 213 255 316 383
#     4   8  16  44  66 100 126 176 202 258 312 386
#
# _framework density 23.716422999999999
#
# number of rings (size 3 to 8) (size 9 to 14) (size 15 to 20)
#    0.706    0.941    1.176    2.824    0.000   12.706 
#    0.000    2.353    0.000    0.000    0.000    0.000 
#    0.000    0.000    0.000    0.000    0.000    0.000 
#
# Total GULP energy -94812.756942 kJ/mol
# GULP energy per Si atom -5577.220997 kJ/mol
# Density = 2.366244 g / cm^3
# Si number density = 23.716423 Si / 1000 Ang^3
#
#
#
# Elastic Constant Matrix: (Units=GPa)
#
#
# Indices 1 2 3 4 5 6 
#
# 1 124.5464 0.5368 55.9038 0.0000 2.6530 0.0000
# 2 0.5368 114.5265 22.3946 0.0000 -0.1454 0.0000
# 3 55.9038 22.3946 194.7009 0.0000 13.9355 0.0000
# 4 0.0000 0.0000 0.0000 51.2423 0.0000 25.7718
# 5 2.6530 -0.1454 13.9355 0.0000 30.1732 0.0000
# 6 0.0000 0.0000 0.0000 25.7718 0.0000 25.5407
#
#
#
# Elastic Compliance Matrix: (Units=1/GPa)
#
#
# Indices 1 2 3 4 5 6 
#
# 1 0.009250 0.000494 -0.002745 0.000000 0.000457 0.000000
# 2 0.000494 0.008967 -0.001213 0.000000 0.000560 0.000000
# 3 -0.002745 -0.001213 0.006254 0.000000 -0.002653 0.000000
# 4 0.000000 0.000000 0.000000 0.039624 0.000000 -0.039982
# 5 0.000457 0.000560 -0.002653 0.000000 0.034330 0.000000
# 6 0.000000 0.000000 0.000000 -0.039982 0.000000 0.079497
#
#
# Mechanical properties :
#
#
# Convention : Reuss Voigt Hill
#
# Bulk Modulus (GPa) = 57.00839 65.71602 61.36221
# Shear Modulus (GPa) = 26.21947 45.05383 35.63665
#
# Velocity S-wave (km/s) = 3.32857 4.36327 3.88056
# Velocity P-wave (km/s) = 6.23396 7.29064 6.78291
#
# Compressibility (1/GPa) = 0.01754128
#
# Stress axis : x y z
#
# Youngs Moduli (GPa) = 108.11360 111.51681 159.90360
#
# Poissons Ratio (x) = -0.05509 0.43899
# Poissons Ratio (y) = -0.05341 0.19402
# Poissons Ratio (z) = 0.29681 0.13531
#
# Static dielectric constant tensor:
#      x y z
#    x 1.872710 0.000000 0.045060 
#    y 0.000000 1.907510 0.000000 
#    z 0.045060 0.000000 1.984440 
# 
# From -- ./inp_files/115024.got.cif
#   From: 2010.05.17/outbox.cif.g08.bks.cpg/sg12_58_cif.got.tgz:115024.got - 2010.06.03 13:09:07.
