data_PCOD9220625
_publ_section_title
;
Structure prediction by ZEFSAII (Michael W. Deem and Ramdas Pophale) SiO2 
 PCOD9220625
Probable space group: C 2/M
;
_chemical_formula_sum "Si O2"
_cell_formula_units_Z 56
_cell_length_a 24.229157
_cell_length_b 8.629411
_cell_length_c 15.538443
_cell_angle_alpha 90.000000
_cell_angle_beta 115.912248
_cell_angle_gamma 90.000000
_cell_volume 2922.206675
_symmetry_space_group_name_H-M "C 2/M"
_symmetry_group_IT_number 12
_symmetry_cell_setting 'monoclinic'
loop_
_space_group_symop_operation_xyz
x,y,z
-x,y,-z
-x,-y,-z
x,-y,z
1/2+x,1/2+y,z
1/2-x,1/2+y,-z
1/2-x,1/2-y,-z
1/2+x,1/2-y,z
loop_
_atom_site_type_symbol
_atom_site_label
_atom_site_fract_x
_atom_site_fract_y
_atom_site_fract_z
Si Si1 0.697091 0.684347 0.401754
Si Si2 0.721791 0.184001 0.229184
Si Si3 0.100392 0.812510 0.076681
Si Si4 0.098615 0.684471 0.457297
Si Si5 0.004832 0.812044 0.865624
Si Si6 0.645073 0.185174 0.679088
Si Si7 0.975263 0.814096 0.316746
O O1 0.702875 0.500000 0.398679
O O2 0.750000 0.750000 0.500000
O O3 0.704491 0.756998 0.312983
O O4 0.633373 0.729469 0.403614
O O5 0.666941 0.239669 0.130526
O O6 0.787537 0.256307 0.251344
O O7 0.726507 0.000000 0.232586
O O8 0.057548 0.764031 0.128511
O O9 0.105422 0.000000 0.082010
O O10 0.061781 0.768020 0.965675
O O11 0.102986 0.500000 0.447886
O O12 0.131643 0.723991 0.569657
O O13 0.028298 0.737456 0.410337
O O14 0.012568 0.761166 0.773194
O O15 0.003716 0.000000 0.864341
O O16 0.591416 0.262448 0.697661
O O17 0.641652 0.000000 0.684973
O O18 0.980566 0.000000 0.324766
#
# Coordination Sequence:
#
# PCOD9220625 Si02
#       7
#     8   8   8   8   8   8   8
#     4  12  23  37  58  85 117 152 190 235 287 340
#     4  12  24  38  58  87 120 153 193 238 294 350
#     4   9  17  36  64  89 116 150 190 232 288 351
#     4  11  23  39  59  84 115 154 200 243 289 343
#     4   8  17  35  61  90 116 148 188 236 288 348
#     4  11  24  41  58  78 113 159 203 243 287 342
#     4  11  22  37  59  87 118 152 196 244 294 346
#
# _framework density 19.163599999999999
#
# number of rings (size 3 to 8) (size 9 to 14) (size 15 to 20)
#    0.000    1.429    1.429    6.000    0.000    4.571 
#    0.000    4.286    0.000    0.000    0.000    0.000 
#    0.000    0.000    0.000    0.000    0.000    0.000 
#
# Total GULP energy -156563.466919 kJ/mol
# GULP energy per Si atom -5591.552390 kJ/mol
# Density = 1.911998 g / cm^3
# Si number density = 19.163600 Si / 1000 Ang^3
#
#
#
# Elastic Constant Matrix: (Units=GPa)
#
#
# Indices 1 2 3 4 5 6 
#
# 1 81.3134 0.8005 22.8532 0.0000 25.4273 0.0000
# 2 0.8005 42.8006 12.9589 0.0000 2.2321 0.0000
# 3 22.8532 12.9589 51.5930 0.0000 24.8908 0.0000
# 4 0.0000 0.0000 0.0000 21.9788 0.0000 4.9624
# 5 25.4273 2.2321 24.8908 0.0000 32.6450 0.0000
# 6 0.0000 0.0000 0.0000 4.9624 0.0000 33.8824
#
#
#
# Elastic Compliance Matrix: (Units=1/GPa)
#
#
# Indices 1 2 3 4 5 6 
#
# 1 0.016387 0.000902 -0.002053 0.000000 -0.011261 0.000000
# 2 0.000902 0.025848 -0.009017 0.000000 0.004405 0.000000
# 3 -0.002053 -0.009017 0.033992 0.000000 -0.023702 0.000000
# 4 0.000000 0.000000 0.000000 0.047054 0.000000 -0.006892
# 5 -0.011261 0.004405 -0.023702 0.000000 0.057175 0.000000
# 6 0.000000 0.000000 0.000000 -0.006892 0.000000 0.030523
#
#
# Mechanical properties :
#
#
# Convention : Reuss Voigt Hill
#
# Bulk Modulus (GPa) = 17.89185 27.65911 22.77548
# Shear Modulus (GPa) = 20.00441 26.97421 23.48931
#
# Velocity S-wave (km/s) = 3.23441 3.75584 3.50483
# Velocity P-wave (km/s) = 4.82755 5.76827 5.31874
#
# Compressibility (1/GPa) = 0.05589138
#
# Stress axis : x y z
#
# Youngs Moduli (GPa) = 61.02220 38.68815 29.41899
#
# Poissons Ratio (x) = -0.03491 0.06039
# Poissons Ratio (y) = -0.05506 0.26528
# Poissons Ratio (z) = 0.12526 0.34886
#
# Static dielectric constant tensor:
#      x y z
#    x 1.654140 0.000000 -0.000470 
#    y 0.000000 1.640530 0.000000 
#    z -0.000470 0.000000 1.660630 
# 
# From -- ./inp_files/238973.got.cif
#   From: 2010.05.17/outbox.cif.g08.bks.cpg/sg12_120_cif.got.tgz:238973.got - 2010.06.03 13:09:07.
