data_PCOD9220390
_publ_section_title
;
Structure prediction by ZEFSAII (Michael W. Deem and Ramdas Pophale) SiO2 
 PCOD9220390
Probable space group: C 2/M
;
_chemical_formula_sum "Si O2"
_cell_formula_units_Z 50
_cell_length_a 9.995853
_cell_length_b 30.212265
_cell_length_c 11.774524
_cell_angle_alpha 90.000000
_cell_angle_beta 61.819690
_cell_angle_gamma 90.000000
_cell_volume 3134.382324
_symmetry_space_group_name_H-M "C 2/M"
_symmetry_group_IT_number 12
_symmetry_cell_setting 'monoclinic'
loop_
_space_group_symop_operation_xyz
x,y,z
-x,y,-z
-x,-y,-z
x,-y,z
1/2+x,1/2+y,z
1/2-x,1/2+y,-z
1/2-x,1/2-y,-z
1/2+x,1/2-y,z
loop_
_atom_site_type_symbol
_atom_site_label
_atom_site_fract_x
_atom_site_fract_y
_atom_site_fract_z
Si Si1 0.137680 0.339908 0.682894
Si Si2 0.736414 0.295908 0.574625
Si Si3 0.166562 0.286926 0.205701
Si Si4 0.116074 0.187657 0.234907
Si Si5 0.656766 0.362874 0.989862
Si Si6 0.500000 0.000000 0.000000
Si Si7 0.467392 0.908999 0.889274
O O1 0.183890 0.333403 0.533766
O O2 0.282165 0.326449 0.699608
O O3 0.998196 0.306131 0.761100
O O4 0.075138 0.386750 0.752458
O O5 0.750000 0.250000 0.500000
O O6 0.812827 0.290296 0.666620
O O7 0.559304 0.306341 0.662145
O O8 0.175663 0.235657 0.170058
O O9 0.289696 0.318986 0.099661
O O10 0.132286 0.152239 0.128691
O O11 0.794403 0.397430 0.928112
O O12 0.500000 0.379311 0.000000
O O13 0.506176 0.960241 0.094644
O O14 0.500000 0.886142 0.000000
#
# Coordination Sequence:
#
# PCOD9220390 Si02
#       7
#     8   8   8   8   8   2   8
#     4  11  22  32  52  77 105 140 188 230 263 304
#     4  12  22  34  48  70 109 157 197 226 252 311
#     4  11  22  34  49  69 107 155 196 231 254 304
#     4  12  20  35  49  69 106 155 198 230 255 302
#     4  11  22  36  50  80 113 138 180 233 286 310
#     4   8  16  40  70  88  96 128 170 226 304 352
#     4   9  19  38  61  82 105 124 172 231 276 347
#
# _framework density 15.952106000000001
#
# number of rings (size 3 to 8) (size 9 to 14) (size 15 to 20)
#    0.480    0.640    6.400    1.440    0.000    0.000 
#    0.000    0.400    0.000    0.000    0.000   17.920 
#    0.000    0.000    0.000    0.000    0.000    0.000 
#
# Total GULP energy -139209.052458 kJ/mol
# GULP energy per Si atom -5568.362098 kJ/mol
# Density = 1.591580 g / cm^3
# Si number density = 15.952106 Si / 1000 Ang^3
#
#
#
# Elastic Constant Matrix: (Units=GPa)
#
#
# Indices 1 2 3 4 5 6 
#
# 1 73.3489 13.3350 3.2404 0.0000 1.5310 0.0000
# 2 13.3350 84.7522 20.5523 0.0000 -5.4869 0.0000
# 3 3.2404 20.5523 59.2964 0.0000 1.9275 0.0000
# 4 0.0000 0.0000 0.0000 15.4969 0.0000 8.0703
# 5 1.5310 -5.4869 1.9275 0.0000 26.5370 0.0000
# 6 0.0000 0.0000 0.0000 8.0703 0.0000 8.9128
#
#
#
# Elastic Compliance Matrix: (Units=1/GPa)
#
#
# Indices 1 2 3 4 5 6 
#
# 1 0.014079 -0.002318 0.000076 0.000000 -0.001297 0.000000
# 2 -0.002318 0.013505 -0.004660 0.000000 0.003265 0.000000
# 3 0.000076 -0.004660 0.018551 0.000000 -0.002315 0.000000
# 4 0.000000 0.000000 0.000000 0.122109 0.000000 -0.110567
# 5 -0.001297 0.003265 -0.002315 0.000000 0.038601 0.000000
# 6 0.000000 0.000000 0.000000 -0.110567 0.000000 0.212314
#
#
# Mechanical properties :
#
#
# Convention : Reuss Voigt Hill
#
# Bulk Modulus (GPa) = 30.93023 32.40586 31.66805
# Shear Modulus (GPa) = 11.26788 22.20733 16.73760
#
# Velocity S-wave (km/s) = 2.66062 3.73517 3.24271
# Velocity P-wave (km/s) = 5.37309 6.24184 5.82368
#
# Compressibility (1/GPa) = 0.03233083
#
# Stress axis : x y z
#
# Youngs Moduli (GPa) = 71.03022 74.04528 53.90591
#
# Poissons Ratio (x) = 0.17160 -0.00410
# Poissons Ratio (y) = 0.16462 0.25122
# Poissons Ratio (z) = -0.00540 0.34508
#
# Static dielectric constant tensor:
#      x y z
#    x 1.549620 0.000000 0.000270 
#    y 0.000000 1.500170 0.000000 
#    z 0.000270 0.000000 1.555240 
# 
# From -- ./inp_files/125134.got.cif
#   From: 2010.05.17/outbox.cif.g08.bks.cpg/sg12_63_cif.got.tgz:125134.got - 2010.06.03 13:09:07.
