data_PCOD9220921
_publ_section_title
;
Structure prediction by ZEFSAII (Michael W. Deem and Ramdas Pophale) SiO2 
 PCOD9220921
Probable space group: C 2/M
;
_chemical_formula_sum "Si O2"
_cell_formula_units_Z 32
_cell_length_a 9.477734
_cell_length_b 23.579904
_cell_length_c 14.330076
_cell_angle_alpha 90.000000
_cell_angle_beta 151.213006
_cell_angle_gamma 90.000000
_cell_volume 1542.200026
_symmetry_space_group_name_H-M "C 2/M"
_symmetry_group_IT_number 12
_symmetry_cell_setting 'monoclinic'
loop_
_space_group_symop_operation_xyz
x,y,z
-x,y,-z
-x,-y,-z
x,-y,z
1/2+x,1/2+y,z
1/2-x,1/2+y,-z
1/2-x,1/2-y,-z
1/2+x,1/2-y,z
loop_
_atom_site_type_symbol
_atom_site_label
_atom_site_fract_x
_atom_site_fract_y
_atom_site_fract_z
Si Si1 0.733254 0.694903 0.555384
Si Si2 0.762477 0.122716 0.943780
Si Si3 0.059800 0.000000 0.369276
Si Si4 0.169476 0.118942 0.346515
Si Si5 0.040771 0.500000 0.213076
O O1 0.500000 0.706028 0.500000
O O2 0.750000 0.750000 0.500000
O O3 0.628921 0.646951 0.423321
O O4 0.023655 0.668593 0.771434
O O5 0.628354 0.060072 0.883955
O O6 0.000000 0.116381 0.000000
O O7 0.937463 0.141391 0.137290
O O8 0.113108 0.053378 0.334242
O O9 0.282059 0.000000 0.586091
O O10 0.749419 0.000000 0.242956
O O11 0.500000 0.128035 0.500000
#
# Coordination Sequence:
#
# PCOD9220921 Si02
#       5
#     8   8   4   8   4
#     4  12  28  50  74 103 141 184 244 301 355 421
#     4  12  25  45  76 106 147 189 239 291 359 430
#     4  11  22  39  70 104 156 187 229 292 356 422
#     4  12  24  45  72 107 147 192 236 292 358 423
#     4  11  22  41  68 110 148 191 233 286 356 434
#
# _framework density 20.749578
#
# number of rings (size 3 to 8) (size 9 to 14) (size 15 to 20)
#    0.000    0.250    5.000    3.750    0.000    6.000 
#    0.000    0.000    0.000    0.000    0.000    0.000 
#    0.000    0.000    0.000    0.000    0.000    0.000 
#
# Total GULP energy -89484.190401 kJ/mol
# GULP energy per Si atom -5592.761900 kJ/mol
# Density = 2.070235 g / cm^3
# Si number density = 20.749578 Si / 1000 Ang^3
#
#
#
# Elastic Constant Matrix: (Units=GPa)
#
#
# Indices 1 2 3 4 5 6 
#
# 1 127.1536 24.8462 63.8838 -0.0002 3.3478 0.0001
# 2 24.8462 113.6647 51.9093 0.0000 5.3373 0.0000
# 3 63.8838 51.9093 167.4109 0.0001 -19.0203 -0.0001
# 4 -0.0002 0.0000 0.0001 -19.8972 -0.0001 16.6127
# 5 3.3478 5.3373 -19.0203 -0.0001 47.1507 0.0001
# 6 0.0001 0.0000 -0.0001 16.6127 0.0001 37.7894
#
#
#
# Elastic Compliance Matrix: (Units=1/GPa)
#
#
# Indices 1 2 3 4 5 6 
#
# 1 0.009979 -0.000252 -0.003990 0.000000 -0.002290 0.000000
# 2 -0.000252 0.010559 -0.003471 0.000000 -0.002578 0.000000
# 3 -0.003990 -0.003471 0.009064 0.000000 0.004333 0.000000
# 4 0.000000 0.000000 0.000000 -0.036764 0.000000 0.016162
# 5 -0.002290 -0.002578 0.004333 0.000000 0.023411 0.000000
# 6 0.000000 0.000000 0.000000 0.016162 0.000000 0.019357
#
#
# Mechanical properties :
#
#
# Convention : Reuss Voigt Hill
#
# Bulk Modulus (GPa) = 70.53625 76.61197 73.57411
# Shear Modulus (GPa) = 89.67629 30.84791 60.26210
#
# Velocity S-wave (km/s) = 6.58120 3.85993 5.39496
# Velocity P-wave (km/s) = 9.58214 7.54107 8.62221
#
# Compressibility (1/GPa) = 0.01417711
#
# Stress axis : x y z
#
# Youngs Moduli (GPa) = 100.21520 94.70653 110.32242
#
# Poissons Ratio (x) = 0.02383 0.44018
# Poissons Ratio (y) = 0.02521 0.38291
# Poissons Ratio (z) = 0.39985 0.32871
#
# Static dielectric constant tensor:
#      x y z
#    x 1.691000 0.000000 -0.002500 
#    y 0.000000 1.981880 0.000000 
#    z -0.002500 0.000000 1.773000 
# 
# From -- ./inp_files/199039.got.cif
#   From: 2010.05.17/outbox.cif.g08.bks.cpg/sg12_100_cif.got.tgz:199039.got - 2010.06.03 13:09:07.
