data_PCOD9220409
_publ_section_title
;
Structure prediction by ZEFSAII (Michael W. Deem and Ramdas Pophale) SiO2 
 PCOD9220409
Probable space group: C 2/M
;
_chemical_formula_sum "Si O2"
_cell_formula_units_Z 64
_cell_length_a 22.967594
_cell_length_b 9.247362
_cell_length_c 23.324369
_cell_angle_alpha 90.000000
_cell_angle_beta 55.423508
_cell_angle_gamma 90.000000
_cell_volume 4078.851789
_symmetry_space_group_name_H-M "C 2/M"
_symmetry_group_IT_number 12
_symmetry_cell_setting 'monoclinic'
loop_
_space_group_symop_operation_xyz
x,y,z
-x,y,-z
-x,-y,-z
x,-y,z
1/2+x,1/2+y,z
1/2-x,1/2+y,-z
1/2-x,1/2-y,-z
1/2+x,1/2-y,z
loop_
_atom_site_type_symbol
_atom_site_label
_atom_site_fract_x
_atom_site_fract_y
_atom_site_fract_z
Si Si1 0.321800 0.826567 0.439777
Si Si2 0.736293 0.326746 0.258567
Si Si3 0.591068 0.325077 0.393571
Si Si4 0.430349 0.324800 0.462908
Si Si5 0.458431 0.666216 0.152613
Si Si6 0.060056 0.333258 0.016636
Si Si7 0.145541 0.329280 0.711082
Si Si8 0.838267 0.166759 0.119746
O O1 0.250000 0.750000 0.500000
O O2 0.384579 0.758344 0.442065
O O3 0.335228 0.797630 0.365051
O O4 0.317172 0.000000 0.449978
O O5 0.735642 0.500000 0.248890
O O6 0.658051 0.275387 0.319539
O O7 0.787536 0.301179 0.284703
O O8 0.771700 0.246884 0.185169
O O9 0.593227 0.500000 0.391885
O O10 0.513450 0.285556 0.414279
O O11 0.595523 0.285690 0.458274
O O12 0.423714 0.500000 0.460375
O O13 0.476841 0.500000 0.153241
O O14 0.524388 0.753902 0.090350
O O15 0.420395 0.739773 0.227747
O O16 0.398799 0.668729 0.135600
O O17 0.076173 0.500000 0.019841
O O18 0.126888 0.249907 0.952985
O O19 0.000000 0.331538 0.000000
O O20 0.129499 0.500000 0.725230
O O21 0.823397 0.000000 0.114571
#
# Coordination Sequence:
#
# PCOD9220409 Si02
#       8
#     8   8   8   8   8   8   8   8
#     4  11  22  34  48  67  91 119 150 186 226 266
#     4   9  15  26  43  61  82 113 150 181 213 259
#     4   8  15  29  50  69  87 115 149 183 222 270
#     4   9  17  32  51  69  88 114 149 186 224 267
#     4   9  16  25  38  56  80 110 143 179 217 255
#     4   9  15  23  36  53  76 110 147 177 208 252
#     4   9  18  30  43  60  85 116 149 182 216 260
#     4   9  16  24  34  54  83 111 140 177 218 256
#
# _framework density 15.69069
#
# number of rings (size 3 to 8) (size 9 to 14) (size 15 to 20)
#    0.000    2.875    0.000    3.000    0.000    7.500 
#    0.000    5.000    0.000    0.000    0.000    0.000 
#    0.000    1.000    0.000    3.000    0.000    5.000 
#
# Total GULP energy -178271.755475 kJ/mol
# GULP energy per Si atom -5570.992359 kJ/mol
# Density = 1.565498 g / cm^3
# Si number density = 15.690690 Si / 1000 Ang^3
#
#
#
# Elastic Constant Matrix: (Units=GPa)
#
#
# Indices 1 2 3 4 5 6 
#
# 1 36.4249 33.1519 43.4527 -0.0001 -7.5001 -0.0001
# 2 33.1519 89.1785 87.0866 -0.0001 -8.4879 0.0003
# 3 43.4527 87.0866 162.7151 0.0000 -25.8768 -0.0001
# 4 -0.0001 -0.0001 0.0000 25.3614 0.0000 1.1436
# 5 -7.5001 -8.4879 -25.8768 0.0000 19.5065 0.0000
# 6 -0.0001 0.0003 -0.0001 1.1436 0.0000 16.2556
#
#
#
# Elastic Compliance Matrix: (Units=1/GPa)
#
#
# Indices 1 2 3 4 5 6 
#
# 1 0.044860 -0.011133 -0.005131 0.000000 0.005597 0.000000
# 2 -0.011133 0.027332 -0.013237 0.000000 -0.009948 -0.000001
# 3 -0.005131 -0.013237 0.016946 0.000000 0.014747 0.000000
# 4 0.000000 0.000000 0.000000 0.039556 0.000000 -0.002783
# 5 0.005597 -0.009948 0.014747 0.000000 0.068652 0.000000
# 6 0.000000 -0.000001 0.000000 -0.002783 0.000000 0.061713
#
#
# Mechanical properties :
#
#
# Convention : Reuss Voigt Hill
#
# Bulk Modulus (GPa) = 33.18399 68.41123 50.79761
# Shear Modulus (GPa) = 15.23893 20.53317 17.88605
#
# Velocity S-wave (km/s) = 3.11980 3.62141 3.37993
# Velocity P-wave (km/s) = 5.84571 7.82181 6.90482
#
# Compressibility (1/GPa) = 0.03013501
#
# Stress axis : x y z
#
# Youngs Moduli (GPa) = 22.29155 36.58683 59.01095
#
# Poissons Ratio (x) = 0.40733 0.30279
# Poissons Ratio (y) = 0.24818 0.78115
# Poissons Ratio (z) = 0.11438 0.48431
#
# Static dielectric constant tensor:
#      x y z
#    x 1.501880 0.000000 -0.010570 
#    y 0.000000 1.523170 0.000000 
#    z -0.010570 0.000000 1.522750 
# 
# From -- ./inp_files/323631.got.cif
#   From: 2010.05.17/outbox.cif.g08.bks.cpg/sg12_162_cif.got.tgz:323631.got - 2010.06.03 13:09:07.
