data_PCOD9220728
_publ_section_title
;
Structure prediction by ZEFSAII (Michael W. Deem and Ramdas Pophale) SiO2 
 PCOD9220728
Probable space group: C 2/M
;
_chemical_formula_sum "Si O2"
_cell_formula_units_Z 58
_cell_length_a 19.444314
_cell_length_b 7.581414
_cell_length_c 19.330260
_cell_angle_alpha 90.000000
_cell_angle_beta 70.635478
_cell_angle_gamma 90.000000
_cell_volume 2688.372019
_symmetry_space_group_name_H-M "C 2/M"
_symmetry_group_IT_number 12
_symmetry_cell_setting 'monoclinic'
loop_
_space_group_symop_operation_xyz
x,y,z
-x,y,-z
-x,-y,-z
x,-y,z
1/2+x,1/2+y,z
1/2-x,1/2+y,-z
1/2-x,1/2-y,-z
1/2+x,1/2-y,z
loop_
_atom_site_type_symbol
_atom_site_label
_atom_site_fract_x
_atom_site_fract_y
_atom_site_fract_z
Si Si1 0.873371 0.715075 0.766473
Si Si2 0.670727 0.212410 0.637904
Si Si3 0.000000 0.500000 0.500000
Si Si4 0.332358 0.795987 0.627046
Si Si5 0.025788 0.284375 0.065801
Si Si6 0.180852 0.288982 0.070128
Si Si7 0.084108 0.809011 0.533189
Si Si8 0.469390 0.785558 0.229716
O O1 0.872031 0.500000 0.765921
O O2 0.846775 0.769144 0.699740
O O3 0.823950 0.773760 0.848451
O O4 0.956371 0.769251 0.756037
O O5 0.747266 0.289080 0.637014
O O6 0.645256 0.267798 0.570123
O O7 0.604285 0.271470 0.709164
O O8 0.676722 0.000000 0.637957
O O9 0.025813 0.654465 0.546946
O O10 0.375065 0.693858 0.553848
O O11 0.359871 0.000000 0.610771
O O12 0.025606 0.500000 0.064466
O O13 0.107477 0.226356 0.056779
O O14 0.976533 0.231259 0.147441
O O15 0.000000 0.222143 0.000000
O O16 0.175566 0.500000 0.076119
O O17 0.250000 0.250000 0.000000
O O18 0.051306 0.000000 0.558144
O O19 0.469702 0.000000 0.231068
#
# Coordination Sequence:
#
# PCOD9220728 Si02
#       8
#     8   8   2   8   8   8   8   8
#     4   8  17  33  55  78 109 153 199 244 301 369
#     4  11  22  38  61  88 124 161 203 254 315 373
#     4  12  26  48  68 102 128 164 206 256 318 358
#     4  11  22  39  62  85 120 164 208 256 314 373
#     4   8  14  27  48  77 108 143 191 244 297 357
#     4   9  17  31  51  78 108 147 190 237 301 365
#     4  12  26  44  68  98 128 163 211 256 305 370
#     4   8  16  30  52  77 108 151 197 249 305 361
#
# _framework density 21.574394999999999
#
# number of rings (size 3 to 8) (size 9 to 14) (size 15 to 20)
#    0.000    2.345    1.379    3.103    1.931    1.103 
#    0.000    2.759    0.000    7.034    0.000    0.000 
#    0.000    0.000    0.000    0.000    0.000    0.000 
#
# Total GULP energy -161800.475789 kJ/mol
# GULP energy per Si atom -5579.326751 kJ/mol
# Density = 2.152529 g / cm^3
# Si number density = 21.574395 Si / 1000 Ang^3
#
#
#
# Elastic Constant Matrix: (Units=GPa)
#
#
# Indices 1 2 3 4 5 6 
#
# 1 83.4491 13.2578 60.4152 0.0000 18.0428 0.0000
# 2 13.2578 89.2604 9.6233 -0.0003 4.5252 -0.0001
# 3 60.4152 9.6233 148.1377 0.0000 22.0594 0.0000
# 4 0.0000 -0.0003 0.0000 5.2629 0.0000 -7.3549
# 5 18.0428 4.5252 22.0594 0.0000 45.8206 0.0000
# 6 0.0000 -0.0001 0.0000 -7.3549 0.0000 27.5106
#
#
#
# Elastic Compliance Matrix: (Units=1/GPa)
#
#
# Indices 1 2 3 4 5 6 
#
# 1 0.017846 -0.001751 -0.006618 0.000000 -0.003668 0.000000
# 2 -0.001751 0.011483 0.000037 0.000001 -0.000462 0.000000
# 3 -0.006618 0.000037 0.009759 0.000000 -0.002096 0.000000
# 4 0.000000 0.000001 0.000000 0.303341 0.000000 0.081097
# 5 -0.003668 -0.000462 -0.002096 0.000000 0.024323 0.000000
# 6 0.000000 0.000000 0.000000 0.081097 0.000000 0.058031
#
#
# Mechanical properties :
#
#
# Convention : Reuss Voigt Hill
#
# Bulk Modulus (GPa) = 44.59606 54.15996 49.37801
# Shear Modulus (GPa) = 11.13777 31.55555 21.34666
#
# Velocity S-wave (km/s) = 2.27458 3.82860 3.14896
# Velocity P-wave (km/s) = 5.25490 6.68599 6.01317
#
# Compressibility (1/GPa) = 0.02242351
#
# Stress axis : x y z
#
# Youngs Moduli (GPa) = 56.03463 87.08743 102.46634
#
# Poissons Ratio (x) = 0.15251 0.67814
# Poissons Ratio (y) = 0.09813 -0.00380
# Poissons Ratio (z) = 0.37085 -0.00323
#
# Static dielectric constant tensor:
#      x y z
#    x 1.821800 0.000000 -0.065880 
#    y 0.000000 1.828640 0.000000 
#    z -0.065880 0.000000 1.827300 
# 
# From -- ./inp_files/281131.got.cif
#   From: 2010.05.17/outbox.cif.g08.bks.cpg/sg12_141_cif.got.tgz:281131.got - 2010.06.03 13:09:07.
