data_PCOD9220401
_publ_section_title
;
Structure prediction by ZEFSAII (Michael W. Deem and Ramdas Pophale) SiO2 
 PCOD9220401
Probable space group: C 2/M
;
_chemical_formula_sum "Si O2"
_cell_formula_units_Z 48
_cell_length_a 9.478306
_cell_length_b 16.194899
_cell_length_c 15.584594
_cell_angle_alpha 90.000000
_cell_angle_beta 100.474005
_cell_angle_gamma 90.000000
_cell_volume 2352.377721
_symmetry_space_group_name_H-M "C 2/M"
_symmetry_group_IT_number 12
_symmetry_cell_setting 'monoclinic'
loop_
_space_group_symop_operation_xyz
x,y,z
-x,y,-z
-x,-y,-z
x,-y,z
1/2+x,1/2+y,z
1/2-x,1/2+y,-z
1/2-x,1/2-y,-z
1/2+x,1/2-y,z
loop_
_atom_site_type_symbol
_atom_site_label
_atom_site_fract_x
_atom_site_fract_y
_atom_site_fract_z
Si Si1 0.763177 0.349165 0.758227
Si Si2 0.798638 0.599956 0.400685
Si Si3 0.426243 0.322043 0.751103
Si Si4 0.854569 0.834288 0.931280
Si Si5 0.159935 0.642242 0.052883
Si Si6 0.618453 0.096574 0.403540
O O1 0.595803 0.326786 0.752563
O O2 0.868846 0.270813 0.757139
O O3 0.813069 0.395792 0.850731
O O4 0.788626 0.394437 0.671214
O O5 0.785480 0.500000 0.394621
O O6 0.667486 0.638367 0.334500
O O7 0.807870 0.628501 0.501083
O O8 0.953353 0.627051 0.378058
O O9 0.385762 0.363215 0.838611
O O10 0.798261 0.739012 0.922943
O O11 0.752514 0.886001 0.981984
O O12 0.000000 0.829123 0.000000
O O13 0.000000 0.638858 0.000000
O O14 0.599523 0.000000 0.418789
#
# Coordination Sequence:
#
# PCOD9220401 Si02
#       6
#     8   8   8   8   8   8
#     4  11  22  34  53  86 114 143 181 225 272 314
#     4   9  20  40  62  81 103 141 182 221 275 331
#     4  11  22  33  55  84 114 145 180 225 271 316
#     4   9  16  30  46  73 109 143 179 216 259 315
#     4   9  18  28  48  75 107 145 180 216 263 315
#     4   9  20  40  62  80 105 140 181 224 271 332
#
# _framework density 20.404885
#
# number of rings (size 3 to 8) (size 9 to 14) (size 15 to 20)
#    0.000    2.333    1.667    2.000    9.333    2.000 
#    0.000    1.667    0.000    2.000    0.000    0.000 
#    0.000    0.000    0.000    0.000    0.000    0.000 
#
# Total GULP energy -133677.169173 kJ/mol
# GULP energy per Si atom -5569.882049 kJ/mol
# Density = 2.035844 g / cm^3
# Si number density = 20.404885 Si / 1000 Ang^3
#
#
#
# Elastic Constant Matrix: (Units=GPa)
#
#
# Indices 1 2 3 4 5 6 
#
# 1 126.3704 4.8342 71.3603 0.0000 -10.2220 0.0000
# 2 4.8342 12.7454 9.0480 0.0000 0.2785 0.0000
# 3 71.3603 9.0480 146.7895 0.0000 -3.3075 0.0000
# 4 0.0000 0.0000 0.0000 -13.7266 0.0000 -9.4289
# 5 -10.2220 0.2785 -3.3075 0.0000 39.3509 0.0000
# 6 0.0000 0.0000 0.0000 -9.4289 0.0000 11.8005
#
#
#
# Elastic Compliance Matrix: (Units=1/GPa)
#
#
# Indices 1 2 3 4 5 6 
#
# 1 0.011140 -0.000495 -0.005330 0.000000 0.002449 0.000000
# 2 -0.000495 0.082112 -0.004846 0.000000 -0.001117 0.000000
# 3 -0.005330 -0.004846 0.009690 0.000000 -0.000536 0.000000
# 4 0.000000 0.000000 0.000000 -0.047035 0.000000 -0.037583
# 5 0.002449 -0.001117 -0.000536 0.000000 0.026012 0.000000
# 6 0.000000 0.000000 0.000000 -0.037583 0.000000 0.054713
#
#
# Mechanical properties :
#
#
# Convention : Reuss Voigt Hill
#
# Bulk Modulus (GPa) = 12.25481 50.71003 31.48242
# Shear Modulus (GPa) = 27.00175 20.86245 23.93210
#
# Velocity S-wave (km/s) = 3.64166 3.20101 3.42842
# Velocity P-wave (km/s) = 4.86838 6.21030 5.57983
#
# Compressibility (1/GPa) = 0.08160059
#
# Stress axis : x y z
#
# Youngs Moduli (GPa) = 89.76593 12.17849 103.19704
#
# Poissons Ratio (x) = 0.00603 0.55003
# Poissons Ratio (y) = 0.04444 0.50007
# Poissons Ratio (z) = 0.47845 0.05901
#
# Static dielectric constant tensor:
#      x y z
#    x 2.632590 0.000000 0.359520 
#    y 0.000000 1.764310 0.000000 
#    z 0.359520 0.000000 1.955000 
# 
# From -- ./inp_files/197184.got.cif
#   From: 2010.05.17/outbox.cif.g08.bks.cpg/sg12_99_cif.got.tgz:197184.got - 2010.06.03 13:09:07.
