data_PCOD9220492
_publ_section_title
;
Structure prediction by ZEFSAII (Michael W. Deem and Ramdas Pophale) SiO2 
 PCOD9220492
Probable space group: C 2/M
;
_chemical_formula_sum "Si O2"
_cell_formula_units_Z 56
_cell_length_a 14.584240
_cell_length_b 27.419164
_cell_length_c 7.511192
_cell_angle_alpha 90.000000
_cell_angle_beta 106.829982
_cell_angle_gamma 90.000000
_cell_volume 2874.981807
_symmetry_space_group_name_H-M "C 2/M"
_symmetry_group_IT_number 12
_symmetry_cell_setting 'monoclinic'
loop_
_space_group_symop_operation_xyz
x,y,z
-x,y,-z
-x,-y,-z
x,-y,z
1/2+x,1/2+y,z
1/2-x,1/2+y,-z
1/2-x,1/2-y,-z
1/2+x,1/2-y,z
loop_
_atom_site_type_symbol
_atom_site_label
_atom_site_fract_x
_atom_site_fract_y
_atom_site_fract_z
Si Si1 0.931157 0.554384 0.188341
Si Si2 0.749785 0.648524 0.420432
Si Si3 0.239281 0.720576 0.250913
Si Si4 0.155466 0.652764 0.918875
Si Si5 0.054696 0.729873 0.689023
Si Si6 0.358362 0.054655 0.558950
Si Si7 0.077703 0.198190 0.192888
O O1 0.915129 0.500000 0.105829
O O2 0.879398 0.598581 0.060062
O O3 0.891503 0.554127 0.369544
O O4 0.044544 0.563111 0.274812
O O5 0.772162 0.693535 0.565890
O O6 0.802686 0.651872 0.259118
O O7 0.784026 0.598759 0.531214
O O8 0.638089 0.654080 0.308895
O O9 0.342740 0.745561 0.290462
O O10 0.158518 0.762205 0.177254
O O11 0.226505 0.678434 0.096057
O O12 0.067612 0.690580 0.851847
O O13 0.000000 0.702366 0.500000
O O14 0.983049 0.772972 0.696385
O O15 0.322425 0.000000 0.579483
O O16 0.000000 0.185110 0.000000
#
# Coordination Sequence:
#
# PCOD9220492 Si02
#       7
#     8   8   8   8   8   8   8
#     4   8  16  31  53  84 114 145 188 230 280 345
#     4  11  22  37  58  81 112 151 190 229 283 337
#     4  12  24  40  53  86 120 147 198 237 270 346
#     4  11  22  35  58  80 115 157 185 228 286 334
#     4  12  23  37  57  79 116 156 190 232 285 332
#     4   8  16  32  56  82 111 146 187 234 284 338
#     4  12  23  37  56  81 115 153 192 232 280 336
#
# _framework density 19.478384999999999
#
# number of rings (size 3 to 8) (size 9 to 14) (size 15 to 20)
#    0.000    1.429    4.286    3.429    6.000    0.000 
#    0.000    0.714    0.000    2.143    0.000    3.000 
#    0.000    0.000    0.000    0.000    0.000    0.000 
#
# Total GULP energy -156357.599374 kJ/mol
# GULP energy per Si atom -5584.199978 kJ/mol
# Density = 1.943405 g / cm^3
# Si number density = 19.478385 Si / 1000 Ang^3
#
#
#
# Elastic Constant Matrix: (Units=GPa)
#
#
# Indices 1 2 3 4 5 6 
#
# 1 81.2984 53.6502 19.2558 0.0000 17.5515 0.0000
# 2 53.6502 144.0076 35.2228 0.0000 25.9955 0.0000
# 3 19.2558 35.2228 70.8534 0.0000 15.2064 0.0000
# 4 0.0000 0.0000 0.0000 26.0053 0.0000 10.5200
# 5 17.5515 25.9955 15.2064 0.0000 38.2987 0.0000
# 6 0.0000 0.0000 0.0000 10.5200 0.0000 25.7682
#
#
#
# Elastic Compliance Matrix: (Units=1/GPa)
#
#
# Indices 1 2 3 4 5 6 
#
# 1 0.016894 -0.005354 -0.001146 0.000000 -0.003653 0.000000
# 2 -0.005354 0.010259 -0.002926 0.000000 -0.003348 0.000000
# 3 -0.001146 -0.002926 0.016770 0.000000 -0.004147 0.000000
# 4 0.000000 0.000000 0.000000 0.046061 0.000000 -0.018805
# 5 -0.003653 -0.003348 -0.004147 0.000000 0.031704 0.000000
# 6 0.000000 0.000000 0.000000 -0.018805 0.000000 0.046485
#
#
# Mechanical properties :
#
#
# Convention : Reuss Voigt Hill
#
# Bulk Modulus (GPa) = 39.88787 56.93523 48.41155
# Shear Modulus (GPa) = 25.59115 30.54979 28.07047
#
# Velocity S-wave (km/s) = 3.62860 3.96459 3.80031
# Velocity P-wave (km/s) = 6.17075 7.08878 6.64563
#
# Compressibility (1/GPa) = 0.02507028
#
# Stress axis : x y z
#
# Youngs Moduli (GPa) = 59.19390 97.47713 59.63108
#
# Poissons Ratio (x) = 0.52191 0.06831
# Poissons Ratio (y) = 0.31693 0.17450
# Poissons Ratio (z) = 0.06781 0.28525
#
# Static dielectric constant tensor:
#      x y z
#    x 1.708390 0.000000 -0.050880 
#    y 0.000000 1.703680 0.000000 
#    z -0.050880 0.000000 1.774720 
# 
# From -- ./inp_files/67072.got.cif
#   From: 2010.05.17/outbox.cif.g08.bks.cpg/sg12_34_cif.got.tgz:67072.got - 2010.06.03 13:09:07.
