data_PCOD9220946
_publ_section_title
;
Structure prediction by ZEFSAII (Michael W. Deem and Ramdas Pophale) SiO2 
 PCOD9220946
Probable space group: C 2/M
;
_chemical_formula_sum "Si O2"
_cell_formula_units_Z 40
_cell_length_a 6.947624
_cell_length_b 17.121570
_cell_length_c 19.624394
_cell_angle_alpha 90.000000
_cell_angle_beta 46.716536
_cell_angle_gamma 90.000000
_cell_volume 1699.378123
_symmetry_space_group_name_H-M "C 2/M"
_symmetry_group_IT_number 12
_symmetry_cell_setting 'monoclinic'
loop_
_space_group_symop_operation_xyz
x,y,z
-x,y,-z
-x,-y,-z
x,-y,z
1/2+x,1/2+y,z
1/2-x,1/2+y,-z
1/2-x,1/2-y,-z
1/2+x,1/2-y,z
loop_
_atom_site_type_symbol
_atom_site_label
_atom_site_fract_x
_atom_site_fract_y
_atom_site_fract_z
Si Si1 0.183154 0.827042 0.188864
Si Si2 0.371480 0.908953 0.423651
Si Si3 0.828035 0.648505 0.773607
Si Si4 0.202221 0.588314 0.077349
Si Si5 0.077465 0.909028 0.625759
O O1 0.165848 0.734051 0.194486
O O2 0.471399 0.859728 0.101208
O O3 0.954524 0.859648 0.195407
O O4 0.111244 0.856243 0.282769
O O5 0.445690 0.862020 0.338088
O O6 0.145341 0.883889 0.532032
O O7 0.642856 0.907101 0.401850
O O8 0.325222 0.000000 0.417850
O O9 0.850480 0.587808 0.828923
O O10 0.196141 0.500000 0.051543
O O11 0.500000 0.620111 0.000000
O O12 0.993144 0.000000 0.646079
#
# Coordination Sequence:
#
# PCOD9220946 Si02
#       5
#     8   8   8   8   8
#     4  11  22  40  63  93 127 166 206 250 311 367
#     4   8  15  30  55  86 121 163 206 248 297 356
#     4  11  22  40  63  93 127 166 206 250 311 367
#     4  11  26  46  67  93 122 155 205 265 315 370
#     4   8  15  30  55  86 121 163 206 248 297 356
#
# _framework density 23.538022999999999
#
# number of rings (size 3 to 8) (size 9 to 14) (size 15 to 20)
#    0.000    2.200    2.000    2.400    0.000    4.800 
#    0.000    3.000    0.000    3.600    0.000    0.000 
#    0.000    0.000    0.000    0.000    0.000    0.000 
#
# Total GULP energy -111860.447680 kJ/mol
# GULP energy per Si atom -5593.022384 kJ/mol
# Density = 2.348445 g / cm^3
# Si number density = 23.538023 Si / 1000 Ang^3
#
#
#
# Elastic Constant Matrix: (Units=GPa)
#
#
# Indices 1 2 3 4 5 6 
#
# 1 91.9681 -1.5891 13.0812 -0.0002 -19.3221 -0.0008
# 2 -1.5891 57.6666 7.4251 -0.0001 -19.4764 0.0000
# 3 13.0812 7.4251 47.8973 0.0001 -26.4841 -0.0004
# 4 -0.0002 -0.0001 0.0001 23.2867 0.0000 -15.9432
# 5 -19.3221 -19.4764 -26.4841 0.0000 50.4285 0.0005
# 6 -0.0008 0.0000 -0.0004 -15.9432 0.0005 0.5500
#
#
#
# Elastic Compliance Matrix: (Units=1/GPa)
#
#
# Indices 1 2 3 4 5 6 
#
# 1 0.012084 0.002133 -0.000867 0.000000 0.004998 -0.000001
# 2 0.002133 0.020411 0.001500 0.000000 0.009488 0.000000
# 3 -0.000867 0.001500 0.029620 0.000000 0.015803 0.000000
# 4 0.000000 0.000000 0.000000 -0.002278 0.000000 -0.066050
# 5 0.004998 0.009488 0.015803 0.000000 0.033709 0.000000
# 6 -0.000001 0.000000 0.000000 -0.066050 0.000000 -0.096473
#
#
# Mechanical properties :
#
#
# Convention : Reuss Voigt Hill
#
# Bulk Modulus (GPa) = 14.78289 26.15181 20.46735
# Shear Modulus (GPa) = 354.84651 26.76069 190.80360
#
# Velocity S-wave (km/s) = 12.29154 3.37547 9.01320
# Velocity P-wave (km/s) = 14.41307 5.13092 10.81811
#
# Compressibility (1/GPa) = 0.06764575
#
# Stress axis : x y z
#
# Youngs Moduli (GPa) = 82.75657 48.99265 33.76054
#
# Poissons Ratio (x) = -0.10449 0.02927
# Poissons Ratio (y) = -0.17650 -0.05062
# Poissons Ratio (z) = 0.07175 -0.07347
#
# Static dielectric constant tensor:
#      x y z
#    x 1.953780 0.000000 -0.014490 
#    y 0.000000 1.809130 0.000000 
#    z -0.014490 0.000000 1.902260 
# 
# From -- ./inp_files/300578.got.cif
#   From: 2010.05.17/outbox.cif.g08.bks.cpg/sg12_151_cif.got.tgz:300578.got - 2010.06.03 13:09:07.
