data_PCOD9220226
_publ_section_title
;
Structure prediction by ZEFSAII (Michael W. Deem and Ramdas Pophale) SiO2 
 PCOD9220226
Probable space group: C 2/M
;
_chemical_formula_sum "Si O2"
_cell_formula_units_Z 56
_cell_length_a 9.292590
_cell_length_b 18.104980
_cell_length_c 27.177272
_cell_angle_alpha 90.000000
_cell_angle_beta 37.295182
_cell_angle_gamma 90.000000
_cell_volume 2770.492980
_symmetry_space_group_name_H-M "C 2/M"
_symmetry_group_IT_number 12
_symmetry_cell_setting 'monoclinic'
loop_
_space_group_symop_operation_xyz
x,y,z
-x,y,-z
-x,-y,-z
x,-y,z
1/2+x,1/2+y,z
1/2-x,1/2+y,-z
1/2-x,1/2-y,-z
1/2+x,1/2-y,z
loop_
_atom_site_type_symbol
_atom_site_label
_atom_site_fract_x
_atom_site_fract_y
_atom_site_fract_z
Si Si1 0.269859 0.797905 0.445191
Si Si2 0.379217 0.316448 0.834034
Si Si3 0.565459 0.087121 0.425033
Si Si4 0.333420 0.163306 0.971857
Si Si5 0.583053 0.587565 0.854974
Si Si6 0.553482 0.152340 0.166550
Si Si7 0.973982 0.181055 0.696173
O O1 0.250000 0.750000 0.500000
O O2 0.407525 0.869992 0.427541
O O3 0.420897 0.748071 0.365247
O O4 0.000000 0.811484 0.500000
O O5 0.557984 0.375864 0.807974
O O6 0.416534 0.239645 0.850602
O O7 0.422110 0.295123 0.765940
O O8 0.107002 0.339805 0.913905
O O9 0.500000 0.104193 0.500000
O O10 0.829876 0.118328 0.351175
O O11 0.548410 0.000000 0.422457
O O12 0.346021 0.126790 0.913649
O O13 0.250000 0.250000 0.000000
O O14 0.153509 0.115784 0.053006
O O15 0.598291 0.500000 0.848273
O O16 0.795139 0.620638 0.830029
O O17 0.274021 0.145571 0.253831
#
# Coordination Sequence:
#
# PCOD9220226 Si02
#       7
#     8   8   8   8   8   8   8
#     4  12  22  43  74 107 132 170 225 285 322 390
#     4  11  23  40  65  95 129 176 225 272 336 404
#     4  11  24  44  69 101 140 180 215 267 341 404
#     4  11  21  40  66  91 125 174 229 274 332 396
#     4  12  26  42  64 100 136 168 224 290 338 388
#     4  11  23  39  67  97 127 177 226 273 329 399
#     4  11  23  42  68  97 131 180 225 267 324 401
#
# _framework density 20.213010000000001
#
# number of rings (size 3 to 8) (size 9 to 14) (size 15 to 20)
#    0.000    0.714    5.714    2.571    0.000    3.714 
#    0.000    2.857    0.000    0.000    0.000    0.000 
#    0.000    0.000    0.000    0.000    0.000    0.000 
#
# Total GULP energy -156310.044630 kJ/mol
# GULP energy per Si atom -5582.501594 kJ/mol
# Density = 2.016700 g / cm^3
# Si number density = 20.213010 Si / 1000 Ang^3
#
#
#
# Elastic Constant Matrix: (Units=GPa)
#
#
# Indices 1 2 3 4 5 6 
#
# 1 163.4898 59.8468 63.8038 0.0205 -14.6290 -0.0173
# 2 59.8468 96.3025 26.7751 -0.0155 4.0519 0.0124
# 3 63.8038 26.7751 97.3489 -0.0767 -0.6206 0.0591
# 4 0.0205 -0.0155 -0.0767 48.9180 -0.0149 -32.5193
# 5 -14.6290 4.0519 -0.6206 -0.0149 25.4343 0.0128
# 6 -0.0173 0.0124 0.0591 -32.5193 0.0128 61.5555
#
#
#
# Elastic Compliance Matrix: (Units=1/GPa)
#
#
# Indices 1 2 3 4 5 6 
#
# 1 0.010975 -0.005555 -0.005620 -0.000012 0.007060 0.000002
# 2 -0.005555 0.014145 -0.000284 0.000004 -0.005455 -0.000001
# 3 -0.005620 -0.000284 0.014016 0.000021 -0.002845 -0.000003
# 4 -0.000012 0.000004 0.000021 0.031508 0.000003 0.016645
# 5 0.007060 -0.005455 -0.002845 0.000003 0.044178 -0.000002
# 6 0.000002 -0.000001 -0.000003 0.016645 -0.000002 0.025039
#
#
# Mechanical properties :
#
#
# Convention : Reuss Voigt Hill
#
# Bulk Modulus (GPa) = 61.66570 73.11029 67.38800
# Shear Modulus (GPa) = 29.72909 40.96260 35.34584
#
# Velocity S-wave (km/s) = 3.83925 4.50660 4.18624
# Velocity P-wave (km/s) = 7.08712 7.95787 7.53508
#
# Compressibility (1/GPa) = 0.01621647
#
# Stress axis : x y z
#
# Youngs Moduli (GPa) = 91.11426 70.69828 71.34619
#
# Poissons Ratio (x) = 0.39272 0.40100
# Poissons Ratio (y) = 0.50613 0.02029
# Poissons Ratio (z) = 0.51211 0.02011
#
# Static dielectric constant tensor:
#      x y z
#    x 1.786820 0.000000 0.051450 
#    y 0.000000 1.703540 0.000010 
#    z 0.051450 0.000010 1.710390 
# 
# From -- ./inp_files/356633.got.cif
#   From: 2010.05.17/outbox.cif.g08.bks.cpg/sg12_179_cif.got.tgz:356633.got - 2010.06.03 13:09:07.
