data_PCOD9220454
_publ_section_title
;
Structure prediction by ZEFSAII (Michael W. Deem and Ramdas Pophale) SiO2 
 PCOD9220454
Probable space group: C 2/M
;
_chemical_formula_sum "Si O2"
_cell_formula_units_Z 64
_cell_length_a 23.949785
_cell_length_b 29.135571
_cell_length_c 6.813046
_cell_angle_alpha 90.000000
_cell_angle_beta 138.643443
_cell_angle_gamma 90.000000
_cell_volume 3141.224635
_symmetry_space_group_name_H-M "C 2/M"
_symmetry_group_IT_number 12
_symmetry_cell_setting 'monoclinic'
loop_
_space_group_symop_operation_xyz
x,y,z
-x,y,-z
-x,-y,-z
x,-y,z
1/2+x,1/2+y,z
1/2-x,1/2+y,-z
1/2-x,1/2-y,-z
1/2+x,1/2-y,z
loop_
_atom_site_type_symbol
_atom_site_label
_atom_site_fract_x
_atom_site_fract_y
_atom_site_fract_z
Si Si1 0.663503 0.552236 0.295529
Si Si2 0.682173 0.872185 0.731336
Si Si3 0.083765 0.880307 0.351320
Si Si4 0.147695 0.302154 0.315637
Si Si5 0.878566 0.127492 0.127245
Si Si6 0.917994 0.375904 0.149041
Si Si7 0.154607 0.802832 0.282550
Si Si8 0.639867 0.947085 0.306727
O O1 0.634884 0.500000 0.210008
O O2 0.639112 0.575701 0.436145
O O3 0.763781 0.553831 0.521449
O O4 0.621706 0.584073 0.018764
O O5 0.646654 0.827002 0.524725
O O6 0.658129 0.874726 0.894453
O O7 0.643575 0.915846 0.511771
O O8 0.782240 0.871618 0.958147
O O9 0.066235 0.877276 0.533662
O O10 0.133003 0.835339 0.407512
O O11 0.000000 0.882694 0.000000
O O12 0.125899 0.248707 0.249720
O O13 0.245139 0.304780 0.496879
O O14 0.092199 0.332779 0.022785
O O15 0.887966 0.172922 0.019050
O O16 0.000000 0.374286 0.500000
O O17 0.914356 0.420453 0.999749
O O18 0.615807 0.000000 0.275651
#
# Coordination Sequence:
#
# PCOD9220454 Si02
#       8
#     8   8   8   8   8   8   8   8
#     4   9  19  36  57  80 106 140 186 232 266 312
#     4   9  18  35  58  78 102 139 183 228 272 318
#     4  11  22  35  51  81 115 147 174 218 277 337
#     4   9  19  37  57  78 103 137 186 235 272 317
#     4   9  18  35  58  78 102 139 183 228 272 318
#     4  11  22  35  51  81 115 147 174 218 277 337
#     4   9  19  37  57  78 103 137 186 235 272 317
#     4   9  19  36  57  80 106 140 186 232 266 312
#
# _framework density 20.374219
#
# number of rings (size 3 to 8) (size 9 to 14) (size 15 to 20)
#    0.000    2.500    0.000    3.750    0.000    6.500 
#    4.500    7.500    0.000    0.000    0.000    0.000 
#    0.000    0.000    0.000    0.000    0.000    0.000 
#
# Total GULP energy -178718.364314 kJ/mol
# GULP energy per Si atom -5584.948885 kJ/mol
# Density = 2.032785 g / cm^3
# Si number density = 20.374219 Si / 1000 Ang^3
#
#
#
# Elastic Constant Matrix: (Units=GPa)
#
#
# Indices 1 2 3 4 5 6 
#
# 1 38.8103 -0.7801 -12.2740 0.0000 -13.0011 0.0000
# 2 -0.7801 140.5660 25.8637 0.0000 -0.7407 0.0000
# 3 -12.2740 25.8637 95.6315 0.0000 -7.6372 0.0000
# 4 0.0000 0.0000 0.0000 7.3322 0.0000 1.5932
# 5 -13.0011 -0.7407 -7.6372 0.0000 27.1010 0.0000
# 6 0.0000 0.0000 0.0000 1.5932 0.0000 10.1838
#
#
#
# Elastic Compliance Matrix: (Units=1/GPa)
#
#
# Indices 1 2 3 4 5 6 
#
# 1 0.033583 -0.000815 0.005949 0.000000 0.017765 0.000000
# 2 -0.000815 0.007510 -0.002200 0.000000 -0.000806 0.000000
# 3 0.005949 -0.002200 0.012316 0.000000 0.006265 0.000000
# 4 0.000000 0.000000 0.000000 0.141185 0.000000 -0.022088
# 5 0.017765 -0.000806 0.006265 0.000000 0.047165 0.000000
# 6 0.000000 0.000000 0.000000 -0.022088 0.000000 0.101651
#
#
# Mechanical properties :
#
#
# Convention : Reuss Voigt Hill
#
# Bulk Modulus (GPa) = 16.86982 33.40300 25.13641
# Shear Modulus (GPa) = 13.99392 26.40328 20.19860
#
# Velocity S-wave (km/s) = 2.62361 3.60379 3.15203
# Velocity P-wave (km/s) = 4.18040 5.80919 5.06076
#
# Compressibility (1/GPa) = 0.05927747
#
# Stress axis : x y z
#
# Youngs Moduli (GPa) = 29.77739 133.15354 81.19744
#
# Poissons Ratio (x) = 0.10847 -0.48306
# Poissons Ratio (y) = 0.02426 0.17864
# Poissons Ratio (z) = -0.17715 0.29294
#
# Static dielectric constant tensor:
#      x y z
#    x 1.763720 0.000000 0.045400 
#    y 0.000000 1.691590 0.000000 
#    z 0.045400 0.000000 1.732920 
# 
# From -- ./inp_files/29884.got.cif
#   From: 2010.05.17/outbox.cif.g08.bks.cpg/sg12_15_cif.got.tgz:29884.got - 2010.06.03 13:09:07.
