data_PCOD9220138
_publ_section_title
;
Structure prediction by ZEFSAII (Michael W. Deem and Ramdas Pophale) SiO2 
 PCOD9220138
Probable space group: C 2/M
;
_chemical_formula_sum "Si O2"
_cell_formula_units_Z 48
_cell_length_a 18.651583
_cell_length_b 28.672444
_cell_length_c 9.667364
_cell_angle_alpha 90.000000
_cell_angle_beta 156.320887
_cell_angle_gamma 90.000000
_cell_volume 2076.334255
_symmetry_space_group_name_H-M "C 2/M"
_symmetry_group_IT_number 12
_symmetry_cell_setting 'monoclinic'
loop_
_space_group_symop_operation_xyz
x,y,z
-x,y,-z
-x,-y,-z
x,-y,z
1/2+x,1/2+y,z
1/2-x,1/2+y,-z
1/2-x,1/2-y,-z
1/2+x,1/2-y,z
loop_
_atom_site_type_symbol
_atom_site_label
_atom_site_fract_x
_atom_site_fract_y
_atom_site_fract_z
Si Si1 0.212955 0.804190 0.732113
Si Si2 0.782910 0.949118 0.622986
Si Si3 0.205529 0.550532 0.812643
Si Si4 0.326945 0.647554 0.597905
Si Si5 0.366977 0.795253 0.539636
Si Si6 0.782347 0.652112 0.130014
O O1 0.133948 0.843925 0.493402
O O2 0.147563 0.755103 0.557154
O O3 0.425784 0.806765 0.086059
O O4 0.195427 0.813873 0.863870
O O5 0.721187 0.945755 0.673626
O O6 0.729028 0.901841 0.449322
O O7 0.722092 0.000000 0.461574
O O8 0.000000 0.950216 0.000000
O O9 0.285851 0.500000 0.993339
O O10 0.280377 0.599146 0.001609
O O11 0.000000 0.549494 0.500000
O O12 0.218622 0.692413 0.464379
O O13 0.500000 0.646321 0.000000
O O14 0.263845 0.829184 0.251592
O O15 0.000000 0.652806 0.500000
#
# Coordination Sequence:
#
# PCOD9220138 Si02
#       6
#     8   8   8   8   8   8
#     4  11  23  37  59  85 117 154 203 255 304 361
#     4   9  18  34  60  88 119 160 202 243 299 365
#     4   9  16  31  58  89 119 157 198 242 302 367
#     4  11  22  38  59  85 117 157 203 246 301 362
#     4  11  21  39  58  82 116 156 200 253 305 364
#     4   9  19  35  56  84 115 153 195 246 300 354
#
# _framework density 23.117664999999999
#
# number of rings (size 3 to 8) (size 9 to 14) (size 15 to 20)
#    0.000    2.000    1.667    2.500    0.000    0.000 
#    0.000    3.333    0.000    3.000    0.000    5.833 
#    0.000    0.000    0.000    0.000    0.000    0.000 
#
# Total GULP energy -133974.591449 kJ/mol
# GULP energy per Si atom -5582.274644 kJ/mol
# Density = 2.306505 g / cm^3
# Si number density = 23.117665 Si / 1000 Ang^3
#
#
#
# Elastic Constant Matrix: (Units=GPa)
#
#
# Indices 1 2 3 4 5 6 
#
# 1 84.9316 5.9077 14.7566 0.0000 -7.7066 0.0000
# 2 5.9077 144.0896 16.1961 0.0000 -12.1781 0.0000
# 3 14.7566 16.1961 84.1716 0.0000 -7.3208 -0.0001
# 4 0.0000 0.0000 0.0000 -4.9526 0.0000 0.6090
# 5 -7.7066 -12.1781 -7.3208 0.0000 30.7436 0.0000
# 6 0.0000 0.0000 -0.0001 0.6090 0.0000 24.8236
#
#
#
# Elastic Compliance Matrix: (Units=1/GPa)
#
#
# Indices 1 2 3 4 5 6 
#
# 1 0.012350 -0.000069 -0.001925 0.000000 0.002610 0.000000
# 2 -0.000069 0.007293 -0.001166 0.000000 0.002594 0.000000
# 3 -0.001925 -0.001166 0.012621 0.000000 0.002061 0.000000
# 4 0.000000 0.000000 0.000000 -0.201308 0.000000 0.004939
# 5 0.002610 0.002594 0.002061 0.000000 0.034700 0.000000
# 6 0.000000 0.000000 0.000000 0.004939 0.000000 0.040163
#
#
# Mechanical properties :
#
#
# Convention : Reuss Voigt Hill
#
# Bulk Modulus (GPa) = 38.54247 42.99038 40.76642
# Shear Modulus (GPa) = -63.12159 28.54510 -17.28825
#
# Velocity S-wave (km/s) = -5.23104 3.51775 -2.73763
# Velocity P-wave (km/s) = 4.44708 5.92757 2.77124
#
# Compressibility (1/GPa) = 0.02594540
#
# Stress axis : x y z
#
# Youngs Moduli (GPa) = 80.96983 137.11347 79.22994
#
# Poissons Ratio (x) = 0.00952 0.15250
# Poissons Ratio (y) = 0.00562 0.09235
# Poissons Ratio (z) = 0.15585 0.15981
#
# Static dielectric constant tensor:
#      x y z
#    x 1.848760 0.000000 0.045490 
#    y 0.000000 1.925840 0.000000 
#    z 0.045490 0.000000 1.835530 
# 
# From -- ./inp_files/80859.got.cif
#   From: 2010.05.17/outbox.cif.g08.bks.cpg/sg12_41_cif.got.tgz:80859.got - 2010.06.03 13:09:07.
