data_PCOD9220363
_publ_section_title
;
Structure prediction by ZEFSAII (Michael W. Deem and Ramdas Pophale) SiO2 
 PCOD9220363
Probable space group: C 2/M
;
_chemical_formula_sum "Si O2"
_cell_formula_units_Z 38
_cell_length_a 14.914507
_cell_length_b 16.346373
_cell_length_c 21.731599
_cell_angle_alpha 90.000000
_cell_angle_beta 20.420466
_cell_angle_gamma 90.000000
_cell_volume 1848.551055
_symmetry_space_group_name_H-M "C 2/M"
_symmetry_group_IT_number 12
_symmetry_cell_setting 'monoclinic'
loop_
_space_group_symop_operation_xyz
x,y,z
-x,y,-z
-x,-y,-z
x,-y,z
1/2+x,1/2+y,z
1/2-x,1/2+y,-z
1/2-x,1/2-y,-z
1/2+x,1/2-y,z
loop_
_atom_site_type_symbol
_atom_site_label
_atom_site_fract_x
_atom_site_fract_y
_atom_site_fract_z
Si Si1 0.000000 0.000000 0.500000
Si Si2 0.500466 0.092968 0.691609
Si Si3 0.582100 0.377551 0.355861
Si Si4 0.418016 0.194008 0.485260
Si Si5 0.334061 0.756604 0.875277
Si Si6 0.500000 0.849464 0.000000
O O1 0.172041 0.072307 0.356693
O O2 0.514488 0.135478 0.615280
O O3 0.352831 0.152809 0.833616
O O4 0.795871 0.090843 0.525374
O O5 0.403763 0.000000 0.751551
O O6 0.558764 0.280972 0.382552
O O7 0.768799 0.396733 0.180030
O O8 0.500000 0.163325 0.500000
O O9 0.114983 0.216258 0.682511
O O10 0.250000 0.750000 0.000000
O O11 0.126840 0.706675 0.970090
#
# Coordination Sequence:
#
# PCOD9220363 Si02
#       6
#     2   8   8   8   8   4
#     4  12  24  38  68 100 120 180 214 282 336 382
#     4  11  23  44  66  95 133 177 223 269 320 396
#     4  11  22  40  65  95 131 165 218 270 337 387
#     4  11  21  43  68  92 128 184 223 259 327 404
#     4  11  24  39  69 100 128 177 222 271 332 395
#     4  12  22  41  67  98 136 168 218 272 335 399
#
# _framework density 20.556640999999999
#
# number of rings (size 3 to 8) (size 9 to 14) (size 15 to 20)
#    0.000    0.842    6.316    2.526    2.947    0.842 
#    0.000    1.579    2.316    0.000    0.000    0.000 
#    0.000    0.000    0.000    0.000    0.000    0.000 
#
# Total GULP energy -105913.956958 kJ/mol
# GULP energy per Si atom -5574.418787 kJ/mol
# Density = 2.050985 g / cm^3
# Si number density = 20.556641 Si / 1000 Ang^3
#
#
#
# Elastic Constant Matrix: (Units=GPa)
#
#
# Indices 1 2 3 4 5 6 
#
# 1 127.6913 48.0375 19.8514 -0.0677 30.7050 -0.2599
# 2 48.0375 129.0790 19.8206 -0.0608 28.4876 0.0647
# 3 19.8514 19.8206 62.6210 -0.0888 30.0534 -0.2408
# 4 -0.0677 -0.0608 -0.0888 -49.2083 0.0462 -160.6947
# 5 30.7050 28.4876 30.0534 0.0462 47.7646 0.1093
# 6 -0.2599 0.0647 -0.2408 -160.6947 0.1093 -493.8923
#
#
#
# Elastic Compliance Matrix: (Units=1/GPa)
#
#
# Indices 1 2 3 4 5 6 
#
# 1 0.009993 -0.002650 -0.000007 -0.000108 -0.004839 0.000029
# 2 -0.002650 0.009631 -0.000385 0.000282 -0.003798 -0.000090
# 3 -0.000007 -0.000385 0.022894 0.000116 -0.014171 -0.000052
# 4 -0.000108 0.000282 0.000116 0.325111 -0.000245 -0.105780
# 5 -0.004839 -0.003798 -0.014171 -0.000245 0.035228 0.000096
# 6 0.000029 -0.000090 -0.000052 -0.105780 0.000096 0.032392
#
#
# Mechanical properties :
#
#
# Convention : Reuss Voigt Hill
#
# Bulk Modulus (GPa) = 27.44707 54.97892 41.21299
# Shear Modulus (GPa) = 11.02587 -83.62175 -36.29794
#
# Velocity S-wave (km/s) = 2.31847 -6.38491 -4.20664
# Velocity P-wave (km/s) = 4.53299 5.24908 1.87148
#
# Compressibility (1/GPa) = 0.03643377
#
# Stress axis : x y z
#
# Youngs Moduli (GPa) = 100.07015 103.83121 43.67948
#
# Poissons Ratio (x) = 0.27515 0.00029
# Poissons Ratio (y) = 0.26519 0.01684
# Poissons Ratio (z) = 0.00067 0.04002
#
# Static dielectric constant tensor:
#      x y z
#    x 1.869490 0.000150 0.021610 
#    y 0.000150 1.713430 0.000140 
#    z 0.021610 0.000140 1.776390 
# 
# From -- ./inp_files/61408.got.cif
#   From: 2010.05.17/outbox.cif.g08.bks.cpg/sg12_31_cif.got.tgz:61408.got - 2010.06.03 13:09:07.
