data_PCOD9220963
_publ_section_title
;
Structure prediction by ZEFSAII (Michael W. Deem and Ramdas Pophale) SiO2 
 PCOD9220963
Probable space group: C 2/M
;
_chemical_formula_sum "Si O2"
_cell_formula_units_Z 60
_cell_length_a 14.814399
_cell_length_b 26.376807
_cell_length_c 14.499648
_cell_angle_alpha 90.000000
_cell_angle_beta 30.081273
_cell_angle_gamma 90.000000
_cell_volume 2839.873454
_symmetry_space_group_name_H-M "C 2/M"
_symmetry_group_IT_number 12
_symmetry_cell_setting 'monoclinic'
loop_
_space_group_symop_operation_xyz
x,y,z
-x,y,-z
-x,-y,-z
x,-y,z
1/2+x,1/2+y,z
1/2-x,1/2+y,-z
1/2-x,1/2-y,-z
1/2+x,1/2-y,z
loop_
_atom_site_type_symbol
_atom_site_label
_atom_site_fract_x
_atom_site_fract_y
_atom_site_fract_z
Si Si1 0.735617 0.939127 0.938345
Si Si2 0.581931 0.788701 0.652244
Si Si3 0.117810 0.593435 0.651799
Si Si4 0.155951 0.690405 0.305240
Si Si5 0.285698 0.609054 0.695617
Si Si6 0.000000 0.122780 0.000000
Si Si7 0.135786 0.721905 0.800346
Si Si8 0.911636 0.058434 0.258991
O O1 0.717363 0.913348 0.853569
O O2 0.933224 0.927278 0.804114
O O3 0.716987 0.000000 0.945135
O O4 0.589327 0.919355 0.142119
O O5 0.750000 0.750000 0.500000
O O6 0.641819 0.847601 0.602026
O O7 0.431483 0.784626 0.707791
O O8 0.517943 0.779449 0.812547
O O9 0.207906 0.583085 0.672162
O O10 0.221399 0.564325 0.479567
O O11 0.219198 0.733603 0.321074
O O12 0.000000 0.661125 0.500000
O O13 0.326150 0.656650 0.129433
O O14 0.500000 0.604918 0.500000
O O15 0.226358 0.667639 0.738209
O O16 0.060316 0.091034 0.857424
O O17 0.000000 0.733528 0.000000
O O18 0.940226 0.000000 0.209246
#
# Coordination Sequence:
#
# PCOD9220963 Si02
#       8
#     8   8   8   8   8   4   8   8
#     4  11  24  43  68 101 134 173 224 278 340 410
#     4  11  24  41  68  99 135 180 225 278 336 404
#     4  11  23  43  67  97 136 177 222 275 341 406
#     4  12  24  45  69  98 139 177 228 286 336 410
#     4  11  22  40  64  98 139 178 214 270 334 410
#     4  12  27  46  70 100 130 182 233 288 350 396
#     4  11  24  42  62 100 138 177 228 270 338 407
#     4  11  25  45  69  96 132 174 231 289 342 402
#
# _framework density 21.127700999999998
#
# number of rings (size 3 to 8) (size 9 to 14) (size 15 to 20)
#    0.000    0.800    3.333    4.600    1.867    2.400 
#    0.000    0.000    0.000    4.000    0.000    0.000 
#    0.000    0.000    0.000    0.000    0.000    0.000 
#
# Total GULP energy -167570.177492 kJ/mol
# GULP energy per Si atom -5585.672583 kJ/mol
# Density = 2.107961 g / cm^3
# Si number density = 21.127701 Si / 1000 Ang^3
#
#
#
# Elastic Constant Matrix: (Units=GPa)
#
#
# Indices 1 2 3 4 5 6 
#
# 1 102.9495 21.3570 23.3181 0.0153 10.7208 -0.0090
# 2 21.3570 57.6976 19.1560 0.0242 11.6313 -0.0011
# 3 23.3181 19.1560 128.9360 -0.0598 10.0364 -0.0013
# 4 0.0153 0.0242 -0.0598 21.3516 0.0185 1.7254
# 5 10.7208 11.6313 10.0364 0.0185 32.5637 0.0104
# 6 -0.0090 -0.0011 -0.0013 1.7254 0.0104 14.4579
#
#
#
# Elastic Compliance Matrix: (Units=1/GPa)
#
#
# Indices 1 2 3 4 5 6 
#
# 1 0.010888 -0.003175 -0.001339 -0.000007 -0.002038 0.000009
# 2 -0.003175 0.020299 -0.002007 -0.000022 -0.005587 0.000006
# 3 -0.001339 -0.002007 0.008408 0.000028 -0.001434 -0.000003
# 4 -0.000007 -0.000022 0.000028 0.047291 -0.000024 -0.005644
# 5 -0.002038 -0.005587 -0.001434 -0.000024 0.033817 -0.000023
# 6 0.000009 0.000006 -0.000003 -0.005644 -0.000023 0.069840
#
#
# Mechanical properties :
#
#
# Convention : Reuss Voigt Hill
#
# Bulk Modulus (GPa) = 37.65912 46.36059 42.00986
# Shear Modulus (GPa) = 23.53660 28.72477 26.13068
#
# Velocity S-wave (km/s) = 3.34131 3.69125 3.52063
# Velocity P-wave (km/s) = 5.72268 6.33701 6.03766
#
# Compressibility (1/GPa) = 0.02655399
#
# Stress axis : x y z
#
# Youngs Moduli (GPa) = 91.84800 49.26235 118.93910
#
# Poissons Ratio (x) = 0.15640 0.15923
# Poissons Ratio (y) = 0.29160 0.23869
# Poissons Ratio (z) = 0.12296 0.09886
#
# Static dielectric constant tensor:
#      x y z
#    x 1.778380 0.000000 -0.009860 
#    y 0.000000 1.806680 -0.000010 
#    z -0.009860 -0.000010 1.787810 
# 
# From -- ./inp_files/219214.got.cif
#   From: 2010.05.17/outbox.cif.g08.bks.cpg/sg12_110_cif.got.tgz:219214.got - 2010.06.03 13:09:07.
