data_PCOD9220299
_publ_section_title
;
Structure prediction by ZEFSAII (Michael W. Deem and Ramdas Pophale) SiO2 
 PCOD9220299
Probable space group: C 2/M
;
_chemical_formula_sum "Si O2"
_cell_formula_units_Z 36
_cell_length_a 12.132260
_cell_length_b 22.887559
_cell_length_c 8.808526
_cell_angle_alpha 90.000000
_cell_angle_beta 141.281755
_cell_angle_gamma 90.000000
_cell_volume 1529.908965
_symmetry_space_group_name_H-M "C 2/M"
_symmetry_group_IT_number 12
_symmetry_cell_setting 'monoclinic'
loop_
_space_group_symop_operation_xyz
x,y,z
-x,y,-z
-x,-y,-z
x,-y,z
1/2+x,1/2+y,z
1/2-x,1/2+y,-z
1/2-x,1/2-y,-z
1/2+x,1/2-y,z
loop_
_atom_site_type_symbol
_atom_site_label
_atom_site_fract_x
_atom_site_fract_y
_atom_site_fract_z
Si Si1 0.771036 0.435850 0.688336
Si Si2 0.000000 0.686823 0.500000
Si Si3 0.022387 0.098135 0.857605
Si Si4 0.152908 0.224460 0.251765
Si Si5 0.397049 0.106918 0.117877
O O1 0.764736 0.500000 0.755761
O O2 0.597291 0.427399 0.403528
O O3 0.938580 0.433192 0.755605
O O4 0.803415 0.386678 0.851460
O O5 0.187953 0.717664 0.696115
O O6 0.006731 0.652500 0.667248
O O7 0.946104 0.164776 0.797899
O O8 0.226692 0.091286 0.035355
O O9 0.000000 0.071136 0.000000
O O10 0.250000 0.250000 0.500000
O O11 0.000000 0.259251 0.000000
#
# Coordination Sequence:
#
# PCOD9220299 Si02
#       5
#     8   4   8   8   8
#     4  11  25  42  65 101 138 180 235 288 342 408
#     4  12  22  46  73  94 140 180 227 284 348 418
#     4  11  22  44  69  96 135 179 229 282 348 412
#     4  11  25  46  70 105 137 176 231 287 351 421
#     4  11  21  41  69  93 132 182 225 279 337 411
#
# _framework density 23.530809000000001
#
# number of rings (size 3 to 8) (size 9 to 14) (size 15 to 20)
#    0.000    0.889    6.667    2.000    0.000    5.778 
#    4.000    7.778    0.000    0.000    0.000    0.000 
#    0.000    0.000    0.000    0.000    0.000    0.000 
#
# Total GULP energy -100283.617018 kJ/mol
# GULP energy per Si atom -5571.312057 kJ/mol
# Density = 2.347725 g / cm^3
# Si number density = 23.530809 Si / 1000 Ang^3
#
#
#
# Elastic Constant Matrix: (Units=GPa)
#
#
# Indices 1 2 3 4 5 6 
#
# 1 125.1980 13.4927 17.5930 0.0000 19.8804 0.0000
# 2 13.4927 41.4686 19.6716 0.0000 -12.6540 0.0000
# 3 17.5930 19.6716 171.7492 0.0000 -2.0440 0.0000
# 4 0.0000 0.0000 0.0000 2.5559 0.0000 5.3926
# 5 19.8804 -12.6540 -2.0440 0.0000 57.1561 0.0000
# 6 0.0000 0.0000 0.0000 5.3926 0.0000 12.2268
#
#
#
# Elastic Compliance Matrix: (Units=1/GPa)
#
#
# Indices 1 2 3 4 5 6 
#
# 1 0.009136 -0.003964 -0.000530 0.000000 -0.004074 0.000000
# 2 -0.003964 0.029106 -0.002836 0.000000 0.007721 0.000000
# 3 -0.000530 -0.002836 0.006199 0.000000 -0.000222 0.000000
# 4 0.000000 0.000000 0.000000 5.633095 0.000000 -2.484474
# 5 -0.004074 0.007721 -0.000222 0.000000 0.020615 0.000000
# 6 0.000000 0.000000 0.000000 -2.484474 0.000000 1.177563
#
#
# Mechanical properties :
#
#
# Convention : Reuss Voigt Hill
#
# Bulk Modulus (GPa) = 33.57941 48.88115 41.23028
# Shear Modulus (GPa) = 0.72461 33.56501 17.14481
#
# Velocity S-wave (km/s) = 0.55552 3.78091 2.70221
# Velocity P-wave (km/s) = 3.83573 6.31496 5.22454
#
# Compressibility (1/GPa) = 0.02978016
#
# Stress axis : x y z
#
# Youngs Moduli (GPa) = 109.45594 34.35732 161.31850
#
# Poissons Ratio (x) = 0.13621 0.08554
# Poissons Ratio (y) = 0.43393 0.45745
# Poissons Ratio (z) = 0.05804 0.09743
#
# Static dielectric constant tensor:
#      x y z
#    x 1.914450 0.000000 0.001420 
#    y 0.000000 1.991710 0.000000 
#    z 0.001420 0.000000 1.888520 
# 
# From -- ./inp_files/52258.got.cif
#   From: 2010.05.17/outbox.cif.g08.bks.cpg/sg12_27_cif.got.tgz:52258.got - 2010.06.03 13:09:07.
