data_PCOD9220039
_publ_section_title
;
Structure prediction by ZEFSAII (Michael W. Deem and Ramdas Pophale) SiO2 
 PCOD9220039
Probable space group: C 2/M
;
_chemical_formula_sum "Si O2"
_cell_formula_units_Z 56
_cell_length_a 8.837571
_cell_length_b 17.063226
_cell_length_c 19.032526
_cell_angle_alpha 90.000000
_cell_angle_beta 72.289389
_cell_angle_gamma 90.000000
_cell_volume 2734.030907
_symmetry_space_group_name_H-M "C 2/M"
_symmetry_group_IT_number 12
_symmetry_cell_setting 'monoclinic'
loop_
_space_group_symop_operation_xyz
x,y,z
-x,y,-z
-x,-y,-z
x,-y,z
1/2+x,1/2+y,z
1/2-x,1/2+y,-z
1/2-x,1/2-y,-z
1/2+x,1/2-y,z
loop_
_atom_site_type_symbol
_atom_site_label
_atom_site_fract_x
_atom_site_fract_y
_atom_site_fract_z
Si Si1 0.072729 0.086717 0.278106
Si Si2 0.264964 0.136918 0.714002
Si Si3 0.962443 0.681847 0.425958
Si Si4 0.191489 0.708195 0.804361
Si Si5 0.175282 0.804923 0.951123
Si Si6 0.598875 0.911146 0.159751
Si Si7 0.108379 0.147264 0.424246
O O1 0.153807 0.153184 0.219046
O O2 0.129214 0.099248 0.350024
O O3 0.884245 0.098322 0.302509
O O4 0.115268 0.000000 0.247511
O O5 0.420872 0.139017 0.644464
O O6 0.215781 0.226118 0.741316
O O7 0.303407 0.094435 0.781607
O O8 0.012340 0.773468 0.417314
O O9 0.000000 0.655368 0.500000
O O10 0.779769 0.670260 0.431126
O O11 0.168578 0.753818 0.880456
O O12 0.044287 0.650683 0.812133
O O13 0.288096 0.878006 0.917457
O O14 0.250000 0.750000 0.000000
O O15 0.000000 0.828488 0.000000
O O16 0.546192 0.000000 0.155027
O O17 0.000000 0.108518 0.500000
#
# Coordination Sequence:
#
# PCOD9220039 Si02
#       7
#     8   8   8   8   8   8   8
#     4  12  25  40  62  95 133 170 212 265 322 377
#     4  11  22  40  65  94 125 171 218 264 312 380
#     4  11  21  37  65  94 122 164 220 276 314 371
#     4  11  23  41  68  91 127 171 214 256 313 380
#     4  11  23  44  70  97 125 165 209 255 308 379
#     4  11  24  42  65  96 131 166 208 262 317 372
#     4  11  22  38  61  93 128 167 214 269 326 376
#
# _framework density 20.482578
#
# number of rings (size 3 to 8) (size 9 to 14) (size 15 to 20)
#    0.000    0.857    2.857    6.857    2.000    0.571 
#    0.000    2.857    0.000    3.000    0.000    0.000 
#    0.000    0.000    0.000    0.000    0.000    0.000 
#
# Total GULP energy -156633.809328 kJ/mol
# GULP energy per Si atom -5594.064619 kJ/mol
# Density = 2.043596 g / cm^3
# Si number density = 20.482578 Si / 1000 Ang^3
#
#
#
# Elastic Constant Matrix: (Units=GPa)
#
#
# Indices 1 2 3 4 5 6 
#
# 1 116.0974 22.1606 16.5939 0.0000 -11.5857 0.0000
# 2 22.1606 88.7771 16.1019 0.0000 -3.7969 0.0000
# 3 16.5939 16.1019 90.3202 0.0000 -13.7272 0.0000
# 4 0.0000 0.0000 0.0000 4.5364 0.0000 3.0722
# 5 -11.5857 -3.7969 -13.7272 0.0000 40.9634 0.0000
# 6 0.0000 0.0000 0.0000 3.0722 0.0000 11.6671
#
#
#
# Elastic Compliance Matrix: (Units=1/GPa)
#
#
# Indices 1 2 3 4 5 6 
#
# 1 0.009365 -0.002060 -0.001032 0.000000 0.002112 0.000000
# 2 -0.002060 0.012100 -0.001788 0.000000 -0.000060 0.000000
# 3 -0.001032 -0.001788 0.012128 0.000000 0.003607 0.000000
# 4 0.000000 0.000000 0.000000 0.268284 0.000000 -0.070645
# 5 0.002112 -0.000060 0.003607 0.000000 0.026212 0.000000
# 6 0.000000 0.000000 0.000000 -0.070645 0.000000 0.104314
#
#
# Mechanical properties :
#
#
# Convention : Reuss Voigt Hill
#
# Bulk Modulus (GPa) = 41.95901 44.98972 43.47437
# Shear Modulus (GPa) = 11.10845 27.45592 19.28219
#
# Velocity S-wave (km/s) = 2.33134 3.66519 3.07154
# Velocity P-wave (km/s) = 5.27035 6.31855 5.81810
#
# Compressibility (1/GPa) = 0.02383278
#
# Stress axis : x y z
#
# Youngs Moduli (GPa) = 106.78069 82.64391 82.45214
#
# Poissons Ratio (x) = 0.17026 0.08512
# Poissons Ratio (y) = 0.21998 0.14741
# Poissons Ratio (z) = 0.11023 0.14775
#
# Static dielectric constant tensor:
#      x y z
#    x 1.729300 0.000000 -0.008390 
#    y 0.000000 1.729970 0.000000 
#    z -0.008390 0.000000 1.729610 
# 
# From -- ./inp_files/257048.got.cif
#   From: 2010.05.17/outbox.cif.g08.bks.cpg/sg12_129_cif.got.tgz:257048.got - 2010.06.03 13:09:07.
