data_PCOD9220981
_publ_section_title
;
Structure prediction by ZEFSAII (Michael W. Deem and Ramdas Pophale) SiO2 
 PCOD9220981
Probable space group: C 2/M
;
_chemical_formula_sum "Si O2"
_cell_formula_units_Z 32
_cell_length_a 26.377269
_cell_length_b 12.871344
_cell_length_c 14.850277
_cell_angle_alpha 90.000000
_cell_angle_beta 161.094793
_cell_angle_gamma 90.000000
_cell_volume 1633.570354
_symmetry_space_group_name_H-M "C 2/M"
_symmetry_group_IT_number 12
_symmetry_cell_setting 'monoclinic'
loop_
_space_group_symop_operation_xyz
x,y,z
-x,y,-z
-x,-y,-z
x,-y,z
1/2+x,1/2+y,z
1/2-x,1/2+y,-z
1/2-x,1/2-y,-z
1/2+x,1/2-y,z
loop_
_atom_site_type_symbol
_atom_site_label
_atom_site_fract_x
_atom_site_fract_y
_atom_site_fract_z
Si Si1 0.918557 0.793656 0.776820
Si Si2 0.422313 0.123881 0.467858
Si Si3 0.253343 0.000000 0.515665
Si Si4 0.387655 0.000000 0.944186
Si Si5 0.133639 0.711005 0.985298
O O1 0.750000 0.750000 0.500000
O O2 0.007291 0.769019 0.835404
O O3 0.869496 0.909829 0.708006
O O4 0.000000 0.745245 0.000000
O O5 0.500000 0.122325 0.500000
O O6 0.547365 0.171547 0.749437
O O7 0.385267 0.000000 0.428092
O O8 0.276270 0.205885 0.218092
O O9 0.419150 0.000000 0.738419
O O10 0.314925 0.000000 0.722185
O O11 0.331377 0.103840 0.901622
#
# Coordination Sequence:
#
# PCOD9220981 Si02
#       5
#     8   8   4   4   8
#     4  12  24  39  62  96 136 177 223 265 323 398
#     4  11  26  49  72  99 132 172 226 289 343 397
#     4  11  23  38  58  94 141 182 220 266 314 391
#     4  11  22  40  66  94 140 182 216 272 335 385
#     4  12  24  44  71  98 137 179 223 275 340 397
#
# _framework density 19.588994
#
# number of rings (size 3 to 8) (size 9 to 14) (size 15 to 20)
#    0.000    0.500    3.750    5.625    1.750    0.000 
#    2.250    0.625    0.000    0.000    0.000    0.000 
#    0.000    0.000    0.000    0.000    0.000    0.000 
#
# Total GULP energy -89085.052610 kJ/mol
# GULP energy per Si atom -5567.815788 kJ/mol
# Density = 1.954441 g / cm^3
# Si number density = 19.588994 Si / 1000 Ang^3
#
#
#
# Elastic Constant Matrix: (Units=GPa)
#
#
# Indices 1 2 3 4 5 6 
#
# 1 93.5566 30.2670 52.0622 0.0000 -2.8533 0.0000
# 2 30.2670 159.4872 48.4502 0.0000 18.3201 0.0000
# 3 52.0622 48.4502 125.6893 0.0000 -13.0346 0.0000
# 4 0.0000 0.0000 0.0000 48.7123 0.0000 6.7504
# 5 -2.8533 18.3201 -13.0346 0.0000 36.0444 0.0000
# 6 0.0000 0.0000 0.0000 6.7504 0.0000 37.7381
#
#
#
# Elastic Compliance Matrix: (Units=1/GPa)
#
#
# Indices 1 2 3 4 5 6 
#
# 1 0.014039 -0.000952 -0.005489 0.000000 -0.000389 0.000000
# 2 -0.000952 0.008058 -0.003267 0.000000 -0.005352 0.000000
# 3 -0.005489 -0.003267 0.012069 0.000000 0.005590 0.000000
# 4 0.000000 0.000000 0.000000 0.021050 0.000000 -0.003765
# 5 -0.000389 -0.005352 0.005590 0.000000 0.032455 0.000000
# 6 0.000000 0.000000 0.000000 -0.003765 0.000000 0.027172
#
#
# Mechanical properties :
#
#
# Convention : Reuss Voigt Hill
#
# Bulk Modulus (GPa) = 67.79387 71.14354 69.46870
# Shear Modulus (GPa) = 35.92601 41.02922 38.47762
#
# Velocity S-wave (km/s) = 4.28716 4.58154 4.43679
# Velocity P-wave (km/s) = 7.69347 8.02398 7.86047
#
# Compressibility (1/GPa) = 0.01475060
#
# Stress axis : x y z
#
# Youngs Moduli (GPa) = 71.22948 124.09956 82.85991
#
# Poissons Ratio (x) = 0.11817 0.45478
# Poissons Ratio (y) = 0.06783 0.27069
# Poissons Ratio (z) = 0.39094 0.40541
#
# Static dielectric constant tensor:
#      x y z
#    x 1.652260 0.000000 -0.018750 
#    y 0.000000 1.461600 0.000000 
#    z -0.018750 0.000000 1.662470 
# 
# From -- ./inp_files/183362.got.cif
#   From: 2010.05.17/outbox.cif.g08.bks.cpg/sg12_92_cif.got.tgz:183362.got - 2010.06.03 13:09:07.
