data_PCOD9220592
_publ_section_title
;
Structure prediction by ZEFSAII (Michael W. Deem and Ramdas Pophale) SiO2 
 PCOD9220592
Probable space group: C 2/M
;
_chemical_formula_sum "Si O2"
_cell_formula_units_Z 48
_cell_length_a 28.312095
_cell_length_b 8.387510
_cell_length_c 12.416614
_cell_angle_alpha 90.000000
_cell_angle_beta 108.025824
_cell_angle_gamma 90.000000
_cell_volume 2803.825068
_symmetry_space_group_name_H-M "C 2/M"
_symmetry_group_IT_number 12
_symmetry_cell_setting 'monoclinic'
loop_
_space_group_symop_operation_xyz
x,y,z
-x,y,-z
-x,-y,-z
x,-y,z
1/2+x,1/2+y,z
1/2-x,1/2+y,-z
1/2-x,1/2-y,-z
1/2+x,1/2-y,z
loop_
_atom_site_type_symbol
_atom_site_label
_atom_site_fract_x
_atom_site_fract_y
_atom_site_fract_z
Si Si1 0.615891 0.687343 0.250503
Si Si2 0.620222 0.692788 0.598509
Si Si3 0.070341 0.804835 0.770910
Si Si4 0.694433 0.187669 0.473640
Si Si5 0.964254 0.187901 0.619246
Si Si6 0.056114 0.804766 0.005661
O O1 0.628148 0.500000 0.249105
O O2 0.660849 0.766950 0.346330
O O3 0.568181 0.698862 0.295393
O O4 0.596621 0.748734 0.122215
O O5 0.619438 0.500000 0.593728
O O6 0.613850 0.740983 0.718475
O O7 0.666854 0.745217 0.560445
O O8 0.571154 0.752578 0.499335
O O9 0.018544 0.747616 0.681551
O O10 0.069075 0.000000 0.772506
O O11 0.070319 0.753862 0.895012
O O12 0.750000 0.250000 0.500000
O O13 0.695546 0.000000 0.484375
O O14 0.971183 0.000000 0.599634
O O15 0.055819 0.000000 0.008187
O O16 0.000000 0.756306 0.000000
#
# Coordination Sequence:
#
# PCOD9220592 Si02
#       6
#     8   8   8   8   8   8
#     4   9  16  28  48  75 104 130 164 203 238 277
#     4   9  17  28  45  72 101 128 161 200 243 287
#     4   9  14  21  39  70 106 138 165 195 230 270
#     4  11  22  37  56  73  91 117 156 207 261 305
#     4   8  12  20  37  65  99 132 163 196 227 264
#     4   9  14  22  41  74 109 138 169 202 227 261
#
# _framework density 17.119468999999999
#
# number of rings (size 3 to 8) (size 9 to 14) (size 15 to 20)
#    0.000    2.833    1.667    3.000    0.000    2.000 
#    0.000    0.000    0.000   10.500    0.000    0.000 
#    0.000    0.000    0.000    0.000    0.000    0.000 
#
# Total GULP energy -133636.818801 kJ/mol
# GULP energy per Si atom -5568.200783 kJ/mol
# Density = 1.708050 g / cm^3
# Si number density = 17.119469 Si / 1000 Ang^3
#
#
#
# Elastic Constant Matrix: (Units=GPa)
#
#
# Indices 1 2 3 4 5 6 
#
# 1 111.6981 22.1018 87.1655 0.0000 -6.1626 0.0000
# 2 22.1018 19.5474 23.5880 0.0000 -3.0752 0.0000
# 3 87.1655 23.5880 124.9462 0.0000 -30.2836 0.0000
# 4 0.0000 0.0000 0.0000 8.7863 0.0000 1.6023
# 5 -6.1626 -3.0752 -30.2836 0.0000 22.4260 0.0000
# 6 0.0000 0.0000 0.0000 1.6023 0.0000 12.9278
#
#
#
# Elastic Compliance Matrix: (Units=1/GPa)
#
#
# Indices 1 2 3 4 5 6 
#
# 1 0.028232 -0.005838 -0.025133 0.000000 -0.026981 0.000000
# 2 -0.005838 0.069552 -0.010606 0.000000 -0.006389 0.000000
# 3 -0.025133 -0.010606 0.037925 0.000000 0.042853 0.000000
# 4 0.000000 0.000000 0.000000 0.116445 0.000000 -0.014433
# 5 -0.026981 -0.006389 0.042853 0.000000 0.094168 0.000000
# 6 0.000000 0.000000 0.000000 -0.014433 0.000000 0.079142
#
#
# Mechanical properties :
#
#
# Convention : Reuss Voigt Hill
#
# Bulk Modulus (GPa) = 19.02756 57.98916 38.50836
# Shear Modulus (GPa) = 9.50325 17.05045 13.27685
#
# Velocity S-wave (km/s) = 2.35864 3.15932 2.78787
# Velocity P-wave (km/s) = 4.30770 6.87424 5.73635
#
# Compressibility (1/GPa) = 0.05255534
#
# Stress axis : x y z
#
# Youngs Moduli (GPa) = 35.42081 14.37775 26.36778
#
# Poissons Ratio (x) = 0.08394 0.66269
# Poissons Ratio (y) = 0.20680 0.27965
# Poissons Ratio (z) = 0.89022 0.15249
#
# Static dielectric constant tensor:
#      x y z
#    x 1.614720 0.000000 -0.009580 
#    y 0.000000 1.596680 0.000000 
#    z -0.009580 0.000000 1.615990 
# 
# From -- ./inp_files/185963.got.cif
#   From: 2010.05.17/outbox.cif.g08.bks.cpg/sg12_93_cif.got.tgz:185963.got - 2010.06.03 13:09:07.
