data_PCOD9220723
_publ_section_title
;
Structure prediction by ZEFSAII (Michael W. Deem and Ramdas Pophale) SiO2 
 PCOD9220723
Probable space group: C 2/M
;
_chemical_formula_sum "Si O2"
_cell_formula_units_Z 56
_cell_length_a 30.427597
_cell_length_b 8.173180
_cell_length_c 20.455524
_cell_angle_alpha 90.000000
_cell_angle_beta 31.772161
_cell_angle_gamma 90.000000
_cell_volume 2678.569966
_symmetry_space_group_name_H-M "C 2/M"
_symmetry_group_IT_number 12
_symmetry_cell_setting 'monoclinic'
loop_
_space_group_symop_operation_xyz
x,y,z
-x,y,-z
-x,-y,-z
x,-y,z
1/2+x,1/2+y,z
1/2-x,1/2+y,-z
1/2-x,1/2-y,-z
1/2+x,1/2-y,z
loop_
_atom_site_type_symbol
_atom_site_label
_atom_site_fract_x
_atom_site_fract_y
_atom_site_fract_z
Si Si1 0.649891 0.810764 0.430452
Si Si2 0.429534 0.814453 0.032406
Si Si3 0.809012 0.694882 0.289314
Si Si4 0.340731 0.803978 0.860683
Si Si5 0.595222 0.200058 0.363323
Si Si6 0.011063 0.809795 0.690087
Si Si7 0.437281 0.800204 0.235596
O O1 0.712249 0.726209 0.402213
O O2 0.650233 0.745597 0.356120
O O3 0.556591 0.791868 0.575828
O O4 0.672725 0.000000 0.400604
O O5 0.353297 0.734701 0.167624
O O6 0.405629 0.000000 0.043418
O O7 0.500000 0.826022 0.000000
O O8 0.479690 0.742098 0.908421
O O9 0.823760 0.500000 0.269198
O O10 0.857288 0.752309 0.293192
O O11 0.366643 0.747348 0.754352
O O12 0.414188 0.737623 0.814214
O O13 0.343484 0.000000 0.857393
O O14 0.250000 0.750000 0.000000
O O15 0.500000 0.252075 0.500000
O O16 0.594602 0.000000 0.364354
O O17 0.056529 0.767171 0.700067
O O18 0.020042 0.000000 0.663725
O O19 0.438074 0.000000 0.236727
#
# Coordination Sequence:
#
# PCOD9220723 Si02
#       7
#     8   8   8   8   8   8   8
#     4  11  22  38  61  86 113 153 202 248 301 361
#     4   7  12  27  52  78 105 142 188 235 286 344
#     4   9  18  34  56  86 120 152 194 246 295 351
#     4  11  23  43  68  95 128 159 198 248 304 365
#     4   9  18  38  66  89 114 156 201 245 299 358
#     4  12  25  40  58  85 119 156 201 250 303 357
#     4   9  18  35  59  83 115 161 200 238 295 356
#
# _framework density 20.906679
#
# number of rings (size 3 to 8) (size 9 to 14) (size 15 to 20)
#    0.000    2.286    1.429    3.857    0.000    2.286 
#    0.000    7.143    0.000    2.571    0.000    0.000 
#    0.000    0.000    0.000    0.000    0.000    0.000 
#
# Total GULP energy -156122.389033 kJ/mol
# GULP energy per Si atom -5575.799608 kJ/mol
# Density = 2.085909 g / cm^3
# Si number density = 20.906679 Si / 1000 Ang^3
#
#
#
# Elastic Constant Matrix: (Units=GPa)
#
#
# Indices 1 2 3 4 5 6 
#
# 1 120.2744 13.5126 42.9880 -0.0078 2.0595 0.0027
# 2 13.5126 28.1813 -0.2554 -0.0235 2.2360 0.0058
# 3 42.9880 -0.2554 93.6449 -0.0092 -0.9272 0.0047
# 4 -0.0078 -0.0235 -0.0092 14.9211 0.0072 -6.3814
# 5 2.0595 2.2360 -0.9272 0.0072 36.2706 -0.0020
# 6 0.0027 0.0058 0.0047 -6.3814 -0.0020 15.0698
#
#
#
# Elastic Compliance Matrix: (Units=1/GPa)
#
#
# Indices 1 2 3 4 5 6 
#
# 1 0.010650 -0.005118 -0.004907 -0.000006 -0.000415 -0.000001
# 2 -0.005118 0.038119 0.002434 0.000066 -0.001997 0.000013
# 3 -0.004907 0.002434 0.012942 0.000009 0.000459 0.000000
# 4 -0.000006 0.000066 0.000009 0.081841 -0.000018 0.034656
# 5 -0.000415 -0.001997 0.000459 -0.000018 0.027729 -0.000003
# 6 -0.000001 0.000013 0.000000 0.034656 -0.000003 0.081033
#
#
# Mechanical properties :
#
#
# Convention : Reuss Voigt Hill
#
# Bulk Modulus (GPa) = 21.49210 39.39901 30.44555
# Shear Modulus (GPa) = 17.66736 25.64265 21.65501
#
# Velocity S-wave (km/s) = 2.91014 3.50598 3.22187
# Velocity P-wave (km/s) = 4.64696 5.93930 5.33243
#
# Compressibility (1/GPa) = 0.04652872
#
# Stress axis : x y z
#
# Youngs Moduli (GPa) = 93.89372 26.23345 77.26506
#
# Poissons Ratio (x) = 0.13427 0.37915
# Poissons Ratio (y) = 0.48057 -0.18804
# Poissons Ratio (z) = 0.46075 -0.06385
#
# Static dielectric constant tensor:
#      x y z
#    x 1.742980 0.000000 0.008170 
#    y 0.000000 1.745440 0.000000 
#    z 0.008170 0.000000 1.809100 
# 
# From -- ./inp_files/292410.got.cif
#   From: 2010.05.17/outbox.cif.g08.bks.cpg/sg12_147_cif.got.tgz:292410.got - 2010.06.03 13:09:07.
