data_PCOD9220361
_publ_section_title
;
Structure prediction by ZEFSAII (Michael W. Deem and Ramdas Pophale) SiO2 
 PCOD9220361
Probable space group: C 2/M
;
_chemical_formula_sum "Si O2"
_cell_formula_units_Z 64
_cell_length_a 15.520945
_cell_length_b 16.378838
_cell_length_c 13.888872
_cell_angle_alpha 90.000000
_cell_angle_beta 54.037921
_cell_angle_gamma 90.000000
_cell_volume 2857.817930
_symmetry_space_group_name_H-M "C 2/M"
_symmetry_group_IT_number 12
_symmetry_cell_setting 'monoclinic'
loop_
_space_group_symop_operation_xyz
x,y,z
-x,y,-z
-x,-y,-z
x,-y,z
1/2+x,1/2+y,z
1/2-x,1/2+y,-z
1/2-x,1/2-y,-z
1/2+x,1/2-y,z
loop_
_atom_site_type_symbol
_atom_site_label
_atom_site_fract_x
_atom_site_fract_y
_atom_site_fract_z
Si Si1 0.240971 0.403974 0.452608
Si Si2 0.859104 0.353862 0.295451
Si Si3 0.086325 0.411903 0.203951
Si Si4 0.886327 0.679292 0.622233
Si Si5 0.507510 0.407836 0.721760
Si Si6 0.302952 0.824571 0.020762
Si Si7 0.007268 0.219597 0.890874
Si Si8 0.829194 0.140014 0.702208
O O1 0.212472 0.500000 0.485756
O O2 0.180679 0.346344 0.568731
O O3 0.201686 0.374658 0.373939
O O4 0.367402 0.396342 0.380766
O O5 0.890544 0.270904 0.216482
O O6 0.759987 0.398267 0.308723
O O7 0.969995 0.401814 0.233236
O O8 0.093537 0.500000 0.246550
O O9 0.103539 0.343022 0.272364
O O10 0.175439 0.399245 0.064663
O O11 0.859409 0.774399 0.633041
O O12 0.000000 0.661518 0.500000
O O13 0.492231 0.500000 0.768607
O O14 0.478511 0.341645 0.822826
O O15 0.437583 0.398866 0.670823
O O16 0.419064 0.789024 0.967341
O O17 0.250000 0.750000 0.000000
O O18 0.236581 0.845937 0.156814
O O19 0.000000 0.175603 0.000000
#
# Coordination Sequence:
#
# PCOD9220361 Si02
#       8
#     8   8   8   8   8   8   8   8
#     4  11  26  46  67 100 140 175 220 278 339 400
#     4  11  24  42  72  97 135 180 221 278 335 389
#     4  11  24  43  69 105 137 169 218 280 349 402
#     4  12  25  41  73 104 130 174 223 286 338 393
#     4  11  27  45  64  97 140 181 222 271 330 404
#     4  11  21  43  67  96 135 173 221 280 327 392
#     4  11  22  41  70 100 128 167 229 286 331 391
#     4  12  25  44  68  99 135 181 233 269 321 400
#
# _framework density 22.394708999999999
#
# number of rings (size 3 to 8) (size 9 to 14) (size 15 to 20)
#    0.000    0.750    5.000    2.250    1.750    3.250 
#    0.000    1.875    0.000    0.000    0.000    0.000 
#    0.000    0.000    0.000    0.000    0.000    0.000 
#
# Total GULP energy -178701.799228 kJ/mol
# GULP energy per Si atom -5584.431226 kJ/mol
# Density = 2.234374 g / cm^3
# Si number density = 22.394709 Si / 1000 Ang^3
#
#
#
# Elastic Constant Matrix: (Units=GPa)
#
#
# Indices 1 2 3 4 5 6 
#
# 1 128.1687 20.7120 16.9743 0.0000 -11.9947 0.0000
# 2 20.7120 66.1629 16.5446 0.0000 -3.3168 0.0000
# 3 16.9743 16.5446 34.8631 0.0000 -1.6871 0.0000
# 4 0.0000 0.0000 0.0000 11.4025 0.0000 -2.1773
# 5 -11.9947 -3.3168 -1.6871 0.0000 34.4922 0.0000
# 6 0.0000 0.0000 0.0000 -2.1773 0.0000 19.2185
#
#
#
# Elastic Compliance Matrix: (Units=1/GPa)
#
#
# Indices 1 2 3 4 5 6 
#
# 1 0.008782 -0.001789 -0.003295 0.000000 0.002721 0.000000
# 2 -0.001789 0.017568 -0.007432 0.000000 0.000704 0.000000
# 3 -0.003295 -0.007432 0.033805 0.000000 -0.000207 0.000000
# 4 0.000000 0.000000 0.000000 0.089639 0.000000 0.010155
# 5 0.002721 0.000704 -0.000207 0.000000 0.029996 0.000000
# 6 0.000000 0.000000 0.000000 0.010155 0.000000 0.053184
#
#
# Mechanical properties :
#
#
# Convention : Reuss Voigt Hill
#
# Bulk Modulus (GPa) = 28.47155 37.51739 32.99447
# Shear Modulus (GPa) = 18.53815 24.68690 21.61252
#
# Velocity S-wave (km/s) = 2.88026 3.32377 3.10993
# Velocity P-wave (km/s) = 4.87876 5.61419 5.25934
#
# Compressibility (1/GPa) = 0.03512279
#
# Stress axis : x y z
#
# Youngs Moduli (GPa) = 113.86463 56.92192 29.58138
#
# Poissons Ratio (x) = 0.10182 0.09748
# Poissons Ratio (y) = 0.20368 0.21985
# Poissons Ratio (z) = 0.37523 0.42304
#
# Static dielectric constant tensor:
#      x y z
#    x 1.924220 0.000000 0.011460 
#    y 0.000000 1.832860 0.000000 
#    z 0.011460 0.000000 1.825680 
# 
# From -- ./inp_files/216775.got.cif
#   From: 2010.05.17/outbox.cif.g08.bks.cpg/sg12_109_cif.got.tgz:216775.got - 2010.06.03 13:09:07.
