data_PCOD9220023
_publ_section_title
;
Structure prediction by ZEFSAII (Michael W. Deem and Ramdas Pophale) SiO2 
 PCOD9220023
Probable space group: C 2/M
;
_chemical_formula_sum "Si O2"
_cell_formula_units_Z 40
_cell_length_a 9.915008
_cell_length_b 26.287720
_cell_length_c 11.923298
_cell_angle_alpha 90.000000
_cell_angle_beta 37.849495
_cell_angle_gamma 90.000000
_cell_volume 1906.866270
_symmetry_space_group_name_H-M "C 2/M"
_symmetry_group_IT_number 12
_symmetry_cell_setting 'monoclinic'
loop_
_space_group_symop_operation_xyz
x,y,z
-x,y,-z
-x,-y,-z
x,-y,z
1/2+x,1/2+y,z
1/2-x,1/2+y,-z
1/2-x,1/2-y,-z
1/2+x,1/2-y,z
loop_
_atom_site_type_symbol
_atom_site_label
_atom_site_fract_x
_atom_site_fract_y
_atom_site_fract_z
Si Si1 0.318462 0.558547 0.720065
Si Si2 0.732073 0.556608 0.783284
Si Si3 0.365466 0.699850 0.971509
Si Si4 0.370240 0.372077 0.346922
Si Si5 0.487507 0.114366 0.239056
O O1 0.500000 0.556782 0.500000
O O2 0.266471 0.500000 0.783234
O O3 0.436350 0.589683 0.740972
O O4 0.115725 0.591081 0.805263
O O5 0.745190 0.500000 0.727226
O O6 0.746647 0.598276 0.677497
O O7 0.917523 0.567006 0.752917
O O8 0.500000 0.562228 0.000000
O O9 0.532363 0.678841 0.768550
O O10 0.500000 0.706461 0.000000
O O11 0.250000 0.750000 0.000000
O O12 0.180052 0.655796 0.104936
O O13 0.209913 0.363260 0.556162
#
# Coordination Sequence:
#
# PCOD9220023 Si02
#       5
#     8   8   8   8   8
#     4   9  20  37  61  98 136 171 210 245 295 374
#     4  11  21  37  63  97 133 171 211 250 307 383
#     4  12  28  48  67  94 122 158 217 276 329 386
#     4  11  22  42  67  93 130 168 208 260 314 373
#     4  11  22  42  67  93 130 168 208 260 314 373
#
# _framework density 20.976824000000001
#
# number of rings (size 3 to 8) (size 9 to 14) (size 15 to 20)
#    0.000    1.200    4.000    1.800    2.800    4.000 
#    0.000    1.000    0.000    0.000    0.000    0.000 
#    0.000    0.000    0.000    0.000    0.000    0.000 
#
# Total GULP energy -111856.541332 kJ/mol
# GULP energy per Si atom -5592.827067 kJ/mol
# Density = 2.092908 g / cm^3
# Si number density = 20.976824 Si / 1000 Ang^3
#
#
#
# Elastic Constant Matrix: (Units=GPa)
#
#
# Indices 1 2 3 4 5 6 
#
# 1 121.0809 28.7931 23.8348 0.0000 -16.7210 0.0000
# 2 28.7931 99.0761 23.4643 0.0000 -5.7414 0.0000
# 3 23.8348 23.4643 81.6482 0.0000 -3.2757 0.0000
# 4 0.0000 0.0000 0.0000 -18.1819 0.0000 -2.0906
# 5 -16.7210 -5.7414 -3.2757 0.0000 27.9545 0.0000
# 6 0.0000 0.0000 0.0000 -2.0906 0.0000 35.1615
#
#
#
# Elastic Compliance Matrix: (Units=1/GPa)
#
#
# Indices 1 2 3 4 5 6 
#
# 1 0.009886 -0.002077 -0.002079 0.000000 0.005243 0.000000
# 2 -0.002077 0.011365 -0.002628 0.000000 0.000784 0.000000
# 3 -0.002079 -0.002628 0.013602 0.000000 -0.000189 0.000000
# 4 0.000000 0.000000 0.000000 -0.054626 0.000000 -0.003248
# 5 0.005243 0.000784 -0.000189 0.000000 0.039047 0.000000
# 6 0.000000 0.000000 0.000000 -0.003248 0.000000 0.028247
#
#
# Mechanical properties :
#
#
# Convention : Reuss Voigt Hill
#
# Bulk Modulus (GPa) = 46.98101 50.44330 48.71216
# Shear Modulus (GPa) = 73.33062 24.03434 48.68248
#
# Velocity S-wave (km/s) = 5.91894 3.38858 4.82267
# Velocity P-wave (km/s) = 8.31607 6.27768 7.36771
#
# Compressibility (1/GPa) = 0.02128519
#
# Stress axis : x y z
#
# Youngs Moduli (GPa) = 101.15197 87.99164 73.51734
#
# Poissons Ratio (x) = 0.18275 0.15282
# Poissons Ratio (y) = 0.21008 0.19322
# Poissons Ratio (z) = 0.21027 0.23127
#
# Static dielectric constant tensor:
#      x y z
#    x 1.746280 0.000000 -0.033220 
#    y 0.000000 1.704530 0.000000 
#    z -0.033220 0.000000 1.825740 
# 
# From -- ./inp_files/40302.got.cif
#   From: 2010.05.17/outbox.cif.g08.bks.cpg/sg12_21_cif.got.tgz:40302.got - 2010.06.03 13:09:07.
