data_PCOD9220240
_publ_section_title
;
Structure prediction by ZEFSAII (Michael W. Deem and Ramdas Pophale) SiO2 
 PCOD9220240
Probable space group: C 2/M
;
_chemical_formula_sum "Si O2"
_cell_formula_units_Z 42
_cell_length_a 22.320012
_cell_length_b 16.427598
_cell_length_c 4.927473
_cell_angle_alpha 90.000000
_cell_angle_beta 76.648730
_cell_angle_gamma 90.000000
_cell_volume 1757.896762
_symmetry_space_group_name_H-M "C 2/M"
_symmetry_group_IT_number 12
_symmetry_cell_setting 'monoclinic'
loop_
_space_group_symop_operation_xyz
x,y,z
-x,y,-z
-x,-y,-z
x,-y,z
1/2+x,1/2+y,z
1/2-x,1/2+y,-z
1/2-x,1/2-y,-z
1/2+x,1/2-y,z
loop_
_atom_site_type_symbol
_atom_site_label
_atom_site_fract_x
_atom_site_fract_y
_atom_site_fract_z
Si Si1 0.941667 0.847624 0.751303
Si Si2 0.821278 0.169262 0.547363
Si Si3 0.933750 0.668474 0.946004
Si Si4 0.000000 0.000000 0.000000
Si Si5 0.263367 0.591709 0.091710
Si Si6 0.857717 0.356519 0.518112
O O1 0.883986 0.863660 0.615616
O O2 0.000000 0.825828 0.500000
O O3 0.928621 0.767707 0.948042
O O4 0.959058 0.927808 0.895500
O O5 0.807451 0.132700 0.269306
O O6 0.829027 0.265745 0.539862
O O7 0.767658 0.143101 0.811893
O O8 0.883162 0.628038 0.193762
O O9 0.916211 0.644469 0.659464
O O10 0.000000 0.648426 0.000000
O O11 0.282963 0.500000 0.010837
O O12 0.196304 0.591252 0.297327
#
# Coordination Sequence:
#
# PCOD9220240 Si02
#       6
#     8   8   8   2   8   8
#     4  11  25  39  58  89 130 171 211 252 302 359
#     4  11  24  41  66  89 123 171 217 248 299 374
#     4  11  21  40  68  94 119 159 212 253 300 371
#     4  12  26  36  60  82 144 172 204 248 316 358
#     4  12  26  43  64  93 125 163 207 266 318 366
#     4  11  23  42  68  91 126 163 208 258 307 369
#
# _framework density 23.892188999999998
#
# number of rings (size 3 to 8) (size 9 to 14) (size 15 to 20)
#    0.000    0.762    0.952    8.286    5.333    0.000 
#    0.000    0.000    0.000    3.429    0.000    0.000 
#    0.000    0.000    0.000    0.000    0.000    0.000 
#
# Total GULP energy -117421.481290 kJ/mol
# GULP energy per Si atom -5591.499109 kJ/mol
# Density = 2.383781 g / cm^3
# Si number density = 23.892189 Si / 1000 Ang^3
#
#
#
# Elastic Constant Matrix: (Units=GPa)
#
#
# Indices 1 2 3 4 5 6 
#
# 1 100.0831 6.8030 -5.1646 0.0000 4.6912 0.0000
# 2 6.8030 25.4658 -4.4455 0.0000 7.0684 0.0000
# 3 -5.1646 -4.4455 91.9700 0.0000 -5.3402 0.0000
# 4 0.0000 0.0000 0.0000 -6.2508 0.0000 3.7990
# 5 4.6912 7.0684 -5.3402 0.0000 46.6191 0.0000
# 6 0.0000 0.0000 0.0000 3.7990 0.0000 19.9761
#
#
#
# Elastic Compliance Matrix: (Units=1/GPa)
#
#
# Indices 1 2 3 4 5 6 
#
# 1 0.010211 -0.002487 0.000418 0.000000 -0.000602 0.000000
# 2 -0.002487 0.041844 0.001539 0.000000 -0.005918 0.000000
# 3 0.000418 0.001539 0.011028 0.000000 0.000988 0.000000
# 4 0.000000 0.000000 0.000000 -0.143404 0.000000 0.027272
# 5 -0.000602 -0.005918 0.000988 0.000000 0.022521 0.000000
# 6 0.000000 0.000000 0.000000 0.027272 0.000000 0.044873
#
#
# Mechanical properties :
#
#
# Convention : Reuss Voigt Hill
#
# Bulk Modulus (GPa) = 16.12304 23.54497 19.83400
# Shear Modulus (GPa) = 567.63695 26.75728 297.19711
#
# Velocity S-wave (km/s) = 15.43044 3.35015 11.16517
# Velocity P-wave (km/s) = 18.00632 4.98405 13.21113
#
# Compressibility (1/GPa) = 0.06202303
#
# Stress axis : x y z
#
# Youngs Moduli (GPa) = 97.93746 23.89822 90.67539
#
# Poissons Ratio (x) = 0.05945 -0.03792
# Poissons Ratio (y) = 0.24362 -0.13958
# Poissons Ratio (z) = -0.04095 -0.03679
#
# Static dielectric constant tensor:
#      x y z
#    x 1.931900 0.000000 -0.053550 
#    y 0.000000 1.827800 0.000000 
#    z -0.053550 0.000000 1.912420 
# 
# From -- ./inp_files/20359.got.cif
#   From: 2010.05.17/outbox.cif.g08.bks.cpg/sg12_11_cif.got.tgz:20359.got - 2010.06.03 13:09:07.
