data_PCOD9220964
_publ_section_title
;
Structure prediction by ZEFSAII (Michael W. Deem and Ramdas Pophale) SiO2 
 PCOD9220964
Probable space group: C 2/M
;
_chemical_formula_sum "Si O2"
_cell_formula_units_Z 48
_cell_length_a 19.634707
_cell_length_b 14.277414
_cell_length_c 19.745437
_cell_angle_alpha 90.000000
_cell_angle_beta 151.216015
_cell_angle_gamma 90.000000
_cell_volume 2665.292514
_symmetry_space_group_name_H-M "C 2/M"
_symmetry_group_IT_number 12
_symmetry_cell_setting 'monoclinic'
loop_
_space_group_symop_operation_xyz
x,y,z
-x,y,-z
-x,-y,-z
x,-y,z
1/2+x,1/2+y,z
1/2-x,1/2+y,-z
1/2-x,1/2-y,-z
1/2+x,1/2-y,z
loop_
_atom_site_type_symbol
_atom_site_label
_atom_site_fract_x
_atom_site_fract_y
_atom_site_fract_z
Si Si1 0.078764 0.000000 0.366516
Si Si2 0.911969 0.189238 0.855530
Si Si3 0.343896 0.500000 0.723333
Si Si4 0.905827 0.500000 0.681155
Si Si5 0.393862 0.200408 0.348576
Si Si6 0.483094 0.000000 0.588309
Si Si7 0.440575 0.819167 0.124967
Si Si8 0.881782 0.181452 0.199775
O O1 0.117861 0.000000 0.321631
O O2 0.234301 0.000000 0.536789
O O3 0.983213 0.908285 0.295613
O O4 0.755539 0.208031 0.745153
O O5 0.977274 0.267465 0.863846
O O6 0.908013 0.091975 0.812267
O O7 0.000000 0.179078 0.000000
O O8 0.173396 0.500000 0.581302
O O9 0.953782 0.500000 0.643667
O O10 0.973989 0.409119 0.775259
O O11 0.500000 0.231916 0.500000
O O12 0.391769 0.260308 0.278063
O O13 0.435493 0.093958 0.363265
O O14 0.429591 0.747344 0.178765
O O15 0.281588 0.843094 0.960741
#
# Coordination Sequence:
#
# PCOD9220964 Si02
#       8
#     4   8   4   4   8   4   8   8
#     4  11  25  41  69 101 126 170 227 266 318 382
#     4  12  24  42  63 100 133 171 218 265 336 383
#     4  11  22  40  64  99 139 168 206 279 325 389
#     4  11  25  41  70 100 128 171 222 270 318 380
#     4  12  24  41  68  96 135 175 213 266 332 393
#     4  11  22  41  63 101 137 170 209 266 337 389
#     4  11  24  45  67  93 135 174 218 267 322 387
#     4  11  24  45  67  95 130 177 221 263 319 394
#
# _framework density 18.00928
#
# number of rings (size 3 to 8) (size 9 to 14) (size 15 to 20)
#    0.000    0.667    6.667    1.500    2.333    0.667 
#    3.000    1.667    0.000    0.000    0.000    0.000 
#    0.000    0.000    0.000    0.000    0.000    0.000 
#
# Total GULP energy -134088.777478 kJ/mol
# GULP energy per Si atom -5587.032395 kJ/mol
# Density = 1.796829 g / cm^3
# Si number density = 18.009280 Si / 1000 Ang^3
#
#
#
# Elastic Constant Matrix: (Units=GPa)
#
#
# Indices 1 2 3 4 5 6 
#
# 1 97.6079 60.0855 59.2442 0.0001 8.3411 -0.0003
# 2 60.0855 135.2889 88.0071 0.0005 8.4665 -0.0012
# 3 59.2442 88.0071 177.1353 0.0006 8.2504 -0.0014
# 4 0.0001 0.0005 0.0006 23.5954 0.0003 30.0715
# 5 8.3411 8.4665 8.2504 0.0003 41.6964 -0.0007
# 6 -0.0003 -0.0012 -0.0014 30.0715 -0.0007 -55.3129
#
#
#
# Elastic Compliance Matrix: (Units=1/GPa)
#
#
# Indices 1 2 3 4 5 6 
#
# 1 0.014899 -0.004916 -0.002471 0.000000 -0.001493 0.000000
# 2 -0.004916 0.012599 -0.004584 0.000000 -0.000668 0.000000
# 3 -0.002471 -0.004584 0.008764 0.000000 -0.000309 0.000000
# 4 0.000000 0.000000 0.000000 0.025035 0.000000 0.013611
# 5 -0.001493 -0.000668 -0.000309 0.000000 0.024478 0.000000
# 6 0.000000 0.000000 0.000000 0.013611 0.000000 -0.010679
#
#
# Mechanical properties :
#
#
# Convention : Reuss Voigt Hill
#
# Bulk Modulus (GPa) = 81.17645 91.63396 86.40521
# Shear Modulus (GPa) = 48.47590 15.50880 31.99235
#
# Velocity S-wave (km/s) = 5.19380 2.93773 4.21935
# Velocity P-wave (km/s) = 9.00778 7.90563 8.47464
#
# Compressibility (1/GPa) = 0.01231884
#
# Stress axis : x y z
#
# Youngs Moduli (GPa) = 67.11994 79.37236 114.10546
#
# Poissons Ratio (x) = 0.39020 0.28195
# Poissons Ratio (y) = 0.32997 0.52309
# Poissons Ratio (z) = 0.16585 0.36386
#
# Static dielectric constant tensor:
#      x y z
#    x 1.595200 0.000000 0.006870 
#    y 0.000000 1.565810 0.000000 
#    z 0.006870 0.000000 1.584660 
# 
# From -- ./inp_files/105099.got.cif
#   From: 2010.05.17/outbox.cif.g08.bks.cpg/sg12_53_cif.got.tgz:105099.got - 2010.06.03 13:09:07.
