data_PCOD9220046
_publ_section_title
;
Structure prediction by ZEFSAII (Michael W. Deem and Ramdas Pophale) SiO2 
 PCOD9220046
Probable space group: C 2/M
;
_chemical_formula_sum "Si O2"
_cell_formula_units_Z 48
_cell_length_a 10.358984
_cell_length_b 25.071980
_cell_length_c 17.242114
_cell_angle_alpha 90.000000
_cell_angle_beta 147.435578
_cell_angle_gamma 90.000000
_cell_volume 2410.340372
_symmetry_space_group_name_H-M "C 2/M"
_symmetry_group_IT_number 12
_symmetry_cell_setting 'monoclinic'
loop_
_space_group_symop_operation_xyz
x,y,z
-x,y,-z
-x,-y,-z
x,-y,z
1/2+x,1/2+y,z
1/2-x,1/2+y,-z
1/2-x,1/2-y,-z
1/2+x,1/2-y,z
loop_
_atom_site_type_symbol
_atom_site_label
_atom_site_fract_x
_atom_site_fract_y
_atom_site_fract_z
Si Si1 0.745130 0.741264 0.405893
Si Si2 0.487277 0.936190 0.615811
Si Si3 0.253324 0.720133 0.919705
Si Si4 0.668968 0.383338 0.339068
Si Si5 0.261648 0.906581 0.101597
Si Si6 0.233425 0.557691 0.066195
O O1 0.750000 0.750000 0.500000
O O2 0.498393 0.766454 0.249487
O O3 0.727202 0.678532 0.376582
O O4 0.000000 0.761137 0.500000
O O5 0.242610 0.913247 0.455577
O O6 0.681126 0.909711 0.655574
O O7 0.552497 0.917675 0.735160
O O8 0.495373 0.000000 0.614904
O O9 0.259531 0.656048 0.928312
O O10 0.500000 0.735834 0.000000
O O11 0.250000 0.750000 0.000000
O O12 0.398486 0.394734 0.179332
O O13 0.322263 0.935395 0.052376
O O14 0.000000 0.924707 0.000000
O O15 0.360173 0.500000 0.140453
O O16 0.000000 0.557176 0.000000
#
# Coordination Sequence:
#
# PCOD9220046 Si02
#       6
#     8   8   8   8   8   8
#     4  12  25  42  65  92 129 170 217 272 322 381
#     4  11  21  37  67  97 122 157 212 271 319 365
#     4  11  25  42  65  92 128 172 218 265 322 385
#     4  11  22  40  64  89 129 164 214 259 318 386
#     4  11  23  40  65  95 128 162 222 271 309 379
#     4  11  24  41  63  94 133 170 204 258 331 395
#
# _framework density 19.914200000000001
#
# number of rings (size 3 to 8) (size 9 to 14) (size 15 to 20)
#    0.000    0.833    3.333    5.500    2.333    4.667 
#    0.000    0.833    0.000    3.000    0.000    0.000 
#    0.000    0.000    0.000    0.000    0.000    0.000 
#
# Total GULP energy -134114.905010 kJ/mol
# GULP energy per Si atom -5588.121042 kJ/mol
# Density = 1.986887 g / cm^3
# Si number density = 19.914200 Si / 1000 Ang^3
#
#
#
# Elastic Constant Matrix: (Units=GPa)
#
#
# Indices 1 2 3 4 5 6 
#
# 1 132.8962 20.7943 55.1919 0.0024 -6.9828 0.0003
# 2 20.7943 59.2493 -6.0887 0.0017 7.8616 0.0000
# 3 55.1919 -6.0887 121.9321 0.0029 -9.1291 0.0015
# 4 0.0024 0.0017 0.0029 33.9913 0.0006 -3.5954
# 5 -6.9828 7.8616 -9.1291 0.0006 28.8540 0.0006
# 6 0.0003 0.0000 0.0015 -3.5954 0.0006 57.5040
#
#
#
# Elastic Compliance Matrix: (Units=1/GPa)
#
#
# Indices 1 2 3 4 5 6 
#
# 1 0.010281 -0.004383 -0.004708 0.000000 0.002193 0.000000
# 2 -0.004383 0.019413 0.002538 -0.000001 -0.005547 0.000000
# 3 -0.004708 0.002538 0.010573 -0.000001 0.001514 0.000000
# 4 0.000000 -0.000001 -0.000001 0.029615 -0.000001 0.001852
# 5 0.002193 -0.005547 0.001514 -0.000001 0.037178 0.000000
# 6 0.000000 0.000000 0.000000 0.001852 0.000000 0.017506
#
#
# Mechanical properties :
#
#
# Convention : Reuss Voigt Hill
#
# Bulk Modulus (GPa) = 36.81905 50.43030 43.62468
# Shear Modulus (GPa) = 34.07712 40.34854 37.21283
#
# Velocity S-wave (km/s) = 4.14115 4.50613 4.32749
# Velocity P-wave (km/s) = 6.43385 7.24240 6.85007
#
# Compressibility (1/GPa) = 0.02715985
#
# Stress axis : x y z
#
# Youngs Moduli (GPa) = 97.26598 51.51200 94.58405
#
# Poissons Ratio (x) = 0.22578 0.44534
# Poissons Ratio (y) = 0.42632 -0.24006
# Poissons Ratio (z) = 0.45797 -0.13074
#
# Static dielectric constant tensor:
#      x y z
#    x 1.685800 0.000000 0.035600 
#    y 0.000000 1.709160 0.000000 
#    z 0.035600 0.000000 1.745880 
# 
# From -- ./inp_files/200206.got.cif
#   From: 2010.05.17/outbox.cif.g08.bks.cpg/sg12_101_cif.got.tgz:200206.got - 2010.06.03 13:09:07.
