data_PCOD9220375
_publ_section_title
;
Structure prediction by ZEFSAII (Michael W. Deem and Ramdas Pophale) SiO2 
 PCOD9220375
Probable space group: C 2/M
;
_chemical_formula_sum "Si O2"
_cell_formula_units_Z 44
_cell_length_a 10.687576
_cell_length_b 22.856030
_cell_length_c 8.411881
_cell_angle_alpha 90.000000
_cell_angle_beta 116.814632
_cell_angle_gamma 90.000000
_cell_volume 1833.863786
_symmetry_space_group_name_H-M "C 2/M"
_symmetry_group_IT_number 12
_symmetry_cell_setting 'monoclinic'
loop_
_space_group_symop_operation_xyz
x,y,z
-x,y,-z
-x,-y,-z
x,-y,z
1/2+x,1/2+y,z
1/2-x,1/2+y,-z
1/2-x,1/2-y,-z
1/2+x,1/2-y,z
loop_
_atom_site_type_symbol
_atom_site_label
_atom_site_fract_x
_atom_site_fract_y
_atom_site_fract_z
Si Si1 0.408858 0.219223 0.792331
Si Si2 0.085087 0.064251 0.388165
Si Si3 0.000000 0.306697 0.500000
Si Si4 0.295838 0.652656 0.764487
Si Si5 0.655268 0.908194 0.276218
Si Si6 0.327607 0.934630 0.076553
O O1 0.483537 0.226198 0.661500
O O2 0.337399 0.279854 0.797205
O O3 0.314617 0.161523 0.715590
O O4 0.500000 0.203389 0.000000
O O5 0.088003 0.117022 0.266905
O O6 0.246046 0.062645 0.538921
O O7 0.000000 0.076509 0.500000
O O8 0.042510 0.000000 0.302663
O O9 0.140978 0.344324 0.597320
O O10 0.269098 0.615590 0.906876
O O11 0.489898 0.918575 0.207361
O O12 0.686692 0.933893 0.120909
O O13 0.297377 0.000000 0.120773
#
# Coordination Sequence:
#
# PCOD9220375 Si02
#       6
#     8   8   4   8   8   8
#     4  12  26  45  69 105 144 182 235 293 352 426
#     4  11  25  43  64  96 138 184 232 281 347 425
#     4  12  24  46  69 104 139 178 238 292 352 412
#     4  12  25  43  69 100 140 186 232 289 352 423
#     4  11  21  44  69 102 135 178 232 291 358 409
#     4  11  22  41  72 104 136 178 235 298 351 409
#
# _framework density 23.993058999999999
#
# number of rings (size 3 to 8) (size 9 to 14) (size 15 to 20)
#    0.000    0.545    5.455    3.273    1.273    4.364 
#    0.000    2.727    0.000    4.364    0.000    0.000 
#    0.000    0.000    0.000    0.000    0.000    0.000 
#
# Total GULP energy -122990.499498 kJ/mol
# GULP energy per Si atom -5590.477250 kJ/mol
# Density = 2.393845 g / cm^3
# Si number density = 23.993059 Si / 1000 Ang^3
#
#
#
# Elastic Constant Matrix: (Units=GPa)
#
#
# Indices 1 2 3 4 5 6 
#
# 1 67.7159 40.7575 12.8835 0.0000 -20.4807 0.0000
# 2 40.7575 181.6588 0.2206 0.0000 -20.3025 0.0000
# 3 12.8835 0.2206 58.7299 0.0000 -11.4374 0.0000
# 4 0.0000 0.0000 0.0000 13.8571 0.0000 -4.1519
# 5 -20.4807 -20.3025 -11.4374 0.0000 32.8313 0.0000
# 6 0.0000 0.0000 0.0000 -4.1519 0.0000 31.7953
#
#
#
# Elastic Compliance Matrix: (Units=1/GPa)
#
#
# Indices 1 2 3 4 5 6 
#
# 1 0.020242 -0.003466 -0.002559 0.000000 0.009592 0.000000
# 2 -0.003466 0.006537 0.001182 0.000000 0.002292 0.000000
# 3 -0.002559 0.001182 0.018683 0.000000 0.005643 0.000000
# 4 0.000000 0.000000 0.000000 0.075104 0.000000 0.009807
# 5 0.009592 0.002292 0.005643 0.000000 0.039826 0.000000
# 6 0.000000 0.000000 0.000000 0.009807 0.000000 0.032732
#
#
# Mechanical properties :
#
#
# Convention : Reuss Voigt Hill
#
# Bulk Modulus (GPa) = 27.95234 46.20309 37.07772
# Shear Modulus (GPa) = 23.28440 32.64627 27.96534
#
# Velocity S-wave (km/s) = 3.11861 3.69271 3.41773
# Velocity P-wave (km/s) = 4.96418 6.12210 5.57329
#
# Compressibility (1/GPa) = 0.03577518
#
# Stress axis : x y z
#
# Youngs Moduli (GPa) = 49.40205 152.96868 53.52437
#
# Poissons Ratio (x) = 0.53026 0.13699
# Poissons Ratio (y) = 0.17125 -0.06328
# Poissons Ratio (z) = 0.12644 -0.18084
#
# Static dielectric constant tensor:
#      x y z
#    x 1.924340 0.000000 0.006920 
#    y 0.000000 1.919700 0.000000 
#    z 0.006920 0.000000 1.961670 
# 
# From -- ./inp_files/49493.got.cif
#   From: 2010.05.17/outbox.cif.g08.bks.cpg/sg12_25_cif.got.tgz:49493.got - 2010.06.03 13:09:07.
