data_PCOD9220821
_publ_section_title
;
Structure prediction by ZEFSAII (Michael W. Deem and Ramdas Pophale) SiO2 
 PCOD9220821
Probable space group: C 2/M
;
_chemical_formula_sum "Si O2"
_cell_formula_units_Z 42
_cell_length_a 15.029739
_cell_length_b 7.489094
_cell_length_c 24.527330
_cell_angle_alpha 90.000000
_cell_angle_beta 136.121530
_cell_angle_gamma 90.000000
_cell_volume 1913.578705
_symmetry_space_group_name_H-M "C 2/M"
_symmetry_group_IT_number 12
_symmetry_cell_setting 'monoclinic'
loop_
_space_group_symop_operation_xyz
x,y,z
-x,y,-z
-x,-y,-z
x,-y,z
1/2+x,1/2+y,z
1/2-x,1/2+y,-z
1/2-x,1/2-y,-z
1/2+x,1/2-y,z
loop_
_atom_site_type_symbol
_atom_site_label
_atom_site_fract_x
_atom_site_fract_y
_atom_site_fract_z
Si Si1 0.160018 0.716103 0.290298
Si Si2 0.601539 0.784288 0.877789
Si Si3 0.613409 0.712401 0.011056
Si Si4 0.569001 0.705003 0.619952
Si Si5 0.153784 0.711774 0.408032
Si Si6 0.500000 0.000000 0.500000
O O1 0.151039 0.500000 0.287216
O O2 0.282482 0.758048 0.307310
O O3 0.194762 0.780073 0.366755
O O4 0.022992 0.782177 0.209526
O O5 0.585490 0.740078 0.934614
O O6 0.604207 0.000000 0.875150
O O7 0.740190 0.718086 0.917786
O O8 0.619361 0.500000 0.023716
O O9 0.500000 0.783718 0.000000
O O10 0.564245 0.500000 0.597281
O O11 0.484388 0.714259 0.636636
O O12 0.508787 0.843424 0.551190
O O13 0.144977 0.500000 0.399993
O O14 0.250000 0.750000 0.500000
#
# Coordination Sequence:
#
# PCOD9220821 Si02
#       6
#     8   8   8   8   8   2
#     4   9  21  39  60  82 119 163 198 249 309 362
#     4   9  18  36  57  82 118 157 196 239 293 355
#     4   9  18  33  56  87 119 153 194 239 291 353
#     4  11  23  41  61  87 119 154 203 258 310 369
#     4  11  22  39  60  88 116 155 207 253 310 372
#     4  12  22  40  64  86 112 158 206 248 318 370
#
# _framework density 21.948407
#
# number of rings (size 3 to 8) (size 9 to 14) (size 15 to 20)
#    0.000    2.095    0.952    2.000    0.000    3.429 
#    3.429    1.905    0.000    0.000    0.000    0.000 
#    0.000    0.000    0.000    0.000    0.000    0.000 
#
# Total GULP energy -116990.243139 kJ/mol
# GULP energy per Si atom -5570.963959 kJ/mol
# Density = 2.189845 g / cm^3
# Si number density = 21.948407 Si / 1000 Ang^3
#
#
#
# Elastic Constant Matrix: (Units=GPa)
#
#
# Indices 1 2 3 4 5 6 
#
# 1 151.9115 -1.6372 63.6987 0.0000 42.0195 0.0000
# 2 -1.6372 96.3457 -10.0465 0.0000 5.9761 0.0000
# 3 63.6987 -10.0465 109.1590 0.0000 28.1689 0.0000
# 4 0.0000 0.0000 0.0000 6.1284 0.0000 -8.8271
# 5 42.0195 5.9761 28.1689 0.0000 22.8578 0.0000
# 6 0.0000 0.0000 0.0000 -8.8271 0.0000 18.3870
#
#
#
# Elastic Compliance Matrix: (Units=1/GPa)
#
#
# Indices 1 2 3 4 5 6 
#
# 1 0.013948 0.001512 -0.001879 0.000000 -0.023721 0.000000
# 2 0.001512 0.011188 0.002375 0.000000 -0.008632 0.000000
# 3 -0.001879 0.002375 0.014289 0.000000 -0.014776 0.000000
# 4 0.000000 0.000000 0.000000 0.528900 0.000000 0.253911
# 5 -0.023721 -0.008632 -0.014776 0.000000 0.107821 0.000000
# 6 0.000000 0.000000 0.000000 0.253911 0.000000 0.176282
#
#
# Mechanical properties :
#
#
# Convention : Reuss Voigt Hill
#
# Bulk Modulus (GPa) = 23.01950 51.27179 37.14565
# Shear Modulus (GPa) = 5.79446 29.83471 17.81459
#
# Velocity S-wave (km/s) = 1.62658 3.69088 2.85205
# Velocity P-wave (km/s) = 3.74679 6.44782 5.27318
#
# Compressibility (1/GPa) = 0.04344142
#
# Stress axis : x y z
#
# Youngs Moduli (GPa) = 71.69319 89.38146 69.98478
#
# Poissons Ratio (x) = -0.13519 0.13149
# Poissons Ratio (y) = -0.10843 -0.16618
# Poissons Ratio (z) = 0.13470 -0.21224
#
# Static dielectric constant tensor:
#      x y z
#    x 1.824170 0.000000 0.051160 
#    y 0.000000 1.802990 0.000000 
#    z 0.051160 0.000000 1.800100 
# 
# From -- ./inp_files/360119.got.cif
#   From: 2010.05.17/outbox.cif.g08.bks.cpg/sg12_181_cif.got.tgz:360119.got - 2010.06.03 13:09:07.
