data_PCOD9220687
_publ_section_title
;
Structure prediction by ZEFSAII (Michael W. Deem and Ramdas Pophale) SiO2 
 PCOD9220687
Probable space group: C 2/M
;
_chemical_formula_sum "Si O2"
_cell_formula_units_Z 48
_cell_length_a 15.086610
_cell_length_b 8.017001
_cell_length_c 19.312976
_cell_angle_alpha 90.000000
_cell_angle_beta 85.807522
_cell_angle_gamma 90.000000
_cell_volume 2329.641579
_symmetry_space_group_name_H-M "C 2/M"
_symmetry_group_IT_number 12
_symmetry_cell_setting 'monoclinic'
loop_
_space_group_symop_operation_xyz
x,y,z
-x,y,-z
-x,-y,-z
x,-y,z
1/2+x,1/2+y,z
1/2-x,1/2+y,-z
1/2-x,1/2-y,-z
1/2+x,1/2-y,z
loop_
_atom_site_type_symbol
_atom_site_label
_atom_site_fract_x
_atom_site_fract_y
_atom_site_fract_z
Si Si1 0.991250 0.796264 0.608593
Si Si2 0.189195 0.695267 0.841599
Si Si3 0.852431 0.200682 0.504172
Si Si4 0.031387 0.805941 0.759742
Si Si5 0.372228 0.193477 0.860330
Si Si6 0.397103 0.202491 0.011040
O O1 0.079864 0.746377 0.561017
O O2 0.999136 0.740302 0.687215
O O3 0.903424 0.741696 0.571312
O O4 0.988876 0.000000 0.608807
O O5 0.116936 0.716508 0.786173
O O6 0.281592 0.786542 0.823841
O O7 0.147075 0.763442 0.915862
O O8 0.290673 0.000000 0.151006
O O9 0.750000 0.250000 0.500000
O O10 0.853850 0.000000 0.504813
O O11 0.951899 0.787745 0.819051
O O12 0.054302 0.000000 0.750507
O O13 0.399463 0.000000 0.863039
O O14 0.354732 0.252959 0.940213
O O15 0.394782 0.000000 0.015433
O O16 0.500000 0.252336 0.000000
#
# Coordination Sequence:
#
# PCOD9220687 Si02
#       6
#     8   8   8   8   8   8
#     4   8  18  36  57  79 111 147 178 215 266 323
#     4  11  22  38  58  81 110 146 187 233 282 332
#     4   9  17  35  60  84 108 141 179 219 264 314
#     4  11  22  38  57  82 114 149 186 226 274 331
#     4  11  22  38  58  81 110 146 187 233 282 332
#     4   9  17  34  58  79 104 140 184 235 284 327
#
# _framework density 20.604026999999999
#
# number of rings (size 3 to 8) (size 9 to 14) (size 15 to 20)
#    0.000    2.167    1.667    3.000    0.000    1.333 
#    0.000   11.667    0.000    0.000    0.000    0.000 
#    0.000    0.000    0.000    0.000    0.000    0.000 
#
# Total GULP energy -133963.919929 kJ/mol
# GULP energy per Si atom -5581.829997 kJ/mol
# Density = 2.055713 g / cm^3
# Si number density = 20.604027 Si / 1000 Ang^3
#
#
#
# Elastic Constant Matrix: (Units=GPa)
#
#
# Indices 1 2 3 4 5 6 
#
# 1 113.4052 -1.8580 20.3545 0.0000 28.7117 0.0000
# 2 -1.8580 20.6597 6.6229 0.0000 -0.6566 0.0000
# 3 20.3545 6.6229 95.3800 0.0000 30.0831 0.0000
# 4 0.0000 0.0000 0.0000 9.1824 0.0000 9.2961
# 5 28.7117 -0.6566 30.0831 0.0000 19.5094 0.0000
# 6 0.0000 0.0000 0.0000 9.2961 0.0000 24.9049
#
#
#
# Elastic Compliance Matrix: (Units=1/GPa)
#
#
# Indices 1 2 3 4 5 6 
#
# 1 0.016932 -0.002469 0.008651 0.000000 -0.038341 0.000000
# 2 -0.002469 0.051780 -0.009275 0.000000 0.019678 0.000000
# 3 0.008651 -0.009275 0.026080 0.000000 -0.053259 0.000000
# 4 0.000000 0.000000 0.000000 0.175055 0.000000 -0.065342
# 5 -0.038341 0.019678 -0.053259 0.000000 0.190469 0.000000
# 6 0.000000 0.000000 0.000000 -0.065342 0.000000 0.064543
#
#
# Mechanical properties :
#
#
# Convention : Reuss Voigt Hill
#
# Bulk Modulus (GPa) = 11.28594 31.07595 21.18095
# Shear Modulus (GPa) = 8.91933 24.34105 16.63019
#
# Velocity S-wave (km/s) = 2.08286 3.44084 2.84409
# Velocity P-wave (km/s) = 3.35766 5.55887 4.59211
#
# Compressibility (1/GPa) = 0.08860580
#
# Stress axis : x y z
#
# Youngs Moduli (GPa) = 59.06024 19.31247 38.34329
#
# Poissons Ratio (x) = 0.04768 -0.33171
# Poissons Ratio (y) = 0.14582 0.35564
# Poissons Ratio (z) = -0.51093 0.17913
#
# Static dielectric constant tensor:
#      x y z
#    x 1.707480 0.000000 0.020750 
#    y 0.000000 1.731140 0.000000 
#    z 0.020750 0.000000 1.756190 
# 
# From -- ./inp_files/267649.got.cif
#   From: 2010.05.17/outbox.cif.g08.bks.cpg/sg12_134_cif.got.tgz:267649.got - 2010.06.03 13:09:07.
