data_PCOD9220342
_publ_section_title
;
Structure prediction by ZEFSAII (Michael W. Deem and Ramdas Pophale) SiO2 
 PCOD9220342
Probable space group: C 2/M
;
_chemical_formula_sum "Si O2"
_cell_formula_units_Z 48
_cell_length_a 9.246817
_cell_length_b 29.374832
_cell_length_c 18.901823
_cell_angle_alpha 90.000000
_cell_angle_beta 28.691444
_cell_angle_gamma 90.000000
_cell_volume 2464.882801
_symmetry_space_group_name_H-M "C 2/M"
_symmetry_group_IT_number 12
_symmetry_cell_setting 'monoclinic'
loop_
_space_group_symop_operation_xyz
x,y,z
-x,y,-z
-x,-y,-z
x,-y,z
1/2+x,1/2+y,z
1/2-x,1/2+y,-z
1/2-x,1/2-y,-z
1/2+x,1/2-y,z
loop_
_atom_site_type_symbol
_atom_site_label
_atom_site_fract_x
_atom_site_fract_y
_atom_site_fract_z
Si Si1 0.165018 0.325230 0.656426
Si Si2 0.093027 0.921662 0.386123
Si Si3 0.509623 0.500000 0.170882
Si Si4 0.649576 0.000000 0.822931
Si Si5 0.066196 0.425182 0.395629
Si Si6 0.173333 0.752711 0.114014
Si Si7 0.837955 0.674657 0.643263
O O1 0.500000 0.305694 0.500000
O O2 0.232411 0.374914 0.664773
O O3 0.963211 0.293308 0.793041
O O4 0.016495 0.324793 0.641778
O O5 0.000000 0.944864 0.500000
O O6 0.763692 0.913189 0.493058
O O7 0.270011 0.955423 0.258351
O O8 0.649937 0.500000 0.190795
O O9 0.284648 0.457428 0.258016
O O10 0.800221 0.500000 0.995952
O O11 0.241177 0.378215 0.333074
O O12 0.000000 0.447262 0.500000
O O13 0.938730 0.792136 0.230000
O O14 0.500000 0.764834 0.000000
O O15 0.250000 0.750000 0.000000
O O16 0.000000 0.687667 0.500000
#
# Coordination Sequence:
#
# PCOD9220342 Si02
#       7
#     8   8   4   4   8   8   8
#     4  11  24  46  69  98 135 171 226 286 326 390
#     4  11  22  43  70  96 129 173 223 273 330 387
#     4  11  24  42  66  98 142 168 219 276 334 390
#     4  11  24  43  64 101 134 177 214 276 333 401
#     4  11  21  42  69  97 127 174 224 272 327 391
#     4  12  27  45  68  99 139 183 218 270 343 407
#     4  11  25  45  70 101 130 173 229 279 331 395
#
# _framework density 19.473541000000001
#
# number of rings (size 3 to 8) (size 9 to 14) (size 15 to 20)
#    0.000    0.833    6.667    1.500    2.333    2.667 
#    3.000    1.667    0.000    0.000    0.000    0.000 
#    0.000    0.000    0.000    0.000    0.000    0.000 
#
# Total GULP energy -133739.653232 kJ/mol
# GULP energy per Si atom -5572.485551 kJ/mol
# Density = 1.942922 g / cm^3
# Si number density = 19.473541 Si / 1000 Ang^3
#
#
#
# Elastic Constant Matrix: (Units=GPa)
#
#
# Indices 1 2 3 4 5 6 
#
# 1 124.0347 49.5284 63.0100 0.0001 1.1192 0.0000
# 2 49.5284 138.6183 101.5405 0.0000 -4.4673 0.0000
# 3 63.0100 101.5405 179.5978 -0.0030 7.3190 -0.0012
# 4 0.0001 0.0000 -0.0030 -245.0799 0.0004 -87.1496
# 5 1.1192 -4.4673 7.3190 0.0004 39.9087 0.0002
# 6 0.0000 0.0000 -0.0012 -87.1496 0.0002 -24.6425
#
#
#
# Elastic Compliance Matrix: (Units=1/GPa)
#
#
# Indices 1 2 3 4 5 6 
#
# 1 0.010045 -0.001721 -0.002551 0.000000 -0.000006 0.000000
# 2 -0.001721 0.012899 -0.006801 0.000000 0.002739 0.000000
# 3 -0.002551 -0.006801 0.010414 0.000000 -0.002600 0.000000
# 4 0.000000 0.000000 0.000000 0.015840 0.000000 -0.056020
# 5 -0.000006 0.002739 -0.002600 0.000000 0.025841 0.000000
# 6 0.000000 0.000000 0.000000 -0.056020 0.000000 0.157539
#
#
# Mechanical properties :
#
#
# Convention : Reuss Voigt Hill
#
# Bulk Modulus (GPa) = 89.18151 96.71208 92.94680
# Shear Modulus (GPa) = 19.34528 -30.75128 -5.70300
#
# Velocity S-wave (km/s) = 3.15527 -3.97814 -1.71317
# Velocity P-wave (km/s) = 7.69220 5.35447 6.62723
#
# Compressibility (1/GPa) = 0.01121309
#
# Stress axis : x y z
#
# Youngs Moduli (GPa) = 99.54774 77.52739 96.02514
#
# Poissons Ratio (x) = 0.13339 0.24499
# Poissons Ratio (y) = 0.17128 0.65303
# Poissons Ratio (z) = 0.25398 0.52723
#
# Static dielectric constant tensor:
#      x y z
#    x 1.696880 0.000000 -0.021870 
#    y 0.000000 1.701300 0.000000 
#    z -0.021870 0.000000 1.623810 
# 
# From -- ./inp_files/80881.got.cif
#   From: 2010.05.17/outbox.cif.g08.bks.cpg/sg12_41_cif.got.tgz:80881.got - 2010.06.03 13:09:07.
