data_PCOD9220059
_publ_section_title
;
Structure prediction by ZEFSAII (Michael W. Deem and Ramdas Pophale) SiO2 
 PCOD9220059
Probable space group: C 2/M
;
_chemical_formula_sum "Si O2"
_cell_formula_units_Z 48
_cell_length_a 16.870041
_cell_length_b 30.176809
_cell_length_c 10.064169
_cell_angle_alpha 90.000000
_cell_angle_beta 26.050308
_cell_angle_gamma 90.000000
_cell_volume 2250.040332
_symmetry_space_group_name_H-M "C 2/M"
_symmetry_group_IT_number 12
_symmetry_cell_setting 'monoclinic'
loop_
_space_group_symop_operation_xyz
x,y,z
-x,y,-z
-x,-y,-z
x,-y,z
1/2+x,1/2+y,z
1/2-x,1/2+y,-z
1/2-x,1/2-y,-z
1/2+x,1/2-y,z
loop_
_atom_site_type_symbol
_atom_site_label
_atom_site_fract_x
_atom_site_fract_y
_atom_site_fract_z
Si Si1 0.842049 0.724331 0.480278
Si Si2 0.710972 0.129576 0.339729
Si Si3 0.750958 0.779953 0.867205
Si Si4 0.221552 0.550181 0.819612
Si Si5 0.730848 0.126272 0.005255
Si Si6 0.281167 0.050693 0.479295
O O1 0.750000 0.750000 0.500000
O O2 0.748182 0.678055 0.662008
O O3 0.045079 0.715032 0.129524
O O4 0.850868 0.754863 0.598612
O O5 0.780745 0.124558 0.084762
O O6 0.490196 0.128457 0.664991
O O7 0.773995 0.089032 0.336328
O O8 0.804936 0.828987 0.828682
O O9 0.750000 0.750000 0.000000
O O10 0.277611 0.500000 0.765036
O O11 0.275753 0.560919 0.586433
O O12 0.283040 0.584516 0.837655
O O13 0.001297 0.550673 0.150235
O O14 0.225696 0.000000 0.595569
#
# Coordination Sequence:
#
# PCOD9220059 Si02
#       6
#     8   8   8   8   8   8
#     4  11  23  36  54  80 108 141 181 223 264 313
#     4   9  17  29  43  66  97 131 169 209 259 312
#     4  11  21  38  56  76 108 145 179 218 267 315
#     4   8  14  24  39  62  92 127 165 204 254 315
#     4   9  17  28  45  66  94 133 170 208 258 312
#     4   8  14  24  39  61  93 129 162 203 258 314
#
# _framework density 21.332951000000001
#
# number of rings (size 3 to 8) (size 9 to 14) (size 15 to 20)
#    0.000    2.667    1.667    2.000    2.333    0.667 
#    0.000    3.333    0.000    0.000    0.000    0.000 
#    0.000    8.000    0.000    0.000    0.000    0.000 
#
# Total GULP energy -134040.012393 kJ/mol
# GULP energy per Si atom -5585.000516 kJ/mol
# Density = 2.128440 g / cm^3
# Si number density = 21.332951 Si / 1000 Ang^3
#
#
#
# Elastic Constant Matrix: (Units=GPa)
#
#
# Indices 1 2 3 4 5 6 
#
# 1 97.0553 88.2983 45.2551 -0.0003 38.6318 0.0003
# 2 88.2983 202.6750 55.7306 0.0001 57.9194 0.0000
# 3 45.2551 55.7306 66.1268 -0.0017 17.4388 0.0009
# 4 -0.0003 0.0001 -0.0017 22.1870 0.0009 16.8409
# 5 38.6318 57.9194 17.4388 0.0009 39.0186 -0.0005
# 6 0.0003 0.0000 0.0009 16.8409 -0.0005 37.6182
#
#
#
# Elastic Compliance Matrix: (Units=1/GPa)
#
#
# Indices 1 2 3 4 5 6 
#
# 1 0.023447 -0.003845 -0.009283 0.000000 -0.013358 0.000000
# 2 -0.003845 0.010490 -0.003522 0.000000 -0.010190 0.000000
# 3 -0.009283 -0.003522 0.023399 0.000003 0.003961 -0.000002
# 4 0.000000 0.000000 0.000003 0.068270 -0.000004 -0.030563
# 5 -0.013358 -0.010190 0.003961 -0.000004 0.052210 0.000002
# 6 0.000000 0.000000 -0.000002 -0.030563 0.000002 0.040265
#
#
# Mechanical properties :
#
#
# Convention : Reuss Voigt Hill
#
# Bulk Modulus (GPa) = 41.60462 82.71391 62.15926
# Shear Modulus (GPa) = 19.27574 31.53629 25.40602
#
# Velocity S-wave (km/s) = 3.00920 3.84902 3.45473
# Velocity P-wave (km/s) = 5.62304 7.65574 6.71673
#
# Compressibility (1/GPa) = 0.02403579
#
# Stress axis : x y z
#
# Youngs Moduli (GPa) = 42.64907 95.33303 42.73672
#
# Poissons Ratio (x) = 0.36656 0.39673
# Poissons Ratio (y) = 0.16399 0.15051
# Poissons Ratio (z) = 0.39592 0.33574
#
# Static dielectric constant tensor:
#      x y z
#    x 1.782490 0.000000 -0.096780 
#    y 0.000000 1.742130 0.000000 
#    z -0.096780 0.000000 1.848570 
# 
# From -- ./inp_files/53835.got.cif
#   From: 2010.05.17/outbox.cif.g08.bks.cpg/sg12_27_cif.got.tgz:53835.got - 2010.06.03 13:09:07.
