data_PCOD9220528
_publ_section_title
;
Structure prediction by ZEFSAII (Michael W. Deem and Ramdas Pophale) SiO2 
 PCOD9220528
Probable space group: C 2/M
;
_chemical_formula_sum "Si O2"
_cell_formula_units_Z 56
_cell_length_a 9.318364
_cell_length_b 22.408253
_cell_length_c 17.863215
_cell_angle_alpha 90.000000
_cell_angle_beta 121.658092
_cell_angle_gamma 90.000000
_cell_volume 3174.946974
_symmetry_space_group_name_H-M "C 2/M"
_symmetry_group_IT_number 12
_symmetry_cell_setting 'monoclinic'
loop_
_space_group_symop_operation_xyz
x,y,z
-x,y,-z
-x,-y,-z
x,-y,z
1/2+x,1/2+y,z
1/2-x,1/2+y,-z
1/2-x,1/2-y,-z
1/2+x,1/2-y,z
loop_
_atom_site_type_symbol
_atom_site_label
_atom_site_fract_x
_atom_site_fract_y
_atom_site_fract_z
Si Si1 0.440987 0.117439 0.651550
Si Si2 0.841435 0.066347 0.509740
Si Si3 0.674124 0.929803 0.841997
Si Si4 0.177342 0.572514 0.014172
Si Si5 0.760161 0.859299 0.635973
Si Si6 0.801604 0.229320 0.432679
Si Si7 0.480655 0.429543 0.812276
O O1 0.316444 0.066417 0.589358
O O2 0.536037 0.104132 0.754600
O O3 0.584212 0.121528 0.626406
O O4 0.318269 0.174773 0.623086
O O5 0.796284 0.112735 0.563683
O O6 0.000000 0.081036 0.500000
O O7 0.868166 0.000000 0.549360
O O8 0.691439 0.908319 0.931738
O O9 0.850426 0.925750 0.846004
O O10 0.627356 0.000000 0.830822
O O11 0.179809 0.500000 0.014003
O O12 0.336289 0.589409 0.108488
O O13 0.000000 0.592006 0.000000
O O14 0.739792 0.787779 0.628045
O O15 0.906271 0.887051 0.727876
O O16 0.750000 0.250000 0.500000
O O17 0.000000 0.216161 0.500000
O O18 0.483711 0.500000 0.789932
#
# Coordination Sequence:
#
# PCOD9220528 Si02
#       7
#     8   8   8   8   8   8   8
#     4  11  22  36  56  79 105 142 185 229 270 320
#     4  11  23  35  50  76 110 143 174 219 276 327
#     4   9  18  33  54  80 108 140 179 218 264 323
#     4   9  17  31  51  78 112 143 170 209 264 326
#     4  11  22  37  56  78 105 142 186 227 269 324
#     4  12  22  39  58  79 106 144 191 233 272 321
#     4   9  18  33  55  81 107 139 178 218 265 323
#
# _framework density 17.638089999999998
#
# number of rings (size 3 to 8) (size 9 to 14) (size 15 to 20)
#    0.000    1.714    2.857    2.143    0.000    5.143 
#    0.000    2.857    0.000    0.857    0.000    0.000 
#    0.000    0.000    0.000    0.000    0.000    0.000 
#
# Total GULP energy -156045.854637 kJ/mol
# GULP energy per Si atom -5573.066237 kJ/mol
# Density = 1.759794 g / cm^3
# Si number density = 17.638090 Si / 1000 Ang^3
#
#
#
# Elastic Constant Matrix: (Units=GPa)
#
#
# Indices 1 2 3 4 5 6 
#
# 1 75.9312 30.9610 58.8106 0.0000 26.7218 0.0000
# 2 30.9610 88.2105 42.9320 0.0000 13.9492 0.0000
# 3 58.8106 42.9320 123.3609 0.0000 29.9536 0.0000
# 4 0.0000 0.0000 0.0000 18.2860 0.0000 2.4074
# 5 26.7218 13.9492 29.9536 0.0000 28.5915 0.0000
# 6 0.0000 0.0000 0.0000 2.4074 0.0000 8.0190
#
#
#
# Elastic Compliance Matrix: (Units=1/GPa)
#
#
# Indices 1 2 3 4 5 6 
#
# 1 0.025218 -0.002927 -0.007548 0.000000 -0.014234 0.000000
# 2 -0.002927 0.014097 -0.003360 0.000000 -0.000623 0.000000
# 3 -0.007548 -0.003360 0.014435 0.000000 -0.006429 0.000000
# 4 0.000000 0.000000 0.000000 0.056937 0.000000 -0.017093
# 5 -0.014234 -0.000623 -0.006429 0.000000 0.055318 0.000000
# 6 0.000000 0.000000 0.000000 -0.017093 0.000000 0.129835
#
#
# Mechanical properties :
#
#
# Convention : Reuss Voigt Hill
#
# Bulk Modulus (GPa) = 38.34046 61.43442 49.88744
# Shear Modulus (GPa) = 15.05104 21.29926 18.17515
#
# Velocity S-wave (km/s) = 2.92434 3.47878 3.21354
# Velocity P-wave (km/s) = 5.76081 7.14437 6.48957
#
# Compressibility (1/GPa) = 0.02608211
#
# Stress axis : x y z
#
# Youngs Moduli (GPa) = 39.65361 70.93488 69.27681
#
# Poissons Ratio (x) = 0.20763 0.52288
# Poissons Ratio (y) = 0.11607 0.23274
# Poissons Ratio (z) = 0.29929 0.23831
#
# Static dielectric constant tensor:
#      x y z
#    x 1.612420 0.000000 -0.010880 
#    y 0.000000 1.653360 0.000000 
#    z -0.010880 0.000000 1.577420 
# 
# From -- ./inp_files/258005.got.cif
#   From: 2010.05.17/outbox.cif.g08.bks.cpg/sg12_130_cif.got.tgz:258005.got - 2010.06.03 13:09:07.
