data_PCOD9220485
_publ_section_title
;
Structure prediction by ZEFSAII (Michael W. Deem and Ramdas Pophale) SiO2 
 PCOD9220485
Probable space group: C 2/M
;
_chemical_formula_sum "Si O2"
_cell_formula_units_Z 48
_cell_length_a 20.511574
_cell_length_b 8.914724
_cell_length_c 27.587103
_cell_angle_alpha 90.000000
_cell_angle_beta 32.791315
_cell_angle_gamma 90.000000
_cell_volume 2731.971959
_symmetry_space_group_name_H-M "C 2/M"
_symmetry_group_IT_number 12
_symmetry_cell_setting 'monoclinic'
loop_
_space_group_symop_operation_xyz
x,y,z
-x,y,-z
-x,-y,-z
x,-y,z
1/2+x,1/2+y,z
1/2-x,1/2+y,-z
1/2-x,1/2-y,-z
1/2+x,1/2-y,z
loop_
_atom_site_type_symbol
_atom_site_label
_atom_site_fract_x
_atom_site_fract_y
_atom_site_fract_z
Si Si1 0.092496 0.179188 0.238378
Si Si2 0.879399 0.679118 0.430319
Si Si3 0.020464 0.819621 0.431323
Si Si4 0.260492 0.177360 0.225727
Si Si5 0.008122 0.176223 0.052632
Si Si6 0.242592 0.320771 0.951865
O O1 0.196201 0.204648 0.214012
O O2 0.147470 0.224193 0.152411
O O3 0.975449 0.265848 0.329930
O O4 0.067619 0.000000 0.254171
O O5 0.872296 0.500000 0.435367
O O6 0.750000 0.750000 0.500000
O O7 0.932314 0.739277 0.448402
O O8 0.157115 0.786212 0.329318
O O9 0.000000 0.779599 0.500000
O O10 0.004136 0.000000 0.436069
O O11 0.381858 0.270360 0.153824
O O12 0.288068 0.000000 0.211443
O O13 0.027288 0.000000 0.049320
O O14 0.000000 0.201420 0.000000
O O15 0.119164 0.267687 0.004429
O O16 0.244499 0.500000 0.953827
O O17 0.250000 0.250000 0.000000
#
# Coordination Sequence:
#
# PCOD9220485 Si02
#       6
#     8   8   8   8   8   8
#     4   9  19  37  60  83 111 148 189 234 283 337
#     4  11  22  37  60  86 114 149 191 235 280 337
#     4   9  19  38  61  85 116 149 184 231 287 340
#     4   9  17  33  58  85 110 145 189 231 279 332
#     4  11  22  35  56  85 115 148 190 234 274 330
#     4  11  23  40  60  83 116 152 188 233 287 339
#
# _framework density 17.569725999999999
#
# number of rings (size 3 to 8) (size 9 to 14) (size 15 to 20)
#    0.000    2.000    1.667    3.500    0.000    5.000 
#    3.000    0.000    0.000    0.000    0.000    0.000 
#    0.000    0.000    0.000    0.000    0.000    0.000 
#
# Total GULP energy -133993.094664 kJ/mol
# GULP energy per Si atom -5583.045611 kJ/mol
# Density = 1.752974 g / cm^3
# Si number density = 17.569726 Si / 1000 Ang^3
#
#
#
# Elastic Constant Matrix: (Units=GPa)
#
#
# Indices 1 2 3 4 5 6 
#
# 1 75.4515 57.9953 84.0044 0.0000 9.4146 0.0001
# 2 57.9953 72.9766 70.0913 0.0000 0.8505 0.0003
# 3 84.0044 70.0913 153.4353 0.0000 11.5238 -0.0001
# 4 0.0000 0.0000 0.0000 29.2121 0.0000 -2.7798
# 5 9.4146 0.8505 11.5238 0.0000 35.7937 0.0000
# 6 0.0001 0.0003 -0.0001 -2.7798 0.0000 31.3599
#
#
#
# Elastic Compliance Matrix: (Units=1/GPa)
#
#
# Indices 1 2 3 4 5 6 
#
# 1 0.051895 -0.025708 -0.016078 0.000000 -0.007862 0.000000
# 2 -0.025708 0.037487 -0.003577 0.000000 0.007023 0.000000
# 3 -0.016078 -0.003577 0.017042 0.000000 -0.001173 0.000000
# 4 0.000000 0.000000 0.000000 0.034524 0.000000 0.003060
# 5 -0.007862 0.007023 -0.001173 0.000000 0.030217 0.000000
# 6 0.000000 0.000000 0.000000 0.003060 0.000000 0.032159
#
#
# Mechanical properties :
#
#
# Convention : Reuss Voigt Hill
#
# Bulk Modulus (GPa) = 63.70022 80.67171 72.18596
# Shear Modulus (GPa) = 16.70660 25.25798 20.98229
#
# Velocity S-wave (km/s) = 3.08697 3.79566 3.45951
# Velocity P-wave (km/s) = 7.00287 8.07615 7.55859
#
# Compressibility (1/GPa) = 0.01569853
#
# Stress axis : x y z
#
# Youngs Moduli (GPa) = 19.26963 26.67574 58.67762
#
# Poissons Ratio (x) = 0.68577 0.94342
# Poissons Ratio (y) = 0.49538 0.20991
# Poissons Ratio (z) = 0.30982 0.09543
#
# Static dielectric constant tensor:
#      x y z
#    x 1.570450 0.000000 0.014500 
#    y 0.000000 1.585070 0.000000 
#    z 0.014500 0.000000 1.596150 
# 
# From -- ./inp_files/365363.got.cif
#   From: 2010.05.17/outbox.cif.g08.bks.cpg/sg12_183_cif.got.tgz:365363.got - 2010.06.03 13:09:07.
