data_PCOD9220877
_publ_section_title
;
Structure prediction by ZEFSAII (Michael W. Deem and Ramdas Pophale) SiO2 
 PCOD9220877
Probable space group: C 2/M
;
_chemical_formula_sum "Si O2"
_cell_formula_units_Z 40
_cell_length_a 13.690133
_cell_length_b 16.217947
_cell_length_c 16.001919
_cell_angle_alpha 90.000000
_cell_angle_beta 153.540017
_cell_angle_gamma 90.000000
_cell_volume 1583.048220
_symmetry_space_group_name_H-M "C 2/M"
_symmetry_group_IT_number 12
_symmetry_cell_setting 'monoclinic'
loop_
_space_group_symop_operation_xyz
x,y,z
-x,y,-z
-x,-y,-z
x,-y,z
1/2+x,1/2+y,z
1/2-x,1/2+y,-z
1/2-x,1/2-y,-z
1/2+x,1/2-y,z
loop_
_atom_site_type_symbol
_atom_site_label
_atom_site_fract_x
_atom_site_fract_y
_atom_site_fract_z
Si Si1 0.257699 0.089204 0.854985
Si Si2 0.153713 0.909354 0.224073
Si Si3 0.765006 0.764189 0.284410
Si Si4 0.449427 0.087974 0.602523
Si Si5 0.093239 0.671557 0.875001
O O1 0.184609 0.175261 0.755135
O O2 0.147365 0.000000 0.753595
O O3 0.500000 0.083007 0.000000
O O4 0.282513 0.103550 0.973213
O O5 0.101135 0.815567 0.155754
O O6 0.358956 0.919637 0.318765
O O7 0.234248 0.899035 0.381498
O O8 0.035972 0.000000 0.127297
O O9 0.638086 0.817779 0.255578
O O10 0.000000 0.736926 0.500000
O O11 0.532186 0.151230 0.733797
O O12 0.423406 0.000000 0.626746
O O13 0.250000 0.750000 0.000000
#
# Coordination Sequence:
#
# PCOD9220877 Si02
#       5
#     8   8   8   8   8
#     4   9  20  40  61  84 122 167 202 241 299 366
#     4   9  18  36  61  88 121 157 195 245 307 360
#     4  11  22  39  65  87 119 160 206 249 298 357
#     4   9  17  34  60  85 115 156 196 244 299 354
#     4  11  23  37  60  90 124 157 199 249 305 357
#
# _framework density 25.267707999999999
#
# number of rings (size 3 to 8) (size 9 to 14) (size 15 to 20)
#    0.000    2.200    2.000    3.000    0.000    2.000 
#    0.000    2.000    0.000    7.800    0.000    0.000 
#    0.000    0.000    0.000    0.000    0.000    0.000 
#
# Total GULP energy -111361.642943 kJ/mol
# GULP energy per Si atom -5568.082147 kJ/mol
# Density = 2.521020 g / cm^3
# Si number density = 25.267708 Si / 1000 Ang^3
#
#
#
# Elastic Constant Matrix: (Units=GPa)
#
#
# Indices 1 2 3 4 5 6 
#
# 1 64.6695 16.3183 42.0387 0.0093 -15.6695 0.0088
# 2 16.3183 183.5631 50.2678 0.0133 -33.4313 0.0122
# 3 42.0387 50.2678 99.1935 0.0143 -33.0895 0.0132
# 4 0.0093 0.0133 0.0143 24.8096 0.0099 -13.6755
# 5 -15.6695 -33.4313 -33.0895 0.0099 47.9987 0.0109
# 6 0.0088 0.0122 0.0132 -13.6755 0.0109 23.1290
#
#
#
# Elastic Compliance Matrix: (Units=1/GPa)
#
#
# Indices 1 2 3 4 5 6 
#
# 1 0.021477 0.000817 -0.009074 -0.000009 0.001325 -0.000009
# 2 0.000817 0.006672 -0.002712 -0.000008 0.003044 -0.000009
# 3 -0.009074 -0.002712 0.017769 -0.000020 0.007399 -0.000020
# 4 -0.000009 -0.000008 -0.000020 0.059796 -0.000043 0.035356
# 5 0.001325 0.003044 0.007399 -0.000043 0.028487 -0.000045
# 6 -0.000009 -0.000009 -0.000020 0.035356 -0.000045 0.064141
#
#
# Mechanical properties :
#
#
# Convention : Reuss Voigt Hill
#
# Bulk Modulus (GPa) = 41.70096 62.74175 52.22135
# Shear Modulus (GPa) = 21.90355 35.10752 28.50553
#
# Velocity S-wave (km/s) = 2.94744 3.73154 3.36242
# Velocity P-wave (km/s) = 5.30308 6.59170 5.98219
#
# Compressibility (1/GPa) = 0.02398026
#
# Stress axis : x y z
#
# Youngs Moduli (GPa) = 46.56211 149.87587 56.27668
#
# Poissons Ratio (x) = -0.12244 0.51066
# Poissons Ratio (y) = -0.03804 0.15262
# Poissons Ratio (z) = 0.42251 0.40645
#
# Static dielectric constant tensor:
#      x y z
#    x 1.984270 -0.000010 0.001420 
#    y -0.000010 2.246810 -0.000020 
#    z 0.001420 -0.000020 2.029720 
# 
# From -- ./inp_files/103862.got.cif
#   From: 2010.05.17/outbox.cif.g08.bks.cpg/sg12_52_cif.got.tgz:103862.got - 2010.06.03 13:09:07.
