data_PCOD9220352
_publ_section_title
;
Structure prediction by ZEFSAII (Michael W. Deem and Ramdas Pophale) SiO2 
 PCOD9220352
Probable space group: C 2/M
;
_chemical_formula_sum "Si O2"
_cell_formula_units_Z 48
_cell_length_a 12.268272
_cell_length_b 15.139917
_cell_length_c 24.607194
_cell_angle_alpha 90.000000
_cell_angle_beta 153.104380
_cell_angle_gamma 90.000000
_cell_volume 2067.566335
_symmetry_space_group_name_H-M "C 2/M"
_symmetry_group_IT_number 12
_symmetry_cell_setting 'monoclinic'
loop_
_space_group_symop_operation_xyz
x,y,z
-x,y,-z
-x,-y,-z
x,-y,z
1/2+x,1/2+y,z
1/2-x,1/2+y,-z
1/2-x,1/2-y,-z
1/2+x,1/2-y,z
loop_
_atom_site_type_symbol
_atom_site_label
_atom_site_fract_x
_atom_site_fract_y
_atom_site_fract_z
Si Si1 0.049714 0.597041 0.750066
Si Si2 0.159072 0.161595 0.488467
Si Si3 0.488441 0.850414 0.058799
Si Si4 0.002459 0.157704 0.111456
Si Si5 0.527697 0.403157 0.317584
Si Si6 0.164988 0.247470 0.294608
O O1 0.998808 0.500000 0.750220
O O2 0.846973 0.622598 0.614906
O O3 0.038709 0.678181 0.787040
O O4 0.306105 0.598715 0.834493
O O5 0.250000 0.250000 0.500000
O O6 0.122448 0.098250 0.420962
O O7 0.906702 0.194602 0.400906
O O8 0.466867 0.745428 0.059325
O O9 0.742727 0.883058 0.194625
O O10 0.500000 0.870333 0.000000
O O11 0.248998 0.885299 0.981990
O O12 0.125139 0.195391 0.221200
O O13 0.567457 0.500000 0.310423
O O14 0.644188 0.324933 0.333297
#
# Coordination Sequence:
#
# PCOD9220352 Si02
#       6
#     8   8   8   8   8   8
#     4  12  26  43  69 102 133 176 228 275 332 399
#     4  12  23  45  69  93 137 181 221 273 334 395
#     4  11  21  42  72  98 131 179 227 273 336 403
#     4  11  22  42  73  97 135 179 222 275 340 395
#     4  12  26  43  67 105 136 174 226 277 335 398
#     4  12  22  45  68  96 134 178 217 274 337 399
#
# _framework density 23.215698
#
# number of rings (size 3 to 8) (size 9 to 14) (size 15 to 20)
#    0.000    0.333    8.333    1.000    0.000    3.667 
#    0.000    0.833    0.000    4.500    0.000    0.000 
#    0.000    0.000    0.000    0.000    0.000    0.000 
#
# Total GULP energy -134294.309697 kJ/mol
# GULP energy per Si atom -5595.596237 kJ/mol
# Density = 2.316286 g / cm^3
# Si number density = 23.215698 Si / 1000 Ang^3
#
#
#
# Elastic Constant Matrix: (Units=GPa)
#
#
# Indices 1 2 3 4 5 6 
#
# 1 65.6484 19.0872 1.8368 -0.0006 31.2158 0.0000
# 2 19.0872 132.3221 -14.0329 -0.0006 13.1295 -0.0002
# 3 1.8368 -14.0329 39.9882 -0.0015 11.9479 -0.0001
# 4 -0.0006 -0.0006 -0.0015 -2.1979 -0.0004 2.5710
# 5 31.2158 13.1295 11.9479 -0.0004 41.9695 -0.0002
# 6 0.0000 -0.0002 -0.0001 2.5710 -0.0002 7.5544
#
#
#
# Elastic Compliance Matrix: (Units=1/GPa)
#
#
# Indices 1 2 3 4 5 6 
#
# 1 0.024521 -0.001209 0.004137 -0.000005 -0.019037 0.000001
# 2 -0.001209 0.008422 0.003858 -0.000003 -0.002833 0.000001
# 3 0.004137 0.003858 0.030003 -0.000014 -0.012825 0.000005
# 4 -0.000005 -0.000003 -0.000014 -0.325426 0.000006 0.110755
# 5 -0.019037 -0.002833 -0.012825 0.000006 0.042524 -0.000001
# 6 0.000001 0.000001 0.000005 0.110755 -0.000001 0.094680
#
#
# Mechanical properties :
#
#
# Convention : Reuss Voigt Hill
#
# Bulk Modulus (GPa) = 13.06894 27.97122 20.52008
# Shear Modulus (GPa) = -44.11442 24.86970 -9.62236
#
# Velocity S-wave (km/s) = -4.36385 3.27654 -2.03808
# Velocity P-wave (km/s) = 4.44403 5.13701 1.82201
#
# Compressibility (1/GPa) = 0.07651729
#
# Stress axis : x y z
#
# Youngs Moduli (GPa) = 40.78164 118.73651 33.32988
#
# Poissons Ratio (x) = 0.14359 -0.13790
# Poissons Ratio (y) = 0.04932 -0.12857
# Poissons Ratio (z) = -0.16873 -0.45804
#
# Static dielectric constant tensor:
#      x y z
#    x 1.943680 0.000000 0.063710 
#    y 0.000000 1.872110 0.000000 
#    z 0.063710 0.000000 1.962960 
# 
# From -- ./inp_files/358505.got.cif
#   From: 2010.05.17/outbox.cif.g08.bks.cpg/sg12_180_cif.got.tgz:358505.got - 2010.06.03 13:09:07.
