data_PCOD9220673
_publ_section_title
;
Structure prediction by ZEFSAII (Michael W. Deem and Ramdas Pophale) SiO2 
 PCOD9220673
Probable space group: C 2/M
;
_chemical_formula_sum "Si O2"
_cell_formula_units_Z 64
_cell_length_a 21.882251
_cell_length_b 18.092055
_cell_length_c 13.983733
_cell_angle_alpha 90.000000
_cell_angle_beta 147.793799
_cell_angle_gamma 90.000000
_cell_volume 2950.557167
_symmetry_space_group_name_H-M "C 2/M"
_symmetry_group_IT_number 12
_symmetry_cell_setting 'monoclinic'
loop_
_space_group_symop_operation_xyz
x,y,z
-x,y,-z
-x,-y,-z
x,-y,z
1/2+x,1/2+y,z
1/2-x,1/2+y,-z
1/2-x,1/2-y,-z
1/2+x,1/2-y,z
loop_
_atom_site_type_symbol
_atom_site_label
_atom_site_fract_x
_atom_site_fract_y
_atom_site_fract_z
Si Si1 0.260405 0.913087 0.903033
Si Si2 0.523793 0.137047 0.272494
Si Si3 0.184760 0.826823 0.621439
Si Si4 0.274776 0.324288 0.967980
Si Si5 0.881079 0.582573 0.786549
Si Si6 0.820006 0.653573 0.351771
Si Si7 0.378576 0.416758 0.785111
Si Si8 0.971333 0.808353 0.750070
O O1 0.192731 0.869723 0.731290
O O2 0.209546 0.890395 0.937184
O O3 0.261617 0.000000 0.887538
O O4 0.391276 0.882844 0.081431
O O5 0.595186 0.086922 0.294386
O O6 0.566558 0.131945 0.438077
O O7 0.549926 0.220717 0.272967
O O8 0.287304 0.859590 0.694431
O O9 0.202303 0.740159 0.658789
O O10 0.068795 0.834816 0.407894
O O11 0.391885 0.315045 0.063770
O O12 0.250000 0.250000 0.000000
O O13 0.181182 0.347818 0.764851
O O14 0.844381 0.500000 0.765618
O O15 0.000000 0.597689 0.000000
O O16 0.719556 0.607271 0.270397
O O17 0.355724 0.500000 0.717439
O O18 0.399605 0.355697 0.730968
O O19 0.500000 0.418913 0.000000
#
# Coordination Sequence:
#
# PCOD9220673 Si02
#       8
#     8   8   8   8   8   8   8   8
#     4  12  26  45  68  98 135 177 228 287 346 398
#     4  11  23  41  67 103 131 176 228 280 331 411
#     4  11  23  41  67 103 131 176 228 280 331 411
#     4  12  24  47  70  94 130 185 231 280 337 406
#     4  11  22  37  64  99 143 185 220 273 346 412
#     4  11  24  43  71  99 133 176 229 279 340 408
#     4  11  24  41  66  99 136 176 216 273 346 415
#     4  11  24  43  71  99 133 176 229 279 340 408
#
# _framework density 21.690819000000001
#
# number of rings (size 3 to 8) (size 9 to 14) (size 15 to 20)
#    0.000    0.750    5.000    2.250    0.000    8.000 
#    0.000    1.250    0.000    0.000    0.000    0.000 
#    0.000    0.000    0.000    0.000    0.000    0.000 
#
# Total GULP energy -178867.151291 kJ/mol
# GULP energy per Si atom -5589.598478 kJ/mol
# Density = 2.164145 g / cm^3
# Si number density = 21.690819 Si / 1000 Ang^3
#
#
#
# Elastic Constant Matrix: (Units=GPa)
#
#
# Indices 1 2 3 4 5 6 
#
# 1 57.2660 3.9007 -2.3986 0.0000 -12.0919 0.0000
# 2 3.9007 84.4357 16.4287 0.0000 -2.6216 0.0000
# 3 -2.3986 16.4287 71.3761 0.0000 -24.4874 0.0000
# 4 0.0000 0.0000 0.0000 14.5651 0.0000 -4.3508
# 5 -12.0919 -2.6216 -24.4874 0.0000 29.9545 0.0000
# 6 0.0000 0.0000 0.0000 -4.3508 0.0000 -13.9766
#
#
#
# Elastic Compliance Matrix: (Units=1/GPa)
#
#
# Indices 1 2 3 4 5 6 
#
# 1 0.020425 -0.001593 0.005328 0.000000 0.012462 0.000000
# 2 -0.001593 0.012588 -0.003883 0.000000 -0.002715 0.000000
# 3 0.005328 -0.003883 0.021826 0.000000 0.019653 0.000000
# 4 0.000000 0.000000 0.000000 0.062816 0.000000 -0.019554
# 5 0.012462 -0.002715 0.019653 0.000000 0.054243 0.000000
# 6 0.000000 0.000000 0.000000 -0.019554 0.000000 -0.065461
#
#
# Mechanical properties :
#
#
# Convention : Reuss Voigt Hill
#
# Bulk Modulus (GPa) = 18.33386 27.65995 22.99690
# Shear Modulus (GPa) = 40.02784 19.11841 29.57312
#
# Velocity S-wave (km/s) = 4.30045 2.97207 3.69642
# Velocity P-wave (km/s) = 5.75580 4.95552 5.37059
#
# Compressibility (1/GPa) = 0.05454388
#
# Stress axis : x y z
#
# Youngs Moduli (GPa) = 48.95862 79.44026 45.81793
#
# Poissons Ratio (x) = 0.12658 -0.24414
# Poissons Ratio (y) = 0.07801 0.17789
# Poissons Ratio (z) = -0.26087 0.30843
#
# Static dielectric constant tensor:
#      x y z
#    x 1.809430 0.000000 -0.031110 
#    y 0.000000 1.777350 0.000000 
#    z -0.031110 0.000000 1.843290 
# 
# From -- ./inp_files/241493.got.cif
#   From: 2010.05.17/outbox.cif.g08.bks.cpg/sg12_121_cif.got.tgz:241493.got - 2010.06.03 13:09:07.
