data_PCOD9220458
_publ_section_title
;
Structure prediction by ZEFSAII (Michael W. Deem and Ramdas Pophale) SiO2 
 PCOD9220458
Probable space group: C 2/M
;
_chemical_formula_sum "Si O2"
_cell_formula_units_Z 48
_cell_length_a 30.013898
_cell_length_b 7.718522
_cell_length_c 8.284632
_cell_angle_alpha 90.000000
_cell_angle_beta 103.854537
_cell_angle_gamma 90.000000
_cell_volume 1863.405229
_symmetry_space_group_name_H-M "C 2/M"
_symmetry_group_IT_number 12
_symmetry_cell_setting 'monoclinic'
loop_
_space_group_symop_operation_xyz
x,y,z
-x,y,-z
-x,-y,-z
x,-y,z
1/2+x,1/2+y,z
1/2-x,1/2+y,-z
1/2-x,1/2-y,-z
1/2+x,1/2-y,z
loop_
_atom_site_type_symbol
_atom_site_label
_atom_site_fract_x
_atom_site_fract_y
_atom_site_fract_z
Si Si1 0.717660 0.194885 0.617766
Si Si2 0.696874 0.208430 0.139768
Si Si3 0.890586 0.705078 0.762205
Si Si4 0.359097 0.789493 0.236086
Si Si5 0.445420 0.210747 0.124594
Si Si6 0.030644 0.200567 0.384121
O O1 0.750000 0.250000 0.500000
O O2 0.754156 0.203586 0.796534
O O3 0.671070 0.281233 0.642033
O O4 0.704312 0.000000 0.566599
O O5 0.661144 0.267910 0.250206
O O6 0.704126 0.000000 0.155997
O O7 0.670381 0.246149 0.951466
O O8 0.886799 0.500000 0.782741
O O9 0.919973 0.730001 0.626508
O O10 0.921550 0.770525 0.938718
O O11 0.410552 0.733104 0.238048
O O12 0.361203 0.000000 0.250876
O O13 0.495732 0.278429 0.203722
O O14 0.447744 0.000000 0.122913
O O15 0.000000 0.284620 0.500000
O O16 0.037192 0.000000 0.426820
#
# Coordination Sequence:
#
# PCOD9220458 Si02
#       6
#     8   8   8   8   8   8
#     4  11  22  35  52  78 111 145 178 212 257 310
#     4   9  18  36  59  81 104 132 172 221 267 309
#     4   9  19  36  59  82 102 131 174 220 263 312
#     4   8  17  35  58  80 103 134 174 219 262 310
#     4   9  18  36  60  81 100 130 177 223 261 308
#     4  11  24  37  49  74 112 145 173 211 260 312
#
# _framework density 25.759291000000001
#
# number of rings (size 3 to 8) (size 9 to 14) (size 15 to 20)
#    0.000    2.500    0.000    4.000    0.000    6.000 
#    0.000   10.000    0.000    0.000    0.000    0.000 
#    0.000    0.000    0.000    0.000    0.000    0.000 
#
# Total GULP energy -134116.645045 kJ/mol
# GULP energy per Si atom -5588.193544 kJ/mol
# Density = 2.570066 g / cm^3
# Si number density = 25.759291 Si / 1000 Ang^3
#
#
#
# Elastic Constant Matrix: (Units=GPa)
#
#
# Indices 1 2 3 4 5 6 
#
# 1 189.4176 -8.5527 40.2580 0.0000 -31.5867 0.0000
# 2 -8.5527 35.6664 2.1976 0.0000 -6.6147 0.0000
# 3 40.2580 2.1976 64.7372 0.0000 -21.6929 0.0000
# 4 0.0000 0.0000 0.0000 53.4204 0.0000 -48.9874
# 5 -31.5867 -6.6147 -21.6929 0.0000 60.8664 0.0000
# 6 0.0000 0.0000 0.0000 -48.9874 0.0000 92.6725
#
#
#
# Elastic Compliance Matrix: (Units=1/GPa)
#
#
# Indices 1 2 3 4 5 6 
#
# 1 0.006484 0.002209 -0.003293 0.000000 0.002432 0.000000
# 2 0.002209 0.029367 -0.001041 0.000000 0.003967 0.000000
# 3 -0.003293 -0.001041 0.019214 0.000000 0.005026 0.000000
# 4 0.000000 0.000000 0.000000 0.036330 0.000000 0.019204
# 5 0.002432 0.003967 0.005026 0.000000 0.019914 0.000000
# 6 0.000000 0.000000 0.000000 0.019204 0.000000 0.020942
#
#
# Mechanical properties :
#
#
# Convention : Reuss Voigt Hill
#
# Bulk Modulus (GPa) = 19.67911 39.73634 29.70772
# Shear Modulus (GPa) = 32.58591 58.45309 45.51950
#
# Velocity S-wave (km/s) = 3.56056 4.76878 4.20826
# Velocity P-wave (km/s) = 4.95577 6.76618 5.93047
#
# Compressibility (1/GPa) = 0.05081532
#
# Stress axis : x y z
#
# Youngs Moduli (GPa) = 154.21748 34.05179 52.04489
#
# Poissons Ratio (x) = -0.07521 0.17136
# Poissons Ratio (y) = -0.34063 0.05420
# Poissons Ratio (z) = 0.50777 0.03546
#
# Static dielectric constant tensor:
#      x y z
#    x 2.001170 0.000000 -0.048810 
#    y 0.000000 1.954750 0.000000 
#    z -0.048810 0.000000 2.159760 
# 
# From -- ./inp_files/108749.got.cif
#   From: 2010.05.17/outbox.cif.g08.bks.cpg/sg12_55_cif.got.tgz:108749.got - 2010.06.03 13:09:07.
