data_PCOD9220337
_publ_section_title
;
Structure prediction by ZEFSAII (Michael W. Deem and Ramdas Pophale) SiO2 
 PCOD9220337
Probable space group: C 2/M
;
_chemical_formula_sum "Si O2"
_cell_formula_units_Z 56
_cell_length_a 12.332975
_cell_length_b 25.561749
_cell_length_c 8.196774
_cell_angle_alpha 90.000000
_cell_angle_beta 116.576661
_cell_angle_gamma 90.000000
_cell_volume 2311.012849
_symmetry_space_group_name_H-M "C 2/M"
_symmetry_group_IT_number 12
_symmetry_cell_setting 'monoclinic'
loop_
_space_group_symop_operation_xyz
x,y,z
-x,y,-z
-x,-y,-z
x,-y,z
1/2+x,1/2+y,z
1/2-x,1/2+y,-z
1/2-x,1/2-y,-z
1/2+x,1/2-y,z
loop_
_atom_site_type_symbol
_atom_site_label
_atom_site_fract_x
_atom_site_fract_y
_atom_site_fract_z
Si Si1 0.771062 0.605047 0.547334
Si Si2 0.887598 0.164067 0.105978
Si Si3 0.122293 0.251204 0.685579
Si Si4 0.473956 0.150193 0.174315
Si Si5 0.387807 0.558299 0.297892
Si Si6 0.624069 0.941752 0.691927
Si Si7 0.154634 0.811730 0.282287
O O1 0.896412 0.635213 0.660146
O O2 0.730646 0.570394 0.671790
O O3 0.780629 0.573038 0.384882
O O4 0.673562 0.649523 0.445126
O O5 0.817198 0.201429 0.182613
O O6 0.903516 0.106119 0.184440
O O7 0.011832 0.198728 0.188892
O O8 0.837952 0.161815 0.891635
O O9 0.233232 0.272444 0.649836
O O10 0.000000 0.239529 0.500000
O O11 0.082462 0.298933 0.778005
O O12 0.391800 0.100530 0.175314
O O13 0.500000 0.155641 0.000000
O O14 0.500000 0.559356 0.500000
O O15 0.382389 0.500000 0.222263
O O16 0.500000 0.942050 0.500000
O O17 0.643774 0.000000 0.769606
#
# Coordination Sequence:
#
# PCOD9220337 Si02
#       7
#     8   8   8   8   8   8   8
#     4  11  21  42  68  95 132 176 224 277 346 407
#     4  11  27  45  69 103 139 177 233 282 336 406
#     4  12  24  45  72 101 138 183 224 276 346 411
#     4  11  24  39  64 101 137 174 223 278 342 407
#     4  11  24  44  67  98 133 177 234 291 338 391
#     4   9  18  37  63  92 130 174 219 272 338 409
#     4  11  24  46  68 100 139 181 221 276 341 412
#
# _framework density 24.2318
#
# number of rings (size 3 to 8) (size 9 to 14) (size 15 to 20)
#    0.000    1.143    4.286    1.714    4.000    2.571 
#    0.000    4.286    0.000    0.000    0.000    0.000 
#    0.000    0.000    0.000    0.000    0.000    0.000 
#
# Total GULP energy -156484.882364 kJ/mol
# GULP energy per Si atom -5588.745799 kJ/mol
# Density = 2.417665 g / cm^3
# Si number density = 24.231800 Si / 1000 Ang^3
#
#
#
# Elastic Constant Matrix: (Units=GPa)
#
#
# Indices 1 2 3 4 5 6 
#
# 1 78.2396 17.2673 5.5036 0.0000 -4.0738 0.0000
# 2 17.2673 155.0324 44.4518 0.0000 -25.5620 0.0000
# 3 5.5036 44.4518 92.3567 0.0000 -25.5907 0.0000
# 4 0.0000 0.0000 0.0000 13.7250 0.0000 -10.3689
# 5 -4.0738 -25.5620 -25.5907 0.0000 44.7225 0.0000
# 6 0.0000 0.0000 0.0000 -10.3689 0.0000 14.1765
#
#
#
# Elastic Compliance Matrix: (Units=1/GPa)
#
#
# Indices 1 2 3 4 5 6 
#
# 1 0.013110 -0.001395 0.000000 0.000000 0.000397 0.000000
# 2 -0.001395 0.007902 -0.002976 0.000000 0.002687 0.000000
# 3 0.000000 -0.002976 0.014010 0.000000 0.006316 0.000000
# 4 0.000000 0.000000 0.000000 0.162837 0.000000 0.119101
# 5 0.000397 0.002687 0.006316 0.000000 0.027546 0.000000
# 6 0.000000 0.000000 0.000000 0.119101 0.000000 0.157651
#
#
# Mechanical properties :
#
#
# Convention : Reuss Voigt Hill
#
# Bulk Modulus (GPa) = 38.05055 51.11933 44.58494
# Shear Modulus (GPa) = 12.48265 31.75188 22.11727
#
# Velocity S-wave (km/s) = 2.27212 3.62379 3.02443
# Velocity P-wave (km/s) = 4.75607 6.21698 5.53494
#
# Compressibility (1/GPa) = 0.02628083
#
# Stress axis : x y z
#
# Youngs Moduli (GPa) = 76.27922 126.55380 71.37872
#
# Poissons Ratio (x) = 0.17650 -0.00001
# Poissons Ratio (y) = 0.10639 0.21240
# Poissons Ratio (z) = -0.00001 0.37658
#
# Static dielectric constant tensor:
#      x y z
#    x 2.015390 0.000000 -0.009340 
#    y 0.000000 1.927160 0.000000 
#    z -0.009340 0.000000 1.918490 
# 
# From -- ./inp_files/53309.got.cif
#   From: 2010.05.17/outbox.cif.g08.bks.cpg/sg12_27_cif.got.tgz:53309.got - 2010.06.03 13:09:07.
