data_PCOD9220794
_publ_section_title
;
Structure prediction by ZEFSAII (Michael W. Deem and Ramdas Pophale) SiO2 
 PCOD9220794
Probable space group: C 2/M
;
_chemical_formula_sum "Si O2"
_cell_formula_units_Z 36
_cell_length_a 15.565499
_cell_length_b 18.080400
_cell_length_c 6.553763
_cell_angle_alpha 90.000000
_cell_angle_beta 65.777644
_cell_angle_gamma 90.000000
_cell_volume 1682.045162
_symmetry_space_group_name_H-M "C 2/M"
_symmetry_group_IT_number 12
_symmetry_cell_setting 'monoclinic'
loop_
_space_group_symop_operation_xyz
x,y,z
-x,y,-z
-x,-y,-z
x,-y,z
1/2+x,1/2+y,z
1/2-x,1/2+y,-z
1/2-x,1/2-y,-z
1/2+x,1/2-y,z
loop_
_atom_site_type_symbol
_atom_site_label
_atom_site_fract_x
_atom_site_fract_y
_atom_site_fract_z
Si Si1 0.436157 0.500000 0.762226
Si Si2 0.330295 0.158075 0.901688
Si Si3 0.432231 0.000000 0.264297
Si Si4 0.000000 0.626324 0.500000
Si Si5 0.820463 0.770674 0.245993
Si Si6 0.215761 0.500000 0.907235
Si Si7 0.000000 0.130624 0.000000
O O1 0.500000 0.500000 0.500000
O O2 0.327538 0.500000 0.803171
O O3 0.457806 0.426157 0.873091
O O4 0.421161 0.175718 0.680147
O O5 0.240228 0.185448 0.865233
O O6 0.342624 0.194220 0.109915
O O7 0.322665 0.071095 0.938574
O O8 0.453521 0.927974 0.378306
O O9 0.327144 0.000000 0.277521
O O10 0.500000 0.000000 0.000000
O O11 0.750000 0.750000 0.500000
O O12 0.916431 0.818169 0.177719
#
# Coordination Sequence:
#
# PCOD9220794 Si02
#       7
#     4   8   4   4   8   4   4
#     4  11  27  46  78 108 139 193 244 315 359 421
#     4  11  26  45  67 108 145 184 247 301 363 441
#     4  11  22  38  66 106 140 174 224 285 364 431
#     4  11  24  42  68 104 138 185 236 292 354 445
#     4  11  28  47  70 105 147 197 242 302 373 437
#     4  12  23  47  72 102 151 179 247 302 365 436
#     4  11  26  50  76 109 144 188 260 293 366 446
#
# _framework density 21.402515000000001
#
# number of rings (size 3 to 8) (size 9 to 14) (size 15 to 20)
#    0.000    0.889    4.444    0.667    9.333    0.000 
#    0.000    0.000    0.000    0.000    0.000    0.000 
#    0.000    0.000    0.000    0.000    0.000    0.000 
#
# Total GULP energy -100646.878558 kJ/mol
# GULP energy per Si atom -5591.493253 kJ/mol
# Density = 2.135380 g / cm^3
# Si number density = 21.402515 Si / 1000 Ang^3
#
#
#
# Elastic Constant Matrix: (Units=GPa)
#
#
# Indices 1 2 3 4 5 6 
#
# 1 152.3505 26.5660 41.8814 0.0000 -8.8211 0.0000
# 2 26.5660 101.7372 29.9004 0.0000 -6.8390 0.0000
# 3 41.8814 29.9004 129.8673 0.0000 -22.8624 0.0000
# 4 0.0000 0.0000 0.0000 25.5087 0.0000 -11.1413
# 5 -8.8211 -6.8390 -22.8624 0.0000 45.9717 0.0000
# 6 0.0000 0.0000 0.0000 -11.1413 0.0000 20.6301
#
#
#
# Elastic Compliance Matrix: (Units=1/GPa)
#
#
# Indices 1 2 3 4 5 6 
#
# 1 0.007364 -0.001310 -0.002037 0.000000 0.000205 0.000000
# 2 -0.001310 0.010782 -0.001997 0.000000 0.000360 0.000000
# 3 -0.002037 -0.001997 0.009530 0.000000 0.004052 0.000000
# 4 0.000000 0.000000 0.000000 0.051304 0.000000 0.027707
# 5 0.000205 0.000360 0.004052 0.000000 0.023860 0.000000
# 6 0.000000 0.000000 0.000000 0.027707 0.000000 0.063436
#
#
# Mechanical properties :
#
#
# Convention : Reuss Voigt Hill
#
# Bulk Modulus (GPa) = 58.86387 64.51672 61.69030
# Shear Modulus (GPa) = 27.37812 37.46259 32.42035
#
# Velocity S-wave (km/s) = 3.58047 4.18830 3.89625
# Velocity P-wave (km/s) = 6.68251 7.32113 7.00910
#
# Compressibility (1/GPa) = 0.01698835
#
# Stress axis : x y z
#
# Youngs Moduli (GPa) = 135.79215 92.74358 104.93118
#
# Poissons Ratio (x) = 0.12154 0.21375
# Poissons Ratio (y) = 0.17795 0.20950
# Poissons Ratio (z) = 0.27662 0.18517
#
# Static dielectric constant tensor:
#      x y z
#    x 1.868490 0.000000 -0.100480 
#    y 0.000000 1.777110 0.000000 
#    z -0.100480 0.000000 1.868450 
# 
# From -- ./inp_files/15097.got.cif
#   From: 2010.05.17/outbox.cif.g08.bks.cpg/sg12_8_cif.got.tgz:15097.got - 2010.06.03 13:09:07.
