data_PCOD9220888
_publ_section_title
;
Structure prediction by ZEFSAII (Michael W. Deem and Ramdas Pophale) SiO2 
 PCOD9220888
Probable space group: C 2/M
;
_chemical_formula_sum "Si O2"
_cell_formula_units_Z 48
_cell_length_a 17.169688
_cell_length_b 25.447441
_cell_length_c 9.862992
_cell_angle_alpha 90.000000
_cell_angle_beta 147.524242
_cell_angle_gamma 90.000000
_cell_volume 2313.892392
_symmetry_space_group_name_H-M "C 2/M"
_symmetry_group_IT_number 12
_symmetry_cell_setting 'monoclinic'
loop_
_space_group_symop_operation_xyz
x,y,z
-x,y,-z
-x,-y,-z
x,-y,z
1/2+x,1/2+y,z
1/2-x,1/2+y,-z
1/2-x,1/2-y,-z
1/2+x,1/2-y,z
loop_
_atom_site_type_symbol
_atom_site_label
_atom_site_fract_x
_atom_site_fract_y
_atom_site_fract_z
Si Si1 0.661802 0.561115 0.315662
Si Si2 0.592900 0.279895 0.777094
Si Si3 0.408138 0.393702 0.080339
Si Si4 0.905486 0.277378 0.724246
Si Si5 0.458292 0.896976 0.785735
Si Si6 0.125188 0.438568 0.795283
O O1 0.620144 0.500000 0.245578
O O2 0.575219 0.586221 0.316358
O O3 0.833381 0.562161 0.572703
O O4 0.631462 0.595799 0.135918
O O5 0.500000 0.285830 0.500000
O O6 0.605010 0.336098 0.872992
O O7 0.494857 0.244827 0.730646
O O8 0.750000 0.250000 0.000000
O O9 0.286469 0.427636 0.978541
O O10 0.750000 0.250000 0.500000
O O11 0.889626 0.339253 0.677844
O O12 0.000000 0.269026 0.000000
O O13 0.588375 0.903988 0.872220
O O14 0.500000 0.905066 0.000000
O O15 0.110828 0.500000 0.806071
O O16 0.000000 0.425709 0.500000
#
# Coordination Sequence:
#
# PCOD9220888 Si02
#       6
#     8   8   8   8   8   8
#     4  11  23  42  72 104 138 184 239 286 347 423
#     4  12  28  46  71 103 142 183 234 291 354 415
#     4  11  24  41  69  99 140 174 230 288 347 408
#     4  11  25  43  69  97 135 182 233 283 349 417
#     4  11  25  43  65 100 141 179 231 294 349 407
#     4  11  22  39  65  96 133 180 233 282 341 415
#
# _framework density 20.744268000000002
#
# number of rings (size 3 to 8) (size 9 to 14) (size 15 to 20)
#    0.000    0.833    1.667    5.500    7.000    6.667 
#    0.000    0.000    0.000    5.500    0.000    0.000 
#    0.000    0.000    0.000    0.000    0.000    0.000 
#
# Total GULP energy -133893.339993 kJ/mol
# GULP energy per Si atom -5578.889166 kJ/mol
# Density = 2.069705 g / cm^3
# Si number density = 20.744268 Si / 1000 Ang^3
#
#
#
# Elastic Constant Matrix: (Units=GPa)
#
#
# Indices 1 2 3 4 5 6 
#
# 1 154.8883 -0.5352 75.0841 0.0000 4.4009 0.0000
# 2 -0.5352 -95.0876 164.6192 0.0000 -64.4656 0.0000
# 3 75.0841 164.6192 -13.3922 0.0000 37.0666 0.0000
# 4 0.0000 0.0000 0.0000 23.6461 0.0000 22.6526
# 5 4.4009 -64.4656 37.0666 0.0000 25.8731 0.0000
# 6 0.0000 0.0000 0.0000 22.6526 0.0000 61.4659
#
#
#
# Elastic Compliance Matrix: (Units=1/GPa)
#
#
# Indices 1 2 3 4 5 6 
#
# 1 0.008210 -0.003076 -0.003394 0.000000 -0.004198 0.000000
# 2 -0.003076 0.002508 0.006512 0.000000 -0.002557 0.000000
# 3 -0.003394 0.006512 0.006618 0.000000 0.007322 0.000000
# 4 0.000000 0.000000 0.000000 0.065369 0.000000 -0.024091
# 5 -0.004198 -0.002557 0.007322 0.000000 0.022504 0.000000
# 6 0.000000 0.000000 0.000000 -0.024091 0.000000 0.025148
#
#
# Mechanical properties :
#
#
# Convention : Reuss Voigt Hill
#
# Bulk Modulus (GPa) = 57.39807 58.30497 57.85152
# Shear Modulus (GPa) = 36.74350 9.34637 23.04493
#
# Velocity S-wave (km/s) = 4.21320 2.12492 3.33664
# Velocity P-wave (km/s) = 7.16921 5.84705 6.54162
#
# Compressibility (1/GPa) = 0.01742219
#
# Stress axis : x y z
#
# Youngs Moduli (GPa) = 121.80223 398.68039 151.10483
#
# Poissons Ratio (x) = 1.22617 0.51280
# Poissons Ratio (y) = 0.37461 -0.98403
# Poissons Ratio (z) = 0.41336 -2.59629
#
# Static dielectric constant tensor:
#      x y z
#    x 1.703660 0.000000 0.002590 
#    y 0.000000 1.623470 0.000000 
#    z 0.002590 0.000000 1.809450 
# 
# From -- ./inp_files/67408.got.cif
#   From: 2010.05.17/outbox.cif.g08.bks.cpg/sg12_34_cif.got.tgz:67408.got - 2010.06.03 13:09:07.
