data_PCOD9220920
_publ_section_title
;
Structure prediction by ZEFSAII (Michael W. Deem and Ramdas Pophale) SiO2 
 PCOD9220920
Probable space group: C 2/M
;
_chemical_formula_sum "Si O2"
_cell_formula_units_Z 40
_cell_length_a 27.761618
_cell_length_b 14.857114
_cell_length_c 6.690436
_cell_angle_alpha 90.000000
_cell_angle_beta 136.110343
_cell_angle_gamma 90.000000
_cell_volume 1913.097702
_symmetry_space_group_name_H-M "C 2/M"
_symmetry_group_IT_number 12
_symmetry_cell_setting 'monoclinic'
loop_
_space_group_symop_operation_xyz
x,y,z
-x,y,-z
-x,-y,-z
x,-y,z
1/2+x,1/2+y,z
1/2-x,1/2+y,-z
1/2-x,1/2-y,-z
1/2+x,1/2-y,z
loop_
_atom_site_type_symbol
_atom_site_label
_atom_site_fract_x
_atom_site_fract_y
_atom_site_fract_z
Si Si1 0.932075 0.607270 0.437823
Si Si2 0.929499 0.233431 0.704171
Si Si3 0.420175 0.598970 0.322338
Si Si4 0.718008 0.802628 0.096946
Si Si5 0.826682 0.165893 0.705731
O O1 0.927861 0.500000 0.452844
O O2 0.944549 0.666931 0.671300
O O3 0.000000 0.625281 0.500000
O O4 0.855819 0.645923 0.145036
O O5 0.903840 0.174451 0.438559
O O6 0.875373 0.231161 0.720728
O O7 0.000000 0.191346 0.000000
O O8 0.500000 0.613286 0.500000
O O9 0.411925 0.500000 0.388310
O O10 0.375938 0.603154 0.986080
O O11 0.772557 0.867865 0.376615
O O12 0.709247 0.722055 0.227514
O O13 0.750000 0.750000 0.000000
#
# Coordination Sequence:
#
# PCOD9220920 Si02
#       5
#     8   8   8   8   8
#     4  11  24  44  71 104 140 183 238 291 346 417
#     4  12  22  40  71  97 135 183 226 291 357 411
#     4  11  23  39  62  99 135 173 229 282 346 421
#     4  11  22  43  71  98 134 182 232 284 351 422
#     4  11  22  39  69  96 130 181 229 283 349 417
#
# _framework density 20.908498999999999
#
# number of rings (size 3 to 8) (size 9 to 14) (size 15 to 20)
#    0.000    0.800    6.000    1.800    0.000    2.400 
#    0.000    4.000    0.000    0.000    0.000    0.000 
#    0.000    0.000    0.000    0.000    0.000    0.000 
#
# Total GULP energy -111408.778991 kJ/mol
# GULP energy per Si atom -5570.438950 kJ/mol
# Density = 2.086091 g / cm^3
# Si number density = 20.908499 Si / 1000 Ang^3
#
#
#
# Elastic Constant Matrix: (Units=GPa)
#
#
# Indices 1 2 3 4 5 6 
#
# 1 150.3740 48.8304 53.8101 0.0000 -9.9303 0.0000
# 2 48.8304 86.4879 30.7409 0.0000 -10.3985 0.0000
# 3 53.8101 30.7409 157.2169 0.0000 6.1562 0.0000
# 4 0.0000 0.0000 0.0000 8.2389 0.0000 -7.0330
# 5 -9.9303 -10.3985 6.1562 0.0000 35.5807 0.0000
# 6 0.0000 0.0000 0.0000 -7.0330 0.0000 1.5298
#
#
#
# Elastic Compliance Matrix: (Units=1/GPa)
#
#
# Indices 1 2 3 4 5 6 
#
# 1 0.008892 -0.003985 -0.002332 0.000000 0.001721 0.000000
# 2 -0.003985 0.014829 -0.001673 0.000000 0.003511 0.000000
# 3 -0.002332 -0.001673 0.007582 0.000000 -0.002452 0.000000
# 4 0.000000 0.000000 0.000000 -0.041505 0.000000 -0.190809
# 5 0.001721 0.003511 -0.002452 0.000000 0.030036 0.000000
# 6 0.000000 0.000000 0.000000 -0.190809 0.000000 -0.223526
#
#
# Mechanical properties :
#
#
# Convention : Reuss Voigt Hill
#
# Bulk Modulus (GPa) = 65.25869 73.42684 69.34277
# Shear Modulus (GPa) = -27.38147 26.44971 -0.46588
#
# Velocity S-wave (km/s) = -3.62275 3.56057 -0.47255
# Velocity P-wave (km/s) = 3.71218 7.21789 5.73926
#
# Compressibility (1/GPa) = 0.01532363
#
# Stress axis : x y z
#
# Youngs Moduli (GPa) = 112.46025 67.43578 131.89401
#
# Poissons Ratio (x) = 0.26871 0.30753
# Poissons Ratio (y) = 0.44813 0.22068
# Poissons Ratio (z) = 0.26222 0.11283
#
# Static dielectric constant tensor:
#      x y z
#    x 1.772980 0.000000 0.092650 
#    y 0.000000 1.759570 0.000000 
#    z 0.092650 0.000000 1.898290 
# 
# From -- ./inp_files/28658.got.cif
#   From: 2010.05.17/outbox.cif.g08.bks.cpg/sg12_15_cif.got.tgz:28658.got - 2010.06.03 13:09:07.
