data_PCOD9220065
_publ_section_title
;
Structure prediction by ZEFSAII (Michael W. Deem and Ramdas Pophale) SiO2 
 PCOD9220065
Probable space group: C 2/M
;
_chemical_formula_sum "Si O2"
_cell_formula_units_Z 60
_cell_length_a 16.660414
_cell_length_b 14.329492
_cell_length_c 21.813609
_cell_angle_alpha 90.000000
_cell_angle_beta 37.179452
_cell_angle_gamma 90.000000
_cell_volume 3147.069571
_symmetry_space_group_name_H-M "C 2/M"
_symmetry_group_IT_number 12
_symmetry_cell_setting 'monoclinic'
loop_
_space_group_symop_operation_xyz
x,y,z
-x,y,-z
-x,-y,-z
x,-y,z
1/2+x,1/2+y,z
1/2-x,1/2+y,-z
1/2-x,1/2-y,-z
1/2+x,1/2-y,z
loop_
_atom_site_type_symbol
_atom_site_label
_atom_site_fract_x
_atom_site_fract_y
_atom_site_fract_z
Si Si1 0.786414 0.697373 0.844466
Si Si2 0.500000 0.142880 0.500000
Si Si3 0.068044 0.658635 0.015437
Si Si4 0.572339 0.255525 0.665364
Si Si5 0.543473 0.282504 0.818499
Si Si6 0.715308 0.108344 0.284203
Si Si7 0.272476 0.394723 0.993128
Si Si8 0.808629 0.393586 0.501353
O O1 0.654532 0.758297 0.932158
O O2 0.781256 0.628721 0.789872
O O3 0.796316 0.641071 0.902413
O O4 0.913856 0.763067 0.755320
O O5 0.609671 0.175372 0.383331
O O6 0.607062 0.105400 0.486202
O O7 0.169745 0.608655 0.999444
O O8 0.000000 0.607611 0.000000
O O9 0.961082 0.706707 0.125155
O O10 0.589413 0.236965 0.727221
O O11 0.664599 0.345308 0.597130
O O12 0.618849 0.172284 0.592598
O O13 0.642102 0.365952 0.775705
O O14 0.395437 0.325965 0.904512
O O15 0.677515 0.000000 0.318665
O O16 0.320620 0.500000 0.972764
O O17 0.798462 0.500000 0.486671
#
# Coordination Sequence:
#
# PCOD9220065 Si02
#       8
#     8   4   8   8   8   8   8   8
#     4  11  21  39  58  84 118 155 194 234 301 367
#     4  12  23  34  54  88 123 146 185 256 308 348
#     4  11  21  38  58  82 116 152 195 244 284 347
#     4  11  22  39  62  84 118 167 192 237 302 356
#     4  11  21  39  58  84 118 155 194 234 301 367
#     4  12  23  35  58  89 119 149 187 247 312 363
#     4  11  23  37  57  85 119 156 201 247 284 346
#     4  11  24  39  59  91 122 151 202 250 296 363
#
# _framework density 19.065356000000001
#
# number of rings (size 3 to 8) (size 9 to 14) (size 15 to 20)
#    0.000    0.800    6.667    2.800    0.000    1.333 
#    0.000    2.000    0.000    0.000    0.000   15.867 
#    0.000    0.000    0.000    0.000    0.000    0.000 
#
# Total GULP energy -167072.217694 kJ/mol
# GULP energy per Si atom -5569.073923 kJ/mol
# Density = 1.902196 g / cm^3
# Si number density = 19.065356 Si / 1000 Ang^3
#
#
#
# Elastic Constant Matrix: (Units=GPa)
#
#
# Indices 1 2 3 4 5 6 
#
# 1 119.7906 23.6368 30.4080 0.0000 19.5762 0.0000
# 2 23.6368 65.3501 10.4845 0.0000 11.9184 0.0000
# 3 30.4080 10.4845 91.1781 0.0000 19.3089 0.0000
# 4 0.0000 0.0000 0.0000 7.5179 0.0000 1.1808
# 5 19.5762 11.9184 19.3089 0.0000 31.2004 0.0000
# 6 0.0000 0.0000 0.0000 1.1808 0.0000 19.6146
#
#
#
# Elastic Compliance Matrix: (Units=1/GPa)
#
#
# Indices 1 2 3 4 5 6 
#
# 1 0.010065 -0.002561 -0.002223 0.000000 -0.003961 0.000000
# 2 -0.002561 0.017133 -0.000081 0.000000 -0.004888 0.000000
# 3 -0.002223 -0.000081 0.013138 0.000000 -0.006705 0.000000
# 4 0.000000 0.000000 0.000000 0.134286 0.000000 -0.008084
# 5 -0.003961 -0.004888 -0.006705 0.000000 0.040552 0.000000
# 6 0.000000 0.000000 0.000000 -0.008084 0.000000 0.051469
#
#
# Mechanical properties :
#
#
# Convention : Reuss Voigt Hill
#
# Bulk Modulus (GPa) = 32.67439 45.04193 38.85816
# Shear Modulus (GPa) = 17.44735 25.78588 21.61662
#
# Velocity S-wave (km/s) = 3.02840 3.68162 3.37087
# Velocity P-wave (km/s) = 5.42251 6.46133 5.96458
#
# Compressibility (1/GPa) = 0.03060501
#
# Stress axis : x y z
#
# Youngs Moduli (GPa) = 99.35461 58.36692 76.11358
#
# Poissons Ratio (x) = 0.14950 0.16923
# Poissons Ratio (y) = 0.25449 0.00615
# Poissons Ratio (z) = 0.22090 0.00472
#
# Static dielectric constant tensor:
#      x y z
#    x 1.701270 0.000000 -0.007850 
#    y 0.000000 1.645310 0.000000 
#    z -0.007850 0.000000 1.677120 
# 
# From -- ./inp_files/311013.got.cif
#   From: 2010.05.17/outbox.cif.g08.bks.cpg/sg12_156_cif.got.tgz:311013.got - 2010.06.03 13:09:07.
