data_PCOD9220274
_publ_section_title
;
Structure prediction by ZEFSAII (Michael W. Deem and Ramdas Pophale) SiO2 
 PCOD9220274
Probable space group: C 2/M
;
_chemical_formula_sum "Si O2"
_cell_formula_units_Z 48
_cell_length_a 9.251764
_cell_length_b 30.420294
_cell_length_c 17.543781
_cell_angle_alpha 90.000000
_cell_angle_beta 29.808260
_cell_angle_gamma 90.000000
_cell_volume 2454.449434
_symmetry_space_group_name_H-M "C 2/M"
_symmetry_group_IT_number 12
_symmetry_cell_setting 'monoclinic'
loop_
_space_group_symop_operation_xyz
x,y,z
-x,y,-z
-x,-y,-z
x,-y,z
1/2+x,1/2+y,z
1/2-x,1/2+y,-z
1/2-x,1/2-y,-z
1/2+x,1/2-y,z
loop_
_atom_site_type_symbol
_atom_site_label
_atom_site_fract_x
_atom_site_fract_y
_atom_site_fract_z
Si Si1 0.403644 0.000000 0.248463
Si Si2 0.000000 0.420553 0.500000
Si Si3 0.806477 0.279016 0.399675
Si Si4 0.271034 0.148173 0.730831
Si Si5 0.234245 0.935546 0.830580
Si Si6 0.311224 0.277770 0.895104
Si Si7 0.396258 0.500000 0.890429
Si Si8 0.910348 0.000000 0.360848
O O1 0.477721 0.957960 0.267801
O O2 0.622585 0.000000 0.073465
O O3 0.087502 0.000000 0.357584
O O4 0.863990 0.385858 0.622366
O O5 0.778087 0.455243 0.561608
O O6 0.500000 0.289250 0.500000
O O7 0.750000 0.250000 0.500000
O O8 0.972386 0.320680 0.357590
O O9 0.006836 0.252303 0.247778
O O10 0.216426 0.115796 0.826275
O O11 0.006166 0.179604 0.826564
O O12 0.107050 0.959366 0.814551
O O13 0.000000 0.948760 0.000000
O O14 0.250000 0.250000 0.000000
O O15 0.000000 0.289156 0.000000
O O16 0.366219 0.500000 0.813671
#
# Coordination Sequence:
#
# PCOD9220274 Si02
#       8
#     4   4   8   8   8   8   4   4
#     4   9  20  37  67  94 133 167 222 266 336 398
#     4  11  26  42  62  98 132 190 210 280 336 399
#     4  12  24  45  70  94 132 183 221 276 351 418
#     4  12  24  42  70  92 141 166 237 276 336 404
#     4   9  20  38  62  95 128 168 206 272 335 381
#     4  12  25  46  71 100 130 178 231 287 352 406
#     4   9  16  40  64  88 128 176 205 264 340 395
#     4  11  21  41  65  91 141 175 224 261 335 408
#
# _framework density 19.556319999999999
#
# number of rings (size 3 to 8) (size 9 to 14) (size 15 to 20)
#    0.000    1.167    5.000    2.250    2.333    1.333 
#    6.000    0.833    0.000    0.000    0.000    0.000 
#    0.000    0.000    0.000    0.000    0.000    0.000 
#
# Total GULP energy -133819.653329 kJ/mol
# GULP energy per Si atom -5575.818889 kJ/mol
# Density = 1.951181 g / cm^3
# Si number density = 19.556320 Si / 1000 Ang^3
#
#
#
# Elastic Constant Matrix: (Units=GPa)
#
#
# Indices 1 2 3 4 5 6 
#
# 1 155.8141 74.8253 56.0702 0.0000 -33.5731 0.0000
# 2 74.8253 168.8272 60.8740 0.0000 -16.8579 0.0000
# 3 56.0702 60.8740 95.0560 0.0000 -6.4155 0.0000
# 4 0.0000 0.0000 0.0000 29.0068 0.0000 -13.4872
# 5 -33.5731 -16.8579 -6.4155 0.0000 53.1176 0.0000
# 6 0.0000 0.0000 0.0000 -13.4872 0.0000 -90.1097
#
#
#
# Elastic Compliance Matrix: (Units=1/GPa)
#
#
# Indices 1 2 3 4 5 6 
#
# 1 0.010208 -0.002554 -0.004038 0.000000 0.005154 0.000000
# 2 -0.002554 0.008528 -0.003913 0.000000 0.000620 0.000000
# 3 -0.004038 -0.003913 0.015276 0.000000 -0.001949 0.000000
# 4 0.000000 0.000000 0.000000 0.032232 0.000000 -0.004824
# 5 0.005154 0.000620 -0.001949 0.000000 0.022045 0.000000
# 6 0.000000 0.000000 0.000000 -0.004824 0.000000 -0.010376
#
#
# Mechanical properties :
#
#
# Convention : Reuss Voigt Hill
#
# Bulk Modulus (GPa) = 76.90811 89.24847 83.07829
# Shear Modulus (GPa) = 48.42303 13.59813 31.01058
#
# Velocity S-wave (km/s) = 4.98142 2.63977 3.98641
# Velocity P-wave (km/s) = 8.51457 7.41801 7.98514
#
# Compressibility (1/GPa) = 0.01300253
#
# Stress axis : x y z
#
# Youngs Moduli (GPa) = 97.96492 117.26339 65.46015
#
# Poissons Ratio (x) = 0.29943 0.26433
# Poissons Ratio (y) = 0.25015 0.25616
# Poissons Ratio (z) = 0.39559 0.45887
#
# Static dielectric constant tensor:
#      x y z
#    x 1.701450 0.000000 0.016940 
#    y 0.000000 1.595420 0.000000 
#    z 0.016940 0.000000 1.646100 
# 
# From -- ./inp_files/260279.got.cif
#   From: 2010.05.17/outbox.cif.g08.bks.cpg/sg12_131_cif.got.tgz:260279.got - 2010.06.03 13:09:07.
