data_PCOD9220671
_publ_section_title
;
Structure prediction by ZEFSAII (Michael W. Deem and Ramdas Pophale) SiO2 
 PCOD9220671
Probable space group: C 2/M
;
_chemical_formula_sum "Si O2"
_cell_formula_units_Z 48
_cell_length_a 25.540977
_cell_length_b 10.084988
_cell_length_c 11.484459
_cell_angle_alpha 90.000000
_cell_angle_beta 62.935470
_cell_angle_gamma 90.000000
_cell_volume 2634.236401
_symmetry_space_group_name_H-M "C 2/M"
_symmetry_group_IT_number 12
_symmetry_cell_setting 'monoclinic'
loop_
_space_group_symop_operation_xyz
x,y,z
-x,y,-z
-x,-y,-z
x,-y,z
1/2+x,1/2+y,z
1/2-x,1/2+y,-z
1/2-x,1/2-y,-z
1/2+x,1/2-y,z
loop_
_atom_site_type_symbol
_atom_site_label
_atom_site_fract_x
_atom_site_fract_y
_atom_site_fract_z
Si Si1 0.170124 0.500000 0.961252
Si Si2 0.435276 0.152520 0.577067
Si Si3 0.382472 0.764806 0.390893
Si Si4 0.310120 0.500000 0.848112
Si Si5 0.882287 0.758630 0.861999
Si Si6 0.682441 0.000000 0.676212
Si Si7 0.495717 0.658224 0.140281
Si Si8 0.322995 0.500000 0.556473
O O1 0.239876 0.500000 0.914466
O O2 0.161425 0.500000 0.831305
O O3 0.142288 0.631362 0.045755
O O4 0.500000 0.214593 0.500000
O O5 0.404193 0.162649 0.485356
O O6 0.398715 0.220348 0.714136
O O7 0.442825 0.000000 0.605363
O O8 0.440218 0.727794 0.257457
O O9 0.350930 0.630336 0.467649
O O10 0.341787 0.867469 0.361849
O O11 0.334926 0.374411 0.893844
O O12 0.331468 0.500000 0.689697
O O13 0.942621 0.806007 0.861316
O O14 0.753095 0.000000 0.605658
O O15 0.486930 0.500000 0.157618
O O16 0.500000 0.694627 0.000000
#
# Coordination Sequence:
#
# PCOD9220671 Si02
#       8
#     4   8   8   4   8   4   8   4
#     4  11  26  44  61  90 128 172 214 252 304 371
#     4  11  22  37  63  99 127 159 195 260 323 368
#     4  12  22  42  67  92 127 161 209 258 315 371
#     4  11  24  41  66  93 125 166 212 262 309 362
#     4  12  22  42  67  92 127 161 209 258 315 371
#     4  11  26  44  61  90 128 172 214 252 304 371
#     4  11  24  40  63  94 128 163 199 252 316 379
#     4  11  24  41  66  93 125 166 212 262 309 362
#
# _framework density 18.221599000000001
#
# number of rings (size 3 to 8) (size 9 to 14) (size 15 to 20)
#    0.000    0.667    6.667    2.000    0.000    0.667 
#    0.000    4.167    3.667    0.000    0.000    0.000 
#    0.000    0.000    0.000    0.000    0.000    0.000 
#
# Total GULP energy -134069.147263 kJ/mol
# GULP energy per Si atom -5586.214469 kJ/mol
# Density = 1.818013 g / cm^3
# Si number density = 18.221599 Si / 1000 Ang^3
#
#
#
# Elastic Constant Matrix: (Units=GPa)
#
#
# Indices 1 2 3 4 5 6 
#
# 1 94.7764 21.7906 28.9371 0.0000 10.1462 0.0000
# 2 21.7906 76.2921 17.7421 0.0000 3.2348 0.0000
# 3 28.9371 17.7421 93.6369 0.0000 8.0573 0.0000
# 4 0.0000 0.0000 0.0000 58.7513 0.0000 -13.1744
# 5 10.1462 3.2348 8.0573 0.0000 28.4299 0.0000
# 6 0.0000 0.0000 0.0000 -13.1744 0.0000 27.7854
#
#
#
# Elastic Compliance Matrix: (Units=1/GPa)
#
#
# Indices 1 2 3 4 5 6 
#
# 1 0.012457 -0.002709 -0.003055 0.000000 -0.003272 0.000000
# 2 -0.002709 0.014321 -0.001865 0.000000 -0.000134 0.000000
# 3 -0.003055 -0.001865 0.012161 0.000000 -0.002144 0.000000
# 4 0.000000 0.000000 0.000000 0.019046 0.000000 0.009031
# 5 -0.003272 -0.000134 -0.002144 0.000000 0.036965 0.000000
# 6 0.000000 0.000000 0.000000 0.009031 0.000000 0.040272
#
#
# Mechanical properties :
#
#
# Convention : Reuss Voigt Hill
#
# Bulk Modulus (GPa) = 42.22600 44.62720 43.42660
# Shear Modulus (GPa) = 31.57113 36.07569 33.82341
#
# Velocity S-wave (km/s) = 4.16699 4.45436 4.31307
# Velocity P-wave (km/s) = 6.80997 7.14140 6.97765
#
# Compressibility (1/GPa) = 0.02368209
#
# Stress axis : x y z
#
# Youngs Moduli (GPa) = 80.27681 69.82964 82.22709
#
# Poissons Ratio (x) = 0.18916 0.25119
# Poissons Ratio (y) = 0.21745 0.15333
# Poissons Ratio (z) = 0.24523 0.13022
#
# Static dielectric constant tensor:
#      x y z
#    x 1.620240 0.000000 -0.018010 
#    y 0.000000 1.609630 0.000000 
#    z -0.018010 0.000000 1.614580 
# 
# From -- ./inp_files/173015.got.cif
#   From: 2010.05.17/outbox.cif.g08.bks.cpg/sg12_87_cif.got.tgz:173015.got - 2010.06.03 13:09:07.
