data_PCOD9220012
_publ_section_title
;
Structure prediction by ZEFSAII (Michael W. Deem and Ramdas Pophale) SiO2 
 PCOD9220012
Probable space group: C 2/M
;
_chemical_formula_sum "Si O2"
_cell_formula_units_Z 48
_cell_length_a 21.636592
_cell_length_b 25.822814
_cell_length_c 11.051676
_cell_angle_alpha 90.000000
_cell_angle_beta 26.052996
_cell_angle_gamma 90.000000
_cell_volume 2711.971840
_symmetry_space_group_name_H-M "C 2/M"
_symmetry_group_IT_number 12
_symmetry_cell_setting 'monoclinic'
loop_
_space_group_symop_operation_xyz
x,y,z
-x,y,-z
-x,-y,-z
x,-y,z
1/2+x,1/2+y,z
1/2-x,1/2+y,-z
1/2-x,1/2-y,-z
1/2+x,1/2-y,z
loop_
_atom_site_type_symbol
_atom_site_label
_atom_site_fract_x
_atom_site_fract_y
_atom_site_fract_z
Si Si1 0.367878 0.000000 0.643665
Si Si2 0.236687 0.586055 0.767229
Si Si3 0.891162 0.703476 0.365759
Si Si4 0.910192 0.409897 0.378702
Si Si5 0.145157 0.060010 0.692140
Si Si6 0.832874 0.000000 0.785578
Si Si7 0.707092 0.200721 0.736034
O O1 0.500000 0.000000 0.500000
O O2 0.379557 0.949361 0.540090
O O3 0.231566 0.000000 0.967211
O O4 0.332964 0.564862 0.489201
O O5 0.278927 0.551525 0.808905
O O6 0.252200 0.648469 0.726998
O O7 0.067012 0.578894 0.051666
O O8 0.898686 0.650817 0.429578
O O9 0.813061 0.751731 0.561973
O O10 0.814354 0.691491 0.371338
O O11 0.052275 0.716638 0.052497
O O12 0.787648 0.418347 0.497780
O O13 0.143612 0.000000 0.730082
O O14 0.000000 0.083528 0.000000
O O15 0.000000 0.000000 0.500000
#
# Coordination Sequence:
#
# PCOD9220012 Si02
#       7
#     4   8   8   8   8   4   8
#     4  12  24  43  60  87 107 154 207 244 288 336
#     4  11  21  39  61  84 116 158 191 237 290 354
#     4   9  18  33  53  88 117 154 179 234 281 350
#     4  11  21  37  63  84 118 151 198 238 284 353
#     4  11  23  33  52  89 122 151 184 235 300 352
#     4  12  28  43  60  83 119 154 197 248 296 338
#     4   9  18  33  55  84 121 145 192 222 290 350
#
# _framework density 17.699297999999999
#
# number of rings (size 3 to 8) (size 9 to 14) (size 15 to 20)
#    0.000    1.500    5.000    0.500    2.333    2.000 
#    0.000    0.000    0.000    2.000    0.000    0.000 
#    0.000    0.000    0.000    0.000    0.000    0.000 
#
# Total GULP energy -133736.062600 kJ/mol
# GULP energy per Si atom -5572.335942 kJ/mol
# Density = 1.765901 g / cm^3
# Si number density = 17.699298 Si / 1000 Ang^3
#
#
#
# Elastic Constant Matrix: (Units=GPa)
#
#
# Indices 1 2 3 4 5 6 
#
# 1 29.1516 30.8079 25.2157 -0.0014 6.7301 0.0008
# 2 30.8079 131.6546 60.3642 -0.0029 0.7894 0.0007
# 3 25.2157 60.3642 113.8593 -0.0006 5.9219 0.0002
# 4 -0.0014 -0.0029 -0.0006 25.6855 -0.0010 -4.5434
# 5 6.7301 0.7894 5.9219 -0.0010 29.6066 -0.0001
# 6 0.0008 0.0007 0.0002 -4.5434 -0.0001 6.5882
#
#
#
# Elastic Compliance Matrix: (Units=1/GPa)
#
#
# Indices 1 2 3 4 5 6 
#
# 1 0.051672 -0.009286 -0.005985 0.000000 -0.010301 -0.000005
# 2 -0.009286 0.011723 -0.004297 0.000001 0.002658 0.000001
# 3 -0.005985 -0.004297 0.012439 0.000000 -0.001013 0.000001
# 4 0.000000 0.000001 0.000000 0.044342 0.000002 0.030579
# 5 -0.010301 0.002658 -0.001013 0.000002 0.036250 0.000002
# 6 -0.000005 0.000001 0.000001 0.030579 0.000002 0.172874
#
#
# Mechanical properties :
#
#
# Convention : Reuss Voigt Hill
#
# Bulk Modulus (GPa) = 27.24875 56.38235 41.81555
# Shear Modulus (GPa) = 13.13490 22.92791 18.03140
#
# Velocity S-wave (km/s) = 2.72713 3.60309 3.19527
# Velocity P-wave (km/s) = 5.03440 7.01673 6.10654
#
# Compressibility (1/GPa) = 0.03669892
#
# Stress axis : x y z
#
# Youngs Moduli (GPa) = 19.35298 85.30484 80.39343
#
# Poissons Ratio (x) = 0.79211 0.48113
# Poissons Ratio (y) = 0.17971 0.34543
# Poissons Ratio (z) = 0.11582 0.36653
#
# Static dielectric constant tensor:
#      x y z
#    x 1.628840 0.000000 0.014930 
#    y 0.000000 1.631650 0.000000 
#    z 0.014930 0.000000 1.637510 
# 
# From -- ./inp_files/178598.got.cif
#   From: 2010.05.17/outbox.cif.g08.bks.cpg/sg12_90_cif.got.tgz:178598.got - 2010.06.03 13:09:07.
