data_PCOD9220028
_publ_section_title
;
Structure prediction by ZEFSAII (Michael W. Deem and Ramdas Pophale) SiO2 
 PCOD9220028
Probable space group: C 2/M
;
_chemical_formula_sum "Si O2"
_cell_formula_units_Z 48
_cell_length_a 29.882496
_cell_length_b 15.513632
_cell_length_c 14.992635
_cell_angle_alpha 90.000000
_cell_angle_beta 159.993668
_cell_angle_gamma 90.000000
_cell_volume 2377.890504
_symmetry_space_group_name_H-M "C 2/M"
_symmetry_group_IT_number 12
_symmetry_cell_setting 'monoclinic'
loop_
_space_group_symop_operation_xyz
x,y,z
-x,y,-z
-x,-y,-z
x,-y,z
1/2+x,1/2+y,z
1/2-x,1/2+y,-z
1/2-x,1/2-y,-z
1/2+x,1/2-y,z
loop_
_atom_site_type_symbol
_atom_site_label
_atom_site_fract_x
_atom_site_fract_y
_atom_site_fract_z
Si Si1 0.714488 0.406182 0.916871
Si Si2 0.036042 0.666739 0.667999
Si Si3 0.524483 0.898747 0.845456
Si Si4 0.326037 0.402568 0.472646
Si Si5 0.607797 0.753483 0.279350
Si Si6 0.006893 0.134848 0.383692
O O1 0.780303 0.500000 0.040192
O O2 0.643620 0.388609 0.877751
O O3 0.598800 0.407311 0.629402
O O4 0.808519 0.333915 0.054412
O O5 0.000000 0.635011 0.500000
O O6 0.007814 0.616478 0.707288
O O7 0.983246 0.762492 0.584359
O O8 0.432965 0.833450 0.731414
O O9 0.499370 0.000000 0.817985
O O10 0.678159 0.881270 0.159865
O O11 0.318547 0.500000 0.494073
O O12 0.383659 0.333483 0.648020
O O13 0.430624 0.397349 0.589307
O O14 0.750000 0.750000 0.500000
O O15 0.500000 0.752744 0.000000
#
# Coordination Sequence:
#
# PCOD9220028 Si02
#       6
#     8   8   8   8   8   8
#     4  11  22  37  58  90 128 174 233 280 329 398
#     4  12  24  39  65  96 139 185 236 285 341 397
#     4  11  25  46  73 101 139 190 239 282 350 436
#     4  11  23  44  73 101 136 181 230 288 355 428
#     4  12  26  48  78 108 139 177 230 300 368 426
#     4  11  21  37  64  91 125 180 232 275 332 397
#
# _framework density 20.185959
#
# number of rings (size 3 to 8) (size 9 to 14) (size 15 to 20)
#    0.000    0.667    6.667    3.000    0.000    2.667 
#    3.000    0.000    0.000    0.000    0.000    0.000 
#    0.000    0.000    0.000    0.000    0.000    0.000 
#
# Total GULP energy -133718.883546 kJ/mol
# GULP energy per Si atom -5571.620148 kJ/mol
# Density = 2.014001 g / cm^3
# Si number density = 20.185959 Si / 1000 Ang^3
#
#
#
# Elastic Constant Matrix: (Units=GPa)
#
#
# Indices 1 2 3 4 5 6 
#
# 1 138.1005 61.0727 49.1335 0.0000 4.5994 0.0000
# 2 61.0727 131.5232 51.5627 0.0000 0.0635 0.0000
# 3 49.1335 51.5627 65.4758 0.0000 0.3914 0.0000
# 4 0.0000 0.0000 0.0000 34.1185 0.0000 2.7350
# 5 4.5994 0.0635 0.3914 0.0000 39.0579 0.0000
# 6 0.0000 0.0000 0.0000 2.7350 0.0000 -17.4473
#
#
#
# Elastic Compliance Matrix: (Units=1/GPa)
#
#
# Indices 1 2 3 4 5 6 
#
# 1 0.010501 -0.002588 -0.005835 0.000000 -0.001174 0.000000
# 2 -0.002588 0.011637 -0.007224 0.000000 0.000358 0.000000
# 3 -0.005835 -0.007224 0.025338 0.000000 0.000445 0.000000
# 4 0.000000 0.000000 0.000000 0.028946 0.000000 0.004538
# 5 -0.001174 0.000358 0.000445 0.000000 0.025736 0.000000
# 6 0.000000 0.000000 0.000000 0.004538 0.000000 -0.056604
#
#
# Mechanical properties :
#
#
# Convention : Reuss Voigt Hill
#
# Bulk Modulus (GPa) = 61.79930 73.18192 67.49061
# Shear Modulus (GPa) = 60.79701 22.70121 41.74911
#
# Velocity S-wave (km/s) = 5.49398 3.35715 4.55271
# Velocity P-wave (km/s) = 8.42179 7.16658 7.81941
#
# Compressibility (1/GPa) = 0.01618141
#
# Stress axis : x y z
#
# Youngs Moduli (GPa) = 95.23352 85.93268 39.46675
#
# Poissons Ratio (x) = 0.22239 0.23027
# Poissons Ratio (y) = 0.24646 0.28512
# Poissons Ratio (z) = 0.55565 0.62081
#
# Static dielectric constant tensor:
#      x y z
#    x 1.710720 0.000000 0.043750 
#    y 0.000000 1.733860 0.000000 
#    z 0.043750 0.000000 1.861430 
# 
# From -- ./inp_files/251397.got.cif
#   From: 2010.05.17/outbox.cif.g08.bks.cpg/sg12_126_cif.got.tgz:251397.got - 2010.06.03 13:09:07.
