data_PCOD9220647
_publ_section_title
;
Structure prediction by ZEFSAII (Michael W. Deem and Ramdas Pophale) SiO2 
 PCOD9220647
Probable space group: C 2/M
;
_chemical_formula_sum "Si O2"
_cell_formula_units_Z 56
_cell_length_a 13.918749
_cell_length_b 20.097924
_cell_length_c 7.707476
_cell_angle_alpha 90.000000
_cell_angle_beta 78.445208
_cell_angle_gamma 90.000000
_cell_volume 2112.377761
_symmetry_space_group_name_H-M "C 2/M"
_symmetry_group_IT_number 12
_symmetry_cell_setting 'monoclinic'
loop_
_space_group_symop_operation_xyz
x,y,z
-x,y,-z
-x,-y,-z
x,-y,z
1/2+x,1/2+y,z
1/2-x,1/2+y,-z
1/2-x,1/2-y,-z
1/2+x,1/2-y,z
loop_
_atom_site_type_symbol
_atom_site_label
_atom_site_fract_x
_atom_site_fract_y
_atom_site_fract_z
Si Si1 0.789606 0.332026 0.351394
Si Si2 0.563181 0.286080 0.633365
Si Si3 0.361230 0.289694 0.863004
Si Si4 0.449528 0.569618 0.304094
Si Si5 0.147826 0.070519 0.036569
Si Si6 0.613754 0.921229 0.395915
Si Si7 0.613441 0.143288 0.018723
O O1 0.689085 0.300801 0.307977
O O2 0.813005 0.375084 0.515119
O O3 0.855267 0.265389 0.342877
O O4 0.831155 0.377434 0.178307
O O5 0.500000 0.255763 0.500000
O O6 0.479091 0.293998 0.809254
O O7 0.586924 0.363624 0.593574
O O8 0.349014 0.217479 0.947200
O O9 0.320012 0.353016 0.980587
O O10 0.423105 0.500000 0.402687
O O11 0.402265 0.566347 0.132235
O O12 0.565634 0.570883 0.218739
O O13 0.203685 0.000000 0.036924
O O14 0.500000 0.910728 0.500000
O O15 0.621013 0.899976 0.191085
O O16 0.636071 0.000000 0.407138
O O17 0.500000 0.146219 0.000000
#
# Coordination Sequence:
#
# PCOD9220647 Si02
#       7
#     8   8   8   8   8   8   8
#     4  12  25  44  69 102 141 181 234 287 353 417
#     4  11  22  37  61  91 129 176 226 283 338 407
#     4  11  23  39  66  97 136 180 230 288 348 413
#     4   8  15  29  52  81 117 161 207 259 319 387
#     4   8  15  30  53  83 118 161 211 261 321 392
#     4  11  25  46  72 102 137 183 236 294 357 418
#     4  12  23  42  71 102 139 180 234 289 346 417
#
# _framework density 26.51041
#
# number of rings (size 3 to 8) (size 9 to 14) (size 15 to 20)
#    0.000    1.571    2.857    3.429    2.000    4.000 
#    0.000    0.000    0.000    4.286    0.000    0.000 
#    0.000    0.000    0.000    0.000    0.000    0.000 
#
# Total GULP energy -156461.327299 kJ/mol
# GULP energy per Si atom -5587.904546 kJ/mol
# Density = 2.645007 g / cm^3
# Si number density = 26.510410 Si / 1000 Ang^3
#
#
#
# Elastic Constant Matrix: (Units=GPa)
#
#
# Indices 1 2 3 4 5 6 
#
# 1 86.0361 37.0093 24.0120 0.0000 20.4684 0.0000
# 2 37.0093 204.1971 46.9837 0.0000 17.0362 0.0000
# 3 24.0120 46.9837 153.3160 0.0000 21.6100 0.0000
# 4 0.0000 0.0000 0.0000 44.2658 0.0000 6.6912
# 5 20.4684 17.0362 21.6100 0.0000 39.4774 0.0000
# 6 0.0000 0.0000 0.0000 6.6912 0.0000 5.8175
#
#
#
# Elastic Compliance Matrix: (Units=1/GPa)
#
#
# Indices 1 2 3 4 5 6 
#
# 1 0.014088 -0.001868 -0.000778 0.000000 -0.006073 0.000000
# 2 -0.001868 0.005600 -0.001322 0.000000 -0.000725 0.000000
# 3 -0.000778 -0.001322 0.007490 0.000000 -0.003126 0.000000
# 4 0.000000 0.000000 0.000000 0.027345 0.000000 -0.031452
# 5 -0.006073 -0.000725 -0.003126 0.000000 0.030504 0.000000
# 6 0.000000 0.000000 0.000000 -0.031452 0.000000 0.208072
#
#
# Mechanical properties :
#
#
# Convention : Reuss Voigt Hill
#
# Bulk Modulus (GPa) = 51.96483 73.28436 62.62459
# Shear Modulus (GPa) = 16.26289 40.28176 28.27232
#
# Velocity S-wave (km/s) = 2.47949 3.90227 3.26921
# Velocity P-wave (km/s) = 5.27649 6.92872 6.15827
#
# Compressibility (1/GPa) = 0.01924378
#
# Stress axis : x y z
#
# Youngs Moduli (GPa) = 70.98076 178.56216 133.51172
#
# Poissons Ratio (x) = 0.33350 0.10390
# Poissons Ratio (y) = 0.13257 0.17644
# Poissons Ratio (z) = 0.05524 0.23597
#
# Static dielectric constant tensor:
#      x y z
#    x 2.237190 0.000000 -0.047900 
#    y 0.000000 2.078510 0.000000 
#    z -0.047900 0.000000 2.106620 
# 
# From -- ./inp_files/76925.got.cif
#   From: 2010.05.17/outbox.cif.g08.bks.cpg/sg12_39_cif.got.tgz:76925.got - 2010.06.03 13:09:07.
