data_PCOD9220002
_publ_section_title
;
Structure prediction by ZEFSAII (Michael W. Deem and Ramdas Pophale) SiO2 
 PCOD9220002
Probable space group: C 2/M
;
_chemical_formula_sum "Si O2"
_cell_formula_units_Z 48
_cell_length_a 10.983138
_cell_length_b 15.822730
_cell_length_c 20.528272
_cell_angle_alpha 90.000000
_cell_angle_beta 31.874029
_cell_angle_gamma 90.000000
_cell_volume 1883.814533
_symmetry_space_group_name_H-M "C 2/M"
_symmetry_group_IT_number 12
_symmetry_cell_setting 'monoclinic'
loop_
_space_group_symop_operation_xyz
x,y,z
-x,y,-z
-x,-y,-z
x,-y,z
1/2+x,1/2+y,z
1/2-x,1/2+y,-z
1/2-x,1/2-y,-z
1/2+x,1/2-y,z
loop_
_atom_site_type_symbol
_atom_site_label
_atom_site_fract_x
_atom_site_fract_y
_atom_site_fract_z
Si Si1 0.319729 0.632978 0.819767
Si Si2 0.850130 0.406959 0.961944
Si Si3 0.357008 0.173303 0.825876
Si Si4 0.818322 0.405416 0.711064
Si Si5 0.137506 0.906283 0.567946
Si Si6 0.654963 0.263744 0.370714
O O1 0.284738 0.733337 0.837647
O O2 0.557273 0.603306 0.679300
O O3 0.115164 0.601005 0.865471
O O4 0.284582 0.602619 0.909235
O O5 0.815385 0.500000 0.950459
O O6 0.788445 0.344788 0.931356
O O7 0.283553 0.107497 0.804318
O O8 0.635188 0.179147 0.699690
O O9 0.739597 0.500000 0.728456
O O10 0.092087 0.402542 0.569135
O O11 0.740878 0.315951 0.715043
O O12 0.010230 0.826152 0.594272
O O13 0.059000 0.000000 0.580919
O O14 0.500000 0.231015 0.500000
#
# Coordination Sequence:
#
# PCOD9220002 Si02
#       6
#     8   8   8   8   8   8
#     4  11  22  39  61  89 123 157 200 249 305 350
#     4  11  23  40  63  90 119 156 205 256 300 354
#     4  12  22  39  64  90 122 161 201 249 302 366
#     4  11  24  41  61  92 126 162 201 250 302 361
#     4  11  21  37  62  90 122 158 202 249 299 355
#     4  12  23  39  63  90 128 161 203 247 305 364
#
# _framework density 25.480212999999999
#
# number of rings (size 3 to 8) (size 9 to 14) (size 15 to 20)
#    0.000    0.667    5.000    4.500    0.000    1.333 
#    0.000    2.500    0.000    0.000    0.000    9.333 
#    0.000    0.000    0.000    0.000    0.000    0.000 
#
# Total GULP energy -134443.979683 kJ/mol
# GULP energy per Si atom -5601.832487 kJ/mol
# Density = 2.542222 g / cm^3
# Si number density = 25.480213 Si / 1000 Ang^3
#
#
#
# Elastic Constant Matrix: (Units=GPa)
#
#
# Indices 1 2 3 4 5 6 
#
# 1 52.9219 34.0349 33.1075 0.0090 20.8370 0.0028
# 2 34.0349 148.5827 -2.7026 0.0160 10.8792 0.0050
# 3 33.1075 -2.7026 98.2593 0.0471 14.0378 0.0202
# 4 0.0090 0.0160 0.0471 18.2764 -0.0124 -2.6576
# 5 20.8370 10.8792 14.0378 -0.0124 48.1640 -0.0068
# 6 0.0028 0.0050 0.0202 -2.6576 -0.0068 28.9579
#
#
#
# Elastic Compliance Matrix: (Units=1/GPa)
#
#
# Indices 1 2 3 4 5 6 
#
# 1 0.033845 -0.007201 -0.010166 0.000010 -0.010053 0.000004
# 2 -0.007201 0.008393 0.002591 -0.000011 0.000465 -0.000003
# 3 -0.010166 0.002591 0.013699 -0.000034 -0.000180 -0.000012
# 4 0.000010 -0.000011 -0.000034 0.055456 0.000023 0.005089
# 5 -0.010053 0.000465 -0.000180 0.000023 0.025059 0.000009
# 6 0.000004 -0.000003 -0.000012 0.005089 0.000009 0.035000
#
#
# Mechanical properties :
#
#
# Convention : Reuss Voigt Hill
#
# Bulk Modulus (GPa) = 37.90052 47.62706 42.76379
# Shear Modulus (GPa) = 23.83236 34.76793 29.30014
#
# Velocity S-wave (km/s) = 3.06163 3.69793 3.39472
# Velocity P-wave (km/s) = 5.23497 6.07991 5.67319
#
# Compressibility (1/GPa) = 0.02638487
#
# Stress axis : x y z
#
# Youngs Moduli (GPa) = 29.54673 119.14746 72.99606
#
# Poissons Ratio (x) = 0.85803 0.74205
# Poissons Ratio (y) = 0.21278 -0.18913
# Poissons Ratio (z) = 0.30036 -0.30870
#
# Static dielectric constant tensor:
#      x y z
#    x 2.024150 0.000000 -0.018460 
#    y 0.000000 1.942280 0.000010 
#    z -0.018460 0.000010 2.018370 
# 
# From -- ./inp_files/205126.got.cif
#   From: 2010.05.17/outbox.cif.g08.bks.cpg/sg12_103_cif.got.tgz:205126.got - 2010.06.03 13:09:07.
