data_PCOD9220462
_publ_section_title
;
Structure prediction by ZEFSAII (Michael W. Deem and Ramdas Pophale) SiO2 
 PCOD9220462
Probable space group: C 2/M
;
_chemical_formula_sum "Si O2"
_cell_formula_units_Z 56
_cell_length_a 27.068836
_cell_length_b 8.557425
_cell_length_c 14.916975
_cell_angle_alpha 90.000000
_cell_angle_beta 56.945380
_cell_angle_gamma 90.000000
_cell_volume 2896.114334
_symmetry_space_group_name_H-M "C 2/M"
_symmetry_group_IT_number 12
_symmetry_cell_setting 'monoclinic'
loop_
_space_group_symop_operation_xyz
x,y,z
-x,y,-z
-x,-y,-z
x,-y,z
1/2+x,1/2+y,z
1/2-x,1/2+y,-z
1/2-x,1/2-y,-z
1/2+x,1/2-y,z
loop_
_atom_site_type_symbol
_atom_site_label
_atom_site_fract_x
_atom_site_fract_y
_atom_site_fract_z
Si Si1 0.753440 0.187279 0.597300
Si Si2 0.975728 0.312444 0.379897
Si Si3 0.137483 0.313229 0.398347
Si Si4 0.469024 0.811904 0.182010
Si Si5 0.640991 0.809011 0.824278
Si Si6 0.895535 0.689167 0.947979
Si Si7 0.892573 0.815465 0.756539
O O1 0.750000 0.250000 0.500000
O O2 0.811987 0.243224 0.589501
O O3 0.697010 0.241341 0.711228
O O4 0.752389 0.000000 0.595439
O O5 0.985348 0.500000 0.378404
O O6 0.926467 0.263843 0.499456
O O7 0.952689 0.281518 0.301752
O O8 0.038888 0.232230 0.325283
O O9 0.139602 0.500000 0.402039
O O10 0.142508 0.260190 0.290888
O O11 0.419327 0.753668 0.163669
O O12 0.536376 0.758924 0.102962
O O13 0.470790 0.000000 0.169217
O O14 0.640000 0.000000 0.823735
O O15 0.641115 0.763399 0.928339
O O16 0.895940 0.500000 0.941302
O O17 0.875931 0.754326 0.871700
O O18 0.886307 0.000000 0.759271
#
# Coordination Sequence:
#
# PCOD9220462 Si02
#       7
#     8   8   8   8   8   8   8
#     4  11  23  39  58  83 114 146 182 224 272 323
#     4   9  18  33  55  81 109 143 182 222 268 327
#     4  11  22  38  59  80 105 143 190 232 271 319
#     4   8  13  25  50  82 108 132 170 219 265 310
#     4   9  17  31  54  81 108 142 186 230 267 312
#     4   9  17  32  55  81 108 142 185 227 266 316
#     4  11  22  35  53  81 115 144 174 220 279 337
#
# _framework density 19.336252000000002
#
# number of rings (size 3 to 8) (size 9 to 14) (size 15 to 20)
#    0.000    2.286    0.000    4.714    0.000    6.857 
#    0.000    2.143    0.000    7.714    0.000    0.000 
#    0.000    0.000    0.000    0.000    0.000    0.000 
#
# Total GULP energy -156309.056665 kJ/mol
# GULP energy per Si atom -5582.466309 kJ/mol
# Density = 1.929224 g / cm^3
# Si number density = 19.336252 Si / 1000 Ang^3
#
#
#
# Elastic Constant Matrix: (Units=GPa)
#
#
# Indices 1 2 3 4 5 6 
#
# 1 78.6809 21.0155 46.6299 0.0000 28.3056 0.0000
# 2 21.0155 34.6156 28.0418 0.0000 5.8160 0.0000
# 3 46.6299 28.0418 148.7716 0.0000 21.2939 0.0000
# 4 0.0000 0.0000 0.0000 16.7709 0.0000 2.4794
# 5 28.3056 5.8160 21.2939 0.0000 22.4022 0.0000
# 6 0.0000 0.0000 0.0000 2.4794 0.0000 24.0758
#
#
#
# Elastic Compliance Matrix: (Units=1/GPa)
#
#
# Indices 1 2 3 4 5 6 
#
# 1 0.027538 -0.009643 -0.002537 0.000000 -0.029880 0.000000
# 2 -0.009643 0.037668 -0.005118 0.000000 0.007270 0.000000
# 3 -0.002537 -0.005118 0.009066 0.000000 -0.004083 0.000000
# 4 0.000000 0.000000 0.000000 0.060549 0.000000 -0.006235
# 5 -0.029880 0.007270 -0.004083 0.000000 0.084386 0.000000
# 6 0.000000 0.000000 0.000000 -0.006235 0.000000 0.042178
#
#
# Mechanical properties :
#
#
# Convention : Reuss Voigt Hill
#
# Bulk Modulus (GPa) = 25.20444 50.38250 37.79347
# Shear Modulus (GPa) = 16.17042 23.74184 19.95613
#
# Velocity S-wave (km/s) = 2.89498 3.50786 3.21605
# Velocity P-wave (km/s) = 4.92317 6.52068 5.77741
#
# Compressibility (1/GPa) = 0.03967555
#
# Stress axis : x y z
#
# Youngs Moduli (GPa) = 36.31323 26.54784 110.30204
#
# Poissons Ratio (x) = 0.25601 0.27983
# Poissons Ratio (y) = 0.35018 0.56453
# Poissons Ratio (z) = 0.09212 0.13587
#
# Static dielectric constant tensor:
#      x y z
#    x 1.658860 0.000000 0.002490 
#    y 0.000000 1.659460 0.000000 
#    z 0.002490 0.000000 1.686340 
# 
# From -- ./inp_files/243688.got.cif
#   From: 2010.05.17/outbox.cif.g08.bks.cpg/sg12_122_cif.got.tgz:243688.got - 2010.06.03 13:09:07.
