data_PCOD9220405
_publ_section_title
;
Structure prediction by ZEFSAII (Michael W. Deem and Ramdas Pophale) SiO2 
 PCOD9220405
Probable space group: C 2/M
;
_chemical_formula_sum "Si O2"
_cell_formula_units_Z 40
_cell_length_a 25.364051
_cell_length_b 7.773472
_cell_length_c 33.034717
_cell_angle_alpha 90.000000
_cell_angle_beta 19.887234
_cell_angle_gamma 90.000000
_cell_volume 2215.645651
_symmetry_space_group_name_H-M "C 2/M"
_symmetry_group_IT_number 12
_symmetry_cell_setting 'monoclinic'
loop_
_space_group_symop_operation_xyz
x,y,z
-x,y,-z
-x,-y,-z
x,-y,z
1/2+x,1/2+y,z
1/2-x,1/2+y,-z
1/2-x,1/2-y,-z
1/2+x,1/2-y,z
loop_
_atom_site_type_symbol
_atom_site_label
_atom_site_fract_x
_atom_site_fract_y
_atom_site_fract_z
Si Si1 0.739166 0.210829 0.307162
Si Si2 0.426394 0.295473 0.920283
Si Si3 0.717406 0.797128 0.569585
Si Si4 0.584425 0.209588 0.166565
Si Si5 0.433115 0.793669 0.486593
O O1 0.674901 0.264535 0.397839
O O2 0.607924 0.266010 0.370000
O O3 0.914846 0.272773 0.174889
O O4 0.742382 0.000000 0.304764
O O5 0.424017 0.500000 0.929255
O O6 0.440010 0.266057 0.862167
O O7 0.256399 0.229196 0.055216
O O8 0.750000 0.750000 0.500000
O O9 0.556850 0.725018 0.704054
O O10 0.856676 0.752550 0.499455
O O11 0.699302 0.000000 0.583917
O O12 0.585994 0.000000 0.165485
O O13 0.436133 0.000000 0.486794
#
# Coordination Sequence:
#
# PCOD9220405 Si02
#       5
#     8   8   8   8   8
#     4   8  14  25  47  73  96 120 147 182 228 280
#     4   9  15  27  48  70  94 122 146 180 231 282
#     4  11  22  34  47  66  93 126 161 196 228 267
#     4   9  18  29  43  68  96 118 151 192 228 268
#     4   9  16  29  47  70  95 121 154 187 224 274
#
# _framework density 18.053428
#
# number of rings (size 3 to 8) (size 9 to 14) (size 15 to 20)
#    0.000    2.800    2.000    1.800    0.000    0.800 
#    0.000    3.000    0.000    1.200    0.000    8.400 
#    0.000    0.000    0.000    0.000    0.000    0.000 
#
# Total GULP energy -111412.375703 kJ/mol
# GULP energy per Si atom -5570.618785 kJ/mol
# Density = 1.801234 g / cm^3
# Si number density = 18.053428 Si / 1000 Ang^3
#
#
#
# Elastic Constant Matrix: (Units=GPa)
#
#
# Indices 1 2 3 4 5 6 
#
# 1 128.4724 -1.8043 80.6714 0.0024 -25.2289 -0.0186
# 2 -1.8043 18.5040 -3.3696 -0.0049 -4.4177 -0.0600
# 3 80.6714 -3.3696 124.1682 0.0225 -37.1632 0.0095
# 4 0.0024 -0.0049 0.0225 9.7952 0.0086 -0.7821
# 5 -25.2289 -4.4177 -37.1632 0.0086 34.1848 -0.0056
# 6 -0.0186 -0.0600 0.0095 -0.7821 -0.0056 20.8591
#
#
#
# Elastic Compliance Matrix: (Units=1/GPa)
#
#
# Indices 1 2 3 4 5 6 
#
# 1 0.013156 -0.000100 -0.008372 0.000017 0.000595 0.000016
# 2 -0.000100 0.058359 0.005757 0.000017 0.013726 0.000169
# 3 -0.008372 0.005757 0.017821 -0.000048 0.013939 0.000003
# 4 0.000017 0.000017 -0.000048 0.102398 -0.000063 0.003839
# 5 0.000595 0.013726 0.013939 -0.000063 0.046619 0.000044
# 6 0.000016 0.000169 0.000003 0.003839 0.000044 0.048085
#
#
# Mechanical properties :
#
#
# Convention : Reuss Voigt Hill
#
# Bulk Modulus (GPa) = 11.91814 46.90439 29.41127
# Shear Modulus (GPa) = 15.63296 26.01097 20.82196
#
# Velocity S-wave (km/s) = 2.94586 3.79987 3.39979
# Velocity P-wave (km/s) = 4.26459 6.72974 5.63365
#
# Compressibility (1/GPa) = 0.08390569
#
# Stress axis : x y z
#
# Youngs Moduli (GPa) = 76.00862 17.13543 56.11337
#
# Poissons Ratio (x) = 0.00171 0.46979
# Poissons Ratio (y) = 0.00757 -0.32302
# Poissons Ratio (z) = 0.63636 -0.09864
#
# Static dielectric constant tensor:
#      x y z
#    x 1.545110 0.000010 -0.070420 
#    y 0.000010 1.708100 0.000020 
#    z -0.070420 0.000020 1.661450 
# 
# From -- ./inp_files/162394.got.cif
#   From: 2010.05.17/outbox.cif.g08.bks.cpg/sg12_82_cif.got.tgz:162394.got - 2010.06.03 13:09:07.
