data_PCOD9220248
_publ_section_title
;
Structure prediction by ZEFSAII (Michael W. Deem and Ramdas Pophale) SiO2 
 PCOD9220248
Probable space group: C 2/M
;
_chemical_formula_sum "Si O2"
_cell_formula_units_Z 42
_cell_length_a 14.748123
_cell_length_b 17.407512
_cell_length_c 7.642119
_cell_angle_alpha 90.000000
_cell_angle_beta 64.906006
_cell_angle_gamma 90.000000
_cell_volume 1776.765134
_symmetry_space_group_name_H-M "C 2/M"
_symmetry_group_IT_number 12
_symmetry_cell_setting 'monoclinic'
loop_
_space_group_symop_operation_xyz
x,y,z
-x,y,-z
-x,-y,-z
x,-y,z
1/2+x,1/2+y,z
1/2-x,1/2+y,-z
1/2-x,1/2-y,-z
1/2+x,1/2-y,z
loop_
_atom_site_type_symbol
_atom_site_label
_atom_site_fract_x
_atom_site_fract_y
_atom_site_fract_z
Si Si1 0.150277 0.112424 0.550210
Si Si2 0.753966 0.147155 0.875062
Si Si3 0.583141 0.262380 0.045029
Si Si4 0.000000 0.000000 0.500000
Si Si5 0.425041 0.778778 0.416045
Si Si6 0.308424 0.084579 0.700506
O O1 0.219028 0.099569 0.319452
O O2 0.050490 0.066973 0.585317
O O3 0.140466 0.204540 0.573347
O O4 0.203465 0.085242 0.682609
O O5 0.855326 0.186373 0.867414
O O6 0.673845 0.213135 0.889083
O O7 0.709508 0.104806 0.081638
O O8 0.503600 0.203361 0.197917
O O9 0.500000 0.308753 0.000000
O O10 0.500000 0.747586 0.500000
O O11 0.369938 0.850171 0.547472
O O12 0.353985 0.000000 0.648031
#
# Coordination Sequence:
#
# PCOD9220248 Si02
#       6
#     8   8   8   2   8   8
#     4  12  24  46  70 101 138 180 230 287 354 408
#     4  11  23  42  68  99 139 178 228 292 341 410
#     4  11  21  40  69 104 133 175 237 288 342 408
#     4  12  24  44  74  96 138 172 218 300 348 398
#     4  12  21  43  70  96 134 182 227 279 343 410
#     4  12  27  44  68 103 142 184 230 282 347 415
#
# _framework density 23.638466000000001
#
# number of rings (size 3 to 8) (size 9 to 14) (size 15 to 20)
#    0.000    0.381    5.714    4.000    1.333    0.381 
#    0.000    0.952    0.000    2.286    0.000    0.000 
#    0.000    0.000    0.000    0.000    0.000    0.000 
#
# Total GULP energy -116977.911240 kJ/mol
# GULP energy per Si atom -5570.376726 kJ/mol
# Density = 2.358466 g / cm^3
# Si number density = 23.638466 Si / 1000 Ang^3
#
#
#
# Elastic Constant Matrix: (Units=GPa)
#
#
# Indices 1 2 3 4 5 6 
#
# 1 107.8394 17.8858 18.3703 0.0000 4.8842 0.0000
# 2 17.8858 149.9517 36.1775 0.0000 -10.5879 0.0000
# 3 18.3703 36.1775 85.8654 0.0000 1.0785 0.0000
# 4 0.0000 0.0000 0.0000 1.1127 0.0000 8.2346
# 5 4.8842 -10.5879 1.0785 0.0000 33.0103 0.0000
# 6 0.0000 0.0000 0.0000 8.2346 0.0000 21.4603
#
#
#
# Elastic Compliance Matrix: (Units=1/GPa)
#
#
# Indices 1 2 3 4 5 6 
#
# 1 0.009784 -0.000874 -0.001704 0.000000 -0.001672 0.000000
# 2 -0.000874 0.007711 -0.003096 0.000000 0.002704 0.000000
# 3 -0.001704 -0.003096 0.013330 0.000000 -0.001176 0.000000
# 4 0.000000 0.000000 0.000000 -0.488519 0.000000 0.187451
# 5 -0.001672 0.002704 -0.001176 0.000000 0.031447 0.000000
# 6 0.000000 0.000000 0.000000 0.187451 0.000000 -0.025330
#
#
# Mechanical properties :
#
#
# Convention : Reuss Voigt Hill
#
# Bulk Modulus (GPa) = 51.34210 54.28039 52.81125
# Shear Modulus (GPa) = -11.52771 29.19819 8.83524
#
# Velocity S-wave (km/s) = -2.21071 3.51835 1.93540
# Velocity P-wave (km/s) = 3.90519 6.28631 5.23298
#
# Compressibility (1/GPa) = 0.01947719
#
# Stress axis : x y z
#
# Youngs Moduli (GPa) = 102.20750 129.68735 75.01989
#
# Poissons Ratio (x) = 0.11334 0.12783
# Poissons Ratio (y) = 0.08933 0.23224
# Poissons Ratio (z) = 0.17416 0.40148
#
# Static dielectric constant tensor:
#      x y z
#    x 1.946010 0.000000 0.064620 
#    y 0.000000 1.892080 0.000000 
#    z 0.064620 0.000000 2.129270 
# 
# From -- ./inp_files/61594.got.cif
#   From: 2010.05.17/outbox.cif.g08.bks.cpg/sg12_31_cif.got.tgz:61594.got - 2010.06.03 13:09:07.
