data_PCOD9220813
_publ_section_title
;
Structure prediction by ZEFSAII (Michael W. Deem and Ramdas Pophale) SiO2 
 PCOD9220813
Probable space group: C 2/M
;
_chemical_formula_sum "Si O2"
_cell_formula_units_Z 40
_cell_length_a 12.341265
_cell_length_b 8.313602
_cell_length_c 18.040093
_cell_angle_alpha 90.000000
_cell_angle_beta 90.787584
_cell_angle_gamma 90.000000
_cell_volume 1850.745270
_symmetry_space_group_name_H-M "C 2/M"
_symmetry_group_IT_number 12
_symmetry_cell_setting 'monoclinic'
loop_
_space_group_symop_operation_xyz
x,y,z
-x,y,-z
-x,-y,-z
x,-y,z
1/2+x,1/2+y,z
1/2-x,1/2+y,-z
1/2-x,1/2-y,-z
1/2+x,1/2-y,z
loop_
_atom_site_type_symbol
_atom_site_label
_atom_site_fract_x
_atom_site_fract_y
_atom_site_fract_z
Si Si1 0.375363 0.189995 0.025416
Si Si2 0.933687 0.682338 0.317226
Si Si3 0.707188 0.308575 0.578055
Si Si4 0.349444 0.315852 0.714737
Si Si5 0.188050 0.814295 0.819978
O O1 0.370806 0.230776 0.112438
O O2 0.373881 0.000000 0.009913
O O3 0.500000 0.246039 0.000000
O O4 0.250000 0.250000 0.000000
O O5 0.893548 0.500000 0.307622
O O6 0.912938 0.751364 0.399294
O O7 0.883915 0.798970 0.254514
O O8 0.058374 0.688378 0.299356
O O9 0.716942 0.500000 0.583797
O O10 0.750000 0.250000 0.500000
O O11 0.770369 0.217836 0.644673
O O12 0.386245 0.500000 0.712456
O O13 0.294692 0.279003 0.793289
O O14 0.210571 0.000000 0.837226
#
# Coordination Sequence:
#
# PCOD9220813 Si02
#       5
#     8   8   8   8   8
#     4  11  26  47  71 102 141 183 232 287 346 411
#     4  11  22  39  62  90 122 161 209 260 317 383
#     4  11  22  39  59  86 121 159 204 257 317 381
#     4  11  22  39  62  90 121 161 209 260 318 382
#     4  11  23  41  65  93 127 168 212 265 325 390
#
# _framework density 21.612914
#
# number of rings (size 3 to 8) (size 9 to 14) (size 15 to 20)
#    0.000    1.000    0.000   10.200    2.800    2.400 
#    0.000    4.000    0.000    0.000    0.000    0.000 
#    0.000    0.000    0.000    0.000    0.000    0.000 
#
# Total GULP energy -111357.519176 kJ/mol
# GULP energy per Si atom -5567.875959 kJ/mol
# Density = 2.156372 g / cm^3
# Si number density = 21.612914 Si / 1000 Ang^3
#
#
#
# Elastic Constant Matrix: (Units=GPa)
#
#
# Indices 1 2 3 4 5 6 
#
# 1 94.5790 24.9822 46.6890 0.0000 -33.9858 0.0000
# 2 24.9822 122.9650 11.4232 0.0000 -8.8723 0.0000
# 3 46.6890 11.4232 116.4847 0.0000 -48.4500 0.0000
# 4 0.0000 0.0000 0.0000 26.3411 0.0000 -4.0184
# 5 -33.9858 -8.8723 -48.4500 0.0000 37.0669 0.0000
# 6 0.0000 0.0000 0.0000 -4.0184 0.0000 34.9533
#
#
#
# Elastic Compliance Matrix: (Units=1/GPa)
#
#
# Indices 1 2 3 4 5 6 
#
# 1 0.016401 -0.002288 -0.000707 0.000000 0.013567 0.000000
# 2 -0.002288 0.008594 0.000126 0.000000 0.000124 0.000000
# 3 -0.000707 0.000126 0.018843 0.000000 0.024012 0.000000
# 4 0.000000 0.000000 0.000000 0.038641 0.000000 0.004442
# 5 0.013567 0.000124 0.024012 0.000000 0.070832 0.000000
# 6 0.000000 0.000000 0.000000 0.004442 0.000000 0.029120
#
#
# Mechanical properties :
#
#
# Convention : Reuss Voigt Hill
#
# Bulk Modulus (GPa) = 26.24586 55.57975 40.91280
# Shear Modulus (GPa) = 24.89163 36.40122 30.64642
#
# Velocity S-wave (km/s) = 3.39735 4.10839 3.76968
# Velocity P-wave (km/s) = 5.24970 6.94817 6.15777
#
# Compressibility (1/GPa) = 0.03810125
#
# Stress axis : x y z
#
# Youngs Moduli (GPa) = 60.97076 116.35437 53.06986
#
# Poissons Ratio (x) = 0.26618 0.03751
# Poissons Ratio (y) = 0.13948 -0.00667
# Poissons Ratio (z) = 0.04309 -0.01462
#
# Static dielectric constant tensor:
#      x y z
#    x 2.096670 0.000000 -0.053910 
#    y 0.000000 1.730250 0.000000 
#    z -0.053910 0.000000 1.774820 
# 
# From -- ./inp_files/261030.got.cif
#   From: 2010.05.17/outbox.cif.g08.bks.cpg/sg12_131_cif.got.tgz:261030.got - 2010.06.03 13:09:07.
