data_PCOD9220089
_publ_section_title
;
Structure prediction by ZEFSAII (Michael W. Deem and Ramdas Pophale) SiO2 
 PCOD9220089
Probable space group: C 2/M
;
_chemical_formula_sum "Si O2"
_cell_formula_units_Z 48
_cell_length_a 20.299860
_cell_length_b 23.749164
_cell_length_c 5.230655
_cell_angle_alpha 90.000000
_cell_angle_beta 62.853135
_cell_angle_gamma 90.000000
_cell_volume 2243.930068
_symmetry_space_group_name_H-M "C 2/M"
_symmetry_group_IT_number 12
_symmetry_cell_setting 'monoclinic'
loop_
_space_group_symop_operation_xyz
x,y,z
-x,y,-z
-x,-y,-z
x,-y,z
1/2+x,1/2+y,z
1/2-x,1/2+y,-z
1/2-x,1/2-y,-z
1/2+x,1/2-y,z
loop_
_atom_site_type_symbol
_atom_site_label
_atom_site_fract_x
_atom_site_fract_y
_atom_site_fract_z
Si Si1 0.682646 0.222578 0.470854
Si Si2 0.917142 0.795542 0.672024
Si Si3 0.569898 0.940239 0.067543
Si Si4 0.735767 0.064577 0.601025
Si Si5 0.275528 0.635340 0.033287
Si Si6 0.572178 0.178610 0.047499
O O1 0.750000 0.250000 0.500000
O O2 0.624974 0.271868 0.503777
O O3 0.717666 0.187487 0.173629
O O4 0.640712 0.180519 0.732638
O O5 0.926684 0.736517 0.803389
O O6 0.000000 0.819129 0.500000
O O7 0.857405 0.837626 0.897793
O O8 0.646641 0.939757 0.776475
O O9 0.569501 0.000000 0.215111
O O10 0.500000 0.940210 0.000000
O O11 0.571147 0.879890 0.206481
O O12 0.761150 0.094022 0.295651
O O13 0.763471 0.000000 0.569534
O O14 0.762605 0.101771 0.794486
O O15 0.500000 0.178994 0.000000
#
# Coordination Sequence:
#
# PCOD9220089 Si02
#       6
#     8   8   8   8   8   8
#     4  12  23  39  62  98 137 176 220 273 333 401
#     4  12  26  41  64  96 136 178 219 275 342 410
#     4   9  19  37  60  91 131 179 226 269 318 384
#     4  11  24  45  70  97 132 176 226 279 335 398
#     4  12  25  43  69 100 134 172 224 278 336 398
#     4  11  21  38  61  90 134 177 223 266 328 394
#
# _framework density 21.391041999999999
#
# number of rings (size 3 to 8) (size 9 to 14) (size 15 to 20)
#    0.000    0.833    5.000    3.000    0.000    0.000 
#    0.000    0.833    0.000    7.500    0.000    0.000 
#    0.000    0.000    0.000    0.000    0.000    0.000 
#
# Total GULP energy -134165.156839 kJ/mol
# GULP energy per Si atom -5590.214868 kJ/mol
# Density = 2.134235 g / cm^3
# Si number density = 21.391042 Si / 1000 Ang^3
#
#
#
# Elastic Constant Matrix: (Units=GPa)
#
#
# Indices 1 2 3 4 5 6 
#
# 1 123.7619 50.4522 43.9429 0.0000 -20.5469 0.0000
# 2 50.4522 130.4127 41.4597 0.0000 -9.9510 0.0000
# 3 43.9429 41.4597 92.7941 0.0000 -18.5928 0.0000
# 4 0.0000 0.0000 0.0000 18.2980 0.0000 5.7759
# 5 -20.5469 -9.9510 -18.5928 0.0000 44.7673 0.0000
# 6 0.0000 0.0000 0.0000 5.7759 0.0000 25.0981
#
#
#
# Elastic Compliance Matrix: (Units=1/GPa)
#
#
# Indices 1 2 3 4 5 6 
#
# 1 0.010946 -0.002971 -0.003253 0.000000 0.003013 0.000000
# 2 -0.002971 0.009749 -0.003041 0.000000 -0.000459 0.000000
# 3 -0.003253 -0.003041 0.014443 0.000000 0.003830 0.000000
# 4 0.000000 0.000000 0.000000 0.058932 0.000000 -0.013562
# 5 0.003013 -0.000459 0.003830 0.000000 0.025209 0.000000
# 6 0.000000 0.000000 0.000000 -0.013562 0.000000 0.042965
#
#
# Mechanical properties :
#
#
# Convention : Reuss Voigt Hill
#
# Bulk Modulus (GPa) = 60.20764 68.74204 64.47484
# Shear Modulus (GPa) = 26.83723 31.70695 29.27209
#
# Velocity S-wave (km/s) = 3.54588 3.85418 3.70324
# Velocity P-wave (km/s) = 6.70609 7.21193 6.96360
#
# Compressibility (1/GPa) = 0.01660919
#
# Stress axis : x y z
#
# Youngs Moduli (GPa) = 91.35658 102.57504 69.23842
#
# Poissons Ratio (x) = 0.30473 0.22521
# Poissons Ratio (y) = 0.27140 0.21055
# Poissons Ratio (z) = 0.29715 0.31193
#
# Static dielectric constant tensor:
#      x y z
#    x 1.790200 0.000000 0.019760 
#    y 0.000000 1.823430 0.000000 
#    z 0.019760 0.000000 1.802580 
# 
# From -- ./inp_files/21557.got.cif
#   From: 2010.05.17/outbox.cif.g08.bks.cpg/sg12_11_cif.got.tgz:21557.got - 2010.06.03 13:09:07.
