data_PCOD9220402
_publ_section_title
;
Structure prediction by ZEFSAII (Michael W. Deem and Ramdas Pophale) SiO2 
 PCOD9220402
Probable space group: C 2/M
;
_chemical_formula_sum "Si O2"
_cell_formula_units_Z 52
_cell_length_a 12.094435
_cell_length_b 16.621421
_cell_length_c 12.898436
_cell_angle_alpha 90.000000
_cell_angle_beta 121.034558
_cell_angle_gamma 90.000000
_cell_volume 2221.768898
_symmetry_space_group_name_H-M "C 2/M"
_symmetry_group_IT_number 12
_symmetry_cell_setting 'monoclinic'
loop_
_space_group_symop_operation_xyz
x,y,z
-x,y,-z
-x,-y,-z
x,-y,z
1/2+x,1/2+y,z
1/2-x,1/2+y,-z
1/2-x,1/2-y,-z
1/2+x,1/2-y,z
loop_
_atom_site_type_symbol
_atom_site_label
_atom_site_fract_x
_atom_site_fract_y
_atom_site_fract_z
Si Si1 0.813530 0.336526 0.510164
Si Si2 0.471098 0.136775 0.209922
Si Si3 0.194455 0.848643 0.808343
Si Si4 0.740262 0.827640 0.744866
Si Si5 0.478536 0.688102 0.111535
Si Si6 0.045697 0.913642 0.403893
Si Si7 0.624253 0.000000 0.168065
O O1 0.750000 0.250000 0.500000
O O2 0.924980 0.354791 0.645844
O O3 0.840877 0.335202 0.400752
O O4 0.696755 0.397592 0.475432
O O5 0.335378 0.124915 0.202878
O O6 0.469020 0.221033 0.148696
O O7 0.519258 0.069106 0.155557
O O8 0.250930 0.764949 0.791765
O O9 0.155022 0.849233 0.910286
O O10 0.049892 0.848915 0.690408
O O11 0.273319 0.926824 0.812787
O O12 0.886041 0.851976 0.786531
O O13 0.500000 0.686889 0.000000
O O14 0.000000 0.916945 0.500000
O O15 0.019081 0.000000 0.340921
#
# Coordination Sequence:
#
# PCOD9220402 Si02
#       7
#     8   8   8   8   8   8   4
#     4  12  20  38  62  97 137 172 222 264 322 401
#     4  11  25  40  68 100 138 177 217 277 332 402
#     4  11  22  40  70  96 135 175 222 278 329 394
#     4  11  22  44  66  99 134 179 221 273 329 397
#     4  11  24  46  73  98 123 174 236 282 327 390
#     4  11  22  33  58  98 129 172 213 260 323 393
#     4  12  22  46  66 104 139 177 216 276 342 407
#
# _framework density 23.404774
#
# number of rings (size 3 to 8) (size 9 to 14) (size 15 to 20)
#    0.000    0.769    5.385    3.231    3.231    2.462 
#    1.385    2.308    0.000    0.000    0.000    0.000 
#    0.000    0.000    0.000    0.000    0.000    0.000 
#
# Total GULP energy -144773.392117 kJ/mol
# GULP energy per Si atom -5568.207389 kJ/mol
# Density = 2.335150 g / cm^3
# Si number density = 23.404774 Si / 1000 Ang^3
#
#
#
# Elastic Constant Matrix: (Units=GPa)
#
#
# Indices 1 2 3 4 5 6 
#
# 1 141.4052 34.5109 -24.1563 0.0000 -11.0404 0.0000
# 2 34.5109 77.0967 -18.0651 0.0000 5.5696 0.0000
# 3 -24.1563 -18.0651 36.5100 0.0000 -6.9861 0.0000
# 4 0.0000 0.0000 0.0000 -17.7230 0.0000 -4.0683
# 5 -11.0404 5.5696 -6.9861 0.0000 31.6920 0.0000
# 6 0.0000 0.0000 0.0000 -4.0683 0.0000 32.2607
#
#
#
# Elastic Compliance Matrix: (Units=1/GPa)
#
#
# Indices 1 2 3 4 5 6 
#
# 1 0.009164 -0.003187 0.005434 0.000000 0.004950 0.000000
# 2 -0.003187 0.015812 0.005190 0.000000 -0.002745 0.000000
# 3 0.005434 0.005190 0.035227 0.000000 0.008746 0.000000
# 4 0.000000 0.000000 0.000000 -0.054837 0.000000 -0.006915
# 5 0.004950 -0.002745 0.008746 0.000000 0.035689 0.000000
# 6 0.000000 0.000000 0.000000 -0.006915 0.000000 0.030125
#
#
# Mechanical properties :
#
#
# Convention : Reuss Voigt Hill
#
# Bulk Modulus (GPa) = 13.31959 26.62120 19.97040
# Shear Modulus (GPa) = 61.47696 26.76077 44.11886
#
# Velocity S-wave (km/s) = 5.13068 3.38507 4.34641
# Velocity P-wave (km/s) = 6.38763 5.16500 5.80857
#
# Compressibility (1/GPa) = 0.07507737
#
# Stress axis : x y z
#
# Youngs Moduli (GPa) = 109.11775 63.24496 28.38754
#
# Poissons Ratio (x) = 0.20154 -0.15426
# Poissons Ratio (y) = 0.34772 -0.14733
# Poissons Ratio (z) = -0.59295 -0.32824
#
# Static dielectric constant tensor:
#      x y z
#    x 2.000540 0.000000 -0.054950 
#    y 0.000000 1.949570 0.000000 
#    z -0.054950 0.000000 2.059640 
# 
# From -- ./inp_files/206308.got.cif
#   From: 2010.05.17/outbox.cif.g08.bks.cpg/sg12_104_cif.got.tgz:206308.got - 2010.06.03 13:09:07.
