data_PCOD9220007
_publ_section_title
;
Structure prediction by ZEFSAII (Michael W. Deem and Ramdas Pophale) SiO2 
 PCOD9220007
Probable space group: C 2/M
;
_chemical_formula_sum "Si O2"
_cell_formula_units_Z 64
_cell_length_a 15.350922
_cell_length_b 8.454204
_cell_length_c 25.681359
_cell_angle_alpha 90.000000
_cell_angle_beta 98.643471
_cell_angle_gamma 90.000000
_cell_volume 3295.069116
_symmetry_space_group_name_H-M "C 2/M"
_symmetry_group_IT_number 12
_symmetry_cell_setting 'monoclinic'
loop_
_space_group_symop_operation_xyz
x,y,z
-x,y,-z
-x,-y,-z
x,-y,z
1/2+x,1/2+y,z
1/2-x,1/2+y,-z
1/2-x,1/2-y,-z
1/2+x,1/2-y,z
loop_
_atom_site_type_symbol
_atom_site_label
_atom_site_fract_x
_atom_site_fract_y
_atom_site_fract_z
Si Si1 0.055155 0.311063 0.747306
Si Si2 0.261013 0.310251 0.942042
Si Si3 0.907168 0.810670 0.134280
Si Si4 0.868655 0.185848 0.560138
Si Si5 0.330232 0.691719 0.446773
Si Si6 0.615113 0.189334 0.328121
Si Si7 0.182519 0.809505 0.669644
Si Si8 0.957824 0.807195 0.941267
O O1 0.050849 0.500000 0.750137
O O2 0.077402 0.245408 0.805903
O O3 0.128766 0.264265 0.711779
O O4 0.960869 0.250922 0.717033
O O5 0.259133 0.500000 0.942888
O O6 0.183768 0.248646 0.898517
O O7 0.356643 0.257475 0.930394
O O8 0.250000 0.250000 0.000000
O O9 0.984114 0.753458 0.102109
O O10 0.906927 0.000000 0.133322
O O11 0.763891 0.222295 0.555646
O O12 0.888634 0.234689 0.502279
O O13 0.908151 0.268259 0.614302
O O14 0.886257 0.000000 0.566252
O O15 0.315476 0.500000 0.448073
O O16 0.360270 0.726902 0.390853
O O17 0.714807 0.243979 0.324020
O O18 0.617829 0.000000 0.324943
O O19 0.181968 0.000000 0.675314
O O20 0.959501 0.000000 0.941615
O O21 0.000000 0.756064 0.000000
#
# Coordination Sequence:
#
# PCOD9220007 Si02
#       8
#     8   8   8   8   8   8   8   8
#     4  11  24  41  58  81 113 147 190 241 286 332
#     4  11  21  37  62  92 124 155 188 227 273 326
#     4  11  23  41  62  85 115 154 193 233 281 333
#     4   9  15  25  48  80 108 139 184 233 281 340
#     4   8  15  28  47  75 111 145 179 227 287 343
#     4   9  20  38  57  77 110 151 187 233 290 342
#     4   9  18  36  59  80 107 148 190 231 284 343
#     4   9  18  36  61  88 120 153 184 221 269 325
#
# _framework density 19.422961000000001
#
# number of rings (size 3 to 8) (size 9 to 14) (size 15 to 20)
#    0.000    2.375    1.250    2.250    0.000    4.500 
#    0.000    6.250    0.000    3.750    0.000    0.000 
#    0.000    0.000    0.000    0.000    0.000    0.000 
#
# Total GULP energy -178516.766317 kJ/mol
# GULP energy per Si atom -5578.648947 kJ/mol
# Density = 1.937875 g / cm^3
# Si number density = 19.422961 Si / 1000 Ang^3
#
#
#
# Elastic Constant Matrix: (Units=GPa)
#
#
# Indices 1 2 3 4 5 6 
#
# 1 166.8890 35.8951 137.1748 0.0000 25.8145 0.0000
# 2 35.8951 26.0390 45.1554 0.0000 8.4030 0.0000
# 3 137.1748 45.1554 248.3551 0.0000 37.3692 0.0000
# 4 0.0000 0.0000 0.0000 29.7024 0.0000 3.8601
# 5 25.8145 8.4030 37.3692 0.0000 47.4312 0.0000
# 6 0.0000 0.0000 0.0000 3.8601 0.0000 16.6472
#
#
#
# Elastic Compliance Matrix: (Units=1/GPa)
#
#
# Indices 1 2 3 4 5 6 
#
# 1 0.011909 -0.007209 -0.005087 0.000000 -0.001196 0.000000
# 2 -0.007209 0.060648 -0.006828 0.000000 -0.001441 0.000000
# 3 -0.005087 -0.006828 0.008485 0.000000 -0.002707 0.000000
# 4 0.000000 0.000000 0.000000 0.034713 0.000000 -0.008049
# 5 -0.001196 -0.001441 -0.002707 0.000000 0.024122 0.000000
# 6 0.000000 0.000000 0.000000 -0.008049 0.000000 0.061937
#
#
# Mechanical properties :
#
#
# Convention : Reuss Voigt Hill
#
# Bulk Modulus (GPa) = 23.36809 97.52596 60.44702
# Shear Modulus (GPa) = 19.65979 33.62667 26.64323
#
# Velocity S-wave (km/s) = 3.18495 4.16538 3.70772
# Velocity P-wave (km/s) = 5.05791 8.57057 7.03694
#
# Compressibility (1/GPa) = 0.04279339
#
# Stress axis : x y z
#
# Youngs Moduli (GPa) = 83.97172 16.48864 117.85643
#
# Poissons Ratio (x) = 0.11887 0.59952
# Poissons Ratio (y) = 0.60535 0.80475
# Poissons Ratio (z) = 0.42715 0.11259
#
# Static dielectric constant tensor:
#      x y z
#    x 1.699490 0.000000 0.006880 
#    y 0.000000 1.670410 0.000000 
#    z 0.006880 0.000000 1.679400 
# 
# From -- ./inp_files/338862.got.cif
#   From: 2010.05.17/outbox.cif.g08.bks.cpg/sg12_170_cif.got.tgz:338862.got - 2010.06.03 13:09:07.
