data_PCOD9220067
_publ_section_title
;
Structure prediction by ZEFSAII (Michael W. Deem and Ramdas Pophale) SiO2 
 PCOD9220067
Probable space group: C 2/M
;
_chemical_formula_sum "Si O2"
_cell_formula_units_Z 40
_cell_length_a 15.028449
_cell_length_b 24.835071
_cell_length_c 9.340064
_cell_angle_alpha 90.000000
_cell_angle_beta 31.988692
_cell_angle_gamma 90.000000
_cell_volume 1846.723722
_symmetry_space_group_name_H-M "C 2/M"
_symmetry_group_IT_number 12
_symmetry_cell_setting 'monoclinic'
loop_
_space_group_symop_operation_xyz
x,y,z
-x,y,-z
-x,-y,-z
x,-y,z
1/2+x,1/2+y,z
1/2-x,1/2+y,-z
1/2-x,1/2-y,-z
1/2+x,1/2-y,z
loop_
_atom_site_type_symbol
_atom_site_label
_atom_site_fract_x
_atom_site_fract_y
_atom_site_fract_z
Si Si1 0.263983 0.095484 0.186697
Si Si2 0.964022 0.907271 0.789489
Si Si3 0.962488 0.500000 0.797032
Si Si4 0.180088 0.215110 0.327960
Si Si5 0.733457 0.500000 0.816945
Si Si6 0.472791 0.284570 0.871703
O O1 0.156566 0.094547 0.185709
O O2 0.285688 0.159259 0.188683
O O3 0.143350 0.075667 0.479528
O O4 0.413357 0.053829 0.952110
O O5 0.972831 0.848165 0.843490
O O6 0.883031 0.948167 0.010015
O O7 0.848559 0.500000 0.805798
O O8 0.149276 0.500000 0.480900
O O9 0.000000 0.202945 0.500000
O O10 0.116094 0.236258 0.568966
O O11 0.290451 0.258734 0.095696
O O12 0.500000 0.272084 0.000000
#
# Coordination Sequence:
#
# PCOD9220067 Si02
#       6
#     8   8   4   8   4   8
#     4   9  16  31  52  77 106 140 182 224 266 327
#     4   9  17  32  51  75 106 143 182 218 270 327
#     4   9  17  27  47  82 111 134 170 230 285 310
#     4  11  21  38  58  84 109 149 193 230 272 329
#     4   9  17  29  46  78 112 138 173 224 276 324
#     4  11  23  38  56  83 116 149 185 230 282 330
#
# _framework density 21.659980999999998
#
# number of rings (size 3 to 8) (size 9 to 14) (size 15 to 20)
#    0.000    2.200    4.000    1.800    0.000    4.000 
#    3.600    0.500    0.000    0.000    0.000    6.300 
#    0.000    0.000    0.000    0.000    0.000    0.000 
#
# Total GULP energy -111587.374745 kJ/mol
# GULP energy per Si atom -5579.368737 kJ/mol
# Density = 2.161068 g / cm^3
# Si number density = 21.659981 Si / 1000 Ang^3
#
#
#
# Elastic Constant Matrix: (Units=GPa)
#
#
# Indices 1 2 3 4 5 6 
#
# 1 44.3535 -3.8408 19.0891 0.0001 15.0514 -0.0003
# 2 -3.8408 50.6671 66.0471 0.0000 -6.6941 0.0000
# 3 19.0891 66.0471 185.6320 0.0002 10.3203 -0.0005
# 4 0.0001 0.0000 0.0002 37.2274 -0.0002 13.3343
# 5 15.0514 -6.6941 10.3203 -0.0002 19.1308 0.0004
# 6 -0.0003 0.0000 -0.0005 13.3343 0.0004 -6.2006
#
#
#
# Elastic Compliance Matrix: (Units=1/GPa)
#
#
# Indices 1 2 3 4 5 6 
#
# 1 0.031774 0.004188 -0.003556 0.000000 -0.021615 -0.000002
# 2 0.004188 0.047331 -0.018565 0.000000 0.023282 0.000002
# 3 -0.003556 -0.018565 0.012952 0.000000 -0.010686 -0.000001
# 4 0.000000 0.000000 0.000000 0.015174 -0.000001 0.032631
# 5 -0.021615 0.023282 -0.010686 -0.000001 0.083189 0.000005
# 6 -0.000002 0.000002 -0.000001 0.032631 0.000005 -0.091102
#
#
# Mechanical properties :
#
#
# Convention : Reuss Voigt Hill
#
# Bulk Modulus (GPa) = 17.79634 49.24926 33.52280
# Shear Modulus (GPa) = 32.48577 23.32201 27.90389
#
# Velocity S-wave (km/s) = 3.87693 3.28492 3.59314
# Velocity P-wave (km/s) = 5.31741 6.09708 5.72055
#
# Compressibility (1/GPa) = 0.05619133
#
# Stress axis : x y z
#
# Youngs Moduli (GPa) = 31.47203 21.12799 77.20749
#
# Poissons Ratio (x) = -0.08849 0.27454
# Poissons Ratio (y) = -0.13181 1.43336
# Poissons Ratio (z) = 0.11191 0.39224
#
# Static dielectric constant tensor:
#      x y z
#    x 1.891130 0.000000 0.008330 
#    y 0.000000 1.752090 0.000000 
#    z 0.008330 0.000000 1.766690 
# 
# From -- ./inp_files/79782.got.cif
#   From: 2010.05.17/outbox.cif.g08.bks.cpg/sg12_40_cif.got.tgz:79782.got - 2010.06.03 13:09:07.
