data_PCOD9220582
_publ_section_title
;
Structure prediction by ZEFSAII (Michael W. Deem and Ramdas Pophale) SiO2 
 PCOD9220582
Probable space group: C 2/M
;
_chemical_formula_sum "Si O2"
_cell_formula_units_Z 60
_cell_length_a 19.337790
_cell_length_b 25.617914
_cell_length_c 11.942952
_cell_angle_alpha 90.000000
_cell_angle_beta 30.512794
_cell_angle_gamma 90.000000
_cell_volume 3003.971143
_symmetry_space_group_name_H-M "C 2/M"
_symmetry_group_IT_number 12
_symmetry_cell_setting 'monoclinic'
loop_
_space_group_symop_operation_xyz
x,y,z
-x,y,-z
-x,-y,-z
x,-y,z
1/2+x,1/2+y,z
1/2-x,1/2+y,-z
1/2-x,1/2-y,-z
1/2+x,1/2-y,z
loop_
_atom_site_type_symbol
_atom_site_label
_atom_site_fract_x
_atom_site_fract_y
_atom_site_fract_z
Si Si1 0.116132 0.750122 0.560605
Si Si2 0.220878 0.350942 0.642040
Si Si3 0.500000 0.306403 0.500000
Si Si4 0.754008 0.813824 0.986819
Si Si5 0.588440 0.439579 0.702619
Si Si6 0.794232 0.940328 0.208774
Si Si7 0.958630 0.669751 0.890413
Si Si8 0.644993 0.158133 0.361083
O O1 0.207982 0.795535 0.483212
O O2 0.172355 0.696644 0.427350
O O3 0.056708 0.774445 0.527642
O O4 0.009190 0.729707 0.802536
O O5 0.331538 0.396800 0.482288
O O6 0.093846 0.361296 0.736439
O O7 0.148614 0.340325 0.861884
O O8 0.373820 0.332910 0.738021
O O9 0.618875 0.837786 0.117862
O O10 0.757317 0.830249 0.109523
O O11 0.750000 0.750000 0.000000
O O12 0.605233 0.500000 0.641329
O O13 0.653217 0.435920 0.736751
O O14 0.427750 0.429523 0.945447
O O15 0.672346 0.900686 0.358516
O O16 0.754080 0.000000 0.245132
O O17 0.500000 0.166829 0.500000
#
# Coordination Sequence:
#
# PCOD9220582 Si02
#       8
#     8   8   4   8   8   8   8   8
#     4  12  21  37  54  88 125 162 201 241 300 363
#     4  11  24  36  59  86 118 162 200 256 305 355
#     4  12  22  36  58  80 120 170 210 230 292 358
#     4  12  21  37  55  81 120 165 204 238 294 368
#     4   9  20  43  66  87 116 154 203 258 310 364
#     4   9  21  40  66  94 117 150 205 258 306 364
#     4  11  22  37  51  83 125 154 207 252 290 356
#     4  12  22  36  63  88 128 164 197 252 306 363
#
# _framework density 19.973561
#
# number of rings (size 3 to 8) (size 9 to 14) (size 15 to 20)
#    0.000    1.067    6.000    2.000    1.867    0.267 
#    0.000    5.333    0.000    1.600    0.000    2.800 
#    0.000    0.000    0.000    0.000    0.000    0.000 
#
# Total GULP energy -167100.437333 kJ/mol
# GULP energy per Si atom -5570.014578 kJ/mol
# Density = 1.992810 g / cm^3
# Si number density = 19.973561 Si / 1000 Ang^3
#
#
#
# Elastic Constant Matrix: (Units=GPa)
#
#
# Indices 1 2 3 4 5 6 
#
# 1 48.0921 22.3072 16.3639 0.0016 4.3155 0.0023
# 2 22.3072 106.9021 46.6577 0.0053 -4.3460 -0.0027
# 3 16.3639 46.6577 106.7032 0.0079 16.9221 -0.0040
# 4 0.0016 0.0053 0.0079 32.0653 -0.0028 -5.8428
# 5 4.3155 -4.3460 16.9221 -0.0028 30.9198 0.0003
# 6 0.0023 -0.0027 -0.0040 -5.8428 0.0003 19.1466
#
#
#
# Elastic Compliance Matrix: (Units=1/GPa)
#
#
# Indices 1 2 3 4 5 6 
#
# 1 0.023589 -0.004586 -0.001082 -0.000001 -0.003345 -0.000004
# 2 -0.004586 0.013144 -0.005956 0.000000 0.005747 0.000001
# 3 -0.001082 -0.005956 0.013415 -0.000003 -0.008028 0.000001
# 4 -0.000001 0.000000 -0.000003 0.033023 0.000005 0.010077
# 5 -0.003345 0.005747 -0.008028 0.000005 0.038010 0.000000
# 6 -0.000004 0.000001 0.000001 0.010077 0.000000 0.055304
#
#
# Mechanical properties :
#
#
# Convention : Reuss Voigt Hill
#
# Bulk Modulus (GPa) = 37.17303 48.03944 42.60624
# Shear Modulus (GPa) = 23.95793 28.18423 26.07108
#
# Velocity S-wave (km/s) = 3.46711 3.76051 3.61678
# Velocity P-wave (km/s) = 5.88892 6.55431 6.23050
#
# Compressibility (1/GPa) = 0.02690122
#
# Stress axis : x y z
#
# Youngs Moduli (GPa) = 42.39281 76.07819 74.54284
#
# Poissons Ratio (x) = 0.34890 0.08064
# Poissons Ratio (y) = 0.19442 0.44396
# Poissons Ratio (z) = 0.04586 0.45310
#
# Static dielectric constant tensor:
#      x y z
#    x 1.761560 0.000000 -0.030130 
#    y 0.000000 1.685720 0.000000 
#    z -0.030130 0.000000 1.787760 
# 
# From -- ./inp_files/170380.got.cif
#   From: 2010.05.17/outbox.cif.g08.bks.cpg/sg12_86_cif.got.tgz:170380.got - 2010.06.03 13:09:07.
