data_PCOD9220532
_publ_section_title
;
Structure prediction by ZEFSAII (Michael W. Deem and Ramdas Pophale) SiO2 
 PCOD9220532
Probable space group: C 2/M
;
_chemical_formula_sum "Si O2"
_cell_formula_units_Z 56
_cell_length_a 8.127274
_cell_length_b 17.939197
_cell_length_c 18.343786
_cell_angle_alpha 90.000000
_cell_angle_beta 72.551933
_cell_angle_gamma 90.000000
_cell_volume 2551.410258
_symmetry_space_group_name_H-M "C 2/M"
_symmetry_group_IT_number 12
_symmetry_cell_setting 'monoclinic'
loop_
_space_group_symop_operation_xyz
x,y,z
-x,y,-z
-x,-y,-z
x,-y,z
1/2+x,1/2+y,z
1/2-x,1/2+y,-z
1/2-x,1/2-y,-z
1/2+x,1/2-y,z
loop_
_atom_site_type_symbol
_atom_site_label
_atom_site_fract_x
_atom_site_fract_y
_atom_site_fract_z
Si Si1 0.140211 0.820013 0.757180
Si Si2 0.391246 0.584572 0.379235
Si Si3 0.059507 0.086216 0.107757
Si Si4 0.492002 0.157705 0.799151
Si Si5 0.198887 0.581534 0.658020
Si Si6 0.176212 0.667481 0.520317
Si Si7 0.287234 0.086994 0.947016
O O1 0.158078 0.853646 0.674246
O O2 0.316931 0.836037 0.775710
O O3 0.984103 0.864331 0.817197
O O4 0.095636 0.733814 0.773611
O O5 0.337877 0.500000 0.365768
O O6 0.596783 0.585464 0.358945
O O7 0.307622 0.609020 0.466412
O O8 0.885846 0.088672 0.080643
O O9 0.085733 0.000000 0.124639
O O10 0.218296 0.110647 0.035592
O O11 0.605326 0.093908 0.746960
O O12 0.430424 0.136741 0.888513
O O13 0.151910 0.500000 0.634573
O O14 0.147654 0.645148 0.607631
O O15 0.250000 0.750000 0.500000
O O16 0.000000 0.661752 0.500000
O O17 0.340803 0.000000 0.943375
#
# Coordination Sequence:
#
# PCOD9220532 Si02
#       7
#     8   8   8   8   8   8   8
#     4  11  22  36  56  83 116 153 194 238 286 340
#     4  11  24  42  63  87 117 151 189 235 286 339
#     4   8  15  30  53  80 109 144 189 239 288 339
#     4  11  22  36  56  83 116 153 194 238 286 340
#     4  11  24  42  63  87 117 151 189 235 286 339
#     4  12  25  42  65  91 121 153 189 232 279 334
#     4   8  15  30  53  80 109 144 189 239 288 339
#
# _framework density 21.948646
#
# number of rings (size 3 to 8) (size 9 to 14) (size 15 to 20)
#    0.000    1.714    0.000    6.000    0.000    5.714 
#    0.000    0.000    0.000    2.571    0.000   10.000 
#    0.000    0.000    0.000    0.000    0.000    0.000 
#
# Total GULP energy -156573.302696 kJ/mol
# GULP energy per Si atom -5591.903668 kJ/mol
# Density = 2.189869 g / cm^3
# Si number density = 21.948646 Si / 1000 Ang^3
#
#
#
# Elastic Constant Matrix: (Units=GPa)
#
#
# Indices 1 2 3 4 5 6 
#
# 1 50.5607 4.9453 1.5151 0.0000 -16.0302 0.0000
# 2 4.9453 77.2187 13.9272 0.0000 -16.6524 0.0000
# 3 1.5151 13.9272 87.6619 0.0000 -26.5841 0.0000
# 4 0.0000 0.0000 0.0000 51.6945 0.0000 12.5860
# 5 -16.0302 -16.6524 -26.5841 0.0000 26.2416 0.0000
# 6 0.0000 0.0000 0.0000 12.5860 0.0000 1.8761
#
#
#
# Elastic Compliance Matrix: (Units=1/GPa)
#
#
# Indices 1 2 3 4 5 6 
#
# 1 0.027272 0.002436 0.006730 0.000000 0.025023 0.000000
# 2 0.002436 0.015253 0.001330 0.000000 0.012514 0.000000
# 3 0.006730 0.001330 0.018162 0.000000 0.023354 0.000000
# 4 0.000000 0.000000 0.000000 -0.030543 0.000000 0.204904
# 5 0.025023 0.012514 0.023354 0.000000 0.084994 0.000000
# 6 0.000000 0.000000 0.000000 0.204904 0.000000 -0.841603
#
#
# Mechanical properties :
#
#
# Convention : Reuss Voigt Hill
#
# Bulk Modulus (GPa) = 12.24307 28.46849 20.35578
# Shear Modulus (GPa) = -6.94222 28.96602 11.01190
#
# Velocity S-wave (km/s) = -1.78039 3.63673 2.24232
# Velocity P-wave (km/s) = 1.16780 5.53472 3.99980
#
# Compressibility (1/GPa) = 0.08167884
#
# Stress axis : x y z
#
# Youngs Moduli (GPa) = 36.66777 65.56016 55.05921
#
# Poissons Ratio (x) = -0.15970 -0.37056
# Poissons Ratio (y) = -0.08932 -0.07321
# Poissons Ratio (z) = -0.24678 -0.08717
#
# Static dielectric constant tensor:
#      x y z
#    x 1.783370 0.000000 -0.007230 
#    y 0.000000 1.783600 0.000000 
#    z -0.007230 0.000000 1.783460 
# 
# From -- ./inp_files/300704.got.cif
#   From: 2010.05.17/outbox.cif.g08.bks.cpg/sg12_151_cif.got.tgz:300704.got - 2010.06.03 13:09:07.
