data_PCOD9220122
_publ_section_title
;
Structure prediction by ZEFSAII (Michael W. Deem and Ramdas Pophale) SiO2 
 PCOD9220122
Probable space group: C 2/M
;
_chemical_formula_sum "Si O2"
_cell_formula_units_Z 40
_cell_length_a 14.865616
_cell_length_b 13.994682
_cell_length_c 8.214223
_cell_angle_alpha 90.000000
_cell_angle_beta 105.410713
_cell_angle_gamma 90.000000
_cell_volume 1647.441762
_symmetry_space_group_name_H-M "C 2/M"
_symmetry_group_IT_number 12
_symmetry_cell_setting 'monoclinic'
loop_
_space_group_symop_operation_xyz
x,y,z
-x,y,-z
-x,-y,-z
x,-y,z
1/2+x,1/2+y,z
1/2-x,1/2+y,-z
1/2-x,1/2-y,-z
1/2+x,1/2-y,z
loop_
_atom_site_type_symbol
_atom_site_label
_atom_site_fract_x
_atom_site_fract_y
_atom_site_fract_z
Si Si1 0.906709 0.894467 0.360389
Si Si2 0.277739 0.609377 0.880332
Si Si3 0.733338 0.137888 0.493258
Si Si4 0.116020 0.737373 0.924913
Si Si5 0.476043 0.109433 0.677796
O O1 0.821838 0.902589 0.443516
O O2 0.879112 0.813643 0.220508
O O3 0.000000 0.865952 0.500000
O O4 0.925276 0.000000 0.297336
O O5 0.300365 0.500000 0.937412
O O6 0.233257 0.606336 0.680123
O O7 0.199096 0.659340 0.955447
O O8 0.362776 0.686999 0.919927
O O9 0.750000 0.250000 0.500000
O O10 0.635357 0.113961 0.364012
O O11 0.024210 0.677828 0.833037
O O12 0.500000 0.135230 0.500000
O O13 0.508037 0.000000 0.717190
#
# Coordination Sequence:
#
# PCOD9220122 Si02
#       5
#     8   8   8   8   8
#     4  11  23  41  64  95 132 173 224 278 332 391
#     4  11  23  40  66  97 133 177 222 270 333 401
#     4  12  22  41  69  99 132 174 224 275 331 396
#     4  11  22  40  65  97 132 174 215 274 338 397
#     4  11  21  38  67 100 132 169 220 275 330 394
#
# _framework density 24.280068
#
# number of rings (size 3 to 8) (size 9 to 14) (size 15 to 20)
#    0.000    0.800    4.000    4.800    0.000    0.000 
#    0.000    4.000    0.000    8.400    0.000    0.000 
#    0.000    0.000    0.000    0.000    0.000    0.000 
#
# Total GULP energy -111872.218250 kJ/mol
# GULP energy per Si atom -5593.610912 kJ/mol
# Density = 2.422481 g / cm^3
# Si number density = 24.280068 Si / 1000 Ang^3
#
#
#
# Elastic Constant Matrix: (Units=GPa)
#
#
# Indices 1 2 3 4 5 6 
#
# 1 105.8492 17.4281 29.5880 0.0000 39.0079 0.0000
# 2 17.4281 203.0986 42.9240 0.0000 19.3587 0.0000
# 3 29.5880 42.9240 89.2158 0.0000 40.6669 0.0000
# 4 0.0000 0.0000 0.0000 -5.3023 0.0000 -1.0843
# 5 39.0079 19.3587 40.6669 0.0000 42.2614 0.0000
# 6 0.0000 0.0000 0.0000 -1.0843 0.0000 28.9262
#
#
#
# Elastic Compliance Matrix: (Units=1/GPa)
#
#
# Indices 1 2 3 4 5 6 
#
# 1 0.014594 -0.000273 0.002449 0.000000 -0.015702 0.000000
# 2 -0.000273 0.005486 -0.002705 0.000000 0.000342 0.000000
# 3 0.002449 -0.002705 0.021667 0.000000 -0.021871 0.000000
# 4 0.000000 0.000000 0.000000 -0.187162 0.000000 -0.007015
# 5 -0.015702 0.000342 -0.021871 0.000000 0.059045 0.000000
# 6 0.000000 0.000000 0.000000 -0.007015 0.000000 0.034308
#
#
# Mechanical properties :
#
#
# Convention : Reuss Voigt Hill
#
# Bulk Modulus (GPa) = 24.57636 64.22707 44.40172
# Shear Modulus (GPa) = -133.54911 33.72530 -49.91191
#
# Velocity S-wave (km/s) = -7.42449 3.73099 -4.53887
# Velocity P-wave (km/s) = 7.95948 6.71345 3.02349
#
# Compressibility (1/GPa) = 0.04068951
#
# Stress axis : x y z
#
# Youngs Moduli (GPa) = 68.51905 182.27487 46.15229
#
# Poissons Ratio (x) = 0.04980 -0.11301
# Poissons Ratio (y) = 0.01872 0.12483
# Poissons Ratio (z) = -0.16778 0.49301
#
# Static dielectric constant tensor:
#      x y z
#    x 1.981040 0.000000 0.012690 
#    y 0.000000 1.993890 0.000000 
#    z 0.012690 0.000000 1.945940 
# 
# From -- ./inp_files/59222.got.cif
#   From: 2010.05.17/outbox.cif.g08.bks.cpg/sg12_30_cif.got.tgz:59222.got - 2010.06.03 13:09:07.
