data_PCOD9220574
_publ_section_title
;
Structure prediction by ZEFSAII (Michael W. Deem and Ramdas Pophale) SiO2 
 PCOD9220574
Probable space group: C 2/M
;
_chemical_formula_sum "Si O2"
_cell_formula_units_Z 56
_cell_length_a 9.313611
_cell_length_b 19.064177
_cell_length_c 24.644787
_cell_angle_alpha 90.000000
_cell_angle_beta 138.103289
_cell_angle_gamma 90.000000
_cell_volume 2922.140038
_symmetry_space_group_name_H-M "C 2/M"
_symmetry_group_IT_number 12
_symmetry_cell_setting 'monoclinic'
loop_
_space_group_symop_operation_xyz
x,y,z
-x,y,-z
-x,-y,-z
x,-y,z
1/2+x,1/2+y,z
1/2-x,1/2+y,-z
1/2-x,1/2-y,-z
1/2+x,1/2-y,z
loop_
_atom_site_type_symbol
_atom_site_label
_atom_site_fract_x
_atom_site_fract_y
_atom_site_fract_z
Si Si1 0.763194 0.681814 0.422140
Si Si2 0.572559 0.672758 0.759390
Si Si3 0.865919 0.177940 0.017285
Si Si4 0.454825 0.083061 0.731383
Si Si5 0.569892 0.670017 0.576802
Si Si6 0.488855 0.082924 0.869216
Si Si7 0.307841 0.682049 0.793995
O O1 0.600229 0.646784 0.333679
O O2 0.630573 0.686834 0.440650
O O3 0.814655 0.757669 0.409344
O O4 0.000000 0.650346 0.500000
O O5 0.763307 0.617723 0.822409
O O6 0.442292 0.688461 0.777146
O O7 0.687542 0.744412 0.771740
O O8 0.029652 0.163292 0.111853
O O9 0.750000 0.250000 0.000000
O O10 0.684554 0.119924 0.955262
O O11 0.000000 0.186855 0.000000
O O12 0.232029 0.120898 0.654824
O O13 0.510685 0.096106 0.810456
O O14 0.630886 0.121121 0.743670
O O15 0.445154 0.000000 0.720227
O O16 0.500000 0.636391 0.500000
O O17 0.489096 0.000000 0.878191
#
# Coordination Sequence:
#
# PCOD9220574 Si02
#       7
#     8   8   8   8   8   8   8
#     4  11  22  36  62 101 126 162 210 267 322 369
#     4  12  23  41  69  94 130 171 213 265 323 379
#     4  12  24  40  66  98 126 163 216 269 318 372
#     4  11  24  43  64  91 128 174 218 260 321 388
#     4  11  22  37  64  95 128 164 209 267 323 379
#     4  11  25  45  66  92 131 176 214 261 326 386
#     4  12  24  39  67  98 124 164 218 268 315 379
#
# _framework density 19.164037
#
# number of rings (size 3 to 8) (size 9 to 14) (size 15 to 20)
#    0.000    0.571    5.714    4.286    2.000    1.714 
#    0.000    0.714    0.000    0.857    0.000    0.000 
#    0.000    0.000    0.000    0.000    0.000    0.000 
#
# Total GULP energy -156517.748570 kJ/mol
# GULP energy per Si atom -5589.919592 kJ/mol
# Density = 1.912042 g / cm^3
# Si number density = 19.164037 Si / 1000 Ang^3
#
#
#
# Elastic Constant Matrix: (Units=GPa)
#
#
# Indices 1 2 3 4 5 6 
#
# 1 178.9026 45.1353 47.1334 0.0000 12.9430 0.0000
# 2 45.1353 63.4565 23.9781 0.0000 21.1614 0.0000
# 3 47.1334 23.9781 132.8951 0.0000 16.2936 0.0000
# 4 0.0000 0.0000 0.0000 25.6674 0.0000 0.6924
# 5 12.9430 21.1614 16.2936 0.0000 34.0119 0.0000
# 6 0.0000 0.0000 0.0000 0.6924 0.0000 16.0694
#
#
#
# Elastic Compliance Matrix: (Units=1/GPa)
#
#
# Indices 1 2 3 4 5 6 
#
# 1 0.007202 -0.004808 -0.001825 0.000000 0.001125 0.000000
# 2 -0.004808 0.023719 -0.001051 0.000000 -0.012424 0.000000
# 3 -0.001825 -0.001051 0.008708 0.000000 -0.002823 0.000000
# 4 0.000000 0.000000 0.000000 0.039005 0.000000 -0.001681
# 5 0.001125 -0.012424 -0.002823 0.000000 0.038056 0.000000
# 6 0.000000 0.000000 0.000000 -0.001681 0.000000 0.062302
#
#
# Mechanical properties :
#
#
# Convention : Reuss Voigt Hill
#
# Bulk Modulus (GPa) = 41.21860 67.52754 54.37307
# Shear Modulus (GPa) = 24.69772 32.41689 28.55731
#
# Velocity S-wave (km/s) = 3.59382 4.11731 3.86444
# Velocity P-wave (km/s) = 6.22701 7.61026 6.95312
#
# Compressibility (1/GPa) = 0.02426089
#
# Stress axis : x y z
#
# Youngs Moduli (GPa) = 138.84872 42.15970 114.84145
#
# Poissons Ratio (x) = 0.20272 0.20955
# Poissons Ratio (y) = 0.66764 0.12070
# Poissons Ratio (z) = 0.25336 0.04431
#
# Static dielectric constant tensor:
#      x y z
#    x 1.595810 0.000000 -0.159710 
#    y 0.000000 1.637970 0.000000 
#    z -0.159710 0.000000 1.338630 
# 
# From -- ./inp_files/356758.got.cif
#   From: 2010.05.17/outbox.cif.g08.bks.cpg/sg12_179_cif.got.tgz:356758.got - 2010.06.03 13:09:07.
