data_PCOD9220619
_publ_section_title
;
Structure prediction by ZEFSAII (Michael W. Deem and Ramdas Pophale) SiO2 
 PCOD9220619
Probable space group: C 2/M
;
_chemical_formula_sum "Si O2"
_cell_formula_units_Z 44
_cell_length_a 7.741652
_cell_length_b 27.732594
_cell_length_c 11.593525
_cell_angle_alpha 90.000000
_cell_angle_beta 48.565486
_cell_angle_gamma 90.000000
_cell_volume 1866.097945
_symmetry_space_group_name_H-M "C 2/M"
_symmetry_group_IT_number 12
_symmetry_cell_setting 'monoclinic'
loop_
_space_group_symop_operation_xyz
x,y,z
-x,y,-z
-x,-y,-z
x,-y,z
1/2+x,1/2+y,z
1/2-x,1/2+y,-z
1/2-x,1/2-y,-z
1/2+x,1/2-y,z
loop_
_atom_site_type_symbol
_atom_site_label
_atom_site_fract_x
_atom_site_fract_y
_atom_site_fract_z
Si Si1 0.500000 0.867587 0.500000
Si Si2 0.255659 0.554537 0.950103
Si Si3 0.084726 0.286523 0.830200
Si Si4 0.324436 0.444967 0.680551
Si Si5 0.910197 0.379148 0.793783
Si Si6 0.111490 0.209883 0.634763
O O1 0.409696 0.890730 0.658641
O O2 0.717361 0.834707 0.440434
O O3 0.286325 0.500000 0.979404
O O4 0.419066 0.562540 0.767695
O O5 0.000000 0.557422 0.000000
O O6 0.269061 0.593787 0.043503
O O7 0.934184 0.323188 0.818484
O O8 0.073745 0.233830 0.777462
O O9 0.355190 0.300579 0.703556
O O10 0.000000 0.288376 0.000000
O O11 0.500000 0.443571 0.500000
O O12 0.227375 0.500000 0.722805
O O13 0.144202 0.404006 0.733100
O O14 0.250000 0.250000 0.500000
#
# Coordination Sequence:
#
# PCOD9220619 Si02
#       6
#     4   8   8   8   8   8
#     4  12  26  40  61  88 124 166 217 252 306 378
#     4   8  15  33  58  86 121 157 195 246 306 359
#     4  12  24  40  68  94 121 154 209 260 314 373
#     4   9  18  33  60  94 122 155 204 254 301 366
#     4  11  22  37  58  91 121 162 205 256 306 361
#     4  12  23  44  64  87 121 166 200 255 317 372
#
# _framework density 23.578613000000001
#
# number of rings (size 3 to 8) (size 9 to 14) (size 15 to 20)
#    0.000    1.455    3.636    3.818    2.545    0.000 
#    0.000    1.818    0.000    0.000    0.000    3.818 
#    0.000    0.000    0.000    0.000    0.000    0.000 
#
# Total GULP energy -122864.312716 kJ/mol
# GULP energy per Si atom -5584.741487 kJ/mol
# Density = 2.352495 g / cm^3
# Si number density = 23.578613 Si / 1000 Ang^3
#
#
#
# Elastic Constant Matrix: (Units=GPa)
#
#
# Indices 1 2 3 4 5 6 
#
# 1 65.1518 14.9165 17.3849 0.0000 1.2772 0.0000
# 2 14.9165 42.1810 22.8653 0.0000 10.1189 0.0000
# 3 17.3849 22.8653 175.9962 0.0000 40.1718 0.0000
# 4 0.0000 0.0000 0.0000 33.4896 0.0000 20.8193
# 5 1.2772 10.1189 40.1718 0.0000 42.5939 0.0000
# 6 0.0000 0.0000 0.0000 20.8193 0.0000 -0.2529
#
#
#
# Elastic Compliance Matrix: (Units=1/GPa)
#
#
# Indices 1 2 3 4 5 6 
#
# 1 0.017009 -0.005768 -0.001436 0.000000 0.002215 0.000000
# 2 -0.005768 0.027935 -0.002019 0.000000 -0.004559 0.000000
# 3 -0.001436 -0.002019 0.007604 0.000000 -0.006649 0.000000
# 4 0.000000 0.000000 0.000000 0.000572 0.000000 0.047112
# 5 0.002215 -0.004559 -0.006649 0.000000 0.030765 0.000000
# 6 0.000000 0.000000 0.000000 0.047112 0.000000 -0.075784
#
#
# Mechanical properties :
#
#
# Convention : Reuss Voigt Hill
#
# Bulk Modulus (GPa) = 29.32370 43.74026 36.53198
# Shear Modulus (GPa) = 131.87532 30.37694 81.12613
#
# Velocity S-wave (km/s) = 7.48675 3.59322 5.87208
# Velocity P-wave (km/s) = 9.33803 5.98382 7.84235
#
# Compressibility (1/GPa) = 0.03410210
#
# Stress axis : x y z
#
# Youngs Moduli (GPa) = 58.79195 35.79727 131.51512
#
# Poissons Ratio (x) = 0.20647 0.18891
# Poissons Ratio (y) = 0.33909 0.26551
# Poissons Ratio (z) = 0.08445 0.07227
#
# Static dielectric constant tensor:
#      x y z
#    x 1.922880 0.000000 0.002260 
#    y 0.000000 1.903570 0.000000 
#    z 0.002260 0.000000 2.054960 
# 
# From -- ./inp_files/124090.got.cif
#   From: 2010.05.17/outbox.cif.g08.bks.cpg/sg12_63_cif.got.tgz:124090.got - 2010.06.03 13:09:07.
