data_PCOD9220653
_publ_section_title
;
Structure prediction by ZEFSAII (Michael W. Deem and Ramdas Pophale) SiO2 
 PCOD9220653
Probable space group: C 2/M
;
_chemical_formula_sum "Si O2"
_cell_formula_units_Z 40
_cell_length_a 11.075952
_cell_length_b 18.513349
_cell_length_c 16.925656
_cell_angle_alpha 90.000000
_cell_angle_beta 35.558545
_cell_angle_gamma 90.000000
_cell_volume 2018.306233
_symmetry_space_group_name_H-M "C 2/M"
_symmetry_group_IT_number 12
_symmetry_cell_setting 'monoclinic'
loop_
_space_group_symop_operation_xyz
x,y,z
-x,y,-z
-x,-y,-z
x,-y,z
1/2+x,1/2+y,z
1/2-x,1/2+y,-z
1/2-x,1/2-y,-z
1/2+x,1/2-y,z
loop_
_atom_site_type_symbol
_atom_site_label
_atom_site_fract_x
_atom_site_fract_y
_atom_site_fract_z
Si Si1 0.873955 0.261301 0.193066
Si Si2 0.973192 0.418998 0.916214
Si Si3 0.454549 0.578685 0.771725
Si Si4 0.917451 0.119768 0.960693
Si Si5 0.441831 0.732038 0.342252
O O1 0.907711 0.343768 0.150073
O O2 0.654200 0.238897 0.270023
O O3 0.894199 0.256994 0.277537
O O4 0.048573 0.206224 0.066616
O O5 0.062827 0.500000 0.860969
O O6 0.203249 0.419557 0.920062
O O7 0.816130 0.406822 0.925473
O O8 0.512155 0.500000 0.711075
O O9 0.530559 0.589137 0.821986
O O10 0.529317 0.645576 0.681694
O O11 0.000000 0.095961 0.000000
O O12 0.250000 0.750000 0.500000
#
# Coordination Sequence:
#
# PCOD9220653 Si02
#       5
#     8   8   8   8   8
#     4  11  22  37  62  87 120 153 197 249 296 346
#     4   9  19  34  55  91 124 148 182 237 308 364
#     4   8  19  36  57  87 121 151 189 240 298 354
#     4   9  17  30  55  87 125 155 184 228 299 364
#     4  11  24  41  61  83 115 161 213 247 282 336
#
# _framework density 19.818598000000001
#
# number of rings (size 3 to 8) (size 9 to 14) (size 15 to 20)
#    1.200    1.200    0.000    2.400    2.800    2.400 
#    0.000    3.000    0.000   13.200    0.000    0.000 
#    0.000    0.000    0.000    0.000    0.000    0.000 
#
# Total GULP energy -111338.224171 kJ/mol
# GULP energy per Si atom -5566.911209 kJ/mol
# Density = 1.977349 g / cm^3
# Si number density = 19.818598 Si / 1000 Ang^3
#
#
#
# Elastic Constant Matrix: (Units=GPa)
#
#
# Indices 1 2 3 4 5 6 
#
# 1 109.3095 37.3579 20.2600 -0.0097 9.0358 0.0035
# 2 37.3579 154.4925 40.8510 -0.0080 0.3303 0.0096
# 3 20.2600 40.8510 50.6847 -0.0122 4.2047 0.0079
# 4 -0.0097 -0.0080 -0.0122 19.0609 0.0052 -2.2445
# 5 9.0358 0.3303 4.2047 0.0052 21.3390 -0.0035
# 6 0.0035 0.0096 0.0079 -2.2445 -0.0035 10.6477
#
#
#
# Elastic Compliance Matrix: (Units=1/GPa)
#
#
# Indices 1 2 3 4 5 6 
#
# 1 0.010571 -0.001929 -0.002340 0.000004 -0.003985 0.000000
# 2 -0.001929 0.008608 -0.006327 -0.000002 0.001930 -0.000002
# 3 -0.002340 -0.006327 0.026101 0.000013 -0.004054 -0.000012
# 4 0.000004 -0.000002 0.000013 0.053799 -0.000016 0.011340
# 5 -0.003985 0.001930 -0.004054 -0.000016 0.049319 0.000015
# 6 0.000000 -0.000002 -0.000012 0.011340 0.000015 0.096308
#
#
# Mechanical properties :
#
#
# Convention : Reuss Voigt Hill
#
# Bulk Modulus (GPa) = 41.51499 56.82495 49.16997
# Shear Modulus (GPa) = 18.25306 24.61071 21.43188
#
# Velocity S-wave (km/s) = 3.03810 3.52774 3.29204
# Velocity P-wave (km/s) = 5.77059 6.73261 6.27008
#
# Compressibility (1/GPa) = 0.02408769
#
# Stress axis : x y z
#
# Youngs Moduli (GPa) = 94.60126 116.16966 38.31250
#
# Poissons Ratio (x) = 0.22407 0.08966
# Poissons Ratio (y) = 0.18247 0.24241
# Poissons Ratio (z) = 0.22139 0.73502
#
# Static dielectric constant tensor:
#      x y z
#    x 1.880430 -0.000010 -0.003600 
#    y -0.000010 1.708000 0.000010 
#    z -0.003600 0.000010 1.666770 
# 
# From -- ./inp_files/196772.got.cif
#   From: 2010.05.17/outbox.cif.g08.bks.cpg/sg12_99_cif.got.tgz:196772.got - 2010.06.03 13:09:07.
