data_PCOD9220977
_publ_section_title
;
Structure prediction by ZEFSAII (Michael W. Deem and Ramdas Pophale) SiO2 
 PCOD9220977
Probable space group: C 2/M
;
_chemical_formula_sum "Si O2"
_cell_formula_units_Z 40
_cell_length_a 13.676876
_cell_length_b 16.721767
_cell_length_c 12.248200
_cell_angle_alpha 90.000000
_cell_angle_beta 41.338908
_cell_angle_gamma 90.000000
_cell_volume 1850.213508
_symmetry_space_group_name_H-M "C 2/M"
_symmetry_group_IT_number 12
_symmetry_cell_setting 'monoclinic'
loop_
_space_group_symop_operation_xyz
x,y,z
-x,y,-z
-x,-y,-z
x,-y,z
1/2+x,1/2+y,z
1/2-x,1/2+y,-z
1/2-x,1/2-y,-z
1/2+x,1/2-y,z
loop_
_atom_site_type_symbol
_atom_site_label
_atom_site_fract_x
_atom_site_fract_y
_atom_site_fract_z
Si Si1 0.196218 0.325068 0.114840
Si Si2 0.998912 0.093958 0.832454
Si Si3 0.408570 0.089182 0.345415
Si Si4 0.719067 0.184842 0.348008
Si Si5 0.384909 0.640300 0.500179
O O1 0.166676 0.307758 0.267423
O O2 0.042603 0.355889 0.195086
O O3 0.250000 0.250000 0.000000
O O4 0.328483 0.389232 0.001140
O O5 0.110602 0.154976 0.799685
O O6 0.028075 0.118772 0.682795
O O7 0.035279 0.000000 0.820007
O O8 0.352968 0.119540 0.510724
O O9 0.268239 0.092121 0.382695
O O10 0.465213 0.000000 0.309215
O O11 0.676591 0.268948 0.439404
O O12 0.500000 0.624545 0.500000
#
# Coordination Sequence:
#
# PCOD9220977 Si02
#       5
#     8   8   8   8   8
#     4  12  24  41  63  92 128 164 205 254 310 370
#     4  11  24  40  63  95 128 162 203 255 315 371
#     4  11  24  40  63  95 126 160 207 259 310 366
#     4  11  22  40  66  91 120 164 210 253 303 368
#     4  11  22  42  66  89 121 166 214 254 302 368
#
# _framework density 21.619126000000001
#
# number of rings (size 3 to 8) (size 9 to 14) (size 15 to 20)
#    0.000    0.800    0.000   11.400    0.000    6.400 
#    0.000    3.000    0.000    6.000    0.000    0.000 
#    0.000    0.000    0.000    0.000    0.000    0.000 
#
# Total GULP energy -111757.094662 kJ/mol
# GULP energy per Si atom -5587.854733 kJ/mol
# Density = 2.156992 g / cm^3
# Si number density = 21.619126 Si / 1000 Ang^3
#
#
#
# Elastic Constant Matrix: (Units=GPa)
#
#
# Indices 1 2 3 4 5 6 
#
# 1 125.4510 17.4676 37.8715 0.0000 -3.4006 0.0000
# 2 17.4676 106.9951 34.3645 0.0000 3.8551 0.0000
# 3 37.8715 34.3645 77.9437 0.0000 -30.3747 0.0000
# 4 0.0000 0.0000 0.0000 14.6105 0.0000 -40.8281
# 5 -3.4006 3.8551 -30.3747 0.0000 32.3243 0.0000
# 6 0.0000 0.0000 0.0000 -40.8281 0.0000 -26.2251
#
#
#
# Elastic Compliance Matrix: (Units=1/GPa)
#
#
# Indices 1 2 3 4 5 6 
#
# 1 0.010025 0.001140 -0.007913 0.000000 -0.006517 0.000000
# 2 0.001140 0.013062 -0.010844 0.000000 -0.011628 0.000000
# 3 -0.007913 -0.010844 0.034135 0.000000 0.032537 0.000000
# 4 0.000000 0.000000 0.000000 0.012792 0.000000 -0.019915
# 5 -0.006517 -0.011628 0.032537 0.000000 0.062212 0.000000
# 6 0.000000 0.000000 0.000000 -0.019915 0.000000 -0.007127
#
#
# Mechanical properties :
#
#
# Convention : Reuss Voigt Hill
#
# Bulk Modulus (GPa) = 45.48059 54.42187 49.95123
# Shear Modulus (GPa) = 29.82169 18.85436 24.33803
#
# Velocity S-wave (km/s) = 3.71807 2.95636 3.35888
# Velocity P-wave (km/s) = 6.28609 6.07298 6.18046
#
# Compressibility (1/GPa) = 0.02198740
#
# Stress axis : x y z
#
# Youngs Moduli (GPa) = 99.75379 76.55818 29.29522
#
# Poissons Ratio (x) = -0.08725 0.23181
# Poissons Ratio (y) = -0.11369 0.31768
# Poissons Ratio (z) = 0.78935 0.83020
#
# Static dielectric constant tensor:
#      x y z
#    x 1.840640 0.000000 -0.018330 
#    y 0.000000 1.780060 0.000000 
#    z -0.018330 0.000000 1.768100 
# 
# From -- ./inp_files/145269.got.cif
#   From: 2010.05.17/outbox.cif.g08.bks.cpg/sg12_73_cif.got.tgz:145269.got - 2010.06.03 13:09:07.
