data_PCOD9220583
_publ_section_title
;
Structure prediction by ZEFSAII (Michael W. Deem and Ramdas Pophale) SiO2 
 PCOD9220583
Probable space group: C 2/M
;
_chemical_formula_sum "Si O2"
_cell_formula_units_Z 40
_cell_length_a 21.857893
_cell_length_b 13.664001
_cell_length_c 21.539074
_cell_angle_alpha 90.000000
_cell_angle_beta 161.409152
_cell_angle_gamma 90.000000
_cell_volume 2050.889706
_symmetry_space_group_name_H-M "C 2/M"
_symmetry_group_IT_number 12
_symmetry_cell_setting 'monoclinic'
loop_
_space_group_symop_operation_xyz
x,y,z
-x,y,-z
-x,-y,-z
x,-y,z
1/2+x,1/2+y,z
1/2-x,1/2+y,-z
1/2-x,1/2-y,-z
1/2+x,1/2-y,z
loop_
_atom_site_type_symbol
_atom_site_label
_atom_site_fract_x
_atom_site_fract_y
_atom_site_fract_z
Si Si1 0.892398 0.885627 0.188516
Si Si2 0.230129 0.740062 0.133871
Si Si3 0.731863 0.611813 0.712413
Si Si4 0.512836 0.385662 0.167625
Si Si5 0.159185 0.235386 0.525404
O O1 0.089193 0.836325 0.403074
O O2 0.732340 0.827542 0.073695
O O3 0.886305 0.876414 0.108805
O O4 0.889239 0.000000 0.202217
O O5 0.189676 0.671382 0.153335
O O6 0.453688 0.772153 0.354114
O O7 0.097342 0.832295 0.994211
O O8 0.500000 0.607506 0.500000
O O9 0.798860 0.500000 0.773122
O O10 0.758788 0.670859 0.674674
O O11 0.548377 0.500000 0.191372
O O12 0.706072 0.323963 0.363625
#
# Coordination Sequence:
#
# PCOD9220583 Si02
#       5
#     8   8   8   8   8
#     4   9  18  35  58  81 110 139 173 225 277 322
#     4   9  20  34  58  79 112 137 177 220 275 319
#     4   9  16  33  59  84 109 135 170 224 282 327
#     4  11  22  37  53  77 111 149 188 219 252 312
#     4   9  20  34  58  79 112 137 177 220 275 319
#
# _framework density 19.503730999999998
#
# number of rings (size 3 to 8) (size 9 to 14) (size 15 to 20)
#    1.200    1.400    0.000    2.400    0.000    1.600 
#    0.000    7.000    0.000    3.600    0.000    0.000 
#    0.000    0.000    0.000    0.000    0.000    0.000 
#
# Total GULP energy -111447.569073 kJ/mol
# GULP energy per Si atom -5572.378454 kJ/mol
# Density = 1.945934 g / cm^3
# Si number density = 19.503731 Si / 1000 Ang^3
#
#
#
# Elastic Constant Matrix: (Units=GPa)
#
#
# Indices 1 2 3 4 5 6 
#
# 1 49.8866 35.9810 2.6343 -0.0004 -6.2302 -0.0003
# 2 35.9810 125.1993 14.1311 -0.0059 -10.6307 -0.0025
# 3 2.6343 14.1311 28.8922 -0.0054 -0.9991 -0.0015
# 4 -0.0004 -0.0059 -0.0054 31.1550 -0.0009 -1.8265
# 5 -6.2302 -10.6307 -0.9991 -0.0009 28.5909 -0.0015
# 6 -0.0003 -0.0025 -0.0015 -1.8265 -0.0015 20.4572
#
#
#
# Elastic Compliance Matrix: (Units=1/GPa)
#
#
# Indices 1 2 3 4 5 6 
#
# 1 0.025569 -0.007249 0.001315 -0.000001 0.002923 0.000000
# 2 -0.007249 0.010774 -0.004530 0.000001 0.002268 0.000001
# 3 0.001315 -0.004530 0.036703 0.000006 -0.000115 0.000003
# 4 -0.000001 0.000001 0.000006 0.032266 0.000002 0.002881
# 5 0.002923 0.002268 -0.000115 0.000002 0.036452 0.000003
# 6 0.000000 0.000001 0.000003 0.002881 0.000003 0.049140
#
#
# Mechanical properties :
#
#
# Convention : Reuss Voigt Hill
#
# Bulk Modulus (GPa) = 19.18690 34.38566 26.78628
# Shear Modulus (GPa) = 21.81442 26.12273 23.96858
#
# Velocity S-wave (km/s) = 3.34799 3.66371 3.50940
# Velocity P-wave (km/s) = 4.98039 5.96369 5.49408
#
# Compressibility (1/GPa) = 0.05211888
#
# Stress axis : x y z
#
# Youngs Moduli (GPa) = 39.10975 92.81287 27.24549
#
# Poissons Ratio (x) = 0.67276 -0.03583
# Poissons Ratio (y) = 0.28349 0.12343
# Poissons Ratio (z) = -0.05143 0.42047
#
# Static dielectric constant tensor:
#      x y z
#    x 1.689740 0.000000 0.011050 
#    y 0.000000 1.636000 0.000000 
#    z 0.011050 0.000000 1.735450 
# 
# From -- ./inp_files/109287.got.cif
#   From: 2010.05.17/outbox.cif.g08.bks.cpg/sg12_55_cif.got.tgz:109287.got - 2010.06.03 13:09:07.
