data_PCOD9220634
_publ_section_title
;
Structure prediction by ZEFSAII (Michael W. Deem and Ramdas Pophale) SiO2 
 PCOD9220634
Probable space group: C 2/M
;
_chemical_formula_sum "Si O2"
_cell_formula_units_Z 56
_cell_length_a 9.788332
_cell_length_b 15.171351
_cell_length_c 17.936473
_cell_angle_alpha 90.000000
_cell_angle_beta 106.393808
_cell_angle_gamma 90.000000
_cell_volume 2555.315783
_symmetry_space_group_name_H-M "C 2/M"
_symmetry_group_IT_number 12
_symmetry_cell_setting 'monoclinic'
loop_
_space_group_symop_operation_xyz
x,y,z
-x,y,-z
-x,-y,-z
x,-y,z
1/2+x,1/2+y,z
1/2-x,1/2+y,-z
1/2-x,1/2-y,-z
1/2+x,1/2-y,z
loop_
_atom_site_type_symbol
_atom_site_label
_atom_site_fract_x
_atom_site_fract_y
_atom_site_fract_z
Si Si1 0.615382 0.646994 0.355192
Si Si2 0.289730 0.672947 0.363597
Si Si3 0.713091 0.644838 0.922880
Si Si4 0.914548 0.861795 0.816459
Si Si5 0.688971 0.859836 0.900511
Si Si6 0.119561 0.647235 0.195737
Si Si7 0.847237 0.401695 0.506600
O O1 0.460406 0.668687 0.370574
O O2 0.718534 0.730424 0.353431
O O3 0.582670 0.607462 0.268614
O O4 0.723442 0.595460 0.425273
O O5 0.205209 0.624444 0.283545
O O6 0.235355 0.639617 0.435535
O O7 0.553867 0.615970 0.884271
O O8 0.707227 0.752699 0.914170
O O9 0.797491 0.616238 0.863658
O O10 0.777944 0.612005 0.010161
O O11 0.791648 0.891712 0.851716
O O12 0.898093 0.754567 0.808718
O O13 0.538117 0.884068 0.843349
O O14 0.888354 0.500000 0.536533
O O15 0.000000 0.361207 0.500000
#
# Coordination Sequence:
#
# PCOD9220634 Si02
#       7
#     8   8   8   8   8   8   8
#     4  11  22  37  60  86 117 152 188 231 277 333
#     4  11  22  37  60  86 117 152 188 231 277 333
#     4   9  14  26  36  63 101 144 188 219 269 317
#     4   9  17  26  42  69 103 145 185 224 266 322
#     4   9  16  22  40  61 101 148 184 225 267 315
#     4   9  17  26  42  69 103 145 185 224 266 322
#     4  11  26  45  64  85 111 141 180 231 286 345
#
# _framework density 21.915099999999999
#
# number of rings (size 3 to 8) (size 9 to 14) (size 15 to 20)
#    0.000    2.143    1.429    2.571    8.000    4.571 
#    0.000    0.000    0.000    0.000    0.000    0.000 
#    0.000    6.857    0.000    0.000    0.000    0.000 
#
# Total GULP energy -155899.613001 kJ/mol
# GULP energy per Si atom -5567.843321 kJ/mol
# Density = 2.186522 g / cm^3
# Si number density = 21.915100 Si / 1000 Ang^3
#
#
#
# Elastic Constant Matrix: (Units=GPa)
#
#
# Indices 1 2 3 4 5 6 
#
# 1 201.1273 10.5200 61.6543 0.0000 2.9199 0.0000
# 2 10.5200 36.2614 10.5707 0.0000 -1.4101 0.0000
# 3 61.6543 10.5707 149.5662 0.0000 -3.7740 0.0000
# 4 0.0000 0.0000 0.0000 -27.3238 0.0000 9.4791
# 5 2.9199 -1.4101 -3.7740 0.0000 39.2768 0.0000
# 6 0.0000 0.0000 0.0000 9.4791 0.0000 -0.8486
#
#
#
# Elastic Compliance Matrix: (Units=1/GPa)
#
#
# Indices 1 2 3 4 5 6 
#
# 1 0.005744 -0.001019 -0.002313 0.000000 -0.000686 0.000000
# 2 -0.001019 0.028365 -0.001561 0.000000 0.000944 0.000000
# 3 -0.002313 -0.001561 0.007772 0.000000 0.000863 0.000000
# 4 0.000000 0.000000 0.000000 0.012729 0.000000 0.142188
# 5 -0.000686 0.000944 0.000863 0.000000 0.025628 0.000000
# 6 0.000000 0.000000 0.000000 0.142188 0.000000 0.409862
#
#
# Mechanical properties :
#
#
# Convention : Reuss Voigt Hill
#
# Bulk Modulus (GPa) = 31.15763 61.38276 46.27020
# Shear Modulus (GPa) = 9.79271 22.50156 16.14713
#
# Velocity S-wave (km/s) = 2.11617 3.20779 2.71736
# Velocity P-wave (km/s) = 4.49658 6.46452 5.56818
#
# Compressibility (1/GPa) = 0.03209486
#
# Stress axis : x y z
#
# Youngs Moduli (GPa) = 174.08473 35.25494 128.67286
#
# Poissons Ratio (x) = 0.03592 0.29765
# Poissons Ratio (y) = 0.17737 0.20084
# Poissons Ratio (z) = 0.40270 0.05503
#
# Static dielectric constant tensor:
#      x y z
#    x 1.658090 0.000000 -0.023020 
#    y 0.000000 1.885730 0.000000 
#    z -0.023020 0.000000 1.780770 
# 
# From -- ./inp_files/257220.got.cif
#   From: 2010.05.17/outbox.cif.g08.bks.cpg/sg12_129_cif.got.tgz:257220.got - 2010.06.03 13:09:07.
