data_PCOD9220798
_publ_section_title
;
Structure prediction by ZEFSAII (Michael W. Deem and Ramdas Pophale) SiO2 
 PCOD9220798
Probable space group: C 2/M
;
_chemical_formula_sum "Si O2"
_cell_formula_units_Z 64
_cell_length_a 9.548879
_cell_length_b 27.388702
_cell_length_c 17.674016
_cell_angle_alpha 90.000000
_cell_angle_beta 140.053618
_cell_angle_gamma 90.000000
_cell_volume 2967.848799
_symmetry_space_group_name_H-M "C 2/M"
_symmetry_group_IT_number 12
_symmetry_cell_setting 'monoclinic'
loop_
_space_group_symop_operation_xyz
x,y,z
-x,y,-z
-x,-y,-z
x,-y,z
1/2+x,1/2+y,z
1/2-x,1/2+y,-z
1/2-x,1/2-y,-z
1/2+x,1/2-y,z
loop_
_atom_site_type_symbol
_atom_site_label
_atom_site_fract_x
_atom_site_fract_y
_atom_site_fract_z
Si Si1 0.164246 0.441130 0.907156
Si Si2 0.108239 0.612221 0.725883
Si Si3 0.645827 0.704676 0.828675
Si Si4 0.901109 0.798906 0.881672
Si Si5 0.786370 0.097283 0.216180
Si Si6 0.124518 0.877060 0.477526
Si Si7 0.736149 0.787001 0.562737
Si Si8 0.526730 0.444558 0.178919
O O1 0.144084 0.500000 0.894451
O O2 0.166456 0.417419 0.825660
O O3 0.956347 0.417630 0.862443
O O4 0.377685 0.430526 0.045527
O O5 0.193057 0.667857 0.771086
O O6 0.266543 0.590438 0.727688
O O7 0.855508 0.603069 0.603180
O O8 0.816958 0.744923 0.869985
O O9 0.587678 0.701110 0.893854
O O10 0.704241 0.651964 0.816550
O O11 0.415637 0.723093 0.699935
O O12 0.000000 0.820306 0.000000
O O13 0.943244 0.093289 0.355015
O O14 0.877614 0.061642 0.190149
O O15 0.201886 0.837877 0.448948
O O16 0.000000 0.856600 0.500000
O O17 0.500000 0.787353 0.500000
O O18 0.750000 0.750000 0.500000
O O19 0.599236 0.500000 0.199197
#
# Coordination Sequence:
#
# PCOD9220798 Si02
#       8
#     8   8   8   8   8   8   8   8
#     4  11  24  44  72 102 133 177 228 280 337 405
#     4  12  24  44  71  99 139 178 225 279 339 399
#     4  11  25  42  64  99 134 178 225 273 333 401
#     4  12  26  44  65  98 138 182 227 272 333 402
#     4  11  24  44  69 101 138 177 223 281 344 396
#     4  11  24  43  64  95 133 179 225 274 335 407
#     4  11  22  38  66  94 129 174 226 280 329 391
#     4  11  24  45  71 101 133 173 229 282 338 405
#
# _framework density 21.564439
#
# number of rings (size 3 to 8) (size 9 to 14) (size 15 to 20)
#    0.000    0.750    2.500    5.250    3.500    4.000 
#    0.000    3.750    0.000    0.000    0.000    0.000 
#    0.000    0.000    0.000    0.000    0.000    0.000 
#
# Total GULP energy -178898.685228 kJ/mol
# GULP energy per Si atom -5590.583913 kJ/mol
# Density = 2.151536 g / cm^3
# Si number density = 21.564439 Si / 1000 Ang^3
#
#
#
# Elastic Constant Matrix: (Units=GPa)
#
#
# Indices 1 2 3 4 5 6 
#
# 1 120.1779 19.9989 21.1182 0.0000 9.5274 0.0000
# 2 19.9989 73.5492 24.4149 0.0000 9.8232 0.0000
# 3 21.1182 24.4149 79.8351 0.0000 9.2117 0.0000
# 4 0.0000 0.0000 0.0000 14.3764 0.0000 -0.4946
# 5 9.5274 9.8232 9.2117 0.0000 43.1607 0.0000
# 6 0.0000 0.0000 0.0000 -0.4946 0.0000 30.1201
#
#
#
# Elastic Compliance Matrix: (Units=1/GPa)
#
#
# Indices 1 2 3 4 5 6 
#
# 1 0.009005 -0.001715 -0.001716 0.000000 -0.001231 0.000000
# 2 -0.001715 0.015731 -0.004088 0.000000 -0.002329 0.000000
# 3 -0.001716 -0.004088 0.014434 0.000000 -0.001771 0.000000
# 4 0.000000 0.000000 0.000000 0.069598 0.000000 0.001143
# 5 -0.001231 -0.002329 -0.001771 0.000000 0.024349 0.000000
# 6 0.000000 0.000000 0.000000 0.001143 0.000000 0.033219
#
#
# Mechanical properties :
#
#
# Convention : Reuss Voigt Hill
#
# Bulk Modulus (GPa) = 41.43694 44.95849 43.19772
# Shear Modulus (GPa) = 26.39653 31.40011 28.89832
#
# Velocity S-wave (km/s) = 3.50248 3.82004 3.66470
# Velocity P-wave (km/s) = 5.96771 6.35221 6.16296
#
# Compressibility (1/GPa) = 0.02413305
#
# Stress axis : x y z
#
# Youngs Moduli (GPa) = 111.04382 63.56944 69.27910
#
# Poissons Ratio (x) = 0.10900 0.11886
# Poissons Ratio (y) = 0.19041 0.28324
# Poissons Ratio (z) = 0.19052 0.25990
#
# Static dielectric constant tensor:
#      x y z
#    x 1.825470 0.000000 -0.040060 
#    y 0.000000 1.764490 0.000000 
#    z -0.040060 0.000000 1.848500 
# 
# From -- ./inp_files/260351.got.cif
#   From: 2010.05.17/outbox.cif.g08.bks.cpg/sg12_131_cif.got.tgz:260351.got - 2010.06.03 13:09:07.
