data_PCOD9220970
_publ_section_title
;
Structure prediction by ZEFSAII (Michael W. Deem and Ramdas Pophale) SiO2 
 PCOD9220970
Probable space group: C 2/M
;
_chemical_formula_sum "Si O2"
_cell_formula_units_Z 64
_cell_length_a 23.751922
_cell_length_b 8.449796
_cell_length_c 15.500160
_cell_angle_alpha 90.000000
_cell_angle_beta 87.054834
_cell_angle_gamma 90.000000
_cell_volume 3106.756052
_symmetry_space_group_name_H-M "C 2/M"
_symmetry_group_IT_number 12
_symmetry_cell_setting 'monoclinic'
loop_
_space_group_symop_operation_xyz
x,y,z
-x,y,-z
-x,-y,-z
x,-y,z
1/2+x,1/2+y,z
1/2-x,1/2+y,-z
1/2-x,1/2-y,-z
1/2+x,1/2-y,z
loop_
_atom_site_type_symbol
_atom_site_label
_atom_site_fract_x
_atom_site_fract_y
_atom_site_fract_z
Si Si1 0.211633 0.810838 0.081830
Si Si2 0.966160 0.690676 0.129665
Si Si3 0.087844 0.690261 0.047947
Si Si4 0.168470 0.813876 0.434338
Si Si5 0.459822 0.317843 0.313211
Si Si6 0.454208 0.815358 0.575768
Si Si7 0.345393 0.187482 0.383015
Si Si8 0.254092 0.307229 0.730114
O O1 0.146444 0.763827 0.073000
O O2 0.232838 0.751417 0.174255
O O3 0.215893 0.000000 0.082176
O O4 0.250000 0.750000 0.000000
O O5 0.963162 0.500000 0.140545
O O6 0.945983 0.777449 0.216098
O O7 0.031607 0.733024 0.106011
O O8 0.928825 0.731360 0.049152
O O9 0.093252 0.500000 0.051605
O O10 0.102364 0.783868 0.423951
O O11 0.182556 0.726489 0.522776
O O12 0.201041 0.756944 0.346429
O O13 0.180098 0.000000 0.444483
O O14 0.474816 0.500000 0.323873
O O15 0.512229 0.211098 0.338509
O O16 0.404821 0.274621 0.372442
O O17 0.500000 0.767769 0.500000
O O18 0.440296 0.000000 0.563208
O O19 0.305847 0.236874 0.306646
O O20 0.355322 0.000000 0.376688
O O21 0.255672 0.500000 0.732346
#
# Coordination Sequence:
#
# PCOD9220970 Si02
#       8
#     8   8   8   8   8   8   8   8
#     4  11  24  43  64  91 124 164 208 260 312 366
#     4   9  20  40  65  91 124 161 201 246 305 374
#     4   9  20  41  66  92 121 160 203 251 307 368
#     4  11  22  40  65  94 125 158 201 260 315 364
#     4  12  25  38  59  92 126 160 203 255 306 357
#     4  11  23  40  61  87 121 164 206 242 297 367
#     4  11  22  41  64  88 122 168 211 251 304 370
#     4   9  23  43  64  89 122 163 205 251 313 370
#
# _framework density 20.600266000000001
#
# number of rings (size 3 to 8) (size 9 to 14) (size 15 to 20)
#    0.000    1.625    1.250    3.750    3.500    1.500 
#    0.000    6.875    0.000    0.000    0.000    0.000 
#    0.000    0.000    0.000    0.000    0.000    0.000 
#
# Total GULP energy -178823.704546 kJ/mol
# GULP energy per Si atom -5588.240767 kJ/mol
# Density = 2.055338 g / cm^3
# Si number density = 20.600266 Si / 1000 Ang^3
#
#
#
# Elastic Constant Matrix: (Units=GPa)
#
#
# Indices 1 2 3 4 5 6 
#
# 1 81.2413 7.6855 39.3525 0.0000 21.9155 0.0000
# 2 7.6855 21.2365 8.8204 0.0000 1.4197 0.0000
# 3 39.3525 8.8204 123.4046 0.0000 9.8156 0.0000
# 4 0.0000 0.0000 0.0000 26.6299 0.0000 -2.0877
# 5 21.9155 1.4197 9.8156 0.0000 26.3371 0.0000
# 6 0.0000 0.0000 0.0000 -2.0877 0.0000 28.7303
#
#
#
# Elastic Compliance Matrix: (Units=1/GPa)
#
#
# Indices 1 2 3 4 5 6 
#
# 1 0.018530 -0.003911 -0.004555 0.000000 -0.013511 0.000000
# 2 -0.003911 0.049402 -0.002402 0.000000 0.001487 0.000000
# 3 -0.004555 -0.002402 0.009703 0.000000 0.000303 0.000000
# 4 0.000000 0.000000 0.000000 0.037767 0.000000 0.002744
# 5 -0.013511 0.001487 0.000303 0.000000 0.049019 0.000000
# 6 0.000000 0.000000 0.000000 0.002744 0.000000 0.035006
#
#
# Mechanical properties :
#
#
# Convention : Reuss Voigt Hill
#
# Bulk Modulus (GPa) = 17.88910 37.51101 27.70005
# Shear Modulus (GPa) = 20.85102 27.67439 24.26270
#
# Velocity S-wave (km/s) = 3.18492 3.66922 3.43561
# Velocity P-wave (km/s) = 4.71463 6.01659 5.40496
#
# Compressibility (1/GPa) = 0.05589995
#
# Stress axis : x y z
#
# Youngs Moduli (GPa) = 53.96669 20.24195 103.05570
#
# Poissons Ratio (x) = 0.07917 0.46940
# Poissons Ratio (y) = 0.21106 0.24755
# Poissons Ratio (z) = 0.24581 0.04862
#
# Static dielectric constant tensor:
#      x y z
#    x 1.725090 0.000000 0.000340 
#    y 0.000000 1.702750 0.000000 
#    z 0.000340 0.000000 1.760990 
# 
# From -- ./inp_files/238595.got.cif
#   From: 2010.05.17/outbox.cif.g08.bks.cpg/sg12_120_cif.got.tgz:238595.got - 2010.06.03 13:09:07.
