data_PCOD9220598
_publ_section_title
;
Structure prediction by ZEFSAII (Michael W. Deem and Ramdas Pophale) SiO2 
 PCOD9220598
Probable space group: C 2/M
;
_chemical_formula_sum "Si O2"
_cell_formula_units_Z 48
_cell_length_a 18.857853
_cell_length_b 27.545218
_cell_length_c 9.401532
_cell_angle_alpha 90.000000
_cell_angle_beta 149.392246
_cell_angle_gamma 90.000000
_cell_volume 2486.506353
_symmetry_space_group_name_H-M "C 2/M"
_symmetry_group_IT_number 12
_symmetry_cell_setting 'monoclinic'
loop_
_space_group_symop_operation_xyz
x,y,z
-x,y,-z
-x,-y,-z
x,-y,z
1/2+x,1/2+y,z
1/2-x,1/2+y,-z
1/2-x,1/2-y,-z
1/2+x,1/2-y,z
loop_
_atom_site_type_symbol
_atom_site_label
_atom_site_fract_x
_atom_site_fract_y
_atom_site_fract_z
Si Si1 0.855675 0.442453 0.839227
Si Si2 0.858006 0.875088 0.696566
Si Si3 0.580024 0.181629 0.292707
Si Si4 0.069265 0.207950 0.383003
Si Si5 0.701210 0.304475 0.890998
Si Si6 0.409776 0.885000 0.214416
O O1 0.834036 0.500000 0.797031
O O2 0.730616 0.413321 0.548831
O O3 0.866544 0.423932 0.020804
O O4 0.000000 0.432388 0.000000
O O5 0.731000 0.845035 0.553519
O O6 0.928967 0.831403 0.734012
O O7 0.000000 0.900166 0.000000
O O8 0.585687 0.238058 0.350062
O O9 0.494956 0.153984 0.267561
O O10 0.500000 0.178877 0.000000
O O11 0.191576 0.194730 0.703207
O O12 0.936986 0.197295 0.253359
O O13 0.750000 0.250000 0.000000
O O14 0.789971 0.351894 0.079334
O O15 0.500000 0.905717 0.500000
#
# Coordination Sequence:
#
# PCOD9220598 Si02
#       6
#     8   8   8   8   8   8
#     4  11  24  49  77  98 125 170 228 287 337 386
#     4  12  25  40  65  97 135 174 217 276 336 394
#     4  12  22  42  63  97 134 182 227 273 322 385
#     4  11  24  36  58  92 136 181 222 260 321 398
#     4  11  22  37  56  91 135 181 217 259 324 389
#     4  12  23  41  70  95 136 169 222 280 328 396
#
# _framework density 19.304195
#
# number of rings (size 3 to 8) (size 9 to 14) (size 15 to 20)
#    0.000    0.500    6.667    2.000    4.667    0.667 
#    0.000    0.000    0.000    2.000    0.000    0.000 
#    0.000    0.000    0.000    0.000    0.000    0.000 
#
# Total GULP energy -133697.418407 kJ/mol
# GULP energy per Si atom -5570.725767 kJ/mol
# Density = 1.926026 g / cm^3
# Si number density = 19.304195 Si / 1000 Ang^3
#
#
#
# Elastic Constant Matrix: (Units=GPa)
#
#
# Indices 1 2 3 4 5 6 
#
# 1 67.9887 32.7514 47.2304 0.0000 1.4150 0.0000
# 2 32.7514 116.4674 42.1856 0.0000 1.0646 0.0000
# 3 47.2304 42.1856 130.5508 0.0000 -4.3760 0.0000
# 4 0.0000 0.0000 0.0000 29.5809 0.0000 6.4024
# 5 1.4150 1.0646 -4.3760 0.0000 24.8021 0.0000
# 6 0.0000 0.0000 0.0000 6.4024 0.0000 34.8580
#
#
#
# Elastic Compliance Matrix: (Units=1/GPa)
#
#
# Indices 1 2 3 4 5 6 
#
# 1 0.020983 -0.003516 -0.006529 0.000000 -0.002198 0.000000
# 2 -0.003516 0.010337 -0.002089 0.000000 -0.000612 0.000000
# 3 -0.006529 -0.002089 0.010776 0.000000 0.002363 0.000000
# 4 0.000000 0.000000 0.000000 0.035205 0.000000 -0.006466
# 5 -0.002198 -0.000612 0.002363 0.000000 0.040888 0.000000
# 6 0.000000 0.000000 0.000000 -0.006466 0.000000 0.029876
#
#
# Mechanical properties :
#
#
# Convention : Reuss Voigt Hill
#
# Bulk Modulus (GPa) = 56.08736 62.14906 59.11821
# Shear Modulus (GPa) = 28.04665 30.70417 29.37541
#
# Velocity S-wave (km/s) = 3.81580 3.99249 3.90514
# Velocity P-wave (km/s) = 6.96644 7.31558 7.14315
#
# Compressibility (1/GPa) = 0.01782933
#
# Stress axis : x y z
#
# Youngs Moduli (GPa) = 47.65732 96.74076 92.79834
#
# Poissons Ratio (x) = 0.34011 0.60587
# Poissons Ratio (y) = 0.16755 0.19384
# Poissons Ratio (z) = 0.31115 0.20207
#
# Static dielectric constant tensor:
#      x y z
#    x 1.560720 0.000000 -0.201350 
#    y 0.000000 1.508530 0.000000 
#    z -0.201350 0.000000 1.721480 
# 
# From -- ./inp_files/80802.got.cif
#   From: 2010.05.17/outbox.cif.g08.bks.cpg/sg12_41_cif.got.tgz:80802.got - 2010.06.03 13:09:07.
