data_PCOD9220496
_publ_section_title
;
Structure prediction by ZEFSAII (Michael W. Deem and Ramdas Pophale) SiO2 
 PCOD9220496
Probable space group: C 2/M
;
_chemical_formula_sum "Si O2"
_cell_formula_units_Z 56
_cell_length_a 9.199945
_cell_length_b 16.916649
_cell_length_c 27.226918
_cell_angle_alpha 90.000000
_cell_angle_beta 139.640963
_cell_angle_gamma 90.000000
_cell_volume 2744.026593
_symmetry_space_group_name_H-M "C 2/M"
_symmetry_group_IT_number 12
_symmetry_cell_setting 'monoclinic'
loop_
_space_group_symop_operation_xyz
x,y,z
-x,y,-z
-x,-y,-z
x,-y,z
1/2+x,1/2+y,z
1/2-x,1/2+y,-z
1/2-x,1/2-y,-z
1/2+x,1/2-y,z
loop_
_atom_site_type_symbol
_atom_site_label
_atom_site_fract_x
_atom_site_fract_y
_atom_site_fract_z
Si Si1 0.810024 0.835290 0.993591
Si Si2 0.848757 0.148375 0.287185
Si Si3 0.235482 0.638741 0.542133
Si Si4 0.498079 0.405882 0.858106
Si Si5 0.833875 0.410479 0.857776
Si Si6 0.525073 0.183126 0.727150
Si Si7 0.757498 0.670162 0.563511
O O1 0.570710 0.867047 0.913794
O O2 0.750000 0.750000 0.000000
O O3 0.000000 0.832717 0.000000
O O4 0.893525 0.887564 0.061108
O O5 0.777224 0.092358 0.224387
O O6 0.641782 0.173900 0.269393
O O7 0.042282 0.111586 0.372083
O O8 0.932938 0.226329 0.278848
O O9 0.186254 0.629261 0.472308
O O10 0.264127 0.734333 0.558142
O O11 0.000000 0.608635 0.500000
O O12 0.460811 0.500000 0.842800
O O13 0.666273 0.378729 0.857310
O O14 0.262836 0.359247 0.795700
O O15 0.882496 0.500000 0.885379
O O16 0.397564 0.147462 0.646930
O O17 0.500000 0.650187 0.500000
#
# Coordination Sequence:
#
# PCOD9220496 Si02
#       7
#     8   8   8   8   8   8   8
#     4  12  25  44  71  99 127 156 194 244 294 350
#     4  11  22  36  57  90 122 159 204 254 306 355
#     4   9  18  28  50  80 116 155 197 252 306 359
#     4  11  25  44  65  90 123 163 201 243 298 358
#     4  11  25  44  65  89 124 163 201 244 296 359
#     4  11  22  35  59  88 123 159 203 256 303 360
#     4   9  16  30  48  80 116 153 198 249 308 355
#
# _framework density 20.407965000000001
#
# number of rings (size 3 to 8) (size 9 to 14) (size 15 to 20)
#    0.000    1.429    1.429    4.286    8.000    4.000 
#    0.000    0.000    0.000    1.714    0.000    0.000 
#    0.000    0.000    0.000    0.000    0.000    0.000 
#
# Total GULP energy -156119.045471 kJ/mol
# GULP energy per Si atom -5575.680195 kJ/mol
# Density = 2.036152 g / cm^3
# Si number density = 20.407965 Si / 1000 Ang^3
#
#
#
# Elastic Constant Matrix: (Units=GPa)
#
#
# Indices 1 2 3 4 5 6 
#
# 1 154.8195 8.2662 26.0157 0.0003 -3.7785 0.0001
# 2 8.2662 32.2291 6.0994 0.0004 6.5306 0.0001
# 3 26.0157 6.0994 112.8168 0.0000 -2.9854 0.0000
# 4 0.0003 0.0004 0.0000 -102.3516 0.0004 -19.9937
# 5 -3.7785 6.5306 -2.9854 0.0004 39.9207 0.0001
# 6 0.0001 0.0001 0.0000 -19.9937 0.0001 12.9172
#
#
#
# Elastic Compliance Matrix: (Units=1/GPa)
#
#
# Indices 1 2 3 4 5 6 
#
# 1 0.006811 -0.001633 -0.001461 0.000000 0.000803 0.000000
# 2 -0.001633 0.032885 -0.001551 0.000000 -0.005650 0.000000
# 3 -0.001461 -0.001551 0.009306 0.000000 0.000811 0.000000
# 4 0.000000 0.000000 0.000000 -0.007502 0.000000 -0.011612
# 5 0.000803 -0.005650 0.000811 0.000000 0.026111 0.000000
# 6 0.000000 0.000000 0.000000 -0.011612 0.000000 0.059443
#
#
# Mechanical properties :
#
#
# Convention : Reuss Voigt Hill
#
# Bulk Modulus (GPa) = 25.18102 42.29202 33.73652
# Shear Modulus (GPa) = 33.42646 7.39619 20.41132
#
# Velocity S-wave (km/s) = 4.05150 1.90579 3.16597
# Velocity P-wave (km/s) = 5.85251 5.06073 5.47096
#
# Compressibility (1/GPa) = 0.03971245
#
# Stress axis : x y z
#
# Youngs Moduli (GPa) = 146.81145 30.40891 107.45524
#
# Poissons Ratio (x) = 0.04966 0.15701
# Poissons Ratio (y) = 0.23976 0.16665
# Poissons Ratio (z) = 0.21452 0.04716
#
# Static dielectric constant tensor:
#      x y z
#    x 1.679100 0.000000 0.011000 
#    y 0.000000 1.743110 0.000000 
#    z 0.011000 0.000000 1.721200 
# 
# From -- ./inp_files/356751.got.cif
#   From: 2010.05.17/outbox.cif.g08.bks.cpg/sg12_179_cif.got.tgz:356751.got - 2010.06.03 13:09:07.
