data_PCOD9220250
_publ_section_title
;
Structure prediction by ZEFSAII (Michael W. Deem and Ramdas Pophale) SiO2 
 PCOD9220250
Probable space group: C 2/M
;
_chemical_formula_sum "Si O2"
_cell_formula_units_Z 32
_cell_length_a 8.677083
_cell_length_b 18.146617
_cell_length_c 12.487233
_cell_angle_alpha 90.000000
_cell_angle_beta 134.235396
_cell_angle_gamma 90.000000
_cell_volume 1408.768323
_symmetry_space_group_name_H-M "C 2/M"
_symmetry_group_IT_number 12
_symmetry_cell_setting 'monoclinic'
loop_
_space_group_symop_operation_xyz
x,y,z
-x,y,-z
-x,-y,-z
x,-y,z
1/2+x,1/2+y,z
1/2-x,1/2+y,-z
1/2-x,1/2-y,-z
1/2+x,1/2-y,z
loop_
_atom_site_type_symbol
_atom_site_label
_atom_site_fract_x
_atom_site_fract_y
_atom_site_fract_z
Si Si1 0.761465 0.311831 0.411223
Si Si2 0.774359 0.788824 0.846624
Si Si3 0.322113 0.376829 0.177071
Si Si4 0.443584 0.080914 0.150568
O O1 0.750000 0.250000 0.500000
O O2 0.713337 0.274286 0.273413
O O3 0.572378 0.372354 0.331089
O O4 0.000000 0.341111 0.500000
O O5 0.733922 0.708676 0.875095
O O6 0.605046 0.851861 0.793972
O O7 0.000000 0.816611 0.000000
O O8 0.166470 0.404965 0.195576
O O9 0.242257 0.417336 0.031507
O O10 0.445261 0.000000 0.201849
#
# Coordination Sequence:
#
# PCOD9220250 Si02
#       4
#     8   8   8   8
#     4  12  26  39  64 107 146 179 225 298 366 408
#     4  12  22  41  71 109 137 180 245 306 341 413
#     4  11  21  40  69 105 140 179 241 291 344 413
#     4  11  24  42  72 108 146 184 232 298 363 412
#
# _framework density 22.714877000000001
#
# number of rings (size 3 to 8) (size 9 to 14) (size 15 to 20)
#    0.000    0.500    7.500    3.750    0.000    0.500 
#    0.000    0.000    0.000    8.250    0.000    0.000 
#    0.000    0.000    0.000    0.000    0.000    0.000 
#
# Total GULP energy -89355.886421 kJ/mol
# GULP energy per Si atom -5584.742901 kJ/mol
# Density = 2.266318 g / cm^3
# Si number density = 22.714877 Si / 1000 Ang^3
#
#
#
# Elastic Constant Matrix: (Units=GPa)
#
#
# Indices 1 2 3 4 5 6 
#
# 1 114.7123 37.6082 52.5462 0.0000 22.0339 0.0000
# 2 37.6082 133.3535 2.1438 0.0000 -7.4049 0.0000
# 3 52.5462 2.1438 92.4055 0.0000 8.3833 0.0000
# 4 0.0000 0.0000 0.0000 10.7656 0.0000 -2.3064
# 5 22.0339 -7.4049 8.3833 0.0000 60.3394 0.0000
# 6 0.0000 0.0000 0.0000 -2.3064 0.0000 19.1640
#
#
#
# Elastic Compliance Matrix: (Units=1/GPa)
#
#
# Indices 1 2 3 4 5 6 
#
# 1 0.014583 -0.004253 -0.007761 0.000000 -0.004769 0.000000
# 2 -0.004253 0.008797 0.002001 0.000000 0.002355 0.000000
# 3 -0.007761 0.002001 0.015100 0.000000 0.000982 0.000000
# 4 0.000000 0.000000 0.000000 0.095347 0.000000 0.011475
# 5 -0.004769 0.002355 0.000982 0.000000 0.018467 0.000000
# 6 0.000000 0.000000 0.000000 0.011475 0.000000 0.053562
#
#
# Mechanical properties :
#
#
# Convention : Reuss Voigt Hill
#
# Bulk Modulus (GPa) = 54.19231 58.34086 56.26659
# Shear Modulus (GPa) = 21.54870 34.59866 28.07368
#
# Velocity S-wave (km/s) = 3.08337 3.90702 3.51937
# Velocity P-wave (km/s) = 6.04861 6.78917 6.42956
#
# Compressibility (1/GPa) = 0.01845280
#
# Stress axis : x y z
#
# Youngs Moduli (GPa) = 68.57371 113.67793 66.22612
#
# Poissons Ratio (x) = 0.48343 0.51400
# Poissons Ratio (y) = 0.29162 -0.13249
# Poissons Ratio (z) = 0.53222 -0.22742
#
# Static dielectric constant tensor:
#      x y z
#    x 1.930590 0.000000 0.051310 
#    y 0.000000 1.785000 0.000000 
#    z 0.051310 0.000000 1.956250 
# 
# From -- ./inp_files/120511.got.cif
#   From: 2010.05.17/outbox.cif.g08.bks.cpg/sg12_61_cif.got.tgz:120511.got - 2010.06.03 13:09:07.
