data_PCOD9220456
_publ_section_title
;
Structure prediction by ZEFSAII (Michael W. Deem and Ramdas Pophale) SiO2 
 PCOD9220456
Probable space group: C 2/M
;
_chemical_formula_sum "Si O2"
_cell_formula_units_Z 40
_cell_length_a 17.047438
_cell_length_b 9.457273
_cell_length_c 19.255167
_cell_angle_alpha 90.000000
_cell_angle_beta 136.480673
_cell_angle_gamma 90.000000
_cell_volume 2137.661135
_symmetry_space_group_name_H-M "C 2/M"
_symmetry_group_IT_number 12
_symmetry_cell_setting 'monoclinic'
loop_
_space_group_symop_operation_xyz
x,y,z
-x,y,-z
-x,-y,-z
x,-y,z
1/2+x,1/2+y,z
1/2-x,1/2+y,-z
1/2-x,1/2-y,-z
1/2+x,1/2-y,z
loop_
_atom_site_type_symbol
_atom_site_label
_atom_site_fract_x
_atom_site_fract_y
_atom_site_fract_z
Si Si1 0.580707 0.664453 0.616526
Si Si2 0.619014 0.841671 0.773723
Si Si3 0.622525 0.718994 0.060350
Si Si4 0.052328 0.170094 0.865981
Si Si5 0.848172 0.345036 0.778609
O O1 0.500000 0.697574 0.500000
O O2 0.560164 0.500000 0.623876
O O3 0.565820 0.768440 0.671780
O O4 0.713894 0.672903 0.681277
O O5 0.755485 0.851828 0.850021
O O6 0.598386 0.738527 0.825344
O O7 0.575464 0.000000 0.758059
O O8 0.628409 0.839573 0.123065
O O9 0.500000 0.648918 0.000000
O O10 0.614073 0.740821 0.972489
O O11 0.921957 0.221030 0.792117
O O12 0.065106 0.000000 0.876768
O O13 0.883673 0.500000 0.775605
#
# Coordination Sequence:
#
# PCOD9220456 Si02
#       5
#     8   8   8   8   8
#     4   9  19  38  61  81 104 135 171 216 270 322
#     4  11  22  35  54  80 109 139 177 221 261 309
#     4   9  20  34  53  78 108 144 178 213 257 310
#     4  11  22  35  52  76 111 148 179 214 259 310
#     4   9  19  35  56  81 107 138 178 219 260 312
#
# _framework density 18.712039999999998
#
# number of rings (size 3 to 8) (size 9 to 14) (size 15 to 20)
#    0.000    2.200    0.000    2.400    0.000   16.800 
#    0.000    1.000    0.000    0.000    0.000    0.000 
#    0.000    0.000    0.000    0.000    0.000    0.000 
#
# Total GULP energy -111337.623857 kJ/mol
# GULP energy per Si atom -5566.881193 kJ/mol
# Density = 1.866945 g / cm^3
# Si number density = 18.712040 Si / 1000 Ang^3
#
#
#
# Elastic Constant Matrix: (Units=GPa)
#
#
# Indices 1 2 3 4 5 6 
#
# 1 74.7727 45.8212 42.2908 0.0000 -12.0175 0.0000
# 2 45.8212 77.8446 42.6278 0.0000 -0.1992 0.0000
# 3 42.2908 42.6278 136.1721 0.0000 -8.3351 0.0000
# 4 0.0000 0.0000 0.0000 -14.0950 0.0000 3.5240
# 5 -12.0175 -0.1992 -8.3351 0.0000 16.4029 0.0000
# 6 0.0000 0.0000 0.0000 3.5240 0.0000 17.1323
#
#
#
# Elastic Compliance Matrix: (Units=1/GPa)
#
#
# Indices 1 2 3 4 5 6 
#
# 1 0.026311 -0.013953 -0.002718 0.000000 0.017726 0.000000
# 2 -0.013953 0.022992 -0.003584 0.000000 -0.011765 0.000000
# 3 -0.002718 -0.003584 0.009480 0.000000 0.002782 0.000000
# 4 0.000000 0.000000 0.000000 -0.067477 0.000000 0.013880
# 5 0.017726 -0.011765 0.002782 0.000000 0.075222 0.000000
# 6 0.000000 0.000000 0.000000 0.013880 0.000000 0.055514
#
#
# Mechanical properties :
#
#
# Convention : Reuss Voigt Hill
#
# Bulk Modulus (GPa) = 54.73028 61.14100 57.93564
# Shear Modulus (GPa) = 29.64805 14.42467 22.03636
#
# Velocity S-wave (km/s) = 3.98482 2.77948 3.43542
# Velocity P-wave (km/s) = 7.10520 6.56097 6.83850
#
# Compressibility (1/GPa) = 0.01827142
#
# Stress axis : x y z
#
# Youngs Moduli (GPa) = 38.00698 43.49347 105.48322
#
# Poissons Ratio (x) = 0.60688 0.28674
# Poissons Ratio (y) = 0.53032 0.37807
# Poissons Ratio (z) = 0.10332 0.15589
#
# Static dielectric constant tensor:
#      x y z
#    x 1.668840 0.000000 0.011340 
#    y 0.000000 1.661430 0.000000 
#    z 0.011340 0.000000 1.633850 
# 
# From -- ./inp_files/314541.got.cif
#   From: 2010.05.17/outbox.cif.g08.bks.cpg/sg12_158_cif.got.tgz:314541.got - 2010.06.03 13:09:07.
