data_PCOD9220530
_publ_section_title
;
Structure prediction by ZEFSAII (Michael W. Deem and Ramdas Pophale) SiO2 
 PCOD9220530
Probable space group: C 2/M
;
_chemical_formula_sum "Si O2"
_cell_formula_units_Z 40
_cell_length_a 31.147147
_cell_length_b 7.712474
_cell_length_c 21.618727
_cell_angle_alpha 90.000000
_cell_angle_beta 162.750473
_cell_angle_gamma 90.000000
_cell_volume 1539.983778
_symmetry_space_group_name_H-M "C 2/M"
_symmetry_group_IT_number 12
_symmetry_cell_setting 'monoclinic'
loop_
_space_group_symop_operation_xyz
x,y,z
-x,y,-z
-x,-y,-z
x,-y,z
1/2+x,1/2+y,z
1/2-x,1/2+y,-z
1/2-x,1/2-y,-z
1/2+x,1/2-y,z
loop_
_atom_site_type_symbol
_atom_site_label
_atom_site_fract_x
_atom_site_fract_y
_atom_site_fract_z
Si Si1 0.969367 0.300133 0.676844
Si Si2 0.285158 0.788742 0.232559
Si Si3 0.524806 0.300299 0.175400
Si Si4 0.654998 0.198316 0.236922
Si Si5 0.583602 0.788716 0.710106
O O1 0.005925 0.500000 0.738233
O O2 0.965608 0.208469 0.737514
O O3 0.803032 0.293181 0.423601
O O4 0.073896 0.225730 0.767163
O O5 0.429724 0.740236 0.467335
O O6 0.301373 0.731777 0.183188
O O7 0.280027 0.000000 0.224729
O O8 0.137127 0.729073 0.059320
O O9 0.536465 0.500000 0.172712
O O10 0.637466 0.202213 0.287590
O O11 0.667662 0.000000 0.234011
O O12 0.500000 0.269075 0.000000
O O13 0.588374 0.000000 0.719514
#
# Coordination Sequence:
#
# PCOD9220530 Si02
#       5
#     8   8   8   8   8
#     4  11  22  36  56  82 113 147 183 223 269 322
#     4   8  15  30  53  80 108 140 181 226 269 316
#     4  11  22  36  56  82 113 147 183 223 269 322
#     4  11  24  41  60  81 107 139 178 227 278 327
#     4   8  15  30  53  80 108 140 181 226 269 316
#
# _framework density 25.974299999999999
#
# number of rings (size 3 to 8) (size 9 to 14) (size 15 to 20)
#    0.000    2.200    0.000    4.800    0.000    4.000 
#    0.000    0.000    0.000    3.600    0.000   14.000 
#    0.000    0.000    0.000    0.000    0.000    0.000 
#
# Total GULP energy -111892.388951 kJ/mol
# GULP energy per Si atom -5594.619448 kJ/mol
# Density = 2.591518 g / cm^3
# Si number density = 25.974300 Si / 1000 Ang^3
#
#
#
# Elastic Constant Matrix: (Units=GPa)
#
#
# Indices 1 2 3 4 5 6 
#
# 1 152.7855 9.7301 -1.9569 0.0000 10.5120 0.0000
# 2 9.7301 77.0054 1.0965 0.0000 0.1959 0.0000
# 3 -1.9569 1.0965 51.6157 0.0000 4.6330 0.0000
# 4 0.0000 0.0000 0.0000 13.7669 0.0000 -9.7465
# 5 10.5120 0.1959 4.6330 0.0000 51.3649 0.0000
# 6 0.0000 0.0000 0.0000 -9.7465 0.0000 14.6886
#
#
#
# Elastic Compliance Matrix: (Units=1/GPa)
#
#
# Indices 1 2 3 4 5 6 
#
# 1 0.006701 -0.000849 0.000398 0.000000 -0.001404 0.000000
# 2 -0.000849 0.013098 -0.000324 0.000000 0.000153 0.000000
# 3 0.000398 -0.000324 0.019561 0.000000 -0.001845 0.000000
# 4 0.000000 0.000000 0.000000 0.136993 0.000000 0.090900
# 5 -0.001404 0.000153 -0.001845 0.000000 0.019922 0.000000
# 6 0.000000 0.000000 0.000000 0.090900 0.000000 0.128396
#
#
# Mechanical properties :
#
#
# Convention : Reuss Voigt Hill
#
# Bulk Modulus (GPa) = 26.44783 33.23844 29.84314
# Shear Modulus (GPa) = 14.75697 34.13321 24.44509
#
# Velocity S-wave (km/s) = 2.38615 3.62900 3.07111
# Velocity P-wave (km/s) = 4.21853 5.51217 4.90816
#
# Compressibility (1/GPa) = 0.03781028
#
# Stress axis : x y z
#
# Youngs Moduli (GPa) = 149.23414 76.35003 51.12082
#
# Poissons Ratio (x) = 0.06481 -0.02035
# Poissons Ratio (y) = 0.12667 0.01657
# Poissons Ratio (z) = -0.05941 0.02475
#
# Static dielectric constant tensor:
#      x y z
#    x 2.071850 0.000000 -0.090360 
#    y 0.000000 1.899700 0.000000 
#    z -0.090360 0.000000 2.103370 
# 
# From -- ./inp_files/119057.got.cif
#   From: 2010.05.17/outbox.cif.g08.bks.cpg/sg12_60_cif.got.tgz:119057.got - 2010.06.03 13:09:07.
