data_PCOD9220446
_publ_section_title
;
Structure prediction by ZEFSAII (Michael W. Deem and Ramdas Pophale) SiO2 
 PCOD9220446
Probable space group: C 2/M
;
_chemical_formula_sum "Si O2"
_cell_formula_units_Z 56
_cell_length_a 27.190080
_cell_length_b 26.367581
_cell_length_c 12.580210
_cell_angle_alpha 90.000000
_cell_angle_beta 157.721604
_cell_angle_gamma 90.000000
_cell_volume 3419.249407
_symmetry_space_group_name_H-M "C 2/M"
_symmetry_group_IT_number 12
_symmetry_cell_setting 'monoclinic'
loop_
_space_group_symop_operation_xyz
x,y,z
-x,y,-z
-x,-y,-z
x,-y,z
1/2+x,1/2+y,z
1/2-x,1/2+y,-z
1/2-x,1/2-y,-z
1/2+x,1/2-y,z
loop_
_atom_site_type_symbol
_atom_site_label
_atom_site_fract_x
_atom_site_fract_y
_atom_site_fract_z
Si Si1 1.000000 0.193727 0.870271
Si Si2 0.243114 0.872219 0.292089
Si Si3 0.000000 0.686392 0.127234
Si Si4 0.654285 0.940870 0.934674
Si Si5 0.154285 0.440870 0.682466
Si Si6 0.156379 0.940323 0.312758
Si Si7 0.243114 0.872219 0.680368
O O1 0.000000 0.253683 0.849679
O O2 0.875537 0.166584 0.570604
O O3 0.124462 0.166584 0.068454
O O4 0.000000 0.186925 0.000000
O O5 0.373193 0.840971 0.574862
O O6 0.262078 0.902581 0.220613
O O7 0.217594 0.913755 0.332589
O O8 0.873193 0.659029 0.917912
O O9 0.000000 0.680893 0.000000
O O10 0.673265 0.933614 0.846531
O O11 0.500000 0.933446 0.648043
O O12 0.683802 0.000000 0.018303
O O13 0.737922 0.902581 0.172302
O O14 0.183802 0.500000 0.716904
O O15 0.217594 0.913755 0.537785
O O16 0.181110 0.000000 0.362221
O O17 0.000000 0.932671 0.000000
#
# Coordination Sequence:
#
# PCOD9220446 Si02
#       7
#     8   8   8   8   8   8   8
#     4  11  22  38  55  78 117 155 184 220 282 344
#     4  12  19  37  56  83 110 146 188 225 277 329
#     4  11  22  34  57  84 111 141 192 242 270 322
#     4   9  19  36  58  83 111 146 185 227 278 331
#     4   9  19  36  58  83 111 146 185 227 278 331
#     4  11  22  35  52  82 121 154 173 215 288 345
#     4  12  19  37  56  83 110 146 188 225 277 329
#
# _framework density 16.377863999999999
#
# number of rings (size 3 to 8) (size 9 to 14) (size 15 to 20)
#    0.000    1.286    5.714    2.571    0.000    2.286 
#    0.000    1.429    0.000    6.857    0.000    0.000 
#    0.000    0.000    0.000    0.000    0.000    0.000 
#
# Total GULP energy -156286.199511 kJ/mol
# GULP energy per Si atom -5581.649983 kJ/mol
# Density = 1.634059 g / cm^3
# Si number density = 16.377864 Si / 1000 Ang^3
#
#
#
# Elastic Constant Matrix: (Units=GPa)
#
#
# Indices 1 2 3 4 5 6 
#
# 1 81.7099 63.6181 48.9812 0.0000 4.7274 0.0000
# 2 63.6181 148.5709 72.8868 0.0000 5.1886 0.0000
# 3 48.9812 72.8868 116.5834 0.0000 14.7948 0.0000
# 4 0.0000 0.0000 0.0000 17.2309 0.0000 -6.1032
# 5 4.7274 5.1886 14.7948 0.0000 26.2226 0.0000
# 6 0.0000 0.0000 0.0000 -6.1032 0.0000 28.1334
#
#
#
# Elastic Compliance Matrix: (Units=1/GPa)
#
#
# Indices 1 2 3 4 5 6 
#
# 1 0.019779 -0.006330 -0.004372 0.000000 0.000153 0.000000
# 2 -0.006330 0.011798 -0.004918 0.000000 0.001581 0.000000
# 3 -0.004372 -0.004918 0.014288 0.000000 -0.006300 0.000000
# 4 0.000000 0.000000 0.000000 0.062866 0.000000 0.013638
# 5 0.000153 0.001581 -0.006300 0.000000 0.041349 0.000000
# 6 0.000000 0.000000 0.000000 0.013638 0.000000 0.038504
#
#
# Mechanical properties :
#
#
# Convention : Reuss Voigt Hill
#
# Bulk Modulus (GPa) = 68.36728 79.75960 74.06344
# Shear Modulus (GPa) = 22.25210 25.07592 23.66401
#
# Velocity S-wave (km/s) = 3.69001 3.91715 3.80528
# Velocity P-wave (km/s) = 7.74527 8.32251 8.03907
#
# Compressibility (1/GPa) = 0.01462688
#
# Stress axis : x y z
#
# Youngs Moduli (GPa) = 50.55991 84.75687 69.98738
#
# Poissons Ratio (x) = 0.53649 0.30598
# Poissons Ratio (y) = 0.32003 0.34417
# Poissons Ratio (z) = 0.22104 0.41680
#
# Static dielectric constant tensor:
#      x y z
#    x 1.529510 0.000000 0.007670 
#    y 0.000000 1.539050 0.000000 
#    z 0.007670 0.000000 1.543220 
# 
# From -- ./inp_files/185163.got.cif
#   From: 2010.05.17/outbox.cif.g08.bks.cpg/sg12_93_cif.got.tgz:185163.got - 2010.06.03 13:09:07.
