data_PCOD9220830
_publ_section_title
;
Structure prediction by ZEFSAII (Michael W. Deem and Ramdas Pophale) SiO2 
 PCOD9220830
Probable space group: C 2/M
;
_chemical_formula_sum "Si O2"
_cell_formula_units_Z 32
_cell_length_a 34.483632
_cell_length_b 7.767916
_cell_length_c 4.954314
_cell_angle_alpha 90.000000
_cell_angle_beta 88.957984
_cell_angle_gamma 90.000000
_cell_volume 1326.872596
_symmetry_space_group_name_H-M "C 2/M"
_symmetry_group_IT_number 12
_symmetry_cell_setting 'monoclinic'
loop_
_space_group_symop_operation_xyz
x,y,z
-x,y,-z
-x,-y,-z
x,-y,z
1/2+x,1/2+y,z
1/2-x,1/2+y,-z
1/2-x,1/2-y,-z
1/2+x,1/2-y,z
loop_
_atom_site_type_symbol
_atom_site_label
_atom_site_fract_x
_atom_site_fract_y
_atom_site_fract_z
Si Si1 0.664374 0.197225 0.643317
Si Si2 0.459339 0.210099 0.126548
Si Si3 0.912978 0.709881 0.634124
Si Si4 0.789850 0.804641 0.854487
O O1 0.626842 0.270887 0.494395
O O2 0.678256 0.287212 0.913082
O O3 0.655882 0.000000 0.723079
O O4 0.697742 0.200082 0.410975
O O5 0.448023 0.258655 0.429653
O O6 0.460754 0.000000 0.124467
O O7 0.500000 0.270339 0.000000
O O8 0.424620 0.264271 0.931265
O O9 0.910456 0.500000 0.640974
O O10 0.786623 0.000000 0.763346
O O11 0.750000 0.750000 0.000000
#
# Coordination Sequence:
#
# PCOD9220830 Si02
#       4
#     8   8   8   8
#     4  11  22  39  61  86 118 155 194 237 289 345
#     4   9  15  24  40  67 106 147 182 221 275 333
#     4   9  17  28  45  71 105 145 184 225 277 333
#     4  12  25  42  62  87 117 150 191 237 289 345
#
# _framework density 24.116857
#
# number of rings (size 3 to 8) (size 9 to 14) (size 15 to 20)
#    0.000    1.750    0.000    6.000    0.000    7.000 
#    0.000    0.000    0.000    0.000    0.000    0.000 
#    0.000   70.000    0.000    0.000    0.000    0.000 
#
# Total GULP energy -89521.164085 kJ/mol
# GULP energy per Si atom -5595.072755 kJ/mol
# Density = 2.406197 g / cm^3
# Si number density = 24.116857 Si / 1000 Ang^3
#
#
#
# Elastic Constant Matrix: (Units=GPa)
#
#
# Indices 1 2 3 4 5 6 
#
# 1 62.2035 -2.1434 -12.2273 0.0000 1.7580 0.0000
# 2 -2.1434 50.0913 -8.6525 0.0000 5.5072 0.0000
# 3 -12.2273 -8.6525 93.3903 0.0000 0.6731 0.0000
# 4 0.0000 0.0000 0.0000 16.2715 0.0000 11.7684
# 5 1.7580 5.5072 0.6731 0.0000 37.4761 0.0000
# 6 0.0000 0.0000 0.0000 11.7684 0.0000 -33.8745
#
#
#
# Elastic Compliance Matrix: (Units=1/GPa)
#
#
# Indices 1 2 3 4 5 6 
#
# 1 0.016597 0.001216 0.002293 0.000000 -0.000998 0.000000
# 2 0.001216 0.020724 0.002102 0.000000 -0.003140 0.000000
# 3 0.002293 0.002102 0.011207 0.000000 -0.000618 0.000000
# 4 0.000000 0.000000 0.000000 0.049116 0.000000 0.017063
# 5 -0.000998 -0.003140 -0.000618 0.000000 0.027203 0.000000
# 6 0.000000 0.000000 0.000000 0.017063 0.000000 -0.023593
#
#
# Mechanical properties :
#
#
# Convention : Reuss Voigt Hill
#
# Bulk Modulus (GPa) = 16.73650 17.73764 17.23707
# Shear Modulus (GPa) = 45.47536 19.22183 32.34859
#
# Velocity S-wave (km/s) = 4.34709 2.82623 3.66639
# Velocity P-wave (km/s) = 5.67019 4.24511 5.00859
#
# Compressibility (1/GPa) = 0.05974965
#
# Stress axis : x y z
#
# Youngs Moduli (GPa) = 60.25156 48.25343 89.22890
#
# Poissons Ratio (x) = -0.05868 -0.20459
# Poissons Ratio (y) = -0.07327 -0.18755
# Poissons Ratio (z) = -0.13815 -0.10142
#
# Static dielectric constant tensor:
#      x y z
#    x 1.965880 0.000000 -0.014990 
#    y 0.000000 1.862700 0.000000 
#    z -0.014990 0.000000 1.882540 
# 
# From -- ./inp_files/3531.got.cif
#   From: 2010.05.17/outbox.cif.g08.bks.cpg/sg12_2_cif.got.tgz:3531.got - 2010.06.03 13:09:07.
