data_PCOD9220578
_publ_section_title
;
Structure prediction by ZEFSAII (Michael W. Deem and Ramdas Pophale) SiO2 
 PCOD9220578
Probable space group: C 2/M
;
_chemical_formula_sum "Si O2"
_cell_formula_units_Z 44
_cell_length_a 10.536713
_cell_length_b 23.966949
_cell_length_c 11.518295
_cell_angle_alpha 90.000000
_cell_angle_beta 136.152919
_cell_angle_gamma 90.000000
_cell_volume 2014.994534
_symmetry_space_group_name_H-M "C 2/M"
_symmetry_group_IT_number 12
_symmetry_cell_setting 'monoclinic'
loop_
_space_group_symop_operation_xyz
x,y,z
-x,y,-z
-x,-y,-z
x,-y,z
1/2+x,1/2+y,z
1/2-x,1/2+y,-z
1/2-x,1/2-y,-z
1/2+x,1/2-y,z
loop_
_atom_site_type_symbol
_atom_site_label
_atom_site_fract_x
_atom_site_fract_y
_atom_site_fract_z
Si Si1 0.301039 0.500000 0.734538
Si Si2 0.500000 0.699097 0.500000
Si Si3 0.510984 0.320171 0.757834
Si Si4 0.313708 0.878106 0.325987
Si Si5 0.906334 0.281948 0.816111
Si Si6 0.135609 0.619982 0.916484
Si Si7 0.772608 0.000000 0.997843
O O1 0.208212 0.441644 0.640863
O O2 0.511098 0.500000 0.828092
O O3 0.288856 0.500000 0.867546
O O4 0.546172 0.667345 0.411451
O O5 0.310296 0.728853 0.338136
O O6 0.366670 0.347027 0.750571
O O7 0.501709 0.254405 0.778652
O O8 0.708322 0.344726 0.915347
O O9 0.500000 0.853684 0.500000
O O10 0.327656 0.877050 0.196811
O O11 0.949943 0.347378 0.824452
O O12 0.000000 0.265453 0.000000
O O13 0.167121 0.555453 0.967762
#
# Coordination Sequence:
#
# PCOD9220578 Si02
#       7
#     4   4   8   8   8   8   4
#     4   9  17  34  58  96 132 166 206 280 323 382
#     4  12  28  46  64  95 138 175 224 264 324 386
#     4  12  25  42  68  95 134 175 217 270 324 394
#     4  11  22  36  64 100 134 169 218 268 334 386
#     4  12  26  45  69  95 133 174 219 271 328 391
#     4  11  22  43  69  95 130 173 217 274 326 388
#     4   9  18  36  65  95 124 167 223 260 331 387
#
# _framework density 21.836290000000002
#
# number of rings (size 3 to 8) (size 9 to 14) (size 15 to 20)
#    0.000    0.909    3.636    4.091    3.818    0.000 
#    0.000    0.455    0.000    2.727    0.000    0.000 
#    0.000    0.000    0.000    0.000    0.000    0.000 
#
# Total GULP energy -122935.185383 kJ/mol
# GULP energy per Si atom -5587.962972 kJ/mol
# Density = 2.178659 g / cm^3
# Si number density = 21.836290 Si / 1000 Ang^3
#
#
#
# Elastic Constant Matrix: (Units=GPa)
#
#
# Indices 1 2 3 4 5 6 
#
# 1 68.8911 25.5799 34.7134 0.0000 2.7087 0.0000
# 2 25.5799 103.7920 17.6578 0.0000 21.7748 0.0000
# 3 34.7134 17.6578 126.7400 0.0000 8.0415 0.0000
# 4 0.0000 0.0000 0.0000 16.0563 0.0000 -4.4029
# 5 2.7087 21.7748 8.0415 0.0000 39.6165 0.0000
# 6 0.0000 0.0000 0.0000 -4.4029 0.0000 3.6419
#
#
#
# Elastic Compliance Matrix: (Units=1/GPa)
#
#
# Indices 1 2 3 4 5 6 
#
# 1 0.018268 -0.004137 -0.004551 0.000000 0.001948 0.000000
# 2 -0.004137 0.011996 -0.000140 0.000000 -0.006282 0.000000
# 3 -0.004551 -0.000140 0.009251 0.000000 -0.001490 0.000000
# 4 0.000000 0.000000 0.000000 0.093167 0.000000 0.112634
# 5 0.001948 -0.006282 -0.001490 0.000000 0.028864 0.000000
# 6 0.000000 0.000000 0.000000 0.112634 0.000000 0.410750
#
#
# Mechanical properties :
#
#
# Convention : Reuss Voigt Hill
#
# Bulk Modulus (GPa) = 45.74543 50.59170 48.16857
# Shear Modulus (GPa) = 8.37188 26.62775 17.49982
#
# Velocity S-wave (km/s) = 1.96017 3.49582 2.83399
# Velocity P-wave (km/s) = 5.11055 6.28596 5.72848
#
# Compressibility (1/GPa) = 0.02186011
#
# Stress axis : x y z
#
# Youngs Moduli (GPa) = 54.73999 83.36181 108.10105
#
# Poissons Ratio (x) = 0.34485 0.49195
# Poissons Ratio (y) = 0.22645 0.01510
# Poissons Ratio (z) = 0.24911 0.01164
#
# Static dielectric constant tensor:
#      x y z
#    x 1.811860 0.000000 0.000790 
#    y 0.000000 1.816580 0.000000 
#    z 0.000790 0.000000 1.777730 
# 
# From -- ./inp_files/79234.got.cif
#   From: 2010.05.17/outbox.cif.g08.bks.cpg/sg12_40_cif.got.tgz:79234.got - 2010.06.03 13:09:07.
