data_PCOD9220787
_publ_section_title
;
Structure prediction by ZEFSAII (Michael W. Deem and Ramdas Pophale) SiO2 
 PCOD9220787
Probable space group: C 2/M
;
_chemical_formula_sum "Si O2"
_cell_formula_units_Z 40
_cell_length_a 13.391667
_cell_length_b 13.560931
_cell_length_c 11.342077
_cell_angle_alpha 90.000000
_cell_angle_beta 54.946391
_cell_angle_gamma 90.000000
_cell_volume 1686.150930
_symmetry_space_group_name_H-M "C 2/M"
_symmetry_group_IT_number 12
_symmetry_cell_setting 'monoclinic'
loop_
_space_group_symop_operation_xyz
x,y,z
-x,y,-z
-x,-y,-z
x,-y,z
1/2+x,1/2+y,z
1/2-x,1/2+y,-z
1/2-x,1/2-y,-z
1/2+x,1/2-y,z
loop_
_atom_site_type_symbol
_atom_site_label
_atom_site_fract_x
_atom_site_fract_y
_atom_site_fract_z
Si Si1 0.027409 0.109317 0.621402
Si Si2 0.791188 0.613753 0.368379
Si Si3 0.029652 0.678367 0.341943
Si Si4 0.360347 0.810613 0.078539
Si Si5 0.768671 0.108953 0.062218
O O1 0.172210 0.131484 0.528799
O O2 0.961350 0.207804 0.709022
O O3 0.000000 0.103059 0.500000
O O4 0.000822 0.000000 0.688820
O O5 0.782557 0.500000 0.335172
O O6 0.915205 0.630677 0.353820
O O7 0.794328 0.678859 0.248926
O O8 0.000000 0.679607 0.500000
O O9 0.152469 0.622281 0.227467
O O10 0.356786 0.698145 0.036867
O O11 0.500000 0.844246 0.000000
O O12 0.289950 0.872810 0.027116
O O13 0.820306 0.000000 0.037532
#
# Coordination Sequence:
#
# PCOD9220787 Si02
#       5
#     8   8   8   8   8
#     4   9  19  36  58  87 122 160 203 253 311 369
#     4  11  22  38  65  92 120 166 215 256 307 374
#     4  11  22  39  61  90 128 163 207 260 310 370
#     4  11  23  43  68  93 126 164 212 265 309 371
#     4  11  25  43  66  96 128 165 208 261 318 373
#
# _framework density 23.722669
#
# number of rings (size 3 to 8) (size 9 to 14) (size 15 to 20)
#    0.000    1.400    2.000    4.200    0.000    2.800 
#    0.000    7.000    0.000    0.000    0.000    0.000 
#    0.000    0.000    0.000    0.000    0.000    0.000 
#
# Total GULP energy -111998.916820 kJ/mol
# GULP energy per Si atom -5599.945841 kJ/mol
# Density = 2.366868 g / cm^3
# Si number density = 23.722669 Si / 1000 Ang^3
#
#
#
# Elastic Constant Matrix: (Units=GPa)
#
#
# Indices 1 2 3 4 5 6 
#
# 1 57.2913 -17.9945 11.2798 0.0000 -0.1843 0.0000
# 2 -17.9945 113.6912 8.8009 0.0000 12.4707 0.0000
# 3 11.2798 8.8009 97.8635 0.0000 9.1862 0.0000
# 4 0.0000 0.0000 0.0000 19.9998 0.0000 1.2652
# 5 -0.1843 12.4707 9.1862 0.0000 29.7590 0.0000
# 6 0.0000 0.0000 0.0000 1.2652 0.0000 13.8834
#
#
#
# Elastic Compliance Matrix: (Units=1/GPa)
#
#
# Indices 1 2 3 4 5 6 
#
# 1 0.018949 0.003241 -0.002430 0.000000 -0.000491 0.000000
# 2 0.003241 0.009796 -0.000897 0.000000 -0.003808 0.000000
# 3 -0.002430 -0.000897 0.010860 0.000000 -0.002991 0.000000
# 4 0.000000 0.000000 0.000000 0.050290 0.000000 -0.004583
# 5 -0.000491 -0.003808 -0.002991 0.000000 0.036119 0.000000
# 6 0.000000 0.000000 0.000000 -0.004583 0.000000 0.072446
#
#
# Mechanical properties :
#
#
# Convention : Reuss Voigt Hill
#
# Bulk Modulus (GPa) = 25.35871 30.33540 27.84705
# Shear Modulus (GPa) = 23.60978 30.51243 27.06110
#
# Velocity S-wave (km/s) = 3.15817 3.59027 3.38113
# Velocity P-wave (km/s) = 4.90016 5.47741 5.19681
#
# Compressibility (1/GPa) = 0.03943418
#
# Stress axis : x y z
#
# Youngs Moduli (GPa) = 52.77206 102.08365 92.08262
#
# Poissons Ratio (x) = -0.33087 0.22372
# Poissons Ratio (y) = -0.17104 0.08260
# Poissons Ratio (z) = 0.12821 0.09158
#
# Static dielectric constant tensor:
#      x y z
#    x 1.865430 0.000000 -0.028540 
#    y 0.000000 1.917830 0.000000 
#    z -0.028540 0.000000 1.900640 
# 
# From -- ./inp_files/141836.got.cif
#   From: 2010.05.17/outbox.cif.g08.bks.cpg/sg12_71_cif.got.tgz:141836.got - 2010.06.03 13:09:07.
