data_PCOD9220232
_publ_section_title
;
Structure prediction by ZEFSAII (Michael W. Deem and Ramdas Pophale) SiO2 
 PCOD9220232
Probable space group: C 2/M
;
_chemical_formula_sum "Si O2"
_cell_formula_units_Z 40
_cell_length_a 28.776090
_cell_length_b 10.106721
_cell_length_c 11.481240
_cell_angle_alpha 90.000000
_cell_angle_beta 141.378357
_cell_angle_gamma 90.000000
_cell_volume 2084.188820
_symmetry_space_group_name_H-M "C 2/M"
_symmetry_group_IT_number 12
_symmetry_cell_setting 'monoclinic'
loop_
_space_group_symop_operation_xyz
x,y,z
-x,y,-z
-x,-y,-z
x,-y,z
1/2+x,1/2+y,z
1/2-x,1/2+y,-z
1/2-x,1/2-y,-z
1/2+x,1/2-y,z
loop_
_atom_site_type_symbol
_atom_site_label
_atom_site_fract_x
_atom_site_fract_y
_atom_site_fract_z
Si Si1 0.848571 0.000000 0.537591
Si Si2 0.908069 0.757132 0.077852
Si Si3 0.417253 0.000000 0.774458
Si Si4 0.579615 0.500000 0.079282
Si Si5 0.083978 0.726153 0.415506
Si Si6 0.409683 0.151672 0.316651
Si Si7 0.825673 0.500000 0.820789
O O1 0.887754 0.129691 0.562934
O O2 0.860885 0.000000 0.700642
O O3 0.762183 0.000000 0.338188
O O4 0.886443 0.759548 0.173397
O O5 0.995148 0.724134 0.253620
O O6 0.907648 0.876082 0.983263
O O7 0.861753 0.632984 0.941850
O O8 0.404699 0.874076 0.667933
O O9 0.353018 0.000000 0.742540
O O10 0.500000 0.000000 0.000000
O O11 0.500000 0.500000 0.000000
O O12 0.116839 0.682339 0.604360
O O13 0.500000 0.152529 0.500000
O O14 0.388408 0.000000 0.242780
#
# Coordination Sequence:
#
# PCOD9220232 Si02
#       7
#     4   8   4   4   8   8   4
#     4  12  28  43  59  99 149 167 204 280 338 382
#     4  11  21  40  69  94 129 174 219 271 321 381
#     4  12  22  35  67 100 121 173 232 259 312 393
#     4  12  24  41  63  96 135 173 214 263 326 393
#     4  11  21  40  66  97 133 172 217 273 327 380
#     4   9  18  35  64 102 126 156 228 287 306 365
#     4  12  26  41  65  99 135 169 222 274 320 386
#
# _framework density 19.192119999999999
#
# number of rings (size 3 to 8) (size 9 to 14) (size 15 to 20)
#    0.000    1.000    6.000    1.200    0.000    4.000 
#    0.000    4.000    0.000    0.000    0.000    0.000 
#    0.000    0.000    0.000    0.000    0.000    0.000 
#
# Total GULP energy -111427.900363 kJ/mol
# GULP energy per Si atom -5571.395018 kJ/mol
# Density = 1.914844 g / cm^3
# Si number density = 19.192120 Si / 1000 Ang^3
#
#
#
# Elastic Constant Matrix: (Units=GPa)
#
#
# Indices 1 2 3 4 5 6 
#
# 1 202.6521 171.5223 48.3413 0.0000 -14.0465 0.0000
# 2 171.5223 255.0685 53.5674 0.0000 -0.9903 0.0000
# 3 48.3413 53.5674 87.4393 0.0000 -12.6998 0.0000
# 4 0.0000 0.0000 0.0000 30.7768 0.0000 -10.1744
# 5 -14.0465 -0.9903 -12.6998 0.0000 49.0822 0.0000
# 6 0.0000 0.0000 0.0000 -10.1744 0.0000 270.2501
#
#
#
# Elastic Compliance Matrix: (Units=1/GPa)
#
#
# Indices 1 2 3 4 5 6 
#
# 1 0.012110 -0.007822 -0.001479 0.000000 0.002925 0.000000
# 2 -0.007822 0.009571 -0.001908 0.000000 -0.002539 0.000000
# 3 -0.001479 -0.001908 0.013877 0.000000 0.003129 0.000000
# 4 0.000000 0.000000 0.000000 0.032902 0.000000 0.001239
# 5 0.002925 -0.002539 0.003129 0.000000 0.021970 0.000000
# 6 0.000000 0.000000 0.000000 0.001239 0.000000 0.003747
#
#
# Mechanical properties :
#
#
# Convention : Reuss Voigt Hill
#
# Bulk Modulus (GPa) = 76.09129 121.33577 98.71353
# Shear Modulus (GPa) = 41.33122 88.13706 64.73414
#
# Velocity S-wave (km/s) = 4.64567 6.78404 5.81401
# Velocity P-wave (km/s) = 8.27705 11.16796 9.82936
#
# Compressibility (1/GPa) = 0.01314211
#
# Stress axis : x y z
#
# Youngs Moduli (GPa) = 82.57464 104.48085 72.06026
#
# Poissons Ratio (x) = 0.81722 0.10654
# Poissons Ratio (y) = 0.64588 0.13749
# Poissons Ratio (z) = 0.12209 0.19935
#
# Static dielectric constant tensor:
#      x y z
#    x 1.734920 0.000000 -0.046810 
#    y 0.000000 1.690250 0.000000 
#    z -0.046810 0.000000 1.692500 
# 
# From -- ./inp_files/187049.got.cif
#   From: 2010.05.17/outbox.cif.g08.bks.cpg/sg12_94_cif.got.tgz:187049.got - 2010.06.03 13:09:07.
