data_PCOD9220043
_publ_section_title
;
Structure prediction by ZEFSAII (Michael W. Deem and Ramdas Pophale) SiO2 
 PCOD9220043
Probable space group: C 2/M
;
_chemical_formula_sum "Si O2"
_cell_formula_units_Z 52
_cell_length_a 14.566475
_cell_length_b 19.791371
_cell_length_c 13.322453
_cell_angle_alpha 90.000000
_cell_angle_beta 40.505433
_cell_angle_gamma 90.000000
_cell_volume 2494.635930
_symmetry_space_group_name_H-M "C 2/M"
_symmetry_group_IT_number 12
_symmetry_cell_setting 'monoclinic'
loop_
_space_group_symop_operation_xyz
x,y,z
-x,y,-z
-x,-y,-z
x,-y,z
1/2+x,1/2+y,z
1/2-x,1/2+y,-z
1/2-x,1/2-y,-z
1/2+x,1/2-y,z
loop_
_atom_site_type_symbol
_atom_site_label
_atom_site_fract_x
_atom_site_fract_y
_atom_site_fract_z
Si Si1 0.278623 0.631206 0.045078
Si Si2 0.763481 0.863796 0.416577
Si Si3 0.953980 0.209440 0.750238
Si Si4 0.500000 0.164102 0.000000
Si Si5 0.623209 0.500000 0.975881
Si Si6 0.240387 0.734242 0.250744
Si Si7 0.328861 0.000000 0.625800
Si Si8 0.513528 0.141141 0.773084
O O1 0.379160 0.567494 0.959400
O O2 0.294812 0.674617 0.131890
O O3 0.116642 0.609035 0.177761
O O4 0.318754 0.676748 0.917176
O O5 0.722751 0.801564 0.373823
O O6 0.733925 0.932918 0.378364
O O7 0.659751 0.871449 0.597446
O O8 0.914495 0.840639 0.338152
O O9 0.899333 0.233568 0.685972
O O10 0.989324 0.278291 0.779944
O O11 0.636251 0.210396 0.861132
O O12 0.490398 0.121494 0.906874
O O13 0.761411 0.500000 0.791890
O O14 0.500000 0.500000 0.000000
O O15 0.500000 0.000000 0.500000
#
# Coordination Sequence:
#
# PCOD9220043 Si02
#       8
#     8   8   8   4   4   8   4   8
#     4  11  21  39  57  91 131 168 213 254 327 392
#     4  12  25  42  64  97 138 167 219 265 331 397
#     4  11  22  38  60  97 127 173 211 264 332 383
#     4  12  20  40  64  94 130 168 208 266 332 386
#     4  12  24  36  64  96 124 177 221 257 323 400
#     4  11  21  37  66  91 135 165 209 272 324 398
#     4  12  26  44  62  94 137 183 207 265 338 394
#     4  11  23  39  62  93 125 170 214 270 328 387
#
# _framework density 20.844723999999999
#
# number of rings (size 3 to 8) (size 9 to 14) (size 15 to 20)
#    0.000    0.615    6.154    3.231    3.231    0.000 
#    0.000    0.000    0.000    1.846    0.000    1.077 
#    0.000    0.000    0.000    0.000    0.000    0.000 
#
# Total GULP energy -145036.145698 kJ/mol
# GULP energy per Si atom -5578.313296 kJ/mol
# Density = 2.079728 g / cm^3
# Si number density = 20.844724 Si / 1000 Ang^3
#
#
#
# Elastic Constant Matrix: (Units=GPa)
#
#
# Indices 1 2 3 4 5 6 
#
# 1 72.1810 29.7947 18.6559 -0.0002 -16.3678 0.0000
# 2 29.7947 75.9636 5.9328 0.0000 -8.6595 0.0000
# 3 18.6559 5.9328 77.4967 0.0000 -1.0240 -0.0001
# 4 -0.0002 0.0000 0.0000 16.7079 0.0002 -3.6111
# 5 -16.3678 -8.6595 -1.0240 0.0002 39.9435 -0.0001
# 6 0.0000 0.0000 -0.0001 -3.6111 -0.0001 7.4276
#
#
#
# Elastic Compliance Matrix: (Units=1/GPa)
#
#
# Indices 1 2 3 4 5 6 
#
# 1 0.018953 -0.006407 -0.003989 0.000000 0.006275 0.000000
# 2 -0.006407 0.015741 0.000348 0.000000 0.000796 0.000000
# 3 -0.003989 0.000348 0.013822 0.000000 -0.001205 0.000000
# 4 0.000000 0.000000 0.000000 0.066879 0.000000 0.032514
# 5 0.006275 0.000796 -0.001205 0.000000 0.027748 0.000000
# 6 0.000000 0.000000 0.000000 0.032514 0.000000 0.150441
#
#
# Mechanical properties :
#
#
# Convention : Reuss Voigt Hill
#
# Bulk Modulus (GPa) = 35.18815 37.15646 36.17230
# Shear Modulus (GPa) = 15.47260 24.23300 19.85280
#
# Velocity S-wave (km/s) = 2.72744 3.41332 3.08947
# Velocity P-wave (km/s) = 5.18037 5.77913 5.48792
#
# Compressibility (1/GPa) = 0.02841866
#
# Stress axis : x y z
#
# Youngs Moduli (GPa) = 52.76313 63.52968 72.35085
#
# Poissons Ratio (x) = 0.40702 0.28862
# Poissons Ratio (y) = 0.33804 -0.02516
# Poissons Ratio (z) = 0.21048 -0.02210
#
# Static dielectric constant tensor:
#      x y z
#    x 1.805100 0.000000 -0.010400 
#    y 0.000000 1.746860 0.000000 
#    z -0.010400 0.000000 1.802000 
# 
# From -- ./inp_files/216744.got.cif
#   From: 2010.05.17/outbox.cif.g08.bks.cpg/sg12_109_cif.got.tgz:216744.got - 2010.06.03 13:09:07.
