data_PCOD9220895
_publ_section_title
;
Structure prediction by ZEFSAII (Michael W. Deem and Ramdas Pophale) SiO2 
 PCOD9220895
Probable space group: C 2/M
;
_chemical_formula_sum "Si O2"
_cell_formula_units_Z 40
_cell_length_a 18.597983
_cell_length_b 10.742674
_cell_length_c 11.501906
_cell_angle_alpha 90.000000
_cell_angle_beta 60.697369
_cell_angle_gamma 90.000000
_cell_volume 2003.954467
_symmetry_space_group_name_H-M "C 2/M"
_symmetry_group_IT_number 12
_symmetry_cell_setting 'monoclinic'
loop_
_space_group_symop_operation_xyz
x,y,z
-x,y,-z
-x,-y,-z
x,-y,z
1/2+x,1/2+y,z
1/2-x,1/2+y,-z
1/2-x,1/2-y,-z
1/2+x,1/2-y,z
loop_
_atom_site_type_symbol
_atom_site_label
_atom_site_fract_x
_atom_site_fract_y
_atom_site_fract_z
Si Si1 0.110061 0.308141 0.153526
Si Si2 0.747779 0.000000 0.676856
Si Si3 0.237276 0.276377 0.255465
Si Si4 0.088220 0.853103 0.975288
Si Si5 0.404095 0.000000 0.040302
Si Si6 0.803100 0.500000 0.537632
Si Si7 0.992217 0.500000 0.367791
O O1 0.188508 0.307473 0.175111
O O2 0.118093 0.387389 0.028835
O O3 0.037850 0.378841 0.279737
O O4 0.093719 0.175103 0.108925
O O5 0.781698 0.866644 0.694898
O O6 0.751748 0.000000 0.534458
O O7 0.654576 0.000000 0.802360
O O8 0.333895 0.299266 0.156468
O O9 0.210230 0.377215 0.373379
O O10 0.090866 0.000000 0.953732
O O11 0.000000 0.804263 0.000000
O O12 0.500000 0.000000 0.000000
O O13 0.896380 0.500000 0.418117
O O14 0.000000 0.500000 0.500000
#
# Coordination Sequence:
#
# PCOD9220895 Si02
#       7
#     8   4   8   8   4   4   4
#     4  11  23  40  72 100 135 169 224 295 338 401
#     4  12  27  39  66 100 138 181 232 282 327 421
#     4  12  25  44  70 101 140 182 232 279 352 410
#     4  11  25  42  66 101 138 182 221 281 355 411
#     4  11  22  39  66 108 128 168 231 290 338 387
#     4  12  25  49  69  95 139 186 228 284 343 415
#     4  11  22  43  72  99 124 176 231 277 343 403
#
# _framework density 19.960533000000002
#
# number of rings (size 3 to 8) (size 9 to 14) (size 15 to 20)
#    0.000    0.600    5.000    3.600    4.200    0.000 
#    0.000    0.000    0.000    1.800    0.000    0.000 
#    0.000    0.000    0.000    0.000    0.000    0.000 
#
# Total GULP energy -111629.436480 kJ/mol
# GULP energy per Si atom -5581.471824 kJ/mol
# Density = 1.991510 g / cm^3
# Si number density = 19.960533 Si / 1000 Ang^3
#
#
#
# Elastic Constant Matrix: (Units=GPa)
#
#
# Indices 1 2 3 4 5 6 
#
# 1 110.5575 28.9868 30.3977 0.0000 9.8684 0.0000
# 2 28.9868 120.0928 28.2222 0.0000 4.0832 0.0000
# 3 30.3977 28.2222 82.6861 0.0000 13.4844 0.0000
# 4 0.0000 0.0000 0.0000 15.7992 0.0000 16.4624
# 5 9.8684 4.0832 13.4844 0.0000 40.7659 0.0000
# 6 0.0000 0.0000 0.0000 16.4624 0.0000 14.6576
#
#
#
# Elastic Compliance Matrix: (Units=1/GPa)
#
#
# Indices 1 2 3 4 5 6 
#
# 1 0.010460 -0.001769 -0.003021 0.000000 -0.001356 0.000000
# 2 -0.001769 0.009353 -0.002599 0.000000 0.000351 0.000000
# 3 -0.003021 -0.002599 0.014724 0.000000 -0.003879 0.000000
# 4 0.000000 0.000000 0.000000 -0.371726 0.000000 0.417496
# 5 -0.001356 0.000351 -0.003879 0.000000 0.026106 0.000000
# 6 0.000000 0.000000 0.000000 0.417496 0.000000 -0.400677
#
#
# Mechanical properties :
#
#
# Convention : Reuss Voigt Hill
#
# Bulk Modulus (GPa) = 50.60800 54.28332 52.44566
# Shear Modulus (GPa) = -7.24223 29.29318 11.02548
#
# Velocity S-wave (km/s) = -1.90687 3.83502 2.35279
# Velocity P-wave (km/s) = 4.53441 6.84575 5.80625
#
# Compressibility (1/GPa) = 0.01975972
#
# Stress axis : x y z
#
# Youngs Moduli (GPa) = 95.59867 106.92063 67.91569
#
# Poissons Ratio (x) = 0.18913 0.20515
# Poissons Ratio (y) = 0.16910 0.17653
# Poissons Ratio (z) = 0.28877 0.27791
#
# Static dielectric constant tensor:
#      x y z
#    x 1.716250 0.000000 0.002270 
#    y 0.000000 1.925620 0.000000 
#    z 0.002270 0.000000 1.685740 
# 
# From -- ./inp_files/153368.got.cif
#   From: 2010.05.17/outbox.cif.g08.bks.cpg/sg12_77_cif.got.tgz:153368.got - 2010.06.03 13:09:07.
