data_PCOD9220338
_publ_section_title
;
Structure prediction by ZEFSAII (Michael W. Deem and Ramdas Pophale) SiO2 
 PCOD9220338
Probable space group: C 2/M
;
_chemical_formula_sum "Si O2"
_cell_formula_units_Z 58
_cell_length_a 23.038153
_cell_length_b 17.940093
_cell_length_c 12.525053
_cell_angle_alpha 90.000000
_cell_angle_beta 144.924967
_cell_angle_gamma 90.000000
_cell_volume 2974.776463
_symmetry_space_group_name_H-M "C 2/M"
_symmetry_group_IT_number 12
_symmetry_cell_setting 'monoclinic'
loop_
_space_group_symop_operation_xyz
x,y,z
-x,y,-z
-x,-y,-z
x,-y,z
1/2+x,1/2+y,z
1/2-x,1/2+y,-z
1/2-x,1/2-y,-z
1/2+x,1/2-y,z
loop_
_atom_site_type_symbol
_atom_site_label
_atom_site_fract_x
_atom_site_fract_y
_atom_site_fract_z
Si Si1 0.331494 0.799917 0.059838
Si Si2 0.537687 0.270782 0.298333
Si Si3 0.500000 0.000000 0.000000
Si Si4 0.747138 0.627720 0.300808
Si Si5 0.625927 0.128286 0.305188
Si Si6 0.242825 0.704115 0.290522
Si Si7 0.620021 0.086454 0.691314
Si Si8 0.467613 0.580591 0.074074
O O1 0.439190 0.757881 0.212863
O O2 0.346543 0.874754 0.149555
O O3 0.250000 0.750000 0.000000
O O4 0.293273 0.814487 0.882406
O O5 0.571397 0.202606 0.270761
O O6 0.636365 0.290853 0.516095
O O7 0.508364 0.346611 0.193885
O O8 0.548498 0.065747 0.151037
O O9 0.800004 0.600793 0.488428
O O10 0.707624 0.711316 0.262146
O O11 0.830292 0.628938 0.333257
O O12 0.653396 0.583378 0.113287
O O13 0.693752 0.151814 0.305864
O O14 0.500000 0.091062 0.500000
O O15 0.649519 0.000000 0.730914
O O16 0.501360 0.500000 0.169325
O O17 0.500000 0.584323 0.000000
#
# Coordination Sequence:
#
# PCOD9220338 Si02
#       8
#     8   8   2   8   8   8   8   8
#     4  12  24  41  65  97 131 175 230 276 334 404
#     4  11  23  43  70  93 138 176 226 280 339 413
#     4  12  28  40  64 104 150 178 212 282 352 426
#     4  11  21  42  69  92 129 171 221 275 331 400
#     4  11  25  43  65 101 137 174 219 268 352 416
#     4  11  22  43  68  96 132 180 220 279 335 424
#     4  11  24  42  64  94 129 170 226 281 337 394
#     4  11  22  36  63  97 128 165 218 271 327 395
#
# _framework density 19.497263
#
# number of rings (size 3 to 8) (size 9 to 14) (size 15 to 20)
#    0.000    0.828    2.759    6.207    2.897    0.000 
#    8.690    0.000    0.000    0.000    0.000    3.862 
#    0.000    0.000    0.000    0.000    0.000    0.000 
#
# Total GULP energy -161810.544537 kJ/mol
# GULP energy per Si atom -5579.673950 kJ/mol
# Density = 1.945289 g / cm^3
# Si number density = 19.497263 Si / 1000 Ang^3
#
#
#
# Elastic Constant Matrix: (Units=GPa)
#
#
# Indices 1 2 3 4 5 6 
#
# 1 87.8572 -3.0641 23.8877 0.0000 8.1215 0.0000
# 2 -3.0641 94.3068 33.8044 0.0000 -4.1571 0.0000
# 3 23.8877 33.8044 108.7088 0.0000 -14.7333 0.0000
# 4 0.0000 0.0000 0.0000 37.4135 0.0000 -11.7691
# 5 8.1215 -4.1571 -14.7333 0.0000 36.9718 0.0000
# 6 0.0000 0.0000 0.0000 -11.7691 0.0000 10.2740
#
#
#
# Elastic Compliance Matrix: (Units=1/GPa)
#
#
# Indices 1 2 3 4 5 6 
#
# 1 0.012892 0.001636 -0.003911 0.000000 -0.004207 0.000000
# 2 0.001636 0.012142 -0.004227 0.000000 -0.000679 0.000000
# 3 -0.003911 -0.004227 0.012077 0.000000 0.005197 0.000000
# 4 0.000000 0.000000 0.000000 0.041785 0.000000 0.047866
# 5 -0.004207 -0.000679 0.005197 0.000000 0.029966 0.000000
# 6 0.000000 0.000000 0.000000 0.047866 0.000000 0.152164
#
#
# Mechanical properties :
#
#
# Convention : Reuss Voigt Hill
#
# Bulk Modulus (GPa) = 41.48578 44.45876 42.97227
# Shear Modulus (GPa) = 17.72625 32.68152 25.20389
#
# Velocity S-wave (km/s) = 3.01851 4.09860 3.59930
# Velocity P-wave (km/s) = 5.78554 6.72682 6.27386
#
# Compressibility (1/GPa) = 0.02410465
#
# Stress axis : x y z
#
# Youngs Moduli (GPa) = 77.57040 82.35791 82.80079
#
# Poissons Ratio (x) = -0.13470 0.32388
# Poissons Ratio (y) = -0.12687 0.35001
# Poissons Ratio (z) = 0.30342 0.34813
#
# Static dielectric constant tensor:
#      x y z
#    x 1.657400 0.000000 0.008940 
#    y 0.000000 1.689610 0.000000 
#    z 0.008940 0.000000 1.682950 
# 
# From -- ./inp_files/168985.got.cif
#   From: 2010.05.17/outbox.cif.g08.bks.cpg/sg12_85_cif.got.tgz:168985.got - 2010.06.03 13:09:07.
