data_PCOD9220249
_publ_section_title
;
Structure prediction by ZEFSAII (Michael W. Deem and Ramdas Pophale) SiO2 
 PCOD9220249
Probable space group: C 2/M
;
_chemical_formula_sum "Si O2"
_cell_formula_units_Z 40
_cell_length_a 11.235218
_cell_length_b 15.553599
_cell_length_c 11.085094
_cell_angle_alpha 90.000000
_cell_angle_beta 76.689933
_cell_angle_gamma 90.000000
_cell_volume 1885.065341
_symmetry_space_group_name_H-M "C 2/M"
_symmetry_group_IT_number 12
_symmetry_cell_setting 'monoclinic'
loop_
_space_group_symop_operation_xyz
x,y,z
-x,y,-z
-x,-y,-z
x,-y,z
1/2+x,1/2+y,z
1/2-x,1/2+y,-z
1/2-x,1/2-y,-z
1/2+x,1/2-y,z
loop_
_atom_site_type_symbol
_atom_site_label
_atom_site_fract_x
_atom_site_fract_y
_atom_site_fract_z
Si Si1 0.855924 0.599336 0.015075
Si Si2 0.546102 0.599899 0.857173
Si Si3 0.650761 0.500000 0.462780
Si Si4 0.174259 0.143420 0.264572
Si Si5 0.305244 0.164843 0.765954
Si Si6 0.128137 0.500000 0.397572
O O1 0.814489 0.500000 0.005020
O O2 0.826169 0.654918 0.904414
O O3 0.790219 0.633855 0.149400
O O4 0.000000 0.598963 0.000000
O O5 0.584276 0.500000 0.859704
O O6 0.437360 0.607121 0.788299
O O7 0.659980 0.654151 0.785223
O O8 0.500000 0.628256 0.000000
O O9 0.500000 0.500000 0.500000
O O10 0.686063 0.584673 0.378509
O O11 0.743218 0.500000 0.555807
O O12 0.152957 0.243605 0.292541
O O13 0.368429 0.084974 0.685650
O O14 0.000000 0.500000 0.500000
#
# Coordination Sequence:
#
# PCOD9220249 Si02
#       6
#     8   8   4   8   8   4
#     4  11  23  41  69 105 145 178 215 279 369 433
#     4  11  21  40  69 104 143 180 223 273 350 431
#     4  12  28  53  72  97 136 190 256 300 342 406
#     4  12  26  42  75 106 138 181 233 292 354 420
#     4  12  26  44  70 107 143 179 231 291 355 423
#     4  12  30  49  72  95 136 198 242 294 350 414
#
# _framework density 21.219422000000002
#
# number of rings (size 3 to 8) (size 9 to 14) (size 15 to 20)
#    0.000    0.400    6.000    1.800    5.600    1.600 
#    0.000    0.000    0.000    0.000    0.000    0.000 
#    0.000    0.000    0.000    0.000    0.000    0.000 
#
# Total GULP energy -111927.993582 kJ/mol
# GULP energy per Si atom -5596.399679 kJ/mol
# Density = 2.117113 g / cm^3
# Si number density = 21.219422 Si / 1000 Ang^3
#
#
#
# Elastic Constant Matrix: (Units=GPa)
#
#
# Indices 1 2 3 4 5 6 
#
# 1 70.4259 -5.8036 7.9795 0.0000 -12.1770 0.0000
# 2 -5.8036 143.2057 36.0526 0.0000 -6.8376 0.0000
# 3 7.9795 36.0526 82.3940 0.0000 -13.6112 0.0000
# 4 0.0000 0.0000 0.0000 -0.8529 0.0000 -13.6992
# 5 -12.1770 -6.8376 -13.6112 0.0000 29.6418 0.0000
# 6 0.0000 0.0000 0.0000 -13.6992 0.0000 32.3742
#
#
#
# Elastic Compliance Matrix: (Units=1/GPa)
#
#
# Indices 1 2 3 4 5 6 
#
# 1 0.015475 0.001172 -0.000992 0.000000 0.006172 0.000000
# 2 0.001172 0.007938 -0.003468 0.000000 0.000720 0.000000
# 3 -0.000992 -0.003468 0.014663 0.000000 0.005526 0.000000
# 4 0.000000 0.000000 0.000000 -0.150382 0.000000 -0.063634
# 5 0.006172 0.000720 0.005526 0.000000 0.038975 0.000000
# 6 0.000000 0.000000 0.000000 -0.063634 0.000000 0.003962
#
#
# Mechanical properties :
#
#
# Convention : Reuss Voigt Hill
#
# Bulk Modulus (GPa) = 31.74566 41.38695 36.56631
# Shear Modulus (GPa) = -95.61614 29.41908 -33.09853
#
# Velocity S-wave (km/s) = -6.72001 3.72751 -3.95374
# Velocity P-wave (km/s) = 6.72445 6.17028 1.89021
#
# Compressibility (1/GPa) = 0.03150037
#
# Stress axis : x y z
#
# Youngs Moduli (GPa) = 64.61846 125.97850 68.19838
#
# Poissons Ratio (x) = -0.14759 0.06763
# Poissons Ratio (y) = -0.07570 0.23650
# Poissons Ratio (z) = 0.06408 0.43687
#
# Static dielectric constant tensor:
#      x y z
#    x 1.831670 0.000000 0.001050 
#    y 0.000000 1.756810 0.000000 
#    z 0.001050 0.000000 1.766690 
# 
# From -- ./inp_files/129636.got.cif
#   From: 2010.05.17/outbox.cif.g08.bks.cpg/sg12_65_cif.got.tgz:129636.got - 2010.06.03 13:09:07.
