data_PCOD9220149
_publ_section_title
;
Structure prediction by ZEFSAII (Michael W. Deem and Ramdas Pophale) SiO2 
 PCOD9220149
Probable space group: C 2/M
;
_chemical_formula_sum "Si O2"
_cell_formula_units_Z 50
_cell_length_a 11.834419
_cell_length_b 27.568350
_cell_length_c 9.378820
_cell_angle_alpha 90.000000
_cell_angle_beta 127.711159
_cell_angle_gamma 90.000000
_cell_volume 2420.693060
_symmetry_space_group_name_H-M "C 2/M"
_symmetry_group_IT_number 12
_symmetry_cell_setting 'monoclinic'
loop_
_space_group_symop_operation_xyz
x,y,z
-x,y,-z
-x,-y,-z
x,-y,z
1/2+x,1/2+y,z
1/2-x,1/2+y,-z
1/2-x,1/2-y,-z
1/2+x,1/2-y,z
loop_
_atom_site_type_symbol
_atom_site_label
_atom_site_fract_x
_atom_site_fract_y
_atom_site_fract_z
Si Si1 0.100355 0.347759 0.211645
Si Si2 0.395820 0.170765 0.303834
Si Si3 0.601371 0.670065 0.950196
Si Si4 0.857308 0.219296 0.307332
Si Si5 0.235838 0.054712 0.653576
Si Si6 0.500000 0.500000 0.000000
Si Si7 0.968288 0.928036 0.241387
O O1 0.228655 0.312286 0.268680
O O2 0.160314 0.400645 0.299911
O O3 0.002654 0.323339 0.255049
O O4 0.000000 0.355721 0.000000
O O5 0.500000 0.145882 0.500000
O O6 0.346361 0.223177 0.324600
O O7 0.248359 0.148876 0.131475
O O8 0.634246 0.710066 0.855923
O O9 0.527317 0.627603 0.802885
O O10 0.500000 0.686900 0.000000
O O11 0.000000 0.203118 0.500000
O O12 0.165464 0.063476 0.755508
O O13 0.106277 0.057817 0.440768
O O14 0.296292 0.000000 0.695095
O O15 0.465569 0.458538 0.095435
#
# Coordination Sequence:
#
# PCOD9220149 Si02
#       7
#     8   8   8   8   8   2   8
#     4  12  25  44  69  97 139 180 226 285 334 409
#     4  11  28  44  64 100 140 180 222 278 349 406
#     4  12  25  40  67 100 135 175 221 283 337 396
#     4  11  25  44  69  96 128 181 235 276 329 408
#     4  11  22  41  69  95 135 177 229 272 336 402
#     4  12  20  34  60 100 138 154 210 288 334 370
#     4  11  21  39  63 102 132 167 223 282 327 393
#
# _framework density 20.655242000000001
#
# number of rings (size 3 to 8) (size 9 to 14) (size 15 to 20)
#    0.000    0.640    5.600    1.920    6.720    1.600 
#    0.000    0.000    0.000    0.480    0.000    0.000 
#    0.000    0.000    0.000    0.000    0.000    0.000 
#
# Total GULP energy -139421.608390 kJ/mol
# GULP energy per Si atom -5576.864336 kJ/mol
# Density = 2.060823 g / cm^3
# Si number density = 20.655242 Si / 1000 Ang^3
#
#
#
# Elastic Constant Matrix: (Units=GPa)
#
#
# Indices 1 2 3 4 5 6 
#
# 1 92.8370 6.2688 24.8841 0.0000 1.5938 0.0000
# 2 6.2688 69.0152 -4.0322 0.0000 6.8473 0.0000
# 3 24.8841 -4.0322 79.7518 0.0000 -2.0189 0.0000
# 4 0.0000 0.0000 0.0000 31.3102 0.0000 -6.8771
# 5 1.5938 6.8473 -2.0189 0.0000 32.4056 0.0000
# 6 0.0000 0.0000 0.0000 -6.8771 0.0000 20.6264
#
#
#
# Elastic Compliance Matrix: (Units=1/GPa)
#
#
# Indices 1 2 3 4 5 6 
#
# 1 0.011879 -0.001245 -0.003784 0.000000 -0.000557 0.000000
# 2 -0.001245 0.014966 0.001068 0.000000 -0.003035 0.000000
# 3 -0.003784 0.001068 0.013794 0.000000 0.000820 0.000000
# 4 0.000000 0.000000 0.000000 0.034462 0.000000 0.011490
# 5 -0.000557 -0.003035 0.000820 0.000000 0.031578 0.000000
# 6 0.000000 0.000000 0.000000 0.011490 0.000000 0.052313
#
#
# Mechanical properties :
#
#
# Convention : Reuss Voigt Hill
#
# Bulk Modulus (GPa) = 30.56296 32.87170 31.71733
# Shear Modulus (GPa) = 28.11836 31.16733 29.64285
#
# Velocity S-wave (km/s) = 3.69361 3.88871 3.79241
# Velocity P-wave (km/s) = 5.74623 6.00931 5.87924
#
# Compressibility (1/GPa) = 0.03271934
#
# Stress axis : x y z
#
# Youngs Moduli (GPa) = 84.17965 66.81759 72.49411
#
# Poissons Ratio (x) = 0.08318 0.27429
# Poissons Ratio (y) = 0.10479 -0.07744
# Poissons Ratio (z) = 0.31850 -0.07138
#
# Static dielectric constant tensor:
#      x y z
#    x 1.695660 0.000000 0.020800 
#    y 0.000000 1.754710 0.000000 
#    z 0.020800 0.000000 1.763620 
# 
# From -- ./inp_files/54362.got.cif
#   From: 2010.05.17/outbox.cif.g08.bks.cpg/sg12_28_cif.got.tgz:54362.got - 2010.06.03 13:09:07.
