data_PCOD9220121
_publ_section_title
;
Structure prediction by ZEFSAII (Michael W. Deem and Ramdas Pophale) SiO2 
 PCOD9220121
Probable space group: C 2/M
;
_chemical_formula_sum "Si O2"
_cell_formula_units_Z 50
_cell_length_a 14.241523
_cell_length_b 18.439917
_cell_length_c 11.209546
_cell_angle_alpha 90.000000
_cell_angle_beta 123.152493
_cell_angle_gamma 90.000000
_cell_volume 2464.574772
_symmetry_space_group_name_H-M "C 2/M"
_symmetry_group_IT_number 12
_symmetry_cell_setting 'monoclinic'
loop_
_space_group_symop_operation_xyz
x,y,z
-x,y,-z
-x,-y,-z
x,-y,z
1/2+x,1/2+y,z
1/2-x,1/2+y,-z
1/2-x,1/2-y,-z
1/2+x,1/2-y,z
loop_
_atom_site_type_symbol
_atom_site_label
_atom_site_fract_x
_atom_site_fract_y
_atom_site_fract_z
Si Si1 0.129468 0.085515 0.588963
Si Si2 0.278323 0.330821 0.566347
Si Si3 0.941392 0.636899 0.129840
Si Si4 0.111786 0.682441 0.647040
Si Si5 0.993650 0.208712 0.858142
Si Si6 0.292762 0.320639 0.152919
Si Si7 0.000000 0.500000 0.000000
O O1 0.201296 0.119910 0.533468
O O2 0.183710 0.109906 0.749897
O O3 0.000000 0.111931 0.500000
O O4 0.128196 0.000000 0.575216
O O5 0.250000 0.250000 0.500000
O O6 0.184185 0.355275 0.594580
O O7 0.394371 0.328892 0.718702
O O8 0.920684 0.635700 0.258679
O O9 0.025506 0.704482 0.167950
O O10 0.978187 0.564715 0.087410
O O11 0.826441 0.667359 0.990436
O O12 0.186428 0.749944 0.748823
O O13 0.000000 0.709054 0.500000
O O14 0.110125 0.187687 0.877132
O O15 0.000000 0.189517 0.000000
#
# Coordination Sequence:
#
# PCOD9220121 Si02
#       7
#     8   8   8   8   8   8   2
#     4  11  24  43  65  99 140 173 218 272 340 411
#     4  12  22  38  71  99 131 174 222 279 338 398
#     4  11  25  42  64  95 137 179 224 276 333 407
#     4  11  23  42  69  99 133 170 228 289 334 391
#     4  11  21  38  66  98 125 163 226 279 334 388
#     4  11  21  40  66  99 132 173 215 283 329 396
#     4  12  28  48  66  92 140 184 232 268 354 424
#
# _framework density 20.287475000000001
#
# number of rings (size 3 to 8) (size 9 to 14) (size 15 to 20)
#    0.000    0.800    4.000    6.240    1.120    1.280 
#    1.440    0.400    0.000    0.960    0.000    0.000 
#    0.000    0.000    0.000    0.000    0.000    0.000 
#
# Total GULP energy -139509.527224 kJ/mol
# GULP energy per Si atom -5580.381089 kJ/mol
# Density = 2.024130 g / cm^3
# Si number density = 20.287475 Si / 1000 Ang^3
#
#
#
# Elastic Constant Matrix: (Units=GPa)
#
#
# Indices 1 2 3 4 5 6 
#
# 1 79.1891 34.0556 35.6372 0.0000 -36.8978 0.0000
# 2 34.0556 83.5420 23.8694 0.0000 -18.0510 0.0000
# 3 35.6372 23.8694 106.7370 0.0000 -19.5415 0.0000
# 4 0.0000 0.0000 0.0000 12.2064 0.0000 4.6081
# 5 -36.8978 -18.0510 -19.5415 0.0000 47.5924 0.0000
# 6 0.0000 0.0000 0.0000 4.6081 0.0000 7.6676
#
#
#
# Elastic Compliance Matrix: (Units=1/GPa)
#
#
# Indices 1 2 3 4 5 6 
#
# 1 0.023483 -0.005286 -0.003992 0.000000 0.014562 0.000000
# 2 -0.005286 0.014712 -0.001356 0.000000 0.000925 0.000000
# 3 -0.003992 -0.001356 0.011185 0.000000 0.000983 0.000000
# 4 0.000000 0.000000 0.000000 0.105966 0.000000 -0.063684
# 5 0.014562 0.000925 0.000983 0.000000 0.033056 0.000000
# 6 0.000000 0.000000 0.000000 -0.063684 0.000000 0.168692
#
#
# Mechanical properties :
#
#
# Convention : Reuss Voigt Hill
#
# Bulk Modulus (GPa) = 35.57169 50.73248 43.15208
# Shear Modulus (GPa) = 12.89547 25.22034 19.05790
#
# Velocity S-wave (km/s) = 2.52392 3.52966 3.06828
# Velocity P-wave (km/s) = 5.10543 6.45541 5.81970
#
# Compressibility (1/GPa) = 0.02811224
#
# Stress axis : x y z
#
# Youngs Moduli (GPa) = 42.58418 67.97153 89.40560
#
# Poissons Ratio (x) = 0.35927 0.35694
# Poissons Ratio (y) = 0.22508 0.12122
# Poissons Ratio (z) = 0.17001 0.09216
#
# Static dielectric constant tensor:
#      x y z
#    x 1.755360 0.000000 0.101620 
#    y 0.000000 1.699360 0.000000 
#    z 0.101620 0.000000 1.203760 
# 
# From -- ./inp_files/145756.got.cif
#   From: 2010.05.17/outbox.cif.g08.bks.cpg/sg12_73_cif.got.tgz:145756.got - 2010.06.03 13:09:07.
