data_PCOD9220113
_publ_section_title
;
Structure prediction by ZEFSAII (Michael W. Deem and Ramdas Pophale) SiO2 
 PCOD9220113
Probable space group: C 2/M
;
_chemical_formula_sum "Si O2"
_cell_formula_units_Z 56
_cell_length_a 21.057578
_cell_length_b 18.485175
_cell_length_c 19.477176
_cell_angle_alpha 90.000000
_cell_angle_beta 159.837625
_cell_angle_gamma 90.000000
_cell_volume 2613.222383
_symmetry_space_group_name_H-M "C 2/M"
_symmetry_group_IT_number 12
_symmetry_cell_setting 'monoclinic'
loop_
_space_group_symop_operation_xyz
x,y,z
-x,y,-z
-x,-y,-z
x,-y,z
1/2+x,1/2+y,z
1/2-x,1/2+y,-z
1/2-x,1/2-y,-z
1/2+x,1/2-y,z
loop_
_atom_site_type_symbol
_atom_site_label
_atom_site_fract_x
_atom_site_fract_y
_atom_site_fract_z
Si Si1 0.645280 0.832400 0.501792
Si Si2 0.160729 0.302087 0.069761
Si Si3 0.778875 0.582769 0.288842
Si Si4 0.036255 0.082687 0.651974
Si Si5 0.740887 0.691296 0.677745
Si Si6 0.782942 0.146318 0.918860
Si Si7 0.901437 0.082135 0.670803
O O1 0.747558 0.874257 0.667894
O O2 0.656262 0.749732 0.538844
O O3 0.433641 0.856999 0.283530
O O4 0.753481 0.857966 0.544434
O O5 0.283090 0.367343 0.166290
O O6 0.248127 0.280244 0.232829
O O7 0.164358 0.230840 0.026864
O O8 0.950040 0.323554 0.868149
O O9 0.722102 0.500000 0.238739
O O10 0.691231 0.617614 0.132552
O O11 0.000000 0.584463 0.500000
O O12 0.883717 0.120528 0.449704
O O13 0.947457 0.084803 0.637541
O O14 0.075671 0.000000 0.673564
O O15 0.910797 0.100642 0.098446
O O16 0.839177 0.000000 0.624963
#
# Coordination Sequence:
#
# PCOD9220113 Si02
#       7
#     8   8   8   8   8   8   8
#     4  11  21  38  64  95 133 171 217 264 319 383
#     4  11  23  42  70 101 130 162 212 278 335 386
#     4   9  18  31  55  91 128 168 209 255 316 376
#     4  11  27  48  68  92 129 175 220 271 330 388
#     4  11  23  42  70 101 130 162 212 278 335 386
#     4  11  21  38  64  95 133 171 217 264 319 383
#     4  11  26  44  62  94 137 180 224 261 307 384
#
# _framework density 21.429480999999999
#
# number of rings (size 3 to 8) (size 9 to 14) (size 15 to 20)
#    0.000    1.286    4.286    1.286    0.000    6.286 
#    0.000    5.714    0.000    0.000    0.000    0.000 
#    0.000    0.000    0.000    0.000    0.000    0.000 
#
# Total GULP energy -156639.845122 kJ/mol
# GULP energy per Si atom -5594.280183 kJ/mol
# Density = 2.138071 g / cm^3
# Si number density = 21.429481 Si / 1000 Ang^3
#
#
#
# Elastic Constant Matrix: (Units=GPa)
#
#
# Indices 1 2 3 4 5 6 
#
# 1 44.1947 7.5453 5.9117 0.0059 11.6168 -0.0061
# 2 7.5453 109.5098 -7.1345 0.0195 5.7839 -0.0082
# 3 5.9117 -7.1345 43.4323 0.0608 8.5874 -0.0147
# 4 0.0059 0.0195 0.0608 13.7042 -0.0133 5.2527
# 5 11.6168 5.7839 8.5874 -0.0133 24.9825 -0.0121
# 6 -0.0061 -0.0082 -0.0147 5.2527 -0.0121 28.0247
#
#
#
# Elastic Compliance Matrix: (Units=1/GPa)
#
#
# Indices 1 2 3 4 5 6 
#
# 1 0.026016 -0.001296 -0.001525 -0.000014 -0.011273 0.000002
# 2 -0.001296 0.009488 0.002200 -0.000028 -0.002350 0.000008
# 3 -0.001525 0.002200 0.025271 -0.000136 -0.008487 0.000035
# 4 -0.000014 -0.000028 -0.000136 0.078619 0.000095 -0.014736
# 5 -0.011273 -0.002350 -0.008487 0.000095 0.048731 -0.000004
# 6 0.000002 0.000008 0.000035 -0.014736 -0.000004 0.038445
#
#
# Mechanical properties :
#
#
# Convention : Reuss Voigt Hill
#
# Bulk Modulus (GPa) = 16.79772 23.30909 20.05341
# Shear Modulus (GPa) = 20.18914 26.06326 23.12620
#
# Velocity S-wave (km/s) = 3.07273 3.49124 3.28865
# Velocity P-wave (km/s) = 4.52156 5.21079 4.87836
#
# Compressibility (1/GPa) = 0.05953187
#
# Stress axis : x y z
#
# Youngs Moduli (GPa) = 38.43841 105.39223 39.57028
#
# Poissons Ratio (x) = 0.13664 0.06035
# Poissons Ratio (y) = 0.04983 -0.08705
# Poissons Ratio (z) = 0.05862 -0.23184
#
# Static dielectric constant tensor:
#      x y z
#    x 1.787280 -0.000010 0.011350 
#    y -0.000010 1.766820 -0.000020 
#    z 0.011350 -0.000020 1.759400 
# 
# From -- ./inp_files/322710.got.cif
#   From: 2010.05.17/outbox.cif.g08.bks.cpg/sg12_162_cif.got.tgz:322710.got - 2010.06.03 13:09:07.
