data_PCOD9220832
_publ_section_title
;
Structure prediction by ZEFSAII (Michael W. Deem and Ramdas Pophale) SiO2 
 PCOD9220832
Probable space group: C 2/M
;
_chemical_formula_sum "Si O2"
_cell_formula_units_Z 40
_cell_length_a 24.346780
_cell_length_b 8.154887
_cell_length_c 8.268214
_cell_angle_alpha 90.000000
_cell_angle_beta 82.736195
_cell_angle_gamma 90.000000
_cell_volume 1628.439776
_symmetry_space_group_name_H-M "C 2/M"
_symmetry_group_IT_number 12
_symmetry_cell_setting 'monoclinic'
loop_
_space_group_symop_operation_xyz
x,y,z
-x,y,-z
-x,-y,-z
x,-y,z
1/2+x,1/2+y,z
1/2-x,1/2+y,-z
1/2-x,1/2-y,-z
1/2+x,1/2-y,z
loop_
_atom_site_type_symbol
_atom_site_label
_atom_site_fract_x
_atom_site_fract_y
_atom_site_fract_z
Si Si1 0.715564 0.312794 0.666587
Si Si2 0.811846 0.815006 0.813526
Si Si3 0.915602 0.302319 0.610125
Si Si4 0.878301 0.309063 0.093198
Si Si5 0.978127 0.301524 0.251871
O O1 0.698678 0.500000 0.650325
O O2 0.750000 0.250000 0.500000
O O3 0.759893 0.299737 0.797139
O O4 0.662359 0.207554 0.736829
O O5 0.857561 0.783524 0.658093
O O6 0.791170 0.000000 0.816082
O O7 0.845980 0.780437 0.962836
O O8 0.908255 0.500000 0.622755
O O9 0.944724 0.265994 0.429621
O O10 0.959314 0.249862 0.733695
O O11 0.883591 0.500000 0.046070
O O12 0.938811 0.243877 0.121698
O O13 0.980296 0.500000 0.235819
#
# Coordination Sequence:
#
# PCOD9220832 Si02
#       5
#     8   8   8   8   8
#     4  12  25  43  65  90 117 151 192 240 292 352
#     4  12  25  40  57  85 121 159 198 244 296 348
#     4   9  17  36  62  88 115 151 197 246 293 350
#     4  11  22  39  61  88 120 158 198 243 294 350
#     4   8  17  34  61  89 115 149 195 243 294 352
#
# _framework density 24.563389000000001
#
# number of rings (size 3 to 8) (size 9 to 14) (size 15 to 20)
#    0.000    1.600    0.000    7.200    0.000    2.400 
#    0.000    9.000    0.000    0.000    0.000    0.000 
#    0.000    0.000    0.000    0.000    0.000    0.000 
#
# Total GULP energy -111967.754396 kJ/mol
# GULP energy per Si atom -5598.387720 kJ/mol
# Density = 2.450748 g / cm^3
# Si number density = 24.563389 Si / 1000 Ang^3
#
#
#
# Elastic Constant Matrix: (Units=GPa)
#
#
# Indices 1 2 3 4 5 6 
#
# 1 119.1706 -5.0217 3.8376 0.0000 19.1667 0.0000
# 2 -5.0217 53.6575 3.1171 0.0000 -0.7727 0.0000
# 3 3.8376 3.1171 69.7426 0.0000 14.2181 0.0000
# 4 0.0000 0.0000 0.0000 28.6126 0.0000 -2.1580
# 5 19.1667 -0.7727 14.2181 0.0000 45.1020 0.0000
# 6 0.0000 0.0000 0.0000 -2.1580 0.0000 14.5498
#
#
#
# Elastic Compliance Matrix: (Units=1/GPa)
#
#
# Indices 1 2 3 4 5 6 
#
# 1 0.009045 0.000775 0.000266 0.000000 -0.003914 0.000000
# 2 0.000775 0.018768 -0.000940 0.000000 0.000289 0.000000
# 3 0.000266 -0.000940 0.015381 0.000000 -0.004978 0.000000
# 4 0.000000 0.000000 0.000000 0.035345 0.000000 0.005242
# 5 -0.003914 0.000289 -0.004978 0.000000 0.025409 0.000000
# 6 0.000000 0.000000 0.000000 0.005242 0.000000 0.069507
#
#
# Mechanical properties :
#
#
# Convention : Reuss Voigt Hill
#
# Bulk Modulus (GPa) = 23.04484 27.38186 25.21335
# Shear Modulus (GPa) = 26.63544 33.69538 30.16541
#
# Velocity S-wave (km/s) = 3.29653 3.70776 3.50818
# Velocity P-wave (km/s) = 4.88790 5.43154 5.16688
#
# Compressibility (1/GPa) = 0.04339366
#
# Stress axis : x y z
#
# Youngs Moduli (GPa) = 110.55869 53.28214 65.01689
#
# Poissons Ratio (x) = -0.04128 -0.01727
# Poissons Ratio (y) = -0.08565 0.06114
# Poissons Ratio (z) = -0.02937 0.05010
#
# Static dielectric constant tensor:
#      x y z
#    x 1.918380 0.000000 0.018170 
#    y 0.000000 1.854380 0.000000 
#    z 0.018170 0.000000 2.060960 
# 
# From -- ./inp_files/92771.got.cif
#   From: 2010.05.17/outbox.cif.g08.bks.cpg/sg12_47_cif.got.tgz:92771.got - 2010.06.03 13:09:07.
