data_PCOD9220724
_publ_section_title
;
Structure prediction by ZEFSAII (Michael W. Deem and Ramdas Pophale) SiO2 
 PCOD9220724
Probable space group: C 2/M
;
_chemical_formula_sum "Si O2"
_cell_formula_units_Z 40
_cell_length_a 17.078371
_cell_length_b 9.720890
_cell_length_c 22.162014
_cell_angle_alpha 90.000000
_cell_angle_beta 31.143265
_cell_angle_gamma 90.000000
_cell_volume 1902.844153
_symmetry_space_group_name_H-M "C 2/M"
_symmetry_group_IT_number 12
_symmetry_cell_setting 'monoclinic'
loop_
_space_group_symop_operation_xyz
x,y,z
-x,y,-z
-x,-y,-z
x,-y,z
1/2+x,1/2+y,z
1/2-x,1/2+y,-z
1/2-x,1/2-y,-z
1/2+x,1/2-y,z
loop_
_atom_site_type_symbol
_atom_site_label
_atom_site_fract_x
_atom_site_fract_y
_atom_site_fract_z
Si Si1 0.052859 0.652442 0.570380
Si Si2 0.490401 0.841957 0.176513
Si Si3 0.622900 0.835045 0.965644
Si Si4 0.526961 0.337386 0.271494
Si Si5 0.159308 0.237454 0.382384
O O1 0.066519 0.500000 0.586797
O O2 0.064013 0.767175 0.614003
O O3 0.892816 0.671739 0.640153
O O4 0.167981 0.675095 0.438727
O O5 0.502597 0.744869 0.225984
O O6 0.314832 0.839141 0.270738
O O7 0.531424 0.000000 0.164208
O O8 0.590733 0.786748 0.054889
O O9 0.794473 0.816044 0.832234
O O10 0.598447 0.000000 0.985632
O O11 0.500000 0.778425 0.000000
O O12 0.497789 0.500000 0.285853
O O13 0.000000 0.156089 0.500000
#
# Coordination Sequence:
#
# PCOD9220724 Si02
#       5
#     8   8   8   8   8
#     4   9  19  38  62  84 114 153 193 237 289 344
#     4  11  22  38  61  86 118 157 193 237 289 345
#     4   9  19  37  61  86 114 149 191 239 291 343
#     4  11  23  37  57  88 122 154 192 239 288 344
#     4   8  20  37  60  88 110 151 191 245 286 340
#
# _framework density 21.021165
#
# number of rings (size 3 to 8) (size 9 to 14) (size 15 to 20)
#    1.200    1.000    0.000    3.600    0.000    6.000 
#    0.000    1.000    0.000    4.200    0.000    0.000 
#    0.000    0.000    0.000    0.000    0.000    0.000 
#
# Total GULP energy -111415.580518 kJ/mol
# GULP energy per Si atom -5570.779026 kJ/mol
# Density = 2.097332 g / cm^3
# Si number density = 21.021165 Si / 1000 Ang^3
#
#
#
# Elastic Constant Matrix: (Units=GPa)
#
#
# Indices 1 2 3 4 5 6 
#
# 1 68.4478 29.1642 17.0841 0.0000 15.5296 0.0000
# 2 29.1642 99.9655 21.9162 -0.0003 12.2319 -0.0002
# 3 17.0841 21.9162 48.3687 -0.0003 9.2715 -0.0002
# 4 0.0000 -0.0003 -0.0003 15.4650 0.0000 5.0201
# 5 15.5296 12.2319 9.2715 0.0000 34.3827 0.0000
# 6 0.0000 -0.0002 -0.0002 5.0201 0.0000 49.4632
#
#
#
# Elastic Compliance Matrix: (Units=1/GPa)
#
#
# Indices 1 2 3 4 5 6 
#
# 1 0.018532 -0.003873 -0.003638 0.000000 -0.006011 0.000000
# 2 -0.003873 0.012166 -0.003849 0.000000 -0.001541 0.000000
# 3 -0.003638 -0.003849 0.024387 0.000000 -0.003563 0.000000
# 4 0.000000 0.000000 0.000000 0.066865 0.000000 -0.006786
# 5 -0.006011 -0.001541 -0.003563 0.000000 0.033309 0.000000
# 6 0.000000 0.000000 0.000000 -0.006786 0.000000 0.020906
#
#
# Mechanical properties :
#
#
# Convention : Reuss Voigt Hill
#
# Bulk Modulus (GPa) = 30.89936 39.23456 35.06696
# Shear Modulus (GPa) = 23.84668 29.77001 26.80835
#
# Velocity S-wave (km/s) = 3.37176 3.76732 3.57501
# Velocity P-wave (km/s) = 5.46712 6.13420 5.81024
#
# Compressibility (1/GPa) = 0.03236313
#
# Stress axis : x y z
#
# Youngs Moduli (GPa) = 53.96081 82.19729 41.00607
#
# Poissons Ratio (x) = 0.31838 0.14919
# Poissons Ratio (y) = 0.20901 0.15783
# Poissons Ratio (z) = 0.19633 0.31638
#
# Static dielectric constant tensor:
#      x y z
#    x 1.789280 0.000000 -0.022480 
#    y 0.000000 1.728170 0.000000 
#    z -0.022480 0.000000 1.782460 
# 
# From -- ./inp_files/162590.got.cif
#   From: 2010.05.17/outbox.cif.g08.bks.cpg/sg12_82_cif.got.tgz:162590.got - 2010.06.03 13:09:07.
