data_PCOD9220265
_publ_section_title
;
Structure prediction by ZEFSAII (Michael W. Deem and Ramdas Pophale) SiO2 
 PCOD9220265
Probable space group: C 2/M
;
_chemical_formula_sum "Si O2"
_cell_formula_units_Z 40
_cell_length_a 13.651643
_cell_length_b 23.530195
_cell_length_c 9.713694
_cell_angle_alpha 90.000000
_cell_angle_beta 141.033689
_cell_angle_gamma 90.000000
_cell_volume 1962.235553
_symmetry_space_group_name_H-M "C 2/M"
_symmetry_group_IT_number 12
_symmetry_cell_setting 'monoclinic'
loop_
_space_group_symop_operation_xyz
x,y,z
-x,y,-z
-x,-y,-z
x,-y,z
1/2+x,1/2+y,z
1/2-x,1/2+y,-z
1/2-x,1/2-y,-z
1/2+x,1/2-y,z
loop_
_atom_site_type_symbol
_atom_site_label
_atom_site_fract_x
_atom_site_fract_y
_atom_site_fract_z
Si Si1 0.915279 0.629612 0.264956
Si Si2 0.658253 0.063715 0.083531
Si Si3 0.569483 0.212901 0.219596
Si Si4 0.128118 0.841783 0.538360
Si Si5 0.940599 0.159300 0.080765
O O1 0.886576 0.580197 0.121767
O O2 0.000000 0.614316 0.500000
O O3 0.017070 0.675637 0.291663
O O4 0.744008 0.654516 0.108863
O O5 0.724119 0.000000 0.161370
O O6 0.500000 0.064014 0.000000
O O7 0.776027 0.110340 0.274928
O O8 0.752443 0.204834 0.391010
O O9 0.494130 0.274890 0.147294
O O10 0.500000 0.189115 0.000000
O O11 0.000000 0.815322 0.500000
O O12 0.032275 0.868635 0.307427
O O13 0.000000 0.136647 0.000000
#
# Coordination Sequence:
#
# PCOD9220265 Si02
#       5
#     8   8   8   8   8
#     4  12  23  43  66  93 136 173 218 278 323 387
#     4  11  24  46  74  96 124 173 225 276 334 385
#     4  11  21  41  62  94 134 177 222 258 317 398
#     4  12  21  41  68  95 133 166 216 282 320 388
#     4  11  25  38  61  99 134 176 217 264 328 387
#
# _framework density 20.384912
#
# number of rings (size 3 to 8) (size 9 to 14) (size 15 to 20)
#    0.000    0.600    6.000    2.400    0.000    4.800 
#    0.000    0.000    0.000    1.200    0.000    0.000 
#    0.000    0.000    0.000    0.000    0.000    0.000 
#
# Total GULP energy -111734.742572 kJ/mol
# GULP energy per Si atom -5586.737129 kJ/mol
# Density = 2.033852 g / cm^3
# Si number density = 20.384912 Si / 1000 Ang^3
#
#
#
# Elastic Constant Matrix: (Units=GPa)
#
#
# Indices 1 2 3 4 5 6 
#
# 1 165.3051 24.9601 57.1221 0.0000 11.6745 0.0000
# 2 24.9601 81.3210 23.5435 0.0000 5.9507 0.0000
# 3 57.1221 23.5435 136.4053 0.0000 -13.0525 0.0000
# 4 0.0000 0.0000 0.0000 9.4777 0.0000 4.7284
# 5 11.6745 5.9507 -13.0525 0.0000 56.2468 0.0000
# 6 0.0000 0.0000 0.0000 4.7284 0.0000 1.2704
#
#
#
# Elastic Compliance Matrix: (Units=1/GPa)
#
#
# Indices 1 2 3 4 5 6 
#
# 1 0.007464 -0.001231 -0.003118 0.000000 -0.002143 0.000000
# 2 -0.001231 0.013355 -0.001943 0.000000 -0.001608 0.000000
# 3 -0.003118 -0.001943 0.009260 0.000000 0.003002 0.000000
# 4 0.000000 0.000000 0.000000 -0.123140 0.000000 0.458313
# 5 -0.002143 -0.001608 0.003002 0.000000 0.019090 0.000000
# 6 0.000000 0.000000 0.000000 0.458313 0.000000 -0.918655
#
#
# Mechanical properties :
#
#
# Convention : Reuss Voigt Hill
#
# Bulk Modulus (GPa) = 57.16584 66.03141 61.59863
# Shear Modulus (GPa) = -5.13237 31.89271 13.38017
#
# Velocity S-wave (km/s) = -1.58846 3.95970 2.56476
# Velocity P-wave (km/s) = 4.97392 7.30536 6.24932
#
# Compressibility (1/GPa) = 0.01749296
#
# Stress axis : x y z
#
# Youngs Moduli (GPa) = 133.97278 74.87715 107.99677
#
# Poissons Ratio (x) = 0.09221 0.33676
# Poissons Ratio (y) = 0.16498 0.20987
# Poissons Ratio (z) = 0.41776 0.14551
#
# Static dielectric constant tensor:
#      x y z
#    x 1.742750 0.000000 -0.012850 
#    y 0.000000 1.713660 0.000000 
#    z -0.012850 0.000000 1.786620 
# 
# From -- ./inp_files/54446.got.cif
#   From: 2010.05.17/outbox.cif.g08.bks.cpg/sg12_28_cif.got.tgz:54446.got - 2010.06.03 13:09:07.
