data_PCOD9220779
_publ_section_title
;
Structure prediction by ZEFSAII (Michael W. Deem and Ramdas Pophale) SiO2 
 PCOD9220779
Probable space group: C 2/M
;
_chemical_formula_sum "Si O2"
_cell_formula_units_Z 48
_cell_length_a 27.936118
_cell_length_b 15.985038
_cell_length_c 14.609399
_cell_angle_alpha 90.000000
_cell_angle_beta 21.108269
_cell_angle_gamma 90.000000
_cell_volume 2349.487446
_symmetry_space_group_name_H-M "C 2/M"
_symmetry_group_IT_number 12
_symmetry_cell_setting 'monoclinic'
loop_
_space_group_symop_operation_xyz
x,y,z
-x,y,-z
-x,-y,-z
x,-y,z
1/2+x,1/2+y,z
1/2-x,1/2+y,-z
1/2-x,1/2-y,-z
1/2+x,1/2-y,z
loop_
_atom_site_type_symbol
_atom_site_label
_atom_site_fract_x
_atom_site_fract_y
_atom_site_fract_z
Si Si1 0.007806 0.135428 0.845366
Si Si2 0.222063 0.093169 0.611244
Si Si3 0.903116 0.736798 0.755021
Si Si4 0.504715 0.171381 0.881853
Si Si5 0.537271 0.406774 0.582705
Si Si6 0.851628 0.595370 0.994107
O O1 0.141168 0.121830 0.666312
O O2 0.974384 0.233411 0.909695
O O3 0.026215 0.101200 0.711827
O O4 0.886946 0.092698 0.114520
O O5 0.343887 0.152551 0.416152
O O6 0.275276 0.000000 0.501595
O O7 0.000000 0.708794 0.500000
O O8 0.956867 0.828180 0.687928
O O9 0.750000 0.750000 0.000000
O O10 0.907192 0.667140 0.827758
O O11 0.500000 0.160610 0.000000
O O12 0.407973 0.113498 0.995191
O O13 0.491177 0.500000 0.636487
O O14 0.691877 0.398254 0.280210
O O15 0.887340 0.500000 0.903747
#
# Coordination Sequence:
#
# PCOD9220779 Si02
#       6
#     8   8   8   8   8   8
#     4  11  22  38  64  92 130 183 232 276 338 404
#     4  11  23  38  58  92 134 177 233 283 329 399
#     4  12  26  48  77 105 138 180 229 293 359 417
#     4  12  24  39  66  98 138 183 229 280 345 404
#     4  11  24  44  73 102 137 180 229 281 352 426
#     4  11  26  46  70 104 143 183 231 289 347 419
#
# _framework density 20.429988000000002
#
# number of rings (size 3 to 8) (size 9 to 14) (size 15 to 20)
#    0.000    0.667    5.000    4.000    2.333    5.333 
#    0.000    1.667    0.000    0.000    0.000    0.000 
#    0.000    0.000    0.000    0.000    0.000    0.000 
#
# Total GULP energy -134215.316581 kJ/mol
# GULP energy per Si atom -5592.304858 kJ/mol
# Density = 2.038349 g / cm^3
# Si number density = 20.429988 Si / 1000 Ang^3
#
#
#
# Elastic Constant Matrix: (Units=GPa)
#
#
# Indices 1 2 3 4 5 6 
#
# 1 72.0442 54.0805 36.1011 0.0000 11.8050 0.0000
# 2 54.0805 156.8992 38.2638 0.0000 -4.1640 -0.0001
# 3 36.1011 38.2638 67.1527 -0.0001 -9.9078 -0.0003
# 4 0.0000 0.0000 -0.0001 -1.4291 0.0000 -49.1137
# 5 11.8050 -4.1640 -9.9078 0.0000 25.9817 -0.0001
# 6 0.0000 -0.0001 -0.0003 -49.1137 -0.0001 -50.4525
#
#
#
# Elastic Compliance Matrix: (Units=1/GPa)
#
#
# Indices 1 2 3 4 5 6 
#
# 1 0.030436 -0.007321 -0.015263 0.000000 -0.020823 0.000000
# 2 -0.007321 0.009168 -0.000615 0.000000 0.004561 0.000000
# 3 -0.015263 -0.000615 0.025914 0.000000 0.016718 0.000000
# 4 0.000000 0.000000 0.000000 0.021560 0.000000 -0.020988
# 5 -0.020823 0.004561 0.016718 0.000000 0.055056 0.000000
# 6 0.000000 0.000000 0.000000 -0.020988 0.000000 0.000611
#
#
# Mechanical properties :
#
#
# Convention : Reuss Voigt Hill
#
# Bulk Modulus (GPa) = 52.30260 61.44298 56.87279
# Shear Modulus (GPa) = 25.57314 5.99674 15.78494
#
# Velocity S-wave (km/s) = 3.54184 1.71512 2.78265
# Velocity P-wave (km/s) = 6.51020 5.83630 6.18244
#
# Compressibility (1/GPa) = 0.01911951
#
# Stress axis : x y z
#
# Youngs Moduli (GPa) = 32.85544 109.07384 38.58922
#
# Poissons Ratio (x) = 0.79856 0.58899
# Poissons Ratio (y) = 0.24054 0.02374
# Poissons Ratio (z) = 0.50147 0.06710
#
# Static dielectric constant tensor:
#      x y z
#    x 1.720780 0.000000 0.013880 
#    y 0.000000 1.733660 0.000000 
#    z 0.013880 0.000000 1.699720 
# 
# From -- ./inp_files/251389.got.cif
#   From: 2010.05.17/outbox.cif.g08.bks.cpg/sg12_126_cif.got.tgz:251389.got - 2010.06.03 13:09:07.
