data_PCOD9220564
_publ_section_title
;
Structure prediction by ZEFSAII (Michael W. Deem and Ramdas Pophale) SiO2 
 PCOD9220564
Probable space group: C 2/M
;
_chemical_formula_sum "Si O2"
_cell_formula_units_Z 56
_cell_length_a 16.052638
_cell_length_b 7.937331
_cell_length_c 23.893083
_cell_angle_alpha 90.000000
_cell_angle_beta 119.877601
_cell_angle_gamma 90.000000
_cell_volume 2639.721162
_symmetry_space_group_name_H-M "C 2/M"
_symmetry_group_IT_number 12
_symmetry_cell_setting 'monoclinic'
loop_
_space_group_symop_operation_xyz
x,y,z
-x,y,-z
-x,-y,-z
x,-y,z
1/2+x,1/2+y,z
1/2-x,1/2+y,-z
1/2-x,1/2-y,-z
1/2+x,1/2-y,z
loop_
_atom_site_type_symbol
_atom_site_label
_atom_site_fract_x
_atom_site_fract_y
_atom_site_fract_z
Si Si1 0.504109 0.303164 0.067674
Si Si2 0.306616 0.198825 0.803594
Si Si3 0.735840 0.204303 0.665532
Si Si4 0.827095 0.314310 0.070010
Si Si5 0.884177 0.692219 0.206246
Si Si6 0.464350 0.202435 0.344333
Si Si7 0.818633 0.200782 0.573868
O O1 0.480984 0.500000 0.070432
O O2 0.603603 0.258806 0.130359
O O3 0.424926 0.186859 0.068834
O O4 0.500000 0.278044 0.000000
O O5 0.308887 0.232999 0.738093
O O6 0.216108 0.305257 0.794454
O O7 0.290770 0.000000 0.807463
O O8 0.627214 0.259725 0.648443
O O9 0.772442 0.263603 0.617144
O O10 0.735497 0.000000 0.665408
O O11 0.792041 0.500000 0.074956
O O12 0.856468 0.224281 0.137859
O O13 0.750000 0.250000 0.000000
O O14 0.917601 0.500000 0.205410
O O15 0.953481 0.769634 0.276532
O O16 0.571846 0.240719 0.399660
O O17 0.454642 0.000000 0.337567
O O18 0.750000 0.250000 0.500000
O O19 0.821631 0.000000 0.578757
#
# Coordination Sequence:
#
# PCOD9220564 Si02
#       7
#     8   8   8   8   8   8   8
#     4  11  24  40  57  79 113 157 199 245 302 359
#     4  11  22  36  60  90 117 149 196 250 299 354
#     4   9  21  42  64  88 123 168 206 244 306 376
#     4  11  23  38  57  84 115 153 199 246 300 358
#     4   9  20  39  60  83 117 156 193 239 303 365
#     4   9  19  39  64  88 120 161 205 251 303 365
#     4  11  24  41  63  93 126 162 205 253 306 368
#
# _framework density 21.214362999999999
#
# number of rings (size 3 to 8) (size 9 to 14) (size 15 to 20)
#    0.000    1.857    0.000    4.286    2.000    9.714 
#    0.000    2.857    0.000    0.000    0.000    0.000 
#    0.000    0.000    0.000    0.000    0.000    0.000 
#
# Total GULP energy -156167.266309 kJ/mol
# GULP energy per Si atom -5577.402368 kJ/mol
# Density = 2.116608 g / cm^3
# Si number density = 21.214363 Si / 1000 Ang^3
#
#
#
# Elastic Constant Matrix: (Units=GPa)
#
#
# Indices 1 2 3 4 5 6 
#
# 1 57.0928 3.4021 46.8334 0.0000 3.2947 0.0000
# 2 3.4021 41.8460 8.1145 0.0000 -8.1956 0.0000
# 3 46.8334 8.1145 154.6445 0.0000 9.6274 0.0000
# 4 0.0000 0.0000 0.0000 50.0897 0.0000 26.4033
# 5 3.2947 -8.1956 9.6274 0.0000 44.6310 0.0000
# 6 0.0000 0.0000 0.0000 26.4033 0.0000 40.9306
#
#
#
# Elastic Compliance Matrix: (Units=1/GPa)
#
#
# Indices 1 2 3 4 5 6 
#
# 1 0.023321 -0.000599 -0.007011 0.000000 -0.000319 0.000000
# 2 -0.000599 0.025204 -0.001451 0.000000 0.004986 0.000000
# 3 -0.007011 -0.001451 0.008768 0.000000 -0.001640 0.000000
# 4 0.000000 0.000000 0.000000 0.030250 0.000000 -0.019514
# 5 -0.000319 0.004986 -0.001640 0.000000 0.023699 0.000000
# 6 0.000000 0.000000 0.000000 -0.019514 0.000000 0.037019
#
#
# Mechanical properties :
#
#
# Convention : Reuss Voigt Hill
#
# Bulk Modulus (GPa) = 25.53028 41.14262 33.33645
# Shear Modulus (GPa) = 27.86430 40.14581 34.00505
#
# Velocity S-wave (km/s) = 3.62811 4.35488 4.00800
# Velocity P-wave (km/s) = 5.44164 6.68749 6.09647
#
# Compressibility (1/GPa) = 0.03916918
#
# Stress axis : x y z
#
# Youngs Moduli (GPa) = 42.88002 39.67669 114.05011
#
# Poissons Ratio (x) = 0.02376 0.79964
# Poissons Ratio (y) = 0.02568 0.16554
# Poissons Ratio (z) = 0.30065 0.05759
#
# Static dielectric constant tensor:
#      x y z
#    x 1.739030 0.000000 -0.062110 
#    y 0.000000 1.896460 0.000000 
#    z -0.062110 0.000000 1.890710 
# 
# From -- ./inp_files/339027.got.cif
#   From: 2010.05.17/outbox.cif.g08.bks.cpg/sg12_170_cif.got.tgz:339027.got - 2010.06.03 13:09:07.
