data_PCOD9220507
_publ_section_title
;
Structure prediction by ZEFSAII (Michael W. Deem and Ramdas Pophale) SiO2 
 PCOD9220507
Probable space group: C 2/M
;
_chemical_formula_sum "Si O2"
_cell_formula_units_Z 64
_cell_length_a 11.923377
_cell_length_b 19.917323
_cell_length_c 29.151726
_cell_angle_alpha 90.000000
_cell_angle_beta 30.058861
_cell_angle_gamma 90.000000
_cell_volume 3467.658922
_symmetry_space_group_name_H-M "C 2/M"
_symmetry_group_IT_number 12
_symmetry_cell_setting 'monoclinic'
loop_
_space_group_symop_operation_xyz
x,y,z
-x,y,-z
-x,-y,-z
x,-y,z
1/2+x,1/2+y,z
1/2-x,1/2+y,-z
1/2-x,1/2-y,-z
1/2+x,1/2-y,z
loop_
_atom_site_type_symbol
_atom_site_label
_atom_site_fract_x
_atom_site_fract_y
_atom_site_fract_z
Si Si1 0.614133 0.160913 0.674837
Si Si2 0.246878 0.290411 0.410542
Si Si3 0.276225 0.080102 0.950469
Si Si4 0.281019 0.580347 0.138729
Si Si5 0.262756 0.420467 0.788650
Si Si6 0.776541 0.922330 0.341292
Si Si7 0.867274 0.575354 0.420562
Si Si8 0.003907 0.866941 0.386607
O O1 0.598246 0.240711 0.673375
O O2 0.393438 0.123503 0.770788
O O3 0.672450 0.128733 0.605066
O O4 0.811273 0.147582 0.641020
O O5 0.214331 0.363014 0.398250
O O6 0.362768 0.303479 0.418153
O O7 0.000000 0.259473 0.500000
O O8 0.272000 0.088498 0.896760
O O9 0.513317 0.107297 0.884780
O O10 0.269305 0.000000 0.961120
O O11 0.038009 0.103897 0.054235
O O12 0.260882 0.500000 0.155788
O O13 0.235740 0.500000 0.791895
O O14 0.455657 0.412005 0.758685
O O15 0.368453 0.393833 0.703731
O O16 0.612374 0.915608 0.356355
O O17 0.746995 0.000000 0.368571
O O18 0.852068 0.500000 0.406924
O O19 0.681934 0.584299 0.525824
#
# Coordination Sequence:
#
# PCOD9220507 Si02
#       8
#     8   8   8   8   8   8   8   8
#     4  12  25  35  54  81 115 157 181 229 285 338
#     4  11  23  39  58  76 110 151 201 240 268 327
#     4   8  14  28  55  85 112 140 177 237 286 325
#     4   9  17  32  53  83 117 145 182 227 286 342
#     4   9  16  29  55  87 109 134 184 240 280 315
#     4   9  20  37  58  81 108 147 192 241 278 318
#     4  11  23  37  54  80 117 155 186 224 281 337
#     4  11  22  36  53  78 108 152 190 232 274 319
#
# _framework density 18.456257000000001
#
# number of rings (size 3 to 8) (size 9 to 14) (size 15 to 20)
#    0.000    2.000    2.500    2.625    1.750    3.750 
#    0.000    0.000    0.000    3.750    0.000    4.375 
#    0.000    0.000    0.000    0.000    0.000    0.000 
#
# Total GULP energy -178281.172974 kJ/mol
# GULP energy per Si atom -5571.286655 kJ/mol
# Density = 1.841425 g / cm^3
# Si number density = 18.456257 Si / 1000 Ang^3
#
#
#
# Elastic Constant Matrix: (Units=GPa)
#
#
# Indices 1 2 3 4 5 6 
#
# 1 84.6707 21.6782 28.1241 -0.0060 -24.8628 -0.0041
# 2 21.6782 62.0533 24.9340 -0.0170 -1.3165 -0.0009
# 3 28.1241 24.9340 89.7153 -0.0513 -28.9356 -0.0255
# 4 -0.0060 -0.0170 -0.0513 16.2134 0.0036 2.1280
# 5 -24.8628 -1.3165 -28.9356 0.0036 27.2004 -0.0033
# 6 -0.0041 -0.0009 -0.0255 2.1280 -0.0033 3.5735
#
#
#
# Elastic Compliance Matrix: (Units=1/GPa)
#
#
# Indices 1 2 3 4 5 6 
#
# 1 0.018369 -0.006918 0.002240 -0.000005 0.018839 0.000055
# 2 -0.006918 0.021619 -0.008436 0.000007 -0.014252 -0.000080
# 3 0.002240 -0.008436 0.020273 0.000032 0.023206 0.000148
# 4 -0.000005 0.000007 0.000032 0.066907 0.000016 -0.039844
# 5 0.018839 -0.014252 0.023206 0.000016 0.077981 0.000246
# 6 0.000055 -0.000080 0.000148 -0.039844 0.000246 0.303569
#
#
# Mechanical properties :
#
#
# Convention : Reuss Voigt Hill
#
# Bulk Modulus (GPa) = 29.38217 42.87911 36.13064
# Shear Modulus (GPa) = 9.15261 20.17765 14.66513
#
# Velocity S-wave (km/s) = 2.22932 3.31005 2.82190
# Velocity P-wave (km/s) = 4.75194 6.15563 5.49876
#
# Compressibility (1/GPa) = 0.03403425
#
# Stress axis : x y z
#
# Youngs Moduli (GPa) = 54.43833 46.25462 49.32564
#
# Poissons Ratio (x) = 0.31998 -0.11050
# Poissons Ratio (y) = 0.37659 0.41613
# Poissons Ratio (z) = -0.12196 0.39023
#
# Static dielectric constant tensor:
#      x y z
#    x 1.659100 0.000000 -0.044580 
#    y 0.000000 1.644410 0.000000 
#    z -0.044580 0.000000 1.647700 
# 
# From -- ./inp_files/358967.got.cif
#   From: 2010.05.17/outbox.cif.g08.bks.cpg/sg12_180_cif.got.tgz:358967.got - 2010.06.03 13:09:07.
