data_PCOD9220845
_publ_section_title
;
Structure prediction by ZEFSAII (Michael W. Deem and Ramdas Pophale) SiO2 
 PCOD9220845
Probable space group: C 2/M
;
_chemical_formula_sum "Si O2"
_cell_formula_units_Z 42
_cell_length_a 14.588489
_cell_length_b 7.686005
_cell_length_c 17.663222
_cell_angle_alpha 90.000000
_cell_angle_beta 122.677005
_cell_angle_gamma 90.000000
_cell_volume 1667.064624
_symmetry_space_group_name_H-M "C 2/M"
_symmetry_group_IT_number 12
_symmetry_cell_setting 'monoclinic'
loop_
_space_group_symop_operation_xyz
x,y,z
-x,y,-z
-x,-y,-z
x,-y,z
1/2+x,1/2+y,z
1/2-x,1/2+y,-z
1/2-x,1/2-y,-z
1/2+x,1/2-y,z
loop_
_atom_site_type_symbol
_atom_site_label
_atom_site_fract_x
_atom_site_fract_y
_atom_site_fract_z
Si Si1 0.000000 0.000000 0.000000
Si Si2 0.507214 0.298448 0.280128
Si Si3 0.229353 0.707436 0.330328
Si Si4 0.407806 0.711212 0.520521
Si Si5 0.642413 0.193952 0.000341
Si Si6 0.277841 0.193853 0.188846
O O1 0.946842 0.845047 0.032436
O O2 0.477015 0.500000 0.277517
O O3 0.609261 0.283364 0.270885
O O4 0.555310 0.225737 0.381014
O O5 0.398067 0.203555 0.207676
O O6 0.223174 0.500000 0.332312
O O7 0.295007 0.774038 0.433190
O O8 0.292381 0.757207 0.282569
O O9 0.500000 0.752802 0.500000
O O10 0.401574 0.500000 0.522643
O O11 0.694261 0.187390 0.108000
O O12 0.605099 0.000000 0.962278
O O13 0.750000 0.250000 0.000000
O O14 0.231217 0.000000 0.161344
#
# Coordination Sequence:
#
# PCOD9220845 Si02
#       6
#     2   8   8   8   8   8
#     4  12  26  52  84 124 152 202 250 298 386 456
#     4  11  22  39  63  94 131 183 232 291 360 421
#     4  11  22  39  62  94 134 180 235 293 356 424
#     4   9  17  34  60  86 125 178 234 291 353 418
#     4  12  26  52  84 118 158 199 249 312 381 464
#     4  12  25  45  68 101 142 182 235 297 355 431
#
# _framework density 25.193985000000001
#
# number of rings (size 3 to 8) (size 9 to 14) (size 15 to 20)
#    0.000    0.952    3.810    3.714    0.000    1.524 
#    3.429    7.619    0.000    0.000    0.000    0.000 
#    0.000    0.000    0.000    0.000    0.000    0.000 
#
# Total GULP energy -117309.301489 kJ/mol
# GULP energy per Si atom -5586.157214 kJ/mol
# Density = 2.513664 g / cm^3
# Si number density = 25.193985 Si / 1000 Ang^3
#
#
#
# Elastic Constant Matrix: (Units=GPa)
#
#
# Indices 1 2 3 4 5 6 
#
# 1 106.8635 25.3276 -13.4622 0.0000 1.8595 0.0000
# 2 25.3276 157.9376 8.7474 0.0000 -9.6429 0.0000
# 3 -13.4622 8.7474 71.8499 0.0000 8.0316 0.0000
# 4 0.0000 0.0000 0.0000 16.4204 0.0000 -1.7081
# 5 1.8595 -9.6429 8.0316 0.0000 15.0303 0.0000
# 6 0.0000 0.0000 0.0000 -1.7081 0.0000 34.4805
#
#
#
# Elastic Compliance Matrix: (Units=1/GPa)
#
#
# Indices 1 2 3 4 5 6 
#
# 1 0.010236 -0.002028 0.002607 0.000000 -0.003960 0.000000
# 2 -0.002028 0.007118 -0.001898 0.000000 0.005832 0.000000
# 3 0.002607 -0.001898 0.015751 0.000000 -0.009957 0.000000
# 4 0.000000 0.000000 0.000000 0.061215 0.000000 0.003033
# 5 -0.003960 0.005832 -0.009957 0.000000 0.076084 0.000000
# 6 0.000000 0.000000 0.000000 0.003033 0.000000 0.029152
#
#
# Mechanical properties :
#
#
# Convention : Reuss Voigt Hill
#
# Bulk Modulus (GPa) = 32.82248 41.98628 37.40438
# Shear Modulus (GPa) = 23.54616 34.25548 28.90082
#
# Velocity S-wave (km/s) = 3.06043 3.69137 3.39061
# Velocity P-wave (km/s) = 5.05416 5.90505 5.49610
#
# Compressibility (1/GPa) = 0.03046693
#
# Stress axis : x y z
#
# Youngs Moduli (GPa) = 97.69740 140.48913 63.48965
#
# Poissons Ratio (x) = 0.28486 -0.16554
# Poissons Ratio (y) = 0.19810 0.12053
# Poissons Ratio (z) = -0.25474 0.26671
#
# Static dielectric constant tensor:
#      x y z
#    x 1.997550 0.000000 0.034340 
#    y 0.000000 1.919950 0.000000 
#    z 0.034340 0.000000 2.163220 
# 
# From -- ./inp_files/267791.got.cif
#   From: 2010.05.17/outbox.cif.g08.bks.cpg/sg12_134_cif.got.tgz:267791.got - 2010.06.03 13:09:07.
