data_PCOD9220178
_publ_section_title
;
Structure prediction by ZEFSAII (Michael W. Deem and Ramdas Pophale) SiO2 
 PCOD9220178
Probable space group: C 2/M
;
_chemical_formula_sum "Si O2"
_cell_formula_units_Z 48
_cell_length_a 14.527217
_cell_length_b 21.064247
_cell_length_c 12.390308
_cell_angle_alpha 90.000000
_cell_angle_beta 142.728053
_cell_angle_gamma 90.000000
_cell_volume 2296.124892
_symmetry_space_group_name_H-M "C 2/M"
_symmetry_group_IT_number 12
_symmetry_cell_setting 'monoclinic'
loop_
_space_group_symop_operation_xyz
x,y,z
-x,y,-z
-x,-y,-z
x,-y,z
1/2+x,1/2+y,z
1/2-x,1/2+y,-z
1/2-x,1/2-y,-z
1/2+x,1/2-y,z
loop_
_atom_site_type_symbol
_atom_site_label
_atom_site_fract_x
_atom_site_fract_y
_atom_site_fract_z
Si Si1 0.526398 0.500000 0.698349
Si Si2 0.669398 0.072881 0.520916
Si Si3 0.739580 0.000000 0.272453
Si Si4 0.830339 0.639042 0.829585
Si Si5 0.629690 0.367199 0.857843
Si Si6 0.805689 0.573471 0.204509
Si Si7 0.682013 0.315127 0.478084
O O1 0.381761 0.500000 0.485750
O O2 0.678579 0.500000 0.767154
O O3 0.537617 0.433930 0.768835
O O4 0.486221 0.077802 0.352062
O O5 0.722033 0.081158 0.694029
O O6 0.737889 0.126987 0.510613
O O7 0.706188 0.000000 0.522793
O O8 0.652876 0.933697 0.198938
O O9 0.745347 0.637273 0.865203
O O10 0.723915 0.673729 0.642719
O O11 0.000000 0.665959 0.000000
O O12 0.497235 0.316660 0.715482
O O13 0.721315 0.374205 0.054023
O O14 0.763171 0.500000 0.136146
O O15 0.750000 0.250000 0.500000
#
# Coordination Sequence:
#
# PCOD9220178 Si02
#       7
#     4   8   4   8   8   8   8
#     4   9  16  30  58  95 129 154 200 253 318 383
#     4   9  21  41  67  95 130 173 216 274 328 387
#     4   9  17  32  60  95 128 161 193 255 329 381
#     4  11  23  41  65  97 130 163 212 263 330 401
#     4  11  21  39  66  97 130 169 205 271 331 387
#     4   9  18  39  68 103 130 160 220 275 332 390
#     4  12  27  45  61  92 133 175 226 267 322 389
#
# _framework density 20.904786000000001
#
# number of rings (size 3 to 8) (size 9 to 14) (size 15 to 20)
#    0.000    1.833    2.500    2.750    2.333    0.667 
#    9.000    3.333    0.000    0.000    0.000    0.000 
#    0.000    0.000    0.000    0.000    0.000    0.000 
#
# Total GULP energy -134036.360892 kJ/mol
# GULP energy per Si atom -5584.848370 kJ/mol
# Density = 2.085721 g / cm^3
# Si number density = 20.904786 Si / 1000 Ang^3
#
#
#
# Elastic Constant Matrix: (Units=GPa)
#
#
# Indices 1 2 3 4 5 6 
#
# 1 57.6393 28.1873 22.9977 0.0000 3.5750 0.0000
# 2 28.1873 55.9296 33.9628 0.0000 0.4037 0.0000
# 3 22.9977 33.9628 119.9483 0.0000 -0.7157 0.0000
# 4 0.0000 0.0000 0.0000 4.0104 0.0000 11.3131
# 5 3.5750 0.4037 -0.7157 0.0000 23.3933 0.0000
# 6 0.0000 0.0000 0.0000 11.3131 0.0000 28.1687
#
#
#
# Elastic Compliance Matrix: (Units=1/GPa)
#
#
# Indices 1 2 3 4 5 6 
#
# 1 0.023484 -0.010946 -0.001424 0.000000 -0.003443 0.000000
# 2 -0.010946 0.026701 -0.005455 0.000000 0.001045 0.000000
# 3 -0.001424 -0.005455 0.010158 0.000000 0.000623 0.000000
# 4 0.000000 0.000000 0.000000 -1.875699 0.000000 0.753319
# 5 -0.003443 0.001045 0.000623 0.000000 0.043274 0.000000
# 6 0.000000 0.000000 0.000000 0.753319 0.000000 -0.267048
#
#
# Mechanical properties :
#
#
# Convention : Reuss Voigt Hill
#
# Bulk Modulus (GPa) = 40.49706 44.86808 42.68257
# Shear Modulus (GPa) = -2.50596 21.00578 9.24991
#
# Velocity S-wave (km/s) = -1.09606 3.17335 2.10580
# Velocity P-wave (km/s) = 4.22047 5.91071 5.13561
#
# Compressibility (1/GPa) = 0.02469315
#
# Stress axis : x y z
#
# Youngs Moduli (GPa) = 42.58252 37.45129 98.44151
#
# Poissons Ratio (x) = 0.40994 0.14016
# Poissons Ratio (y) = 0.46610 0.53704
# Poissons Ratio (z) = 0.06063 0.20431
#
# Static dielectric constant tensor:
#      x y z
#    x 1.749250 0.000000 0.003470 
#    y 0.000000 1.746280 0.000000 
#    z 0.003470 0.000000 1.781280 
# 
# From -- ./inp_files/148051.got.cif
#   From: 2010.05.17/outbox.cif.g08.bks.cpg/sg12_75_cif.got.tgz:148051.got - 2010.06.03 13:09:07.
