data_PCOD9220239
_publ_section_title
;
Structure prediction by ZEFSAII (Michael W. Deem and Ramdas Pophale) SiO2 
 PCOD9220239
Probable space group: C 2/M
;
_chemical_formula_sum "Si O2"
_cell_formula_units_Z 40
_cell_length_a 10.080470
_cell_length_b 21.521411
_cell_length_c 15.785248
_cell_angle_alpha 90.000000
_cell_angle_beta 146.489770
_cell_angle_gamma 90.000000
_cell_volume 1890.643126
_symmetry_space_group_name_H-M "C 2/M"
_symmetry_group_IT_number 12
_symmetry_cell_setting 'monoclinic'
loop_
_space_group_symop_operation_xyz
x,y,z
-x,y,-z
-x,-y,-z
x,-y,z
1/2+x,1/2+y,z
1/2-x,1/2+y,-z
1/2-x,1/2-y,-z
1/2+x,1/2-y,z
loop_
_atom_site_type_symbol
_atom_site_label
_atom_site_fract_x
_atom_site_fract_y
_atom_site_fract_z
Si Si1 0.754201 0.310760 0.250293
Si Si2 0.500000 0.401460 0.000000
Si Si3 0.500000 0.889183 0.000000
Si Si4 0.500000 0.106653 0.500000
Si Si5 0.919965 0.500000 0.231537
Si Si6 0.852906 0.221943 0.143033
Si Si7 0.729725 0.500000 0.425243
Si Si8 0.200741 0.500000 0.217507
O O1 0.970298 0.352014 0.400571
O O2 0.810393 0.264763 0.203061
O O3 0.633709 0.281845 0.269752
O O4 0.551381 0.357391 0.106462
O O5 0.261067 0.442632 0.879810
O O6 0.284352 0.842600 0.910994
O O7 0.418087 0.937383 0.883936
O O8 0.272235 0.061256 0.391576
O O9 0.047126 0.500000 0.390140
O O10 0.137528 0.500000 0.281831
O O11 0.750000 0.250000 0.000000
O O12 0.477108 0.500000 0.336992
#
# Coordination Sequence:
#
# PCOD9220239 Si02
#       8
#     8   4   4   4   4   8   4   4
#     4  12  24  42  68  99 132 183 226 294 343 415
#     4  11  21  40  68 100 129 175 240 280 330 421
#     4  11  23  42  64 104 135 183 224 282 354 413
#     4  11  26  44  68  94 142 179 240 270 366 421
#     4  11  23  38  68 101 128 180 232 286 341 414
#     4  12  22  41  70  98 133 177 233 287 340 405
#     4  11  23  46  64  99 136 190 219 296 351 418
#     4  11  25  40  68 102 145 171 230 291 354 413
#
# _framework density 21.156821999999998
#
# number of rings (size 3 to 8) (size 9 to 14) (size 15 to 20)
#    0.000    0.600    6.000    2.700    0.000    2.400 
#    0.000    0.000    0.000    0.000    0.000    0.000 
#    0.000    0.000    0.000    0.000    0.000    0.000 
#
# Total GULP energy -111655.860436 kJ/mol
# GULP energy per Si atom -5582.793022 kJ/mol
# Density = 2.110867 g / cm^3
# Si number density = 21.156822 Si / 1000 Ang^3
#
#
#
# Elastic Constant Matrix: (Units=GPa)
#
#
# Indices 1 2 3 4 5 6 
#
# 1 153.4873 61.2575 17.9415 0.0010 4.6181 0.0000
# 2 61.2575 134.9134 34.9918 0.0011 -11.2383 0.0003
# 3 17.9415 34.9918 58.0361 0.0045 -14.6553 -0.0023
# 4 0.0010 0.0011 0.0045 21.5319 0.0008 -1.9258
# 5 4.6181 -11.2383 -14.6553 0.0008 33.0667 -0.0006
# 6 0.0000 0.0003 -0.0023 -1.9258 -0.0006 15.5954
#
#
#
# Elastic Compliance Matrix: (Units=1/GPa)
#
#
# Indices 1 2 3 4 5 6 
#
# 1 0.008195 -0.003692 -0.001028 0.000000 -0.002855 0.000000
# 2 -0.003692 0.010465 -0.004662 0.000000 0.002006 -0.000001
# 3 -0.001028 -0.004662 0.022515 -0.000004 0.008538 0.000003
# 4 0.000000 0.000000 -0.000004 0.046961 -0.000003 0.005799
# 5 -0.002855 0.002006 0.008538 -0.000003 0.035107 0.000002
# 6 0.000000 -0.000001 0.000003 0.005799 0.000002 0.064838
#
#
# Mechanical properties :
#
#
# Convention : Reuss Voigt Hill
#
# Bulk Modulus (GPa) = 44.62091 63.86873 54.24482
# Shear Modulus (GPa) = 23.33022 29.52186 26.42604
#
# Velocity S-wave (km/s) = 3.32434 3.73953 3.53803
# Velocity P-wave (km/s) = 5.98927 6.99280 6.51040
#
# Compressibility (1/GPa) = 0.02241102
#
# Stress axis : x y z
#
# Youngs Moduli (GPa) = 122.02897 95.55981 44.41449
#
# Poissons Ratio (x) = 0.35280 0.04567
# Poissons Ratio (y) = 0.45053 0.20704
# Poissons Ratio (z) = 0.12548 0.44545
#
# Static dielectric constant tensor:
#      x y z
#    x 1.789660 0.000000 0.043080 
#    y 0.000000 1.840990 0.000000 
#    z 0.043080 0.000000 1.780380 
# 
# From -- ./inp_files/265212.got.cif
#   From: 2010.05.17/outbox.cif.g08.bks.cpg/sg12_133_cif.got.tgz:265212.got - 2010.06.03 13:09:07.
