data_PCOD9220434
_publ_section_title
;
Structure prediction by ZEFSAII (Michael W. Deem and Ramdas Pophale) SiO2 
 PCOD9220434
Probable space group: C 2/M
;
_chemical_formula_sum "Si O2"
_cell_formula_units_Z 56
_cell_length_a 19.207497
_cell_length_b 8.708715
_cell_length_c 30.266420
_cell_angle_alpha 90.000000
_cell_angle_beta 37.151218
_cell_angle_gamma 90.000000
_cell_volume 3057.495597
_symmetry_space_group_name_H-M "C 2/M"
_symmetry_group_IT_number 12
_symmetry_cell_setting 'monoclinic'
loop_
_space_group_symop_operation_xyz
x,y,z
-x,y,-z
-x,-y,-z
x,-y,z
1/2+x,1/2+y,z
1/2-x,1/2+y,-z
1/2-x,1/2-y,-z
1/2+x,1/2-y,z
loop_
_atom_site_type_symbol
_atom_site_label
_atom_site_fract_x
_atom_site_fract_y
_atom_site_fract_z
Si Si1 0.866711 0.812513 0.569824
Si Si2 0.825243 0.182023 0.001498
Si Si3 0.580698 0.185304 0.871936
Si Si4 0.711217 0.686836 0.294655
Si Si5 0.209249 0.684005 0.567384
Si Si6 0.043968 0.185105 0.300164
Si Si7 0.246062 0.684352 0.869283
O O1 0.811452 0.761083 0.644163
O O2 0.793319 0.763639 0.564494
O O3 0.000000 0.764442 0.500000
O O4 0.866086 0.000000 0.570387
O O5 0.955965 0.241940 0.932145
O O6 0.823925 0.000000 0.999562
O O7 0.750000 0.250000 0.000000
O O8 0.774004 0.235869 0.074239
O O9 0.668350 0.234055 0.788617
O O10 0.645290 0.223492 0.885204
O O11 0.570098 0.000000 0.875760
O O12 0.712022 0.500000 0.294330
O O13 0.608263 0.730760 0.313260
O O14 0.214154 0.500000 0.563037
O O15 0.250000 0.750000 0.500000
O O16 0.079175 0.737673 0.642124
O O17 0.133467 0.222672 0.215688
O O18 0.030391 0.000000 0.307975
O O19 0.242865 0.500000 0.876915
#
# Coordination Sequence:
#
# PCOD9220434 Si02
#       7
#     8   8   8   8   8   8   8
#     4   9  17  30  51  77 102 132 176 222 258 304
#     4  12  25  38  54  78 110 146 186 232 278 323
#     4   9  18  35  59  83 109 142 179 220 270 333
#     4   8  15  31  56  82 105 135 175 215 260 318
#     4  11  22  34  52  78 107 141 181 226 272 317
#     4   9  18  35  59  83 108 138 171 212 264 322
#     4   9  19  37  60  84 111 144 179 216 268 336
#
# _framework density 18.315643999999999
#
# number of rings (size 3 to 8) (size 9 to 14) (size 15 to 20)
#    0.000    2.429    0.000    4.714    0.000    6.286 
#    0.000    3.571    0.000    8.571    0.000    0.000 
#    0.000    0.000    0.000    0.000    0.000    0.000 
#
# Total GULP energy -156303.790469 kJ/mol
# GULP energy per Si atom -5582.278231 kJ/mol
# Density = 1.827396 g / cm^3
# Si number density = 18.315644 Si / 1000 Ang^3
#
#
#
# Elastic Constant Matrix: (Units=GPa)
#
#
# Indices 1 2 3 4 5 6 
#
# 1 177.9092 56.4976 137.4111 0.0000 1.8645 0.0001
# 2 56.4976 37.8552 54.5457 0.0001 -0.4263 0.0004
# 3 137.4111 54.5457 153.6879 0.0000 6.9565 -0.0001
# 4 0.0000 0.0001 0.0000 22.5068 0.0000 -4.1278
# 5 1.8645 -0.4263 6.9565 0.0000 36.6699 0.0000
# 6 0.0001 0.0004 -0.0001 -4.1278 0.0000 28.4580
#
#
#
# Elastic Compliance Matrix: (Units=1/GPa)
#
#
# Indices 1 2 3 4 5 6 
#
# 1 0.019400 -0.007840 -0.014640 0.000000 0.001700 0.000000
# 2 -0.007840 0.057916 -0.013711 0.000000 0.003673 -0.000001
# 3 -0.014640 -0.013711 0.024648 0.000000 -0.004091 0.000000
# 4 0.000000 0.000000 0.000000 0.045645 0.000000 0.006621
# 5 0.001700 0.003673 -0.004091 0.000000 0.028003 0.000000
# 6 0.000000 -0.000001 0.000000 0.006621 0.000000 0.036100
#
#
# Mechanical properties :
#
#
# Convention : Reuss Voigt Hill
#
# Bulk Modulus (GPa) = 33.80592 96.26237 65.03415
# Shear Modulus (GPa) = 17.00942 25.59346 21.30144
#
# Velocity S-wave (km/s) = 3.05074 3.74218 3.41401
# Velocity P-wave (km/s) = 5.55939 8.44650 7.15018
#
# Compressibility (1/GPa) = 0.02958062
#
# Stress axis : x y z
#
# Youngs Moduli (GPa) = 51.54602 17.26639 40.57200
#
# Poissons Ratio (x) = 0.13537 0.59397
# Poissons Ratio (y) = 0.40414 0.55630
# Poissons Ratio (z) = 0.75462 0.23675
#
# Static dielectric constant tensor:
#      x y z
#    x 1.607350 0.000000 0.006720 
#    y 0.000000 1.622100 0.000000 
#    z 0.006720 0.000000 1.620210 
# 
# From -- ./inp_files/362943.got.cif
#   From: 2010.05.17/outbox.cif.g08.bks.cpg/sg12_182_cif.got.tgz:362943.got - 2010.06.03 13:09:07.
