data_PCOD9220767
_publ_section_title
;
Structure prediction by ZEFSAII (Michael W. Deem and Ramdas Pophale) SiO2 
 PCOD9220767
Probable space group: C 2/M
;
_chemical_formula_sum "Si O2"
_cell_formula_units_Z 48
_cell_length_a 20.789278
_cell_length_b 7.535166
_cell_length_c 16.274361
_cell_angle_alpha 90.000000
_cell_angle_beta 75.919480
_cell_angle_gamma 90.000000
_cell_volume 2472.792454
_symmetry_space_group_name_H-M "C 2/M"
_symmetry_group_IT_number 12
_symmetry_cell_setting 'monoclinic'
loop_
_space_group_symop_operation_xyz
x,y,z
-x,y,-z
-x,-y,-z
x,-y,z
1/2+x,1/2+y,z
1/2-x,1/2+y,-z
1/2-x,1/2-y,-z
1/2+x,1/2-y,z
loop_
_atom_site_type_symbol
_atom_site_label
_atom_site_fract_x
_atom_site_fract_y
_atom_site_fract_z
Si Si1 0.308755 0.789391 0.417696
Si Si2 0.778554 0.717169 0.240109
Si Si3 0.591926 0.217010 0.898109
Si Si4 0.140918 0.799844 0.215339
Si Si5 0.446330 0.207399 0.911238
Si Si6 0.589379 0.500000 0.556191
Si Si7 0.066455 0.000000 0.370568
O O1 0.250000 0.750000 0.500000
O O2 0.285350 0.736636 0.333574
O O3 0.371640 0.671620 0.423178
O O4 0.323163 0.000000 0.413556
O O5 0.775598 0.500000 0.239624
O O6 0.843295 0.777207 0.170391
O O7 0.710510 0.782879 0.220025
O O8 0.521706 0.276539 0.880639
O O9 0.595407 0.000000 0.893984
O O10 0.587947 0.275880 0.994618
O O11 0.097424 0.722466 0.156079
O O12 0.156469 0.000000 0.180411
O O13 0.096791 0.833882 0.310613
O O14 0.455154 0.000000 0.925096
O O15 0.590629 0.500000 0.456521
O O16 0.512725 0.500000 0.606265
#
# Coordination Sequence:
#
# PCOD9220767 Si02
#       7
#     8   8   8   8   8   4   4
#     4  11  22  38  63  91 120 154 202 245 296 354
#     4   9  18  33  54  80 109 150 195 235 286 353
#     4   8  16  31  53  77 108 144 191 238 279 341
#     4   9  19  34  53  72 112 149 179 228 297 349
#     4   9  17  32  53  79 107 146 187 236 289 338
#     4  11  22  42  64  85 118 165 191 251 297 360
#     4   9  22  40  58  78 121 156 189 239 318 351
#
# _framework density 19.411254
#
# number of rings (size 3 to 8) (size 9 to 14) (size 15 to 20)
#    0.500    2.167    0.833    2.000    2.333    0.667 
#    1.500    4.167    1.833    0.000    0.000    0.000 
#    0.000    0.000    0.000    0.000    0.000    0.000 
#
# Total GULP energy -133742.938884 kJ/mol
# GULP energy per Si atom -5572.622453 kJ/mol
# Density = 1.936707 g / cm^3
# Si number density = 19.411254 Si / 1000 Ang^3
#
#
#
# Elastic Constant Matrix: (Units=GPa)
#
#
# Indices 1 2 3 4 5 6 
#
# 1 180.5997 22.5795 119.6585 0.0000 7.1622 0.0000
# 2 22.5795 60.4152 9.1457 0.0000 5.7081 0.0000
# 3 119.6585 9.1457 143.9636 0.0000 0.2801 0.0000
# 4 0.0000 0.0000 0.0000 21.9090 0.0000 16.4562
# 5 7.1622 5.7081 0.2801 0.0000 34.9052 0.0000
# 6 0.0000 0.0000 0.0000 16.4562 0.0000 13.3467
#
#
#
# Elastic Compliance Matrix: (Units=1/GPa)
#
#
# Indices 1 2 3 4 5 6 
#
# 1 0.013070 -0.003073 -0.010664 0.000000 -0.002094 0.000000
# 2 -0.003073 0.017698 0.001434 0.000000 -0.002275 0.000000
# 3 -0.010664 0.001434 0.015715 0.000000 0.001828 0.000000
# 4 0.000000 0.000000 0.000000 0.617713 0.000000 -0.761625
# 5 -0.002094 -0.002275 0.001828 0.000000 0.029436 0.000000
# 6 0.000000 0.000000 0.000000 -0.761625 0.000000 1.013990
#
#
# Mechanical properties :
#
#
# Convention : Reuss Voigt Hill
#
# Bulk Modulus (GPa) = 45.70788 76.41619 61.06204
# Shear Modulus (GPa) = 2.87436 29.60516 16.23976
#
# Velocity S-wave (km/s) = 1.21819 3.90956 2.89557
# Velocity P-wave (km/s) = 5.05736 7.73511 6.53486
#
# Compressibility (1/GPa) = 0.02187807
#
# Stress axis : x y z
#
# Youngs Moduli (GPa) = 76.51178 56.50238 63.63265
#
# Poissons Ratio (x) = 0.17361 0.67858
# Poissons Ratio (y) = 0.23509 -0.09124
# Poissons Ratio (z) = 0.81593 -0.08102
#
# Static dielectric constant tensor:
#      x y z
#    x 1.672580 0.000000 -0.003820 
#    y 0.000000 1.743800 0.000000 
#    z -0.003820 0.000000 1.654780 
# 
# From -- ./inp_files/221774.got.cif
#   From: 2010.05.17/outbox.cif.g08.bks.cpg/sg12_111_cif.got.tgz:221774.got - 2010.06.03 13:09:07.
