data_PCOD9220751
_publ_section_title
;
Structure prediction by ZEFSAII (Michael W. Deem and Ramdas Pophale) SiO2 
 PCOD9220751
Probable space group: C 2/M
;
_chemical_formula_sum "Si O2"
_cell_formula_units_Z 64
_cell_length_a 19.122186
_cell_length_b 8.585609
_cell_length_c 30.365002
_cell_angle_alpha 90.000000
_cell_angle_beta 141.016759
_cell_angle_gamma 90.000000
_cell_volume 3136.150135
_symmetry_space_group_name_H-M "C 2/M"
_symmetry_group_IT_number 12
_symmetry_cell_setting 'monoclinic'
loop_
_space_group_symop_operation_xyz
x,y,z
-x,y,-z
-x,-y,-z
x,-y,z
1/2+x,1/2+y,z
1/2-x,1/2+y,-z
1/2-x,1/2-y,-z
1/2+x,1/2-y,z
loop_
_atom_site_type_symbol
_atom_site_label
_atom_site_fract_x
_atom_site_fract_y
_atom_site_fract_z
Si Si1 0.374575 0.313723 0.565672
Si Si2 0.375847 0.684119 0.926939
Si Si3 0.053026 0.315534 0.305244
Si Si4 0.038468 0.190111 0.567492
Si Si5 0.650080 0.321876 0.841843
Si Si6 0.402043 0.184243 0.847153
Si Si7 0.706112 0.189815 0.298411
Si Si8 0.128753 0.180168 0.933506
O O1 0.370371 0.500000 0.561194
O O2 0.250000 0.250000 0.500000
O O3 0.422254 0.263805 0.636260
O O4 0.454630 0.258530 0.564986
O O5 0.371463 0.500000 0.932496
O O6 0.276809 0.765419 0.904466
O O7 0.355061 0.724253 0.865751
O O8 0.500000 0.739336 0.000000
O O9 0.069232 0.500000 0.318245
O O10 0.136416 0.259001 0.307166
O O11 0.929140 0.280342 0.227527
O O12 0.165698 0.239404 0.637271
O O13 0.000000 0.238991 0.500000
O O14 0.037894 0.000000 0.567694
O O15 0.645533 0.500000 0.824189
O O16 0.606702 0.314664 0.870455
O O17 0.349579 0.235989 0.775034
O O18 0.532935 0.221132 0.909438
O O19 0.382996 0.000000 0.843365
O O20 0.703329 0.000000 0.297831
O O21 0.124085 0.000000 0.945990
O O22 0.250000 0.250000 0.000000
#
# Coordination Sequence:
#
# PCOD9220751 Si02
#       8
#     8   8   8   8   8   8   8   8
#     4  11  23  39  64  95 129 165 208 258 310 371
#     4  11  25  43  62  87 122 163 209 265 324 381
#     4  11  22  40  65  92 126 164 206 257 314 376
#     4   9  18  35  61  91 122 160 206 249 291 352
#     4  11  24  41  62  90 124 165 212 260 312 377
#     4  11  22  38  62  90 123 162 208 258 314 381
#     4   9  19  36  60  90 121 160 206 251 302 364
#     4  11  23  39  62  90 123 160 208 263 316 376
#
# _framework density 20.407185999999999
#
# number of rings (size 3 to 8) (size 9 to 14) (size 15 to 20)
#    0.000    1.500    1.250    3.750    1.750    6.500 
#    0.000    0.000    0.000    8.250    0.000    0.000 
#    0.000    0.000    0.000    0.000    0.000    0.000 
#
# Total GULP energy -178898.907623 kJ/mol
# GULP energy per Si atom -5590.590863 kJ/mol
# Density = 2.036074 g / cm^3
# Si number density = 20.407186 Si / 1000 Ang^3
#
#
#
# Elastic Constant Matrix: (Units=GPa)
#
#
# Indices 1 2 3 4 5 6 
#
# 1 116.0332 13.0194 34.6782 0.0000 -0.9787 0.0000
# 2 13.0194 24.7807 6.1723 0.0001 -4.2339 -0.0001
# 3 34.6782 6.1723 107.4657 0.0000 -0.5097 0.0000
# 4 0.0000 0.0001 0.0000 26.7362 0.0000 -0.3900
# 5 -0.9787 -4.2339 -0.5097 0.0000 38.6882 0.0000
# 6 0.0000 -0.0001 0.0000 -0.3900 0.0000 28.6837
#
#
#
# Elastic Compliance Matrix: (Units=1/GPa)
#
#
# Indices 1 2 3 4 5 6 
#
# 1 0.010017 -0.004571 -0.002971 0.000000 -0.000286 0.000000
# 2 -0.004571 0.043806 -0.001019 0.000000 0.004665 0.000000
# 3 -0.002971 -0.001019 0.010322 0.000000 -0.000051 0.000000
# 4 0.000000 0.000000 0.000000 0.037410 0.000000 0.000509
# 5 -0.000286 0.004665 -0.000051 0.000000 0.026350 0.000000
# 6 0.000000 0.000000 0.000000 0.000509 0.000000 0.034870
#
#
# Mechanical properties :
#
#
# Convention : Reuss Voigt Hill
#
# Bulk Modulus (GPa) = 21.26623 39.55773 30.41198
# Shear Modulus (GPa) = 25.56595 31.78226 28.67410
#
# Velocity S-wave (km/s) = 3.54332 3.95068 3.75253
# Velocity P-wave (km/s) = 5.21380 6.34325 5.80605
#
# Compressibility (1/GPa) = 0.04702292
#
# Stress axis : x y z
#
# Youngs Moduli (GPa) = 99.83326 22.82766 96.87751
#
# Poissons Ratio (x) = 0.10436 0.28783
# Poissons Ratio (y) = 0.45638 0.09869
# Poissons Ratio (z) = 0.29661 0.02326
#
# Static dielectric constant tensor:
#      x y z
#    x 1.733710 0.000000 -0.008960 
#    y 0.000000 1.701710 0.000000 
#    z -0.008960 0.000000 1.709180 
# 
# From -- ./inp_files/378433.got.cif
#   From: 2010.05.17/outbox.cif.g08.bks.cpg/sg12_190_cif.got.tgz:378433.got - 2010.06.03 13:09:07.
