data_PCOD9220391
_publ_section_title
;
Structure prediction by ZEFSAII (Michael W. Deem and Ramdas Pophale) SiO2 
 PCOD9220391
Probable space group: C 2/M
;
_chemical_formula_sum "Si O2"
_cell_formula_units_Z 40
_cell_length_a 17.548220
_cell_length_b 19.232205
_cell_length_c 11.570757
_cell_angle_alpha 90.000000
_cell_angle_beta 147.887875
_cell_angle_gamma 90.000000
_cell_volume 2075.825240
_symmetry_space_group_name_H-M "C 2/M"
_symmetry_group_IT_number 12
_symmetry_cell_setting 'monoclinic'
loop_
_space_group_symop_operation_xyz
x,y,z
-x,y,-z
-x,-y,-z
x,-y,z
1/2+x,1/2+y,z
1/2-x,1/2+y,-z
1/2-x,1/2-y,-z
1/2+x,1/2-y,z
loop_
_atom_site_type_symbol
_atom_site_label
_atom_site_fract_x
_atom_site_fract_y
_atom_site_fract_z
Si Si1 0.851987 0.691915 0.073574
Si Si2 0.585450 0.316142 0.991396
Si Si3 0.668249 0.418574 0.706393
Si Si4 0.174788 0.153810 0.482822
Si Si5 0.840536 0.684912 0.464658
O O1 0.916126 0.735594 0.048172
O O2 0.760348 0.627968 0.911454
O O3 0.750000 0.750000 0.000000
O O4 0.990658 0.672460 0.326214
O O5 0.746458 0.336593 0.232777
O O6 0.500000 0.323520 0.000000
O O7 0.490033 0.354933 0.773167
O O8 0.500000 0.399560 0.500000
O O9 0.684162 0.500000 0.749222
O O10 0.711778 0.399108 0.631267
O O11 0.181995 0.231802 0.545599
O O12 0.274684 0.151729 0.497505
#
# Coordination Sequence:
#
# PCOD9220391 Si02
#       5
#     8   8   8   8   8
#     4  11  22  32  53  82 113 142 193 238 274 334
#     4   9  17  31  55  81 110 141 176 240 285 321
#     4  11  23  38  54  77 117 153 184 228 289 346
#     4   9  17  32  54  80 107 142 184 222 285 334
#     4   9  17  31  54  79 111 138 178 243 277 318
#
# _framework density 19.269442999999999
#
# number of rings (size 3 to 8) (size 9 to 14) (size 15 to 20)
#    0.000    2.200    2.000    3.600    0.000    0.000 
#    0.000    2.000    0.000    6.600    0.000    4.200 
#    0.000    0.000    0.000    0.000    0.000    0.000 
#
# Total GULP energy -111530.262561 kJ/mol
# GULP energy per Si atom -5576.513128 kJ/mol
# Density = 1.922559 g / cm^3
# Si number density = 19.269443 Si / 1000 Ang^3
#
#
#
# Elastic Constant Matrix: (Units=GPa)
#
#
# Indices 1 2 3 4 5 6 
#
# 1 32.9329 4.9409 26.3305 0.0000 3.9447 0.0000
# 2 4.9409 38.8525 36.0057 0.0000 5.7633 0.0000
# 3 26.3305 36.0057 168.4710 0.0000 16.6859 0.0000
# 4 0.0000 0.0000 0.0000 24.3397 0.0000 -3.1958
# 5 3.9447 5.7633 16.6859 0.0000 23.1471 0.0000
# 6 0.0000 0.0000 0.0000 -3.1958 0.0000 18.2370
#
#
#
# Elastic Compliance Matrix: (Units=1/GPa)
#
#
# Indices 1 2 3 4 5 6 
#
# 1 0.034828 0.000927 -0.005417 0.000000 -0.002261 0.000000
# 2 0.000927 0.032353 -0.006726 0.000000 -0.003365 0.000000
# 3 -0.005417 -0.006726 0.008575 0.000000 -0.003583 0.000000
# 4 0.000000 0.000000 0.000000 0.042053 0.000000 0.007369
# 5 -0.002261 -0.003365 -0.003583 0.000000 0.047008 0.000000
# 6 0.000000 0.000000 0.000000 0.007369 0.000000 0.056125
#
#
# Mechanical properties :
#
#
# Convention : Reuss Voigt Hill
#
# Bulk Modulus (GPa) = 18.75395 41.64561 30.19978
# Shear Modulus (GPa) = 19.14619 24.67673 21.91146
#
# Velocity S-wave (km/s) = 3.15557 3.58245 3.37576
# Velocity P-wave (km/s) = 4.79900 6.22664 5.55885
#
# Compressibility (1/GPa) = 0.05332210
#
# Stress axis : x y z
#
# Youngs Moduli (GPa) = 28.71270 30.90917 116.62030
#
# Poissons Ratio (x) = -0.02865 0.63178
# Poissons Ratio (y) = -0.02661 0.78439
# Poissons Ratio (z) = 0.15555 0.20790
#
# Static dielectric constant tensor:
#      x y z
#    x 1.745730 0.000000 0.018740 
#    y 0.000000 1.619540 0.000000 
#    z 0.018740 0.000000 1.759360 
# 
# From -- ./inp_files/158439.got.cif
#   From: 2010.05.17/outbox.cif.g08.bks.cpg/sg12_80_cif.got.tgz:158439.got - 2010.06.03 13:09:07.
