data_PCOD9220334
_publ_section_title
;
Structure prediction by ZEFSAII (Michael W. Deem and Ramdas Pophale) SiO2 
 PCOD9220334
Probable space group: C 2/M
;
_chemical_formula_sum "Si O2"
_cell_formula_units_Z 34
_cell_length_a 15.991853
_cell_length_b 17.540291
_cell_length_c 7.964707
_cell_angle_alpha 90.000000
_cell_angle_beta 129.418782
_cell_angle_gamma 90.000000
_cell_volume 1725.910178
_symmetry_space_group_name_H-M "C 2/M"
_symmetry_group_IT_number 12
_symmetry_cell_setting 'monoclinic'
loop_
_space_group_symop_operation_xyz
x,y,z
-x,y,-z
-x,-y,-z
x,-y,z
1/2+x,1/2+y,z
1/2-x,1/2+y,-z
1/2-x,1/2-y,-z
1/2+x,1/2-y,z
loop_
_atom_site_type_symbol
_atom_site_label
_atom_site_fract_x
_atom_site_fract_y
_atom_site_fract_z
Si Si1 0.728611 0.000000 0.470422
Si Si2 0.000000 0.500000 0.000000
Si Si3 0.700075 0.870538 0.714927
Si Si4 0.939757 0.162633 0.095736
Si Si5 0.000000 0.260351 0.500000
Si Si6 0.477483 0.500000 0.671441
Si Si7 0.906217 0.500000 0.240277
O O1 0.715742 0.925781 0.574418
O O2 0.848818 0.000000 0.544975
O O3 0.634114 0.000000 0.213634
O O4 0.026117 0.500000 0.838873
O O5 0.600975 0.812709 0.573892
O O6 0.667186 0.926427 0.825228
O O7 0.812590 0.830757 0.898278
O O8 0.970359 0.210627 0.299270
O O9 0.970821 0.075116 0.178175
O O10 0.000000 0.185436 0.000000
O O11 0.500000 0.500000 0.500000
O O12 0.000000 0.500000 0.500000
#
# Coordination Sequence:
#
# PCOD9220334 Si02
#       7
#     4   2   8   8   4   4   4
#     4  11  23  44  76 103 134 179 237 286 339 400
#     4  12  22  34  64 108 130 170 222 274 348 392
#     4  11  23  48  69  97 144 179 225 292 336 405
#     4  12  26  46  72 101 136 184 228 283 348 399
#     4  12  26  46  66 104 144 180 230 272 348 428
#     4  12  24  47  72 103 136 172 239 290 327 409
#     4  11  21  42  67  99 135 174 231 283 335 392
#
# _framework density 19.699752
#
# number of rings (size 3 to 8) (size 9 to 14) (size 15 to 20)
#    0.000    0.471    7.059    2.471    3.294    0.941 
#    8.471    0.000    0.000    0.000    0.000    0.000 
#    0.000    0.000    0.000    0.000    0.000    0.000 
#
# Total GULP energy -94800.812327 kJ/mol
# GULP energy per Si atom -5576.518372 kJ/mol
# Density = 1.965491 g / cm^3
# Si number density = 19.699752 Si / 1000 Ang^3
#
#
#
# Elastic Constant Matrix: (Units=GPa)
#
#
# Indices 1 2 3 4 5 6 
#
# 1 168.7756 40.7243 72.0613 0.0000 6.6883 0.0000
# 2 40.7243 93.7598 50.5373 0.0000 9.0735 0.0000
# 3 72.0613 50.5373 149.2648 0.0000 10.1671 0.0000
# 4 0.0000 0.0000 0.0000 210.2167 0.0000 213.6531
# 5 6.6883 9.0735 10.1671 0.0000 59.3575 0.0000
# 6 0.0000 0.0000 0.0000 213.6531 0.0000 223.6768
#
#
#
# Elastic Compliance Matrix: (Units=1/GPa)
#
#
# Indices 1 2 3 4 5 6 
#
# 1 0.007663 -0.001627 -0.003143 0.000000 -0.000076 0.000000
# 2 -0.001627 0.013484 -0.003695 0.000000 -0.001245 0.000000
# 3 -0.003143 -0.003695 0.009517 0.000000 -0.000711 0.000000
# 4 0.000000 0.000000 0.000000 0.162920 0.000000 -0.155619
# 5 -0.000076 -0.001245 -0.000711 0.000000 0.017168 0.000000
# 6 0.000000 0.000000 0.000000 -0.155619 0.000000 0.153116
#
#
# Mechanical properties :
#
#
# Convention : Reuss Voigt Hill
#
# Bulk Modulus (GPa) = 72.81761 82.04957 77.43359
# Shear Modulus (GPa) = 12.97434 115.21533 64.09484
#
# Velocity S-wave (km/s) = 2.56911 7.65589 5.71021
# Velocity P-wave (km/s) = 6.77085 10.94946 9.10316
#
# Compressibility (1/GPa) = 0.01373294
#
# Stress axis : x y z
#
# Youngs Moduli (GPa) = 130.50294 74.15994 105.07863
#
# Poissons Ratio (x) = 0.12062 0.33031
# Poissons Ratio (y) = 0.21227 0.38831
# Poissons Ratio (z) = 0.41023 0.27405
#
# Static dielectric constant tensor:
#      x y z
#    x 1.709290 0.000000 0.023660 
#    y 0.000000 1.704320 0.000000 
#    z 0.023660 0.000000 1.677790 
# 
# From -- ./inp_files/61511.got.cif
#   From: 2010.05.17/outbox.cif.g08.bks.cpg/sg12_31_cif.got.tgz:61511.got - 2010.06.03 13:09:07.
