data_PCOD9220749
_publ_section_title
;
Structure prediction by ZEFSAII (Michael W. Deem and Ramdas Pophale) SiO2 
 PCOD9220749
Probable space group: C 2/M
;
_chemical_formula_sum "Si O2"
_cell_formula_units_Z 48
_cell_length_a 27.711951
_cell_length_b 8.606224
_cell_length_c 15.716910
_cell_angle_alpha 90.000000
_cell_angle_beta 139.086039
_cell_angle_gamma 90.000000
_cell_volume 2454.926324
_symmetry_space_group_name_H-M "C 2/M"
_symmetry_group_IT_number 12
_symmetry_cell_setting 'monoclinic'
loop_
_space_group_symop_operation_xyz
x,y,z
-x,y,-z
-x,-y,-z
x,-y,z
1/2+x,1/2+y,z
1/2-x,1/2+y,-z
1/2-x,1/2-y,-z
1/2+x,1/2-y,z
loop_
_atom_site_type_symbol
_atom_site_label
_atom_site_fract_x
_atom_site_fract_y
_atom_site_fract_z
Si Si1 0.780409 0.813788 0.782694
Si Si2 0.443982 0.186365 0.000793
Si Si3 0.711452 0.686622 0.864294
Si Si4 0.541102 0.689258 0.639588
Si Si5 0.030298 0.813110 0.277276
Si Si6 0.805149 0.686642 0.501996
O O1 0.750623 0.747241 0.831604
O O2 0.727516 0.768040 0.633848
O O3 0.781816 0.000000 0.789219
O O4 0.862939 0.753457 0.877196
O O5 0.477639 0.248988 0.133449
O O6 0.439645 0.000000 0.998106
O O7 0.500000 0.230882 0.000000
O O8 0.714091 0.500000 0.868292
O O9 0.626114 0.736900 0.751451
O O10 0.750000 0.750000 0.000000
O O11 0.500000 0.743700 0.500000
O O12 0.539874 0.500000 0.637250
O O13 0.500452 0.737915 0.671665
O O14 0.113245 0.752966 0.376481
O O15 0.029942 0.000000 0.273540
O O16 0.807619 0.500000 0.510057
O O17 0.750000 0.750000 0.500000
#
# Coordination Sequence:
#
# PCOD9220749 Si02
#       6
#     8   8   8   8   8   8
#     4  11  24  41  61  88 122 160 203 251 305 362
#     4  11  24  41  62  88 119 157 202 251 304 363
#     4  11  22  38  62  89 120 158 200 249 302 359
#     4   9  19  36  58  85 115 150 193 237 285 345
#     4  11  22  38  63  91 121 157 197 245 301 361
#     4  11  24  41  62  89 122 159 202 252 304 361
#
# _framework density 19.552520999999999
#
# number of rings (size 3 to 8) (size 9 to 14) (size 15 to 20)
#    0.000    1.333    0.000    5.500    0.000    9.333 
#    0.000    2.500    0.000    6.000    0.000    0.000 
#    0.000    0.000    0.000    0.000    0.000    0.000 
#
# Total GULP energy -134273.582203 kJ/mol
# GULP energy per Si atom -5594.732592 kJ/mol
# Density = 1.950802 g / cm^3
# Si number density = 19.552521 Si / 1000 Ang^3
#
#
#
# Elastic Constant Matrix: (Units=GPa)
#
#
# Indices 1 2 3 4 5 6 
#
# 1 62.5325 7.4275 -23.2056 0.0000 -0.0815 0.0000
# 2 7.4275 39.8913 9.7697 0.0000 -2.2185 0.0000
# 3 -23.2056 9.7697 73.3490 0.0000 0.2666 0.0000
# 4 0.0000 0.0000 0.0000 34.1614 0.0000 3.4206
# 5 -0.0815 -2.2185 0.2666 0.0000 46.0814 0.0000
# 6 0.0000 0.0000 0.0000 3.4206 0.0000 28.0503
#
#
#
# Elastic Compliance Matrix: (Units=1/GPa)
#
#
# Indices 1 2 3 4 5 6 
#
# 1 0.019115 -0.005225 0.006744 0.000000 -0.000257 0.000000
# 2 -0.005225 0.027416 -0.005310 0.000000 0.001341 0.000000
# 3 0.006744 -0.005310 0.016476 0.000000 -0.000339 0.000000
# 4 0.000000 0.000000 0.000000 0.029635 0.000000 -0.003614
# 5 -0.000257 0.001341 -0.000339 0.000000 0.021767 0.000000
# 6 0.000000 0.000000 0.000000 -0.003614 0.000000 0.036091
#
#
# Mechanical properties :
#
#
# Convention : Reuss Voigt Hill
#
# Bulk Modulus (GPa) = 18.04222 18.19510 18.11866
# Shear Modulus (GPa) = 28.31985 33.77737 31.04861
#
# Velocity S-wave (km/s) = 3.80991 4.16085 3.98924
# Velocity P-wave (km/s) = 5.34804 5.69294 5.52318
#
# Compressibility (1/GPa) = 0.05542555
#
# Stress axis : x y z
#
# Youngs Moduli (GPa) = 52.31558 36.47512 60.69577
#
# Poissons Ratio (x) = 0.19058 -0.40935
# Poissons Ratio (y) = 0.27335 0.32227
# Poissons Ratio (z) = -0.35283 0.19367
#
# Static dielectric constant tensor:
#      x y z
#    x 1.649590 0.000000 -0.009420 
#    y 0.000000 1.664610 0.000000 
#    z -0.009420 0.000000 1.641210 
# 
# From -- ./inp_files/244868.got.cif
#   From: 2010.05.17/outbox.cif.g08.bks.cpg/sg12_123_cif.got.tgz:244868.got - 2010.06.03 13:09:07.
