data_PCOD9220346
_publ_section_title
;
Structure prediction by ZEFSAII (Michael W. Deem and Ramdas Pophale) SiO2 
 PCOD9220346
Probable space group: C 2/M
;
_chemical_formula_sum "Si O2"
_cell_formula_units_Z 34
_cell_length_a 15.639664
_cell_length_b 16.403977
_cell_length_c 6.741320
_cell_angle_alpha 90.000000
_cell_angle_beta 93.776815
_cell_angle_gamma 90.000000
_cell_volume 1725.747642
_symmetry_space_group_name_H-M "C 2/M"
_symmetry_group_IT_number 12
_symmetry_cell_setting 'monoclinic'
loop_
_space_group_symop_operation_xyz
x,y,z
-x,y,-z
-x,-y,-z
x,-y,z
1/2+x,1/2+y,z
1/2-x,1/2+y,-z
1/2-x,1/2-y,-z
1/2+x,1/2-y,z
loop_
_atom_site_type_symbol
_atom_site_label
_atom_site_fract_x
_atom_site_fract_y
_atom_site_fract_z
Si Si1 0.500000 0.000000 0.500000
Si Si2 0.592687 0.135896 0.280721
Si Si3 0.409345 0.300336 0.462806
Si Si4 0.750931 0.406773 0.427648
Si Si5 0.667275 0.797162 0.898140
O O1 0.479695 0.927666 0.663966
O O2 0.583055 0.221324 0.394664
O O3 0.679708 0.097190 0.385152
O O4 0.610706 0.159654 0.057479
O O5 0.500000 0.344472 0.500000
O O6 0.330661 0.354428 0.522958
O O7 0.387443 0.266415 0.241260
O O8 0.729900 0.500000 0.381684
O O9 0.796155 0.364054 0.248227
O O10 0.750000 0.750000 0.000000
#
# Coordination Sequence:
#
# PCOD9220346 Si02
#       5
#     2   8   8   8   8
#     4  12  24  40  66 104 142 166 208 302 338 386
#     4  11  22  43  64  95 135 169 220 269 339 405
#     4  11  23  42  65  95 131 172 223 272 332 399
#     4  11  23  40  64  96 134 173 223 272 336 395
#     4  11  21  42  70  93 123 184 225 265 331 405
#
# _framework density 19.701606000000002
#
# number of rings (size 3 to 8) (size 9 to 14) (size 15 to 20)
#    0.000    0.941    7.059    1.412    1.647    1.412 
#    0.000    4.706    0.000    1.412    0.000    0.000 
#    0.000    0.000    0.000    0.000    0.000    0.000 
#
# Total GULP energy -94743.233636 kJ/mol
# GULP energy per Si atom -5573.131390 kJ/mol
# Density = 1.965676 g / cm^3
# Si number density = 19.701606 Si / 1000 Ang^3
#
#
#
# Elastic Constant Matrix: (Units=GPa)
#
#
# Indices 1 2 3 4 5 6 
#
# 1 55.4610 15.5351 46.8340 0.0000 0.7664 0.0000
# 2 15.5351 81.2189 27.8639 0.0000 -5.4387 0.0000
# 3 46.8340 27.8639 146.6424 0.0000 -17.3219 0.0000
# 4 0.0000 0.0000 0.0000 22.3092 0.0000 -8.7650
# 5 0.7664 -5.4387 -17.3219 0.0000 28.4232 0.0000
# 6 0.0000 0.0000 0.0000 -8.7650 0.0000 -8.5228
#
#
#
# Elastic Compliance Matrix: (Units=1/GPa)
#
#
# Indices 1 2 3 4 5 6 
#
# 1 0.026093 -0.002462 -0.008625 0.000000 -0.006431 0.000000
# 2 -0.002462 0.013434 -0.001567 0.000000 0.001682 0.000000
# 3 -0.008625 -0.001567 0.010629 0.000000 0.006410 0.000000
# 4 0.000000 0.000000 0.000000 0.031925 0.000000 -0.032833
# 5 -0.006431 0.001682 0.006410 0.000000 0.039584 0.000000
# 6 0.000000 0.000000 0.000000 -0.032833 0.000000 -0.083567
#
#
# Mechanical properties :
#
#
# Convention : Reuss Voigt Hill
#
# Bulk Modulus (GPa) = 40.24903 51.53205 45.89054
# Shear Modulus (GPa) = 69.74445 21.31454 45.52949
#
# Velocity S-wave (km/s) = 5.95628 3.29274 4.81245
# Velocity P-wave (km/s) = 8.23266 6.37725 7.36362
#
# Compressibility (1/GPa) = 0.02484532
#
# Stress axis : x y z
#
# Youngs Moduli (GPa) = 38.32468 74.43917 94.08190
#
# Poissons Ratio (x) = 0.18331 0.81147
# Poissons Ratio (y) = 0.09437 0.14747
# Poissons Ratio (z) = 0.33056 0.11668
#
# Static dielectric constant tensor:
#      x y z
#    x 1.770650 0.000000 0.000110 
#    y 0.000000 1.655170 0.000000 
#    z 0.000110 0.000000 1.703340 
# 
# From -- ./inp_files/14932.got.cif
#   From: 2010.05.17/outbox.cif.g08.bks.cpg/sg12_8_cif.got.tgz:14932.got - 2010.06.03 13:09:07.
