data_PCOD9220725
_publ_section_title
;
Structure prediction by ZEFSAII (Michael W. Deem and Ramdas Pophale) SiO2 
 PCOD9220725
Probable space group: C 2/M
;
_chemical_formula_sum "Si O2"
_cell_formula_units_Z 48
_cell_length_a 23.694606
_cell_length_b 26.147077
_cell_length_c 13.752004
_cell_angle_alpha 90.000000
_cell_angle_beta 18.463957
_cell_angle_gamma 90.000000
_cell_volume 2698.346427
_symmetry_space_group_name_H-M "C 2/M"
_symmetry_group_IT_number 12
_symmetry_cell_setting 'monoclinic'
loop_
_space_group_symop_operation_xyz
x,y,z
-x,y,-z
-x,-y,-z
x,-y,z
1/2+x,1/2+y,z
1/2-x,1/2+y,-z
1/2-x,1/2-y,-z
1/2+x,1/2-y,z
loop_
_atom_site_type_symbol
_atom_site_label
_atom_site_fract_x
_atom_site_fract_y
_atom_site_fract_z
Si Si1 0.546237 0.738417 0.315821
Si Si2 0.672413 0.194176 0.649658
Si Si3 0.872897 0.336936 0.496592
Si Si4 0.314991 0.556486 0.989734
Si Si5 0.523965 0.057310 0.308660
Si Si6 0.008696 0.153159 0.210287
O O1 0.500000 0.720036 0.500000
O O2 0.454602 0.791191 0.429084
O O3 0.516788 0.697316 0.279020
O O4 0.750000 0.750000 0.000000
O O5 0.750000 0.250000 0.500000
O O6 0.625665 0.175253 0.618971
O O7 0.824254 0.160421 0.454419
O O8 0.500000 0.197474 0.000000
O O9 0.981203 0.389964 0.325733
O O10 0.672101 0.341946 0.866705
O O11 0.396596 0.500000 0.858230
O O12 0.450411 0.600037 0.801348
O O13 0.212503 0.564124 0.055447
O O14 0.144099 0.556014 0.341786
O O15 0.525472 0.000000 0.260328
#
# Coordination Sequence:
#
# PCOD9220725 Si02
#       6
#     8   8   8   8   8   8
#     4  12  24  35  54  87 121 151 182 233 292 349
#     4  12  26  42  59  81 113 159 200 242 290 343
#     4  11  22  38  61  86 119 153 196 239 288 344
#     4   8  15  31  57  89 119 149 188 237 288 338
#     4   8  15  30  57  90 120 148 186 238 290 337
#     4  11  22  39  60  86 117 155 194 240 288 343
#
# _framework density 17.788672999999999
#
# number of rings (size 3 to 8) (size 9 to 14) (size 15 to 20)
#    0.000    1.667    3.333    3.500    4.667    0.000 
#    0.000    0.833    0.000    6.500    0.000    0.000 
#    0.000    0.000    0.000    0.000    0.000    0.000 
#
# Total GULP energy -133675.158666 kJ/mol
# GULP energy per Si atom -5569.798278 kJ/mol
# Density = 1.774819 g / cm^3
# Si number density = 17.788673 Si / 1000 Ang^3
#
#
#
# Elastic Constant Matrix: (Units=GPa)
#
#
# Indices 1 2 3 4 5 6 
#
# 1 104.4629 59.4962 31.0140 -0.0033 6.4859 0.0004
# 2 59.4962 147.8703 29.1642 -0.0018 -9.7848 -0.0037
# 3 31.0140 29.1642 77.7413 0.0042 -3.8599 0.0096
# 4 -0.0033 -0.0018 0.0042 15.5455 0.0098 -1.2809
# 5 6.4859 -9.7848 -3.8599 0.0098 32.3623 -0.0038
# 6 0.0004 -0.0037 0.0096 -1.2809 -0.0038 23.6096
#
#
#
# Elastic Compliance Matrix: (Units=1/GPa)
#
#
# Indices 1 2 3 4 5 6 
#
# 1 0.013970 -0.005177 -0.003871 0.000007 -0.004827 0.000000
# 2 -0.005177 0.009339 -0.001254 -0.000002 0.003712 0.000003
# 3 -0.003871 -0.001254 0.014986 -0.000007 0.002184 -0.000006
# 4 0.000007 -0.000002 -0.000007 0.064616 -0.000022 0.003506
# 5 -0.004827 0.003712 0.002184 -0.000022 0.033250 0.000004
# 6 0.000000 0.000003 -0.000006 0.003506 0.000004 0.042546
#
#
# Mechanical properties :
#
#
# Convention : Reuss Voigt Hill
#
# Bulk Modulus (GPa) = 56.52297 63.26925 59.89611
# Shear Modulus (GPa) = 24.36563 28.33016 26.34790
#
# Velocity S-wave (km/s) = 3.70500 3.99506 3.85276
# Velocity P-wave (km/s) = 7.08141 7.54487 7.31681
#
# Compressibility (1/GPa) = 0.01769192
#
# Stress axis : x y z
#
# Youngs Moduli (GPa) = 71.58119 107.08352 66.72827
#
# Poissons Ratio (x) = 0.55436 0.25829
# Poissons Ratio (y) = 0.37057 0.08366
# Poissons Ratio (z) = 0.27708 0.13425
#
# Static dielectric constant tensor:
#      x y z
#    x 1.681730 0.000090 -0.002260 
#    y 0.000090 1.661940 0.000010 
#    z -0.002260 0.000010 1.593350 
# 
# From -- ./inp_files/170677.got.cif
#   From: 2010.05.17/outbox.cif.g08.bks.cpg/sg12_86_cif.got.tgz:170677.got - 2010.06.03 13:09:07.
