data_PCOD9220345
_publ_section_title
;
Structure prediction by ZEFSAII (Michael W. Deem and Ramdas Pophale) SiO2 
 PCOD9220345
Probable space group: C 2/M
;
_chemical_formula_sum "Si O2"
_cell_formula_units_Z 44
_cell_length_a 12.499271
_cell_length_b 23.254564
_cell_length_c 11.736654
_cell_angle_alpha 90.000000
_cell_angle_beta 145.354547
_cell_angle_gamma 90.000000
_cell_volume 1939.389462
_symmetry_space_group_name_H-M "C 2/M"
_symmetry_group_IT_number 12
_symmetry_cell_setting 'monoclinic'
loop_
_space_group_symop_operation_xyz
x,y,z
-x,y,-z
-x,-y,-z
x,-y,z
1/2+x,1/2+y,z
1/2-x,1/2+y,-z
1/2-x,1/2-y,-z
1/2+x,1/2-y,z
loop_
_atom_site_type_symbol
_atom_site_label
_atom_site_fract_x
_atom_site_fract_y
_atom_site_fract_z
Si Si1 0.155832 0.875192 0.549423
Si Si2 0.616707 0.314179 0.275587
Si Si3 0.306688 0.000000 0.993041
Si Si4 0.993425 0.695089 0.118526
Si Si5 0.253095 0.000000 0.673570
Si Si6 0.000000 0.651882 0.500000
Si Si7 0.748524 0.879605 0.931997
O O1 0.141015 0.847291 0.414789
O O2 0.358568 0.855992 0.770986
O O3 0.151777 0.943298 0.540983
O O4 0.000000 0.853525 0.500000
O O5 0.556714 0.248930 0.248940
O O6 0.817771 0.314556 0.388018
O O7 0.446567 0.351081 0.070442
O O8 0.256534 0.000000 0.814527
O O9 0.534657 0.000000 0.188687
O O10 0.239149 0.942439 0.999425
O O11 0.822735 0.664355 0.031513
O O12 0.000000 0.723873 0.000000
O O13 0.904171 0.619775 0.305940
#
# Coordination Sequence:
#
# PCOD9220345 Si02
#       7
#     8   8   4   8   4   4   8
#     4  12  25  42  72 110 146 187 236 295 365 423
#     4  12  27  47  70 107 144 192 243 292 359 424
#     4  11  22  43  73 104 144 184 243 292 361 427
#     4  12  24  45  71 107 148 189 237 296 358 426
#     4  11  21  42  70 107 148 185 228 303 360 423
#     4  12  26  49  70 102 148 189 252 284 356 424
#     4  12  26  47  73 105 143 195 237 300 354 425
#
# _framework density 22.687552
#
# number of rings (size 3 to 8) (size 9 to 14) (size 15 to 20)
#    0.000    0.182    3.636    6.273    1.273    1.091 
#    0.000    3.636    0.000    0.000    0.000    0.000 
#    0.000    0.000    0.000    0.000    0.000    0.000 
#
# Total GULP energy -122952.714210 kJ/mol
# GULP energy per Si atom -5588.759737 kJ/mol
# Density = 2.263591 g / cm^3
# Si number density = 22.687552 Si / 1000 Ang^3
#
#
#
# Elastic Constant Matrix: (Units=GPa)
#
#
# Indices 1 2 3 4 5 6 
#
# 1 142.5041 47.3338 29.7151 0.0000 23.4483 0.0000
# 2 47.3338 158.3028 15.3098 0.0000 5.4275 0.0000
# 3 29.7151 15.3098 73.1898 0.0000 7.6288 0.0000
# 4 0.0000 0.0000 0.0000 12.6888 0.0000 10.8621
# 5 23.4483 5.4275 7.6288 0.0000 53.3459 0.0000
# 6 0.0000 0.0000 0.0000 10.8621 0.0000 -1.1084
#
#
#
# Elastic Compliance Matrix: (Units=1/GPa)
#
#
# Indices 1 2 3 4 5 6 
#
# 1 0.008896 -0.002277 -0.002794 0.000000 -0.003279 0.000000
# 2 -0.002277 0.007042 -0.000587 0.000000 0.000368 0.000000
# 3 -0.002794 -0.000587 0.015010 0.000000 -0.000859 0.000000
# 4 0.000000 0.000000 0.000000 0.008394 0.000000 0.082258
# 5 -0.003279 0.000368 -0.000859 0.000000 0.020272 0.000000
# 6 0.000000 0.000000 0.000000 0.082258 0.000000 -0.096092
#
#
# Mechanical properties :
#
#
# Convention : Reuss Voigt Hill
#
# Bulk Modulus (GPa) = 50.93736 62.07934 56.50835
# Shear Modulus (GPa) = -268.54654 31.76113 -118.39271
#
# Velocity S-wave (km/s) = -10.89148 3.74563 -7.23169
# Velocity P-wave (km/s) = 11.64755 6.79179 6.69092
#
# Compressibility (1/GPa) = 0.01963195
#
# Stress axis : x y z
#
# Youngs Moduli (GPa) = 112.41221 142.00361 66.62419
#
# Poissons Ratio (x) = 0.32339 0.18612
# Poissons Ratio (y) = 0.25600 0.03910
# Poissons Ratio (z) = 0.31403 0.08334
#
# Static dielectric constant tensor:
#      x y z
#    x 1.665800 0.000000 0.046370 
#    y 0.000000 1.798640 0.000000 
#    z 0.046370 0.000000 1.965540 
# 
# From -- ./inp_files/136126.got.cif
#   From: 2010.05.17/outbox.cif.g08.bks.cpg/sg12_69_cif.got.tgz:136126.got - 2010.06.03 13:09:07.
