data_PCOD9220736
_publ_section_title
;
Structure prediction by ZEFSAII (Michael W. Deem and Ramdas Pophale) SiO2 
 PCOD9220736
Probable space group: C 2/M
;
_chemical_formula_sum "Si O2"
_cell_formula_units_Z 32
_cell_length_a 14.723712
_cell_length_b 19.658537
_cell_length_c 9.279012
_cell_angle_alpha 90.000000
_cell_angle_beta 150.082108
_cell_angle_gamma 90.000000
_cell_volume 1339.554814
_symmetry_space_group_name_H-M "C 2/M"
_symmetry_group_IT_number 12
_symmetry_cell_setting 'monoclinic'
loop_
_space_group_symop_operation_xyz
x,y,z
-x,y,-z
-x,-y,-z
x,-y,z
1/2+x,1/2+y,z
1/2-x,1/2+y,-z
1/2-x,1/2-y,-z
1/2+x,1/2-y,z
loop_
_atom_site_type_symbol
_atom_site_label
_atom_site_fract_x
_atom_site_fract_y
_atom_site_fract_z
Si Si1 0.172844 0.862923 0.799671
Si Si2 0.581007 0.806667 0.347194
Si Si3 0.900510 0.168853 0.992221
Si Si4 0.288836 0.072284 0.674456
O O1 0.191475 0.916484 0.695006
O O2 0.000000 0.819767 0.500000
O O3 0.375893 0.833341 0.090414
O O4 0.123777 0.875344 0.898442
O O5 0.707282 0.805894 0.662544
O O6 0.688732 0.858787 0.388582
O O7 0.528763 0.734265 0.204638
O O8 0.000000 0.130075 0.000000
O O9 0.226163 0.000000 0.522284
O O10 0.500000 0.063816 0.000000
#
# Coordination Sequence:
#
# PCOD9220736 Si02
#       4
#     8   8   8   8
#     4  11  22  38  61  93 131 173 215 261 323 389
#     4  11  23  40  63  95 133 173 213 266 328 388
#     4  12  23  38  60  94 137 170 210 262 327 397
#     4   9  20  42  68  92 124 171 224 269 317 382
#
# _framework density 23.888532999999999
#
# number of rings (size 3 to 8) (size 9 to 14) (size 15 to 20)
#    0.000    1.250    0.000    7.500    0.000    0.500 
#    0.000    3.750    0.000    9.000    0.000    5.250 
#    0.000    0.000    0.000    0.000    0.000    0.000 
#
# Total GULP energy -89071.541559 kJ/mol
# GULP energy per Si atom -5566.971347 kJ/mol
# Density = 2.383416 g / cm^3
# Si number density = 23.888533 Si / 1000 Ang^3
#
#
#
# Elastic Constant Matrix: (Units=GPa)
#
#
# Indices 1 2 3 4 5 6 
#
# 1 198.8553 41.5685 30.1089 0.0000 -2.3648 0.0000
# 2 41.5685 100.0007 40.8720 0.0000 1.4261 0.0000
# 3 30.1089 40.8720 206.9260 0.0000 -5.4263 0.0000
# 4 0.0000 0.0000 0.0000 -19.2699 0.0000 -64.1588
# 5 -2.3648 1.4261 -5.4263 0.0000 30.4598 0.0000
# 6 0.0000 0.0000 0.0000 -64.1588 0.0000 -116.6582
#
#
#
# Elastic Compliance Matrix: (Units=1/GPa)
#
#
# Indices 1 2 3 4 5 6 
#
# 1 0.005541 -0.002160 -0.000367 0.000000 0.000466 0.000000
# 2 -0.002160 0.011744 -0.002034 0.000000 -0.001080 0.000000
# 3 -0.000367 -0.002034 0.005314 0.000000 0.001013 0.000000
# 4 0.000000 0.000000 0.000000 0.062439 0.000000 -0.034340
# 5 0.000466 -0.001080 0.001013 0.000000 0.033097 0.000000
# 6 0.000000 0.000000 0.000000 -0.034340 0.000000 0.010314
#
#
# Mechanical properties :
#
#
# Convention : Reuss Voigt Hill
#
# Bulk Modulus (GPa) = 74.19553 81.20896 77.70225
# Shear Modulus (GPa) = 35.19508 5.12185 20.15847
#
# Velocity S-wave (km/s) = 3.84253 1.46585 2.90807
# Velocity P-wave (km/s) = 7.12834 6.07731 6.62370
#
# Compressibility (1/GPa) = 0.01347790
#
# Stress axis : x y z
#
# Youngs Moduli (GPa) = 180.45742 85.14675 188.16785
#
# Poissons Ratio (x) = 0.18391 0.06915
# Poissons Ratio (y) = 0.38978 0.38269
# Poissons Ratio (z) = 0.06631 0.17317
#
# Static dielectric constant tensor:
#      x y z
#    x 2.005050 0.000000 0.019610 
#    y 0.000000 1.970300 0.000000 
#    z 0.019610 0.000000 2.000890 
# 
# From -- ./inp_files/65038.got.cif
#   From: 2010.05.17/outbox.cif.g08.bks.cpg/sg12_33_cif.got.tgz:65038.got - 2010.06.03 13:09:07.
