data_PCOD9220851
_publ_section_title
;
Structure prediction by ZEFSAII (Michael W. Deem and Ramdas Pophale) SiO2 
 PCOD9220851
Probable space group: C 2/M
;
_chemical_formula_sum "Si O2"
_cell_formula_units_Z 48
_cell_length_a 12.610103
_cell_length_b 28.993286
_cell_length_c 8.250697
_cell_angle_alpha 90.000000
_cell_angle_beta 48.601366
_cell_angle_gamma 90.000000
_cell_volume 2262.775222
_symmetry_space_group_name_H-M "C 2/M"
_symmetry_group_IT_number 12
_symmetry_cell_setting 'monoclinic'
loop_
_space_group_symop_operation_xyz
x,y,z
-x,y,-z
-x,-y,-z
x,-y,z
1/2+x,1/2+y,z
1/2-x,1/2+y,-z
1/2-x,1/2-y,-z
1/2+x,1/2-y,z
loop_
_atom_site_type_symbol
_atom_site_label
_atom_site_fract_x
_atom_site_fract_y
_atom_site_fract_z
Si Si1 0.461047 0.853049 0.728914
Si Si2 0.577370 0.949332 0.596408
Si Si3 0.917472 0.050144 0.255034
Si Si4 0.288470 0.699194 0.897597
Si Si5 0.957170 0.850793 0.231519
Si Si6 0.794141 0.299689 0.391760
O O1 0.500000 0.850217 0.500000
O O2 0.511277 0.903219 0.741278
O O3 0.544850 0.812974 0.738653
O O4 0.298631 0.840375 0.919084
O O5 0.500000 0.950816 0.500000
O O6 0.747385 0.944962 0.403285
O O7 0.551878 0.000000 0.699370
O O8 0.971928 0.097029 0.281226
O O9 0.942033 0.000000 0.308984
O O10 0.000000 0.048934 0.000000
O O11 0.450396 0.686213 0.765267
O O12 0.247225 0.696258 0.752577
O O13 0.250000 0.750000 0.000000
O O14 0.795570 0.836372 0.414836
O O15 0.000000 0.849007 0.000000
O O16 0.750000 0.250000 0.500000
#
# Coordination Sequence:
#
# PCOD9220851 Si02
#       6
#     8   8   8   8   8   8
#     4  11  22  39  63  92 121 160 203 254 305 359
#     4   9  18  33  58  92 126 160 203 255 303 355
#     4   9  18  33  58  92 126 160 203 255 303 355
#     4  12  26  42  61  88 123 163 204 253 307 370
#     4  11  22  39  63  92 121 160 203 254 305 359
#     4  12  24  42  63  86 121 159 204 253 309 372
#
# _framework density 21.212888
#
# number of rings (size 3 to 8) (size 9 to 14) (size 15 to 20)
#    0.000    1.333    1.667    5.000    7.000    0.000 
#    0.000    0.000    0.000    6.000    0.000    0.000 
#    0.000    0.000    0.000    0.000    0.000    0.000 
#
# Total GULP energy -133997.704181 kJ/mol
# GULP energy per Si atom -5583.237674 kJ/mol
# Density = 2.116461 g / cm^3
# Si number density = 21.212888 Si / 1000 Ang^3
#
#
#
# Elastic Constant Matrix: (Units=GPa)
#
#
# Indices 1 2 3 4 5 6 
#
# 1 64.4681 5.0310 -2.6316 0.0000 4.1541 0.0000
# 2 5.0310 156.1408 6.5418 0.0000 -1.1631 0.0000
# 3 -2.6316 6.5418 61.8245 0.0000 0.9157 0.0000
# 4 0.0000 0.0000 0.0000 20.3331 0.0000 -12.5818
# 5 4.1541 -1.1631 0.9157 0.0000 33.8556 0.0000
# 6 0.0000 0.0000 0.0000 -12.5818 0.0000 28.0952
#
#
#
# Elastic Compliance Matrix: (Units=1/GPa)
#
#
# Indices 1 2 3 4 5 6 
#
# 1 0.015712 -0.000553 0.000756 0.000000 -0.001967 0.000000
# 2 -0.000553 0.006454 -0.000711 0.000000 0.000309 0.000000
# 3 0.000756 -0.000711 0.016291 0.000000 -0.000558 0.000000
# 4 0.000000 0.000000 0.000000 0.068034 0.000000 0.030467
# 5 -0.001967 0.000309 -0.000558 0.000000 0.029804 0.000000
# 6 0.000000 0.000000 0.000000 0.030467 0.000000 0.049237
#
#
# Mechanical properties :
#
#
# Convention : Reuss Voigt Hill
#
# Bulk Modulus (GPa) = 26.70744 33.36840 30.03792
# Shear Modulus (GPa) = 25.12212 34.68960 29.90586
#
# Velocity S-wave (km/s) = 3.44508 4.04828 3.75880
# Velocity P-wave (km/s) = 5.33313 6.13318 5.74709
#
# Compressibility (1/GPa) = 0.03744275
#
# Stress axis : x y z
#
# Youngs Moduli (GPa) = 63.64431 154.93373 61.38543
#
# Poissons Ratio (x) = 0.08562 -0.04643
# Poissons Ratio (y) = 0.03517 0.04365
# Poissons Ratio (z) = -0.04814 0.11016
#
# Static dielectric constant tensor:
#      x y z
#    x 1.700560 0.000000 -0.008350 
#    y 0.000000 1.829340 0.000000 
#    z -0.008350 0.000000 1.715210 
# 
# From -- ./inp_files/67333.got.cif
#   From: 2010.05.17/outbox.cif.g08.bks.cpg/sg12_34_cif.got.tgz:67333.got - 2010.06.03 13:09:07.
