data_PCOD9220413
_publ_section_title
;
Structure prediction by ZEFSAII (Michael W. Deem and Ramdas Pophale) SiO2 
 PCOD9220413
Probable space group: C 2/M
;
_chemical_formula_sum "Si O2"
_cell_formula_units_Z 64
_cell_length_a 9.118367
_cell_length_b 27.796401
_cell_length_c 14.690317
_cell_angle_alpha 90.000000
_cell_angle_beta 107.219320
_cell_angle_gamma 90.000000
_cell_volume 3556.488311
_symmetry_space_group_name_H-M "C 2/M"
_symmetry_group_IT_number 12
_symmetry_cell_setting 'monoclinic'
loop_
_space_group_symop_operation_xyz
x,y,z
-x,y,-z
-x,-y,-z
x,-y,z
1/2+x,1/2+y,z
1/2-x,1/2+y,-z
1/2-x,1/2-y,-z
1/2+x,1/2-y,z
loop_
_atom_site_type_symbol
_atom_site_label
_atom_site_fract_x
_atom_site_fract_y
_atom_site_fract_z
Si Si1 0.521615 0.803542 0.397685
Si Si2 0.945982 0.106966 0.304818
Si Si3 0.255758 0.943912 0.605919
Si Si4 0.755841 0.056360 0.609006
Si Si5 0.764508 0.943892 0.897152
Si Si6 0.949865 0.600958 0.287167
Si Si7 0.622567 0.299064 0.602133
Si Si8 0.613469 0.444087 0.885775
O O1 0.500000 0.817751 0.500000
O O2 0.447897 0.844659 0.321859
O O3 0.432317 0.753045 0.373103
O O4 0.703132 0.798432 0.405262
O O5 0.905245 0.071957 0.381996
O O6 0.901215 0.160174 0.326475
O O7 0.868004 0.089214 0.197925
O O8 0.125510 0.094899 0.327928
O O9 0.268425 0.932858 0.501559
O O10 0.373170 0.913396 0.687805
O O11 0.280300 0.000000 0.622807
O O12 0.606927 0.065470 0.642420
O O13 0.802817 0.000000 0.627259
O O14 0.649408 0.911083 0.819212
O O15 0.936293 0.940655 0.886993
O O16 0.717492 0.000000 0.879053
O O17 0.782702 0.932750 0.007377
O O18 0.500000 0.311332 0.500000
O O19 0.639295 0.500000 0.865101
#
# Coordination Sequence:
#
# PCOD9220413 Si02
#       8
#     8   8   8   8   8   8   8   8
#     4  11  24  40  61  86 115 152 197 245 291 343
#     4  12  22  35  57  82 114 154 195 233 287 340
#     4  11  22  34  48  78 122 153 182 226 276 347
#     4  11  22  34  52  80 114 159 196 224 268 339
#     4   9  18  34  57  84 112 148 198 245 283 334
#     4  12  22  35  57  82 114 154 195 233 287 340
#     4  11  24  40  61  86 115 152 197 245 291 343
#     4   9  18  34  57  84 112 148 198 245 283 334
#
# _framework density 17.995279
#
# number of rings (size 3 to 8) (size 9 to 14) (size 15 to 20)
#    0.000    1.250    2.500    6.750    3.500    2.000 
#    0.000    0.625    0.000    3.000    0.000    0.000 
#    0.000    0.000    0.000    0.000    0.000    0.000 
#
# Total GULP energy -178652.918077 kJ/mol
# GULP energy per Si atom -5582.903690 kJ/mol
# Density = 1.795432 g / cm^3
# Si number density = 17.995279 Si / 1000 Ang^3
#
#
#
# Elastic Constant Matrix: (Units=GPa)
#
#
# Indices 1 2 3 4 5 6 
#
# 1 60.9063 25.2153 23.0133 0.0000 5.5315 0.0000
# 2 25.2153 105.6597 75.8247 0.0000 6.5842 0.0000
# 3 23.0133 75.8247 122.0906 0.0000 11.5720 0.0000
# 4 0.0000 0.0000 0.0000 31.1201 0.0000 -1.6016
# 5 5.5315 6.5842 11.5720 0.0000 19.2346 0.0000
# 6 0.0000 0.0000 0.0000 -1.6016 0.0000 24.7310
#
#
#
# Elastic Compliance Matrix: (Units=1/GPa)
#
#
# Indices 1 2 3 4 5 6 
#
# 1 0.018563 -0.003498 -0.000990 0.000000 -0.003545 0.000000
# 2 -0.003498 0.017739 -0.010475 0.000000 0.001236 0.000000
# 3 -0.000990 -0.010475 0.015394 0.000000 -0.005391 0.000000
# 4 0.000000 0.000000 0.000000 0.032241 0.000000 0.002088
# 5 -0.003545 0.001236 -0.005391 0.000000 0.055829 0.000000
# 6 0.000000 0.000000 0.000000 0.002088 0.000000 0.040570
#
#
# Mechanical properties :
#
#
# Convention : Reuss Voigt Hill
#
# Bulk Modulus (GPa) = 45.93662 59.64035 52.78849
# Shear Modulus (GPa) = 22.98641 25.99068 24.48854
#
# Velocity S-wave (km/s) = 3.57789 3.80453 3.69295
# Velocity P-wave (km/s) = 6.53076 7.24661 6.89798
#
# Compressibility (1/GPa) = 0.02176912
#
# Stress axis : x y z
#
# Youngs Moduli (GPa) = 53.87007 56.37240 64.96218
#
# Poissons Ratio (x) = 0.19722 0.06433
# Poissons Ratio (y) = 0.18846 0.68046
# Poissons Ratio (z) = 0.05335 0.59048
#
# Static dielectric constant tensor:
#      x y z
#    x 1.632860 0.000000 0.010000 
#    y 0.000000 1.603470 0.000000 
#    z 0.010000 0.000000 1.610290 
# 
# From -- ./inp_files/199881.got.cif
#   From: 2010.05.17/outbox.cif.g08.bks.cpg/sg12_100_cif.got.tgz:199881.got - 2010.06.03 13:09:07.
