data_PCOD9220297
_publ_section_title
;
Structure prediction by ZEFSAII (Michael W. Deem and Ramdas Pophale) SiO2 
 PCOD9220297
Probable space group: C 2/M
;
_chemical_formula_sum "Si O2"
_cell_formula_units_Z 64
_cell_length_a 16.682883
_cell_length_b 20.187978
_cell_length_c 23.666673
_cell_angle_alpha 90.000000
_cell_angle_beta 159.382333
_cell_angle_gamma 90.000000
_cell_volume 2806.754892
_symmetry_space_group_name_H-M "C 2/M"
_symmetry_group_IT_number 12
_symmetry_cell_setting 'monoclinic'
loop_
_space_group_symop_operation_xyz
x,y,z
-x,y,-z
-x,-y,-z
x,-y,z
1/2+x,1/2+y,z
1/2-x,1/2+y,-z
1/2-x,1/2-y,-z
1/2+x,1/2-y,z
loop_
_atom_site_type_symbol
_atom_site_label
_atom_site_fract_x
_atom_site_fract_y
_atom_site_fract_z
Si Si1 0.213626 0.078909 0.256612
Si Si2 0.873174 0.309034 0.855617
Si Si3 0.379963 0.926267 0.555522
Si Si4 0.349066 0.731665 0.503042
Si Si5 0.098541 0.816778 0.001727
Si Si6 0.897125 0.579014 0.055607
Si Si7 0.097633 0.143053 0.292690
Si Si8 0.547445 0.120734 0.276932
O O1 0.413173 0.101055 0.345784
O O2 0.232160 0.101735 0.333235
O O3 0.995949 0.117811 0.090204
O O4 0.190437 0.000000 0.238155
O O5 0.621288 0.277040 0.690603
O O6 0.013991 0.250443 0.917011
O O7 0.910098 0.380308 0.851642
O O8 0.000000 0.314804 0.000000
O O9 0.156201 0.885866 0.393105
O O10 0.446348 0.925077 0.664119
O O11 0.339609 0.000000 0.509035
O O12 0.250000 0.750000 0.500000
O O13 0.224592 0.785972 0.380073
O O14 0.279519 0.661248 0.430229
O O15 0.365992 0.822464 0.174366
O O16 0.000000 0.818249 0.000000
O O17 0.866915 0.500000 0.022478
O O18 0.974156 0.586159 0.171444
O O19 0.665120 0.622644 0.892152
#
# Coordination Sequence:
#
# PCOD9220297 Si02
#       8
#     8   8   8   8   8   8   8   8
#     4  11  23  38  64 105 147 194 246 300 370 450
#     4  11  27  49  77 109 144 191 246 317 386 452
#     4  11  23  40  64  99 144 194 244 301 375 438
#     4  12  25  49  76 109 139 183 253 315 381 453
#     4  11  21  41  69 103 143 187 242 302 375 448
#     4  12  28  50  74 109 153 202 259 307 369 455
#     4  12  24  43  74 104 149 197 245 315 368 450
#     4  12  25  43  70 105 142 195 246 310 367 442
#
# _framework density 22.802133999999999
#
# number of rings (size 3 to 8) (size 9 to 14) (size 15 to 20)
#    0.000    0.500    3.750    5.625    1.750    3.500 
#    0.000    1.875    0.000    0.000    0.000    0.000 
#    0.000    0.000    0.000    0.000    0.000    0.000 
#
# Total GULP energy -178523.276751 kJ/mol
# GULP energy per Si atom -5578.852398 kJ/mol
# Density = 2.275024 g / cm^3
# Si number density = 22.802134 Si / 1000 Ang^3
#
#
#
# Elastic Constant Matrix: (Units=GPa)
#
#
# Indices 1 2 3 4 5 6 
#
# 1 63.8297 39.3884 33.4125 0.0081 -19.5095 -0.0022
# 2 39.3884 122.1110 44.8943 0.0425 2.5350 0.0155
# 3 33.4125 44.8943 113.1987 0.0530 -11.6351 0.0089
# 4 0.0081 0.0425 0.0530 23.1819 -0.0062 -19.8570
# 5 -19.5095 2.5350 -11.6351 -0.0062 27.3504 -0.0128
# 6 -0.0022 0.0155 0.0089 -19.8570 -0.0128 14.5917
#
#
#
# Elastic Compliance Matrix: (Units=1/GPa)
#
#
# Indices 1 2 3 4 5 6 
#
# 1 0.028588 -0.008528 -0.003010 -0.000277 0.019902 -0.000344
# 2 -0.008528 0.012314 -0.003251 0.000190 -0.008607 0.000239
# 3 -0.003010 -0.003251 0.011317 0.000116 0.002968 0.000157
# 4 -0.000277 0.000190 0.000116 -0.260384 -0.000391 -0.354343
# 5 0.019902 -0.008607 0.002968 -0.000391 0.052819 -0.000475
# 6 -0.000344 0.000239 0.000157 -0.354343 -0.000475 -0.413673
#
#
# Mechanical properties :
#
#
# Convention : Reuss Voigt Hill
#
# Bulk Modulus (GPa) = 44.16953 59.39221 51.78087
# Shear Modulus (GPa) = -9.40037 25.12107 7.86035
#
# Velocity S-wave (km/s) = -2.03262 3.32278 1.85868
# Velocity P-wave (km/s) = 3.72882 6.38941 5.23109
#
# Compressibility (1/GPa) = 0.02264004
#
# Stress axis : x y z
#
# Youngs Moduli (GPa) = 34.98003 81.20892 88.36146
#
# Poissons Ratio (x) = 0.69251 0.26600
# Poissons Ratio (y) = 0.29829 0.28730
# Poissons Ratio (z) = 0.10530 0.26404
#
# Static dielectric constant tensor:
#      x y z
#    x 1.884340 0.000000 0.009170 
#    y 0.000000 1.900660 -0.000080 
#    z 0.009170 -0.000080 1.945420 
# 
# From -- ./inp_files/344891.got.cif
#   From: 2010.05.17/outbox.cif.g08.bks.cpg/sg12_173_cif.got.tgz:344891.got - 2010.06.03 13:09:07.
