data_PCOD9220242
_publ_section_title
;
Structure prediction by ZEFSAII (Michael W. Deem and Ramdas Pophale) SiO2 
 PCOD9220242
Probable space group: C 2/M
;
_chemical_formula_sum "Si O2"
_cell_formula_units_Z 50
_cell_length_a 24.439957
_cell_length_b 7.760606
_cell_length_c 15.531119
_cell_angle_alpha 90.000000
_cell_angle_beta 51.199341
_cell_angle_gamma 90.000000
_cell_volume 2295.729087
_symmetry_space_group_name_H-M "C 2/M"
_symmetry_group_IT_number 12
_symmetry_cell_setting 'monoclinic'
loop_
_space_group_symop_operation_xyz
x,y,z
-x,y,-z
-x,-y,-z
x,-y,z
1/2+x,1/2+y,z
1/2-x,1/2+y,-z
1/2-x,1/2-y,-z
1/2+x,1/2-y,z
loop_
_atom_site_type_symbol
_atom_site_label
_atom_site_fract_x
_atom_site_fract_y
_atom_site_fract_z
Si Si1 0.300992 0.800427 0.796349
Si Si2 0.445708 0.206818 0.336562
Si Si3 0.936405 0.188919 0.162136
Si Si4 0.077471 0.202437 0.449311
Si Si5 0.350750 0.802534 0.091608
Si Si6 0.500000 0.000000 0.000000
Si Si7 0.105186 0.709905 0.140048
O O1 0.362066 0.791098 0.665165
O O2 0.232734 0.697595 0.834601
O O3 0.335798 0.733670 0.850365
O O4 0.279964 0.000000 0.828951
O O5 0.410738 0.277290 0.284197
O O6 0.415006 0.272891 0.456184
O O7 0.527845 0.261355 0.247636
O O8 0.443070 0.000000 0.339527
O O9 0.876029 0.200701 0.149709
O O10 0.986598 0.345547 0.086328
O O11 0.969577 0.000000 0.125573
O O12 0.000000 0.269257 0.500000
O O13 0.079871 0.000000 0.425567
O O14 0.379950 0.000000 0.077320
O O15 0.377719 0.734578 0.973498
O O16 0.107182 0.500000 0.137825
#
# Coordination Sequence:
#
# PCOD9220242 Si02
#       7
#     8   8   8   8   8   2   8
#     4  11  22  40  62  93 126 172 223 267 328 398
#     4  11  21  40  68  95 130 168 218 275 333 391
#     4  12  25  42  65  97 135 178 223 273 328 393
#     4  11  23  40  62  94 128 166 219 280 336 391
#     4  11  22  41  64  91 134 178 218 268 328 397
#     4  12  22  44  64  98 134 176 220 272 324 386
#     4   9  20  35  61  92 128 170 213 263 327 395
#
# _framework density 21.779574
#
# number of rings (size 3 to 8) (size 9 to 14) (size 15 to 20)
#    0.000    1.120    3.200    3.600    2.240    0.640 
#    0.000    5.600    0.000    0.000    0.000    0.000 
#    0.000    0.000    0.000    0.000    0.000    0.000 
#
# Total GULP energy -139707.523371 kJ/mol
# GULP energy per Si atom -5588.300935 kJ/mol
# Density = 2.173000 g / cm^3
# Si number density = 21.779574 Si / 1000 Ang^3
#
#
#
# Elastic Constant Matrix: (Units=GPa)
#
#
# Indices 1 2 3 4 5 6 
#
# 1 119.6551 14.9794 44.9532 0.0000 21.7970 0.0000
# 2 14.9794 105.1166 -2.8660 0.0000 1.9762 0.0002
# 3 44.9532 -2.8660 83.7644 0.0001 25.2704 0.0001
# 4 0.0000 0.0000 0.0001 51.9780 0.0000 -22.4079
# 5 21.7970 1.9762 25.2704 0.0000 41.1181 0.0000
# 6 0.0000 0.0002 0.0001 -22.4079 0.0000 26.6013
#
#
#
# Elastic Compliance Matrix: (Units=1/GPa)
#
#
# Indices 1 2 3 4 5 6 
#
# 1 0.010975 -0.001657 -0.005175 0.000000 -0.002558 0.000000
# 2 -0.001657 0.009794 0.001352 0.000000 -0.000423 0.000000
# 3 -0.005175 0.001352 0.017130 0.000000 -0.007849 0.000000
# 4 0.000000 0.000000 0.000000 0.030209 0.000000 0.025447
# 5 -0.002558 -0.000423 -0.007849 0.000000 0.030521 0.000000
# 6 0.000000 0.000000 0.000000 0.025447 0.000000 0.059027
#
#
# Mechanical properties :
#
#
# Convention : Reuss Voigt Hill
#
# Bulk Modulus (GPa) = 37.12056 46.96327 42.04191
# Shear Modulus (GPa) = 28.15392 40.70412 34.42902
#
# Velocity S-wave (km/s) = 3.59928 4.32778 3.98023
# Velocity P-wave (km/s) = 5.86121 6.82515 6.36147
#
# Compressibility (1/GPa) = 0.02693925
#
# Stress axis : x y z
#
# Youngs Moduli (GPa) = 91.11727 102.10135 58.37823
#
# Poissons Ratio (x) = 0.16918 0.30210
# Poissons Ratio (y) = 0.15098 -0.07893
# Poissons Ratio (z) = 0.47152 -0.13804
#
# Static dielectric constant tensor:
#      x y z
#    x 1.685350 0.000000 0.060560 
#    y 0.000000 1.817370 0.000000 
#    z 0.060560 0.000000 1.750960 
# 
# From -- ./inp_files/243579.got.cif
#   From: 2010.05.17/outbox.cif.g08.bks.cpg/sg12_122_cif.got.tgz:243579.got - 2010.06.03 13:09:07.
