data_PCOD9220237
_publ_section_title
;
Structure prediction by ZEFSAII (Michael W. Deem and Ramdas Pophale) SiO2 
 PCOD9220237
Probable space group: C 2/M
;
_chemical_formula_sum "Si O2"
_cell_formula_units_Z 44
_cell_length_a 9.125399
_cell_length_b 31.687316
_cell_length_c 7.403277
_cell_angle_alpha 90.000000
_cell_angle_beta 119.647218
_cell_angle_gamma 90.000000
_cell_volume 1860.479360
_symmetry_space_group_name_H-M "C 2/M"
_symmetry_group_IT_number 12
_symmetry_cell_setting 'monoclinic'
loop_
_space_group_symop_operation_xyz
x,y,z
-x,y,-z
-x,-y,-z
x,-y,z
1/2+x,1/2+y,z
1/2-x,1/2+y,-z
1/2-x,1/2-y,-z
1/2+x,1/2-y,z
loop_
_atom_site_type_symbol
_atom_site_label
_atom_site_fract_x
_atom_site_fract_y
_atom_site_fract_z
Si Si1 0.810550 0.388872 0.318967
Si Si2 0.035153 0.047014 0.239065
Si Si3 0.000000 0.263641 0.000000
Si Si4 0.734821 0.328115 0.785401
Si Si5 0.817074 0.581789 0.910248
Si Si6 0.377273 0.310544 0.678220
O O1 0.678958 0.417831 0.350806
O O2 0.749932 0.340658 0.294659
O O3 0.000000 0.393558 0.500000
O O4 0.804566 0.404050 0.110404
O O5 0.857386 0.057217 0.228168
O O6 0.093332 0.000000 0.323187
O O7 0.000000 0.046731 0.000000
O O8 0.851901 0.295790 0.965585
O O9 0.925463 0.232978 0.802256
O O10 0.817360 0.373608 0.804190
O O11 0.556429 0.334646 0.772929
O O12 0.693478 0.307171 0.567174
O O13 0.000000 0.560349 0.000000
#
# Coordination Sequence:
#
# PCOD9220237 Si02
#       6
#     8   8   4   8   8   8
#     4  11  23  40  67  95 130 179 220 269 328 398
#     4   9  20  40  68  99 132 173 219 267 324 396
#     4  12  24  42  64  94 130 176 222 278 324 388
#     4  11  23  41  65  92 129 174 219 279 326 386
#     4  11  21  40  67  95 135 175 220 267 333 393
#     4  11  24  42  63  93 131 171 223 272 332 391
#
# _framework density 23.649819000000001
#
# number of rings (size 3 to 8) (size 9 to 14) (size 15 to 20)
#    0.000    1.273    2.727    3.273    1.273    0.727 
#    3.273    0.000    0.000    7.636    0.000    0.000 
#    0.000    0.000    0.000    0.000    0.000    0.000 
#
# Total GULP energy -123098.431832 kJ/mol
# GULP energy per Si atom -5595.383265 kJ/mol
# Density = 2.359599 g / cm^3
# Si number density = 23.649819 Si / 1000 Ang^3
#
#
#
# Elastic Constant Matrix: (Units=GPa)
#
#
# Indices 1 2 3 4 5 6 
#
# 1 118.1272 39.0573 26.3748 0.0000 32.2884 0.0000
# 2 39.0573 102.0829 42.2911 0.0000 23.2257 0.0000
# 3 26.3748 42.2911 85.0246 0.0000 17.3064 0.0000
# 4 0.0000 0.0000 0.0000 19.3411 0.0000 0.3319
# 5 32.2884 23.2257 17.3064 0.0000 42.2298 0.0000
# 6 0.0000 0.0000 0.0000 0.3319 0.0000 20.6509
#
#
#
# Elastic Compliance Matrix: (Units=1/GPa)
#
#
# Indices 1 2 3 4 5 6 
#
# 1 0.011373 -0.002375 -0.000919 0.000000 -0.007013 0.000000
# 2 -0.002375 0.013736 -0.005376 0.000000 -0.003536 0.000000
# 3 -0.000919 -0.005376 0.015247 0.000000 -0.002589 0.000000
# 4 0.000000 0.000000 0.000000 0.051718 0.000000 -0.000831
# 5 -0.007013 -0.003536 -0.002589 0.000000 0.032047 0.000000
# 6 0.000000 0.000000 0.000000 -0.000831 0.000000 0.048437
#
#
# Mechanical properties :
#
#
# Convention : Reuss Voigt Hill
#
# Bulk Modulus (GPa) = 43.44773 57.85346 50.65060
# Shear Modulus (GPa) = 25.30735 29.61178 27.45956
#
# Velocity S-wave (km/s) = 3.27477 3.54233 3.41117
# Velocity P-wave (km/s) = 5.71926 6.42234 6.08097
#
# Compressibility (1/GPa) = 0.02301616
#
# Stress axis : x y z
#
# Youngs Moduli (GPa) = 87.92972 72.80009 65.58473
#
# Poissons Ratio (x) = 0.17290 0.06028
# Poissons Ratio (y) = 0.20883 0.35258
# Poissons Ratio (z) = 0.08082 0.39137
#
# Static dielectric constant tensor:
#      x y z
#    x 1.945000 0.000000 -0.027560 
#    y 0.000000 1.856350 0.000000 
#    z -0.027560 0.000000 1.926030 
# 
# From -- ./inp_files/42352.got.cif
#   From: 2010.05.17/outbox.cif.g08.bks.cpg/sg12_22_cif.got.tgz:42352.got - 2010.06.03 13:09:07.
