data_PCOD9220246
_publ_section_title
;
Structure prediction by ZEFSAII (Michael W. Deem and Ramdas Pophale) SiO2 
 PCOD9220246
Probable space group: C 2/M
;
_chemical_formula_sum "Si O2"
_cell_formula_units_Z 42
_cell_length_a 15.861709
_cell_length_b 19.023105
_cell_length_c 7.583435
_cell_angle_alpha 90.000000
_cell_angle_beta 110.774373
_cell_angle_gamma 90.000000
_cell_volume 2139.447939
_symmetry_space_group_name_H-M "C 2/M"
_symmetry_group_IT_number 12
_symmetry_cell_setting 'monoclinic'
loop_
_space_group_symop_operation_xyz
x,y,z
-x,y,-z
-x,-y,-z
x,-y,z
1/2+x,1/2+y,z
1/2-x,1/2+y,-z
1/2-x,1/2-y,-z
1/2+x,1/2-y,z
loop_
_atom_site_type_symbol
_atom_site_label
_atom_site_fract_x
_atom_site_fract_y
_atom_site_fract_z
Si Si1 0.294371 0.920758 0.408957
Si Si2 0.275053 0.345589 0.315313
Si Si3 0.603340 0.226269 0.025961
Si Si4 0.849603 0.886647 0.991483
Si Si5 0.000000 0.000000 0.000000
Si Si6 0.396428 0.785852 0.389525
O O1 0.233492 0.900120 0.532259
O O2 0.232317 0.913916 0.189805
O O3 0.369363 0.860374 0.450747
O O4 0.328769 0.000000 0.450846
O O5 0.175908 0.317851 0.188897
O O6 0.333553 0.277190 0.411747
O O7 0.319779 0.377561 0.172405
O O8 0.624930 0.308914 0.060016
O O9 0.500000 0.212262 0.000000
O O10 0.618647 0.209899 0.831356
O O11 0.932318 0.938784 0.028984
O O12 0.500000 0.768403 0.500000
#
# Coordination Sequence:
#
# PCOD9220246 Si02
#       6
#     8   8   8   8   2   8
#     4  12  25  41  65  93 131 175 213 265 337 384
#     4  11  24  43  69  96 130 175 222 271 324 385
#     4  11  21  40  69 100 126 170 226 270 324 378
#     4  11  23  42  63  96 135 174 210 260 328 397
#     4  12  24  40  70  96 144 174 194 268 338 400
#     4  11  23  41  68  97 129 170 223 278 316 386
#
# _framework density 19.631233000000002
#
# number of rings (size 3 to 8) (size 9 to 14) (size 15 to 20)
#    0.000    0.762    5.714    2.857    4.000    0.381 
#    0.000    0.952    0.000    2.286    0.000    0.000 
#    0.000    0.000    0.000    0.000    0.000    0.000 
#
# Total GULP energy -117179.845488 kJ/mol
# GULP energy per Si atom -5579.992642 kJ/mol
# Density = 1.958655 g / cm^3
# Si number density = 19.631233 Si / 1000 Ang^3
#
#
#
# Elastic Constant Matrix: (Units=GPa)
#
#
# Indices 1 2 3 4 5 6 
#
# 1 77.0557 18.4481 -1.5503 0.0000 11.7771 0.0000
# 2 18.4481 83.6225 22.7632 0.0000 -0.6510 0.0000
# 3 -1.5503 22.7632 49.8124 0.0000 -0.8157 0.0000
# 4 0.0000 0.0000 0.0000 7.9074 0.0000 -10.9855
# 5 11.7771 -0.6510 -0.8157 0.0000 27.3108 0.0000
# 6 0.0000 0.0000 0.0000 -10.9855 0.0000 49.1702
#
#
#
# Elastic Compliance Matrix: (Units=1/GPa)
#
#
# Indices 1 2 3 4 5 6 
#
# 1 0.014954 -0.003937 0.002158 0.000000 -0.006478 0.000000
# 2 -0.003937 0.014694 -0.006807 0.000000 0.001845 0.000000
# 3 0.002158 -0.006807 0.023247 0.000000 -0.000399 0.000000
# 4 0.000000 0.000000 0.000000 0.183384 0.000000 0.040971
# 5 -0.006478 0.001845 -0.000399 0.000000 0.039441 0.000000
# 6 0.000000 0.000000 0.000000 0.040971 0.000000 0.029491
#
#
# Mechanical properties :
#
#
# Convention : Reuss Voigt Hill
#
# Bulk Modulus (GPa) = 27.99307 32.20139 30.09723
# Shear Modulus (GPa) = 14.95703 28.26634 21.61168
#
# Velocity S-wave (km/s) = 2.76325 3.79867 3.32155
# Velocity P-wave (km/s) = 4.94683 5.97316 5.48406
#
# Compressibility (1/GPa) = 0.03572313
#
# Stress axis : x y z
#
# Youngs Moduli (GPa) = 66.87335 68.05290 43.01667
#
# Poissons Ratio (x) = 0.26792 -0.09285
# Poissons Ratio (y) = 0.26328 0.29283
# Poissons Ratio (z) = -0.14434 0.46326
#
# Static dielectric constant tensor:
#      x y z
#    x 1.687630 0.000000 -0.007700 
#    y 0.000000 1.671320 0.000000 
#    z -0.007700 0.000000 1.705460 
# 
# From -- ./inp_files/60969.got.cif
#   From: 2010.05.17/outbox.cif.g08.bks.cpg/sg12_31_cif.got.tgz:60969.got - 2010.06.03 13:09:07.
