data_PCOD9220542
_publ_section_title
;
Structure prediction by ZEFSAII (Michael W. Deem and Ramdas Pophale) SiO2 
 PCOD9220542
Probable space group: C 2/M
;
_chemical_formula_sum "Si O2"
_cell_formula_units_Z 56
_cell_length_a 29.463675
_cell_length_b 8.718713
_cell_length_c 12.038860
_cell_angle_alpha 90.000000
_cell_angle_beta 68.356893
_cell_angle_gamma 90.000000
_cell_volume 2874.575436
_symmetry_space_group_name_H-M "C 2/M"
_symmetry_group_IT_number 12
_symmetry_cell_setting 'monoclinic'
loop_
_space_group_symop_operation_xyz
x,y,z
-x,y,-z
-x,-y,-z
x,-y,z
1/2+x,1/2+y,z
1/2-x,1/2+y,-z
1/2-x,1/2-y,-z
1/2+x,1/2-y,z
loop_
_atom_site_type_symbol
_atom_site_label
_atom_site_fract_x
_atom_site_fract_y
_atom_site_fract_z
Si Si1 0.202438 0.816232 0.481414
Si Si2 0.663096 0.818641 0.882423
Si Si3 0.038097 0.317000 0.626559
Si Si4 0.888640 0.818457 0.275333
Si Si5 0.843136 0.181254 0.872296
Si Si6 0.071729 0.683754 0.351615
Si Si7 0.269953 0.182302 0.772525
O O1 0.250000 0.750000 0.500000
O O2 0.155284 0.782294 0.598713
O O3 0.200932 0.739322 0.362170
O O4 0.206856 0.000000 0.465701
O O5 0.623620 0.768310 0.827010
O O6 0.714133 0.734518 0.808681
O O7 0.670837 0.000000 0.871192
O O8 0.649008 0.766064 0.018415
O O9 0.044258 0.500000 0.634257
O O10 0.062109 0.232307 0.708099
O O11 0.065088 0.273220 0.486878
O O12 0.980818 0.288309 0.658279
O O13 0.888153 0.000000 0.255444
O O14 0.886361 0.226063 0.749247
O O15 0.793727 0.239748 0.858465
O O16 0.840672 0.000000 0.892514
O O17 0.081377 0.500000 0.337967
O O18 0.272754 0.000000 0.779458
#
# Coordination Sequence:
#
# PCOD9220542 Si02
#       7
#     8   8   8   8   8   8   8
#     4  11  22  36  57  86 121 158 195 241 293 347
#     4  12  25  42  62  83 115 158 203 247 296 354
#     4   9  19  37  64  93 122 156 193 240 294 352
#     4  11  23  38  58  88 124 158 197 243 296 353
#     4  12  25  41  61  87 119 155 199 246 298 353
#     4   9  19  39  64  92 122 153 196 243 293 348
#     4  12  24  40  61  87 120 157 201 248 295 351
#
# _framework density 19.481138000000001
#
# number of rings (size 3 to 8) (size 9 to 14) (size 15 to 20)
#    0.000    1.143    1.429    6.857    0.000    5.143 
#    0.000    2.143    0.000    4.286    0.000    0.000 
#    0.000    0.000    0.000    0.000    0.000    0.000 
#
# Total GULP energy -156672.994623 kJ/mol
# GULP energy per Si atom -5595.464094 kJ/mol
# Density = 1.943680 g / cm^3
# Si number density = 19.481138 Si / 1000 Ang^3
#
#
#
# Elastic Constant Matrix: (Units=GPa)
#
#
# Indices 1 2 3 4 5 6 
#
# 1 63.5440 9.6195 12.6555 0.0000 25.7602 0.0000
# 2 9.6195 35.8265 1.8071 0.0000 3.3011 0.0000
# 3 12.6555 1.8071 50.6748 0.0000 17.1317 0.0000
# 4 0.0000 0.0000 0.0000 20.9162 0.0000 3.1221
# 5 25.7602 3.3011 17.1317 0.0000 26.3861 0.0000
# 6 0.0000 0.0000 0.0000 3.1221 0.0000 30.3908
#
#
#
# Elastic Compliance Matrix: (Units=1/GPa)
#
#
# Indices 1 2 3 4 5 6 
#
# 1 0.027150 -0.004878 0.002752 0.000000 -0.027682 0.000000
# 2 -0.004878 0.029116 -0.000254 0.000000 0.001285 0.000000
# 3 0.002752 -0.000254 0.025564 0.000000 -0.019253 0.000000
# 4 0.000000 0.000000 0.000000 0.048554 0.000000 -0.004988
# 5 -0.027682 0.001285 -0.019253 0.000000 0.077264 0.000000
# 6 0.000000 0.000000 0.000000 -0.004988 0.000000 0.033417
#
#
# Mechanical properties :
#
#
# Convention : Reuss Voigt Hill
#
# Bulk Modulus (GPa) = 12.97518 22.02327 17.49923
# Shear Modulus (GPa) = 18.41508 23.93616 21.17562
#
# Velocity S-wave (km/s) = 3.07787 3.50906 3.30052
# Velocity P-wave (km/s) = 4.39385 5.26759 4.85043
#
# Compressibility (1/GPa) = 0.07707020
#
# Stress axis : x y z
#
# Youngs Moduli (GPa) = 36.83299 34.34481 39.11686
#
# Poissons Ratio (x) = 0.16753 -0.10766
# Poissons Ratio (y) = 0.17967 0.00995
# Poissons Ratio (z) = -0.10137 0.00874
#
# Static dielectric constant tensor:
#      x y z
#    x 1.677430 0.000000 0.002180 
#    y 0.000000 1.648790 0.000000 
#    z 0.002180 0.000000 1.676100 
# 
# From -- ./inp_files/180719.got.cif
#   From: 2010.05.17/outbox.cif.g08.bks.cpg/sg12_91_cif.got.tgz:180719.got - 2010.06.03 13:09:07.
