data_PCOD9220269
_publ_section_title
;
Structure prediction by ZEFSAII (Michael W. Deem and Ramdas Pophale) SiO2 
 PCOD9220269
Probable space group: C 2/M
;
_chemical_formula_sum "Si O2"
_cell_formula_units_Z 48
_cell_length_a 9.093208
_cell_length_b 29.827769
_cell_length_c 16.880534
_cell_angle_alpha 90.000000
_cell_angle_beta 147.083047
_cell_angle_gamma 90.000000
_cell_volume 2488.066474
_symmetry_space_group_name_H-M "C 2/M"
_symmetry_group_IT_number 12
_symmetry_cell_setting 'monoclinic'
loop_
_space_group_symop_operation_xyz
x,y,z
-x,y,-z
-x,-y,-z
x,-y,z
1/2+x,1/2+y,z
1/2-x,1/2+y,-z
1/2-x,1/2-y,-z
1/2+x,1/2-y,z
loop_
_atom_site_type_symbol
_atom_site_label
_atom_site_fract_x
_atom_site_fract_y
_atom_site_fract_z
Si Si1 0.547961 0.736393 0.109494
Si Si2 0.784188 0.000000 0.673478
Si Si3 0.852640 0.500000 0.848714
Si Si4 0.296311 0.585738 0.791783
Si Si5 0.764034 0.667202 0.336239
Si Si6 0.208200 0.337261 0.166444
Si Si7 0.089252 0.410634 0.874550
O O1 0.670860 0.703604 0.229663
O O2 0.705584 0.783571 0.177834
O O3 0.500000 0.716257 0.000000
O O4 0.250000 0.750000 0.000000
O O5 0.500000 0.000000 0.500000
O O6 0.802523 0.042263 0.740103
O O7 0.034050 0.000000 0.724778
O O8 0.951799 0.455107 0.848954
O O9 0.000000 0.500000 0.000000
O O10 0.151497 0.624436 0.676601
O O11 0.146573 0.581212 0.807960
O O12 0.611655 0.597309 0.952659
O O13 0.507783 0.651721 0.272743
O O14 0.000000 0.683689 0.500000
O O15 0.095368 0.367691 0.186620
O O16 0.000000 0.345770 0.000000
#
# Coordination Sequence:
#
# PCOD9220269 Si02
#       7
#     8   4   4   8   8   8   8
#     4  11  22  41  69  92 121 169 222 258 307 385
#     4  12  25  43  63  89 132 171 201 252 329 387
#     4  12  21  39  65  97 126 162 213 268 311 365
#     4  11  23  40  65  96 126 164 213 263 314 372
#     4  12  26  42  64  97 133 165 210 269 326 376
#     4  11  21  41  64  92 125 170 213 254 313 387
#     4  11  22  38  69  97 123 160 221 269 300 368
#
# _framework density 19.292088
#
# number of rings (size 3 to 8) (size 9 to 14) (size 15 to 20)
#    0.000    0.667    6.667    2.500    4.667    2.000 
#    0.000    4.167    0.000    0.000    0.000    0.000 
#    0.000    0.000    0.000    0.000    0.000    0.000 
#
# Total GULP energy -134100.335258 kJ/mol
# GULP energy per Si atom -5587.513969 kJ/mol
# Density = 1.924818 g / cm^3
# Si number density = 19.292088 Si / 1000 Ang^3
#
#
#
# Elastic Constant Matrix: (Units=GPa)
#
#
# Indices 1 2 3 4 5 6 
#
# 1 141.6207 41.2873 52.2221 0.0000 2.4123 0.0000
# 2 41.2873 87.2037 19.3848 0.0000 -15.3000 0.0000
# 3 52.2221 19.3848 100.0145 0.0000 -4.3718 0.0000
# 4 0.0000 0.0000 0.0000 -3.6287 0.0000 7.8944
# 5 2.4123 -15.3000 -4.3718 0.0000 25.9128 0.0000
# 6 0.0000 0.0000 0.0000 7.8944 0.0000 35.2925
#
#
#
# Elastic Compliance Matrix: (Units=1/GPa)
#
#
# Indices 1 2 3 4 5 6 
#
# 1 0.010170 -0.004564 -0.004619 0.000000 -0.004421 0.000000
# 2 -0.004564 0.015324 -0.000174 0.000000 0.009443 0.000000
# 3 -0.004619 -0.000174 0.012551 0.000000 0.002445 0.000000
# 4 0.000000 0.000000 0.000000 -0.185373 0.000000 0.041465
# 5 -0.004421 0.009443 0.002445 0.000000 0.044991 0.000000
# 6 0.000000 0.000000 0.000000 0.041465 0.000000 0.019059
#
#
# Mechanical properties :
#
#
# Convention : Reuss Voigt Hill
#
# Bulk Modulus (GPa) = 51.73144 61.62525 56.67835
# Shear Modulus (GPa) = -86.02890 25.91165 -30.05862
#
# Velocity S-wave (km/s) = -6.68503 3.66884 -3.95153
# Velocity P-wave (km/s) = 5.71954 7.06823 2.93655
#
# Compressibility (1/GPa) = 0.01933060
#
# Stress axis : x y z
#
# Youngs Moduli (GPa) = 98.32631 65.25773 79.67528
#
# Poissons Ratio (x) = 0.29784 0.36802
# Poissons Ratio (y) = 0.44877 0.01388
# Poissons Ratio (z) = 0.45417 0.01137
#
# Static dielectric constant tensor:
#      x y z
#    x 1.451790 0.000000 -0.001990 
#    y 0.000000 1.579610 0.000000 
#    z -0.001990 0.000000 1.645990 
# 
# From -- ./inp_files/260461.got.cif
#   From: 2010.05.17/outbox.cif.g08.bks.cpg/sg12_131_cif.got.tgz:260461.got - 2010.06.03 13:09:07.
