data_PCOD9220410
_publ_section_title
;
Structure prediction by ZEFSAII (Michael W. Deem and Ramdas Pophale) SiO2 
 PCOD9220410
Probable space group: C 2/M
;
_chemical_formula_sum "Si O2"
_cell_formula_units_Z 48
_cell_length_a 31.383810
_cell_length_b 7.498216
_cell_length_c 9.830060
_cell_angle_alpha 90.000000
_cell_angle_beta 87.872535
_cell_angle_gamma 90.000000
_cell_volume 2311.640661
_symmetry_space_group_name_H-M "C 2/M"
_symmetry_group_IT_number 12
_symmetry_cell_setting 'monoclinic'
loop_
_space_group_symop_operation_xyz
x,y,z
-x,y,-z
-x,-y,-z
x,-y,z
1/2+x,1/2+y,z
1/2-x,1/2+y,-z
1/2-x,1/2-y,-z
1/2+x,1/2-y,z
loop_
_atom_site_type_symbol
_atom_site_label
_atom_site_fract_x
_atom_site_fract_y
_atom_site_fract_z
Si Si1 0.418361 0.717508 0.167451
Si Si2 0.831015 0.781519 0.839073
Si Si3 0.822357 0.785451 0.148056
Si Si4 0.504784 0.281680 0.655013
Si Si5 0.427708 0.282784 0.856782
Si Si6 0.241899 0.793707 0.344701
O O1 0.418265 0.500000 0.168725
O O2 0.369321 0.775318 0.189989
O O3 0.451454 0.775752 0.277853
O O4 0.433070 0.770839 0.013818
O O5 0.880288 0.727742 0.816526
O O6 0.798530 0.711565 0.729507
O O7 0.831271 0.000000 0.840108
O O8 0.816333 0.726253 0.992472
O O9 0.784160 0.733913 0.250564
O O10 0.823552 0.000000 0.145913
O O11 0.500000 0.224109 0.500000
O O12 0.504733 0.500000 0.654750
O O13 0.465176 0.223689 0.753210
O O14 0.428395 0.500000 0.856285
O O15 0.250000 0.750000 0.500000
O O16 0.231911 0.000000 0.346353
#
# Coordination Sequence:
#
# PCOD9220410 Si02
#       6
#     8   8   8   8   8   8
#     4   8  14  24  39  59  84 116 149 183 225 270
#     4   8  16  30  48  68  90 121 158 197 238 277
#     4   9  17  32  52  71  92 120 157 197 236 276
#     4   9  15  20  30  54  88 122 151 179 216 266
#     4   8  13  23  38  56  83 117 150 184 226 272
#     4  11  22  34  48  69  97 126 156 190 233 281
#
# _framework density 20.764475000000001
#
# number of rings (size 3 to 8) (size 9 to 14) (size 15 to 20)
#    0.000    3.167    0.000    3.500    0.000    3.333 
#    0.000    5.833    0.000    0.000    0.000    0.000 
#    0.000   18.000    0.000    0.000    0.000    0.000 
#
# Total GULP energy -133899.247024 kJ/mol
# GULP energy per Si atom -5579.135293 kJ/mol
# Density = 2.071721 g / cm^3
# Si number density = 20.764475 Si / 1000 Ang^3
#
#
#
# Elastic Constant Matrix: (Units=GPa)
#
#
# Indices 1 2 3 4 5 6 
#
# 1 93.2171 -5.7546 86.3206 0.0000 56.7232 0.0000
# 2 -5.7546 49.1283 5.1998 0.0000 7.8765 0.0000
# 3 86.3206 5.1998 121.6054 0.0000 57.0602 0.0000
# 4 0.0000 0.0000 0.0000 3.9628 0.0000 -3.1664
# 5 56.7232 7.8765 57.0602 0.0000 20.6555 0.0000
# 6 0.0000 0.0000 0.0000 -3.1664 0.0000 7.9180
#
#
#
# Elastic Compliance Matrix: (Units=1/GPa)
#
#
# Indices 1 2 3 4 5 6 
#
# 1 0.013426 -0.001241 -0.025661 0.000000 0.034489 0.000000
# 2 -0.001241 0.018724 -0.006183 0.000000 0.013348 0.000000
# 3 -0.025661 -0.006183 0.025215 0.000000 0.003172 0.000000
# 4 0.000000 0.000000 0.000000 0.370852 0.000000 0.148305
# 5 0.034489 0.013348 0.003172 0.000000 -0.060151 0.000000
# 6 0.000000 0.000000 0.000000 0.148305 0.000000 0.185602
#
#
# Mechanical properties :
#
#
# Convention : Reuss Voigt Hill
#
# Bulk Modulus (GPa) = -113.58119 48.38692 -32.59714
# Shear Modulus (GPa) = 8.10502 18.38627 13.24564
#
# Velocity S-wave (km/s) = 1.97782 2.97891 2.52841
# Velocity P-wave (km/s) = 7.04293 5.93171 2.68492
#
# Compressibility (1/GPa) = -0.00880427
#
# Stress axis : x y z
#
# Youngs Moduli (GPa) = 74.48048 53.40756 39.65955
#
# Poissons Ratio (x) = 0.06627 1.01769
# Poissons Ratio (y) = 0.09242 0.24521
# Poissons Ratio (z) = 1.91122 0.33022
#
# Static dielectric constant tensor:
#      x y z
#    x 1.737090 0.000000 0.025960 
#    y 0.000000 1.882360 0.000000 
#    z 0.025960 0.000000 1.662900 
# 
# From -- ./inp_files/108710.got.cif
#   From: 2010.05.17/outbox.cif.g08.bks.cpg/sg12_55_cif.got.tgz:108710.got - 2010.06.03 13:09:07.
