data_PCOD9220140
_publ_section_title
;
Structure prediction by ZEFSAII (Michael W. Deem and Ramdas Pophale) SiO2 
 PCOD9220140
Probable space group: C 2/M
;
_chemical_formula_sum "Si O2"
_cell_formula_units_Z 56
_cell_length_a 9.919469
_cell_length_b 25.276102
_cell_length_c 20.969646
_cell_angle_alpha 90.000000
_cell_angle_beta 36.113323
_cell_angle_gamma 90.000000
_cell_volume 3098.761342
_symmetry_space_group_name_H-M "C 2/M"
_symmetry_group_IT_number 12
_symmetry_cell_setting 'monoclinic'
loop_
_space_group_symop_operation_xyz
x,y,z
-x,y,-z
-x,-y,-z
x,-y,z
1/2+x,1/2+y,z
1/2-x,1/2+y,-z
1/2-x,1/2-y,-z
1/2+x,1/2-y,z
loop_
_atom_site_type_symbol
_atom_site_label
_atom_site_fract_x
_atom_site_fract_y
_atom_site_fract_z
Si Si1 0.634838 0.160153 0.741750
Si Si2 0.874186 0.439156 0.867837
Si Si3 0.902592 0.840939 0.238215
Si Si4 0.463161 0.438537 0.123017
Si Si5 0.123196 0.187523 0.611095
Si Si6 0.585757 0.810552 0.622510
Si Si7 0.738599 0.752055 0.079931
O O1 0.570956 0.103728 0.795080
O O2 0.657143 0.156560 0.656966
O O3 0.424421 0.200222 0.835147
O O4 0.865412 0.181431 0.684570
O O5 0.949818 0.500000 0.840231
O O6 0.733789 0.430645 0.855392
O O7 0.696392 0.431164 0.993640
O O8 0.845203 0.843361 0.335085
O O9 0.685561 0.814276 0.285663
O O10 0.944341 0.896196 0.186454
O O11 0.119972 0.801873 0.149527
O O12 0.452235 0.500000 0.147968
O O13 0.290551 0.172041 0.489635
O O14 0.159550 0.250184 0.609006
O O15 0.750000 0.750000 0.000000
O O16 0.000000 0.759032 0.000000
#
# Coordination Sequence:
#
# PCOD9220140 Si02
#       7
#     8   8   8   8   8   8   8
#     4  12  21  37  59  84 116 152 192 237 289 336
#     4   9  19  36  60  86 112 152 200 234 273 342
#     4  12  21  38  58  85 117 152 188 238 294 338
#     4   9  19  36  60  86 112 152 199 233 273 346
#     4  11  23  37  57  86 117 150 196 240 287 347
#     4  11  21  39  59  81 115 156 199 235 279 347
#     4  12  24  34  51  84 122 148 177 226 292 349
#
# _framework density 18.071738
#
# number of rings (size 3 to 8) (size 9 to 14) (size 15 to 20)
#    0.000    1.143    4.286    4.286    2.000    2.286 
#    0.000    0.714    0.000    7.286    0.000    0.000 
#    0.000    0.000    0.000    0.000    0.000    0.000 
#
# Total GULP energy -156426.892011 kJ/mol
# GULP energy per Si atom -5586.674715 kJ/mol
# Density = 1.803061 g / cm^3
# Si number density = 18.071738 Si / 1000 Ang^3
#
#
#
# Elastic Constant Matrix: (Units=GPa)
#
#
# Indices 1 2 3 4 5 6 
#
# 1 62.4164 6.8833 19.7047 0.0002 7.6218 -0.0001
# 2 6.8833 83.8466 47.2537 0.0003 11.3291 -0.0001
# 3 19.7047 47.2537 76.2354 0.0009 21.2892 -0.0007
# 4 0.0002 0.0003 0.0009 26.0922 -0.0001 6.9335
# 5 7.6218 11.3291 21.2892 -0.0001 36.2081 0.0001
# 6 -0.0001 -0.0001 -0.0007 6.9335 0.0001 21.3008
#
#
#
# Elastic Compliance Matrix: (Units=1/GPa)
#
#
# Indices 1 2 3 4 5 6 
#
# 1 0.017643 0.001685 -0.005289 0.000000 -0.001132 0.000000
# 2 0.001685 0.018529 -0.012207 0.000000 0.001025 0.000000
# 3 -0.005289 -0.012207 0.024734 -0.000001 -0.009610 0.000001
# 4 0.000000 0.000000 -0.000001 0.041955 0.000001 -0.013656
# 5 -0.001132 0.001025 -0.009610 0.000001 0.033186 -0.000001
# 6 0.000000 0.000000 0.000001 -0.013656 -0.000001 0.051392
#
#
# Mechanical properties :
#
#
# Convention : Reuss Voigt Hill
#
# Bulk Modulus (GPa) = 34.14638 41.13132 37.63885
# Shear Modulus (GPa) = 21.85096 26.63064 24.24080
#
# Velocity S-wave (km/s) = 3.48102 3.84292 3.66644
# Velocity P-wave (km/s) = 5.92390 6.51922 6.22867
#
# Compressibility (1/GPa) = 0.02928568
#
# Stress axis : x y z
#
# Youngs Moduli (GPa) = 56.67826 53.96883 40.42960
#
# Poissons Ratio (x) = -0.09094 0.21383
# Poissons Ratio (y) = -0.09551 0.49352
# Poissons Ratio (z) = 0.29976 0.65879
#
# Static dielectric constant tensor:
#      x y z
#    x 1.611340 0.000000 0.010030 
#    y 0.000000 1.612200 0.000000 
#    z 0.010030 0.000000 1.630750 
# 
# From -- ./inp_files/124338.got.cif
#   From: 2010.05.17/outbox.cif.g08.bks.cpg/sg12_63_cif.got.tgz:124338.got - 2010.06.03 13:09:07.
