data_PCOD9220778
_publ_section_title
;
Structure prediction by ZEFSAII (Michael W. Deem and Ramdas Pophale) SiO2 
 PCOD9220778
Probable space group: C 2/M
;
_chemical_formula_sum "Si O2"
_cell_formula_units_Z 58
_cell_length_a 7.827533
_cell_length_b 17.581275
_cell_length_c 22.213418
_cell_angle_alpha 90.000000
_cell_angle_beta 58.259772
_cell_angle_gamma 90.000000
_cell_volume 2599.772486
_symmetry_space_group_name_H-M "C 2/M"
_symmetry_group_IT_number 12
_symmetry_cell_setting 'monoclinic'
loop_
_space_group_symop_operation_xyz
x,y,z
-x,y,-z
-x,-y,-z
x,-y,z
1/2+x,1/2+y,z
1/2-x,1/2+y,-z
1/2-x,1/2-y,-z
1/2+x,1/2-y,z
loop_
_atom_site_type_symbol
_atom_site_label
_atom_site_fract_x
_atom_site_fract_y
_atom_site_fract_z
Si Si1 0.328884 0.586851 0.803402
Si Si2 0.171023 0.143242 0.900714
Si Si3 0.298932 0.584318 0.495630
Si Si4 0.715364 0.086541 0.240381
Si Si5 0.000000 0.000000 0.000000
Si Si6 0.493845 0.193538 0.072377
Si Si7 0.419088 0.177657 0.371487
Si Si8 0.448031 0.649101 0.651312
O O1 0.249779 0.500000 0.818707
O O2 0.545357 0.587137 0.795344
O O3 0.181461 0.643989 0.864762
O O4 0.373386 0.614099 0.727409
O O5 0.319058 0.125337 0.817700
O O6 0.302924 0.167219 0.933598
O O7 0.041302 0.217211 0.908799
O O8 0.054345 0.067297 0.940291
O O9 0.500000 0.585505 0.500000
O O10 0.209074 0.500000 0.517480
O O11 0.153096 0.648147 0.549996
O O12 0.380957 0.600324 0.413948
O O13 0.613292 0.132754 0.312629
O O14 0.641605 0.000000 0.254184
O O15 0.500000 0.180537 0.000000
O O16 0.463148 0.266447 0.359029
O O17 0.242409 0.155839 0.357813
#
# Coordination Sequence:
#
# PCOD9220778 Si02
#       8
#     8   8   8   8   2   8   8   8
#     4  11  26  44  66  99 132 173 222 276 333 393
#     4  12  26  47  72 103 136 180 223 274 338 399
#     4   9  19  36  61  92 123 162 210 266 324 387
#     4  11  24  43  67  93 133 172 218 271 328 394
#     4  12  28  44  78 100 138 176 230 272 336 404
#     4  12  27  45  73 100 137 175 223 277 336 395
#     4  11  22  38  64  92 127 169 219 261 328 388
#     4  11  22  40  63  91 129 170 213 271 319 396
#
# _framework density 22.309643999999999
#
# number of rings (size 3 to 8) (size 9 to 14) (size 15 to 20)
#    0.000    0.966    1.379    4.966    2.897    3.034 
#    0.000    2.069    0.000    4.966    0.000    0.000 
#    0.000    0.000    0.000    0.000    0.000    0.000 
#
# Total GULP energy -162122.562903 kJ/mol
# GULP energy per Si atom -5590.433204 kJ/mol
# Density = 2.225887 g / cm^3
# Si number density = 22.309644 Si / 1000 Ang^3
#
#
#
# Elastic Constant Matrix: (Units=GPa)
#
#
# Indices 1 2 3 4 5 6 
#
# 1 30.8803 20.9377 -6.3521 0.0000 2.1838 0.0000
# 2 20.9377 175.2167 58.3865 0.0000 -5.4054 0.0000
# 3 -6.3521 58.3865 139.9581 0.0000 -1.0715 0.0000
# 4 0.0000 0.0000 0.0000 50.2356 0.0000 -4.6701
# 5 2.1838 -5.4054 -1.0715 0.0000 24.6134 0.0000
# 6 0.0000 0.0000 0.0000 -4.6701 0.0000 1.9897
#
#
#
# Elastic Compliance Matrix: (Units=1/GPa)
#
#
# Indices 1 2 3 4 5 6 
#
# 1 0.037654 -0.006035 0.004192 0.000000 -0.004484 0.000000
# 2 -0.006035 0.007640 -0.003445 0.000000 0.002063 0.000000
# 3 0.004192 -0.003445 0.008767 0.000000 -0.000747 0.000000
# 4 0.000000 0.000000 0.000000 0.025462 0.000000 0.059764
# 5 -0.004484 0.002063 -0.000747 0.000000 0.041447 0.000000
# 6 0.000000 0.000000 0.000000 0.059764 0.000000 0.642873
#
#
# Mechanical properties :
#
#
# Convention : Reuss Voigt Hill
#
# Bulk Modulus (GPa) = 22.99626 54.66658 38.83142
# Shear Modulus (GPa) = 6.33783 33.57327 19.95555
#
# Velocity S-wave (km/s) = 1.68731 3.88348 2.99403
# Velocity P-wave (km/s) = 3.75848 6.68321 5.42179
#
# Compressibility (1/GPa) = 0.04348533
#
# Stress axis : x y z
#
# Youngs Moduli (GPa) = 26.55741 130.88893 114.06636
#
# Poissons Ratio (x) = 0.78989 -0.47819
# Poissons Ratio (y) = 0.16027 0.39299
# Poissons Ratio (z) = -0.11133 0.45095
#
# Static dielectric constant tensor:
#      x y z
#    x 1.859920 0.000000 0.016370 
#    y 0.000000 1.785030 0.000000 
#    z 0.016370 0.000000 1.813850 
# 
# From -- ./inp_files/301104.got.cif
#   From: 2010.05.17/outbox.cif.g08.bks.cpg/sg12_151_cif.got.tgz:301104.got - 2010.06.03 13:09:07.
