data_PCOD9220257
_publ_section_title
;
Structure prediction by ZEFSAII (Michael W. Deem and Ramdas Pophale) SiO2 
 PCOD9220257
Probable space group: C 2/M
;
_chemical_formula_sum "Si O2"
_cell_formula_units_Z 40
_cell_length_a 18.538034
_cell_length_b 19.051375
_cell_length_c 5.401047
_cell_angle_alpha 90.000000
_cell_angle_beta 90.392576
_cell_angle_gamma 90.000000
_cell_volume 1907.470201
_symmetry_space_group_name_H-M "C 2/M"
_symmetry_group_IT_number 12
_symmetry_cell_setting 'monoclinic'
loop_
_space_group_symop_operation_xyz
x,y,z
-x,y,-z
-x,-y,-z
x,-y,z
1/2+x,1/2+y,z
1/2-x,1/2+y,-z
1/2-x,1/2-y,-z
1/2+x,1/2-y,z
loop_
_atom_site_type_symbol
_atom_site_label
_atom_site_fract_x
_atom_site_fract_y
_atom_site_fract_z
Si Si1 0.676828 0.500000 0.359473
Si Si2 0.772283 0.500000 0.869706
Si Si3 0.189443 0.230343 0.700208
Si Si4 0.421267 0.364118 0.590884
Si Si5 0.956362 0.276639 0.757805
Si Si6 0.319468 0.154078 0.924608
O O1 0.728572 0.500000 0.606049
O O2 0.627328 0.430849 0.357469
O O3 0.719839 0.500000 0.104748
O O4 0.818003 0.570965 0.903582
O O5 0.250000 0.250000 0.500000
O O6 0.124113 0.183714 0.601664
O O7 0.163528 0.302047 0.826807
O O8 0.237398 0.180223 0.877583
O O9 0.500000 0.386480 0.500000
O O10 0.436067 0.305531 0.800421
O O11 0.000000 0.281742 0.500000
O O12 0.880657 0.317249 0.741708
O O13 0.000000 0.301679 0.000000
#
# Coordination Sequence:
#
# PCOD9220257 Si02
#       6
#     4   4   8   8   8   8
#     4  12  27  44  62 101 142 180 219 271 334 410
#     4  12  28  44  69  99 138 178 225 279 342 395
#     4  11  21  40  71  98 130 181 231 282 327 394
#     4  11  23  43  68  99 141 179 222 273 337 402
#     4  11  25  43  70 101 132 174 232 285 340 400
#     4  11  24  41  69  97 135 175 232 283 334 400
#
# _framework density 20.970182999999999
#
# number of rings (size 3 to 8) (size 9 to 14) (size 15 to 20)
#    0.000    0.800    4.000    3.900    2.800    3.200 
#    0.000    2.500    0.000    0.000    0.000    0.700 
#    0.000    0.000    0.000    0.000    0.000    0.000 
#
# Total GULP energy -111650.123924 kJ/mol
# GULP energy per Si atom -5582.506196 kJ/mol
# Density = 2.092245 g / cm^3
# Si number density = 20.970183 Si / 1000 Ang^3
#
#
#
# Elastic Constant Matrix: (Units=GPa)
#
#
# Indices 1 2 3 4 5 6 
#
# 1 120.8313 41.2574 45.4939 0.0000 -5.2949 0.0000
# 2 41.2574 148.9622 21.1402 0.0000 -21.3478 0.0000
# 3 45.4939 21.1402 92.2328 0.0000 -7.9426 0.0000
# 4 0.0000 0.0000 0.0000 27.0378 0.0000 -11.1262
# 5 -5.2949 -21.3478 -7.9426 0.0000 38.7979 0.0000
# 6 0.0000 0.0000 0.0000 -11.1262 0.0000 69.5256
#
#
#
# Elastic Compliance Matrix: (Units=1/GPa)
#
#
# Indices 1 2 3 4 5 6 
#
# 1 0.010920 -0.002453 -0.004898 0.000000 -0.000862 0.000000
# 2 -0.002453 0.008007 -0.000280 0.000000 0.004014 0.000000
# 3 -0.004898 -0.000280 0.013489 0.000000 0.001939 0.000000
# 4 0.000000 0.000000 0.000000 0.039593 0.000000 0.006336
# 5 -0.000862 0.004014 0.001939 0.000000 0.028262 0.000000
# 6 0.000000 0.000000 0.000000 0.006336 0.000000 0.015397
#
#
# Mechanical properties :
#
#
# Convention : Reuss Voigt Hill
#
# Bulk Modulus (GPa) = 58.29285 64.20103 61.24694
# Shear Modulus (GPa) = 36.59004 44.01457 40.30230
#
# Velocity S-wave (km/s) = 4.18168 4.58636 4.38869
# Velocity P-wave (km/s) = 7.15357 7.66343 7.41288
#
# Compressibility (1/GPa) = 0.01715476
#
# Stress axis : x y z
#
# Youngs Moduli (GPa) = 91.57506 124.88432 74.13261
#
# Poissons Ratio (x) = 0.30632 0.36313
# Poissons Ratio (y) = 0.22462 0.02074
# Poissons Ratio (z) = 0.44856 0.03494
#
# Static dielectric constant tensor:
#      x y z
#    x 1.810370 0.000000 0.033770 
#    y 0.000000 1.742370 0.000000 
#    z 0.033770 0.000000 1.849380 
# 
# From -- ./inp_files/15246.got.cif
#   From: 2010.05.17/outbox.cif.g08.bks.cpg/sg12_8_cif.got.tgz:15246.got - 2010.06.03 13:09:07.
