data_PCOD9220941
_publ_section_title
;
Structure prediction by ZEFSAII (Michael W. Deem and Ramdas Pophale) SiO2 
 PCOD9220941
Probable space group: C 2/M
;
_chemical_formula_sum "Si O2"
_cell_formula_units_Z 36
_cell_length_a 25.635917
_cell_length_b 10.174141
_cell_length_c 6.513011
_cell_angle_alpha 90.000000
_cell_angle_beta 112.989489
_cell_angle_gamma 90.000000
_cell_volume 1563.825582
_symmetry_space_group_name_H-M "C 2/M"
_symmetry_group_IT_number 12
_symmetry_cell_setting 'monoclinic'
loop_
_space_group_symop_operation_xyz
x,y,z
-x,y,-z
-x,-y,-z
x,-y,z
1/2+x,1/2+y,z
1/2-x,1/2+y,-z
1/2-x,1/2-y,-z
1/2+x,1/2-y,z
loop_
_atom_site_type_symbol
_atom_site_label
_atom_site_fract_x
_atom_site_fract_y
_atom_site_fract_z
Si Si1 0.194293 0.707968 0.031200
Si Si2 0.066708 0.500000 0.153045
Si Si3 0.260142 0.000000 0.581160
Si Si4 0.595095 0.703001 0.090056
Si Si5 0.948037 0.000000 0.267948
Si Si6 0.373988 0.500000 0.536940
Si Si7 0.652595 0.000000 0.652280
O O1 0.155201 0.818298 0.068848
O O2 0.157959 0.624367 0.811185
O O3 0.250000 0.750000 0.000000
O O4 0.215180 0.623065 0.255996
O O5 0.086735 0.358951 0.094744
O O6 0.096384 0.500000 0.424932
O O7 0.000000 0.500000 0.000000
O O8 0.291528 0.000000 0.409659
O O9 0.192809 0.000000 0.513659
O O10 0.551317 0.626957 0.878571
O O11 0.599575 0.628553 0.312341
O O12 0.892968 0.000000 0.331428
O O13 0.000000 0.000000 0.500000
#
# Coordination Sequence:
#
# PCOD9220941 Si02
#       7
#     8   4   4   8   4   4   4
#     4  11  23  39  68 103 144 182 239 291 351 436
#     4  12  28  47  75 101 141 196 244 304 362 423
#     4  11  22  40  63 103 140 189 231 287 364 435
#     4  11  26  48  68 109 143 180 250 295 352 440
#     4  11  28  47  76  99 139 188 239 303 365 421
#     4  11  26  45  75 103 143 190 234 289 376 432
#     4  11  24  42  65 100 147 189 232 298 363 420
#
# _framework density 23.020471000000001
#
# number of rings (size 3 to 8) (size 9 to 14) (size 15 to 20)
#    0.000    0.889    2.222    3.333    9.333    6.222 
#    0.000    1.667    0.000    0.000    0.000    0.000 
#    0.000    0.000    0.000    0.000    0.000    0.000 
#
# Total GULP energy -100636.918095 kJ/mol
# GULP energy per Si atom -5590.939894 kJ/mol
# Density = 2.296808 g / cm^3
# Si number density = 23.020471 Si / 1000 Ang^3
#
#
#
# Elastic Constant Matrix: (Units=GPa)
#
#
# Indices 1 2 3 4 5 6 
#
# 1 79.7673 13.8904 23.4913 0.0000 10.8064 0.0000
# 2 13.8904 125.8957 54.8381 0.0000 0.6924 0.0000
# 3 23.4913 54.8381 136.3909 0.0000 9.0963 0.0000
# 4 0.0000 0.0000 0.0000 -10.2520 0.0000 -8.0021
# 5 10.8064 0.6924 9.0963 0.0000 50.8945 0.0000
# 6 0.0000 0.0000 0.0000 -8.0021 0.0000 25.1991
#
#
#
# Elastic Compliance Matrix: (Units=1/GPa)
#
#
# Indices 1 2 3 4 5 6 
#
# 1 0.013553 -0.000652 -0.001903 0.000000 -0.002529 0.000000
# 2 -0.000652 0.009677 -0.003825 0.000000 0.000690 0.000000
# 3 -0.001903 -0.003825 0.009278 0.000000 -0.001202 0.000000
# 4 0.000000 0.000000 0.000000 -0.078167 0.000000 -0.024822
# 5 -0.002529 0.000690 -0.001202 0.000000 0.020391 0.000000
# 6 0.000000 0.000000 0.000000 -0.024822 0.000000 0.031801
#
#
# Mechanical properties :
#
#
# Convention : Reuss Voigt Hill
#
# Bulk Modulus (GPa) = 50.63977 58.49928 54.56952
# Shear Modulus (GPa) = 193.22613 29.82392 111.52503
#
# Velocity S-wave (km/s) = 9.17163 3.60326 6.96787
# Velocity P-wave (km/s) = 11.58464 6.54052 9.40697
#
# Compressibility (1/GPa) = 0.01974733
#
# Stress axis : x y z
#
# Youngs Moduli (GPa) = 73.78340 103.33598 107.78667
#
# Poissons Ratio (x) = 0.06741 0.20516
# Poissons Ratio (y) = 0.04813 0.41224
# Poissons Ratio (z) = 0.14044 0.39521
#
# Static dielectric constant tensor:
#      x y z
#    x 1.956010 0.000000 0.003060 
#    y 0.000000 1.775600 0.000000 
#    z 0.003060 0.000000 1.815660 
# 
# From -- ./inp_files/27587.got.cif
#   From: 2010.05.17/outbox.cif.g08.bks.cpg/sg12_14_cif.got.tgz:27587.got - 2010.06.03 13:09:07.
