data_PCOD9220944
_publ_section_title
;
Structure prediction by ZEFSAII (Michael W. Deem and Ramdas Pophale) SiO2 
 PCOD9220944
Probable space group: C 2/M
;
_chemical_formula_sum "Si O2"
_cell_formula_units_Z 44
_cell_length_a 10.644092
_cell_length_b 28.678792
_cell_length_c 7.794948
_cell_angle_alpha 90.000000
_cell_angle_beta 129.400169
_cell_angle_gamma 90.000000
_cell_volume 1838.702327
_symmetry_space_group_name_H-M "C 2/M"
_symmetry_group_IT_number 12
_symmetry_cell_setting 'monoclinic'
loop_
_space_group_symop_operation_xyz
x,y,z
-x,y,-z
-x,-y,-z
x,-y,z
1/2+x,1/2+y,z
1/2-x,1/2+y,-z
1/2-x,1/2-y,-z
1/2+x,1/2-y,z
loop_
_atom_site_type_symbol
_atom_site_label
_atom_site_fract_x
_atom_site_fract_y
_atom_site_fract_z
Si Si1 0.936070 0.550303 0.138079
Si Si2 0.000000 0.220328 0.000000
Si Si3 0.451743 0.449839 0.258720
Si Si4 0.099358 0.844788 0.806394
Si Si5 0.539793 0.850161 0.724306
Si Si6 0.223990 0.287829 0.323094
O O1 0.990283 0.500000 0.253654
O O2 0.997526 0.594739 0.293337
O O3 0.741045 0.549605 0.948013
O O4 0.000000 0.555098 0.000000
O O5 0.843915 0.253152 0.881662
O O6 0.988993 0.189473 0.821324
O O7 0.500000 0.452566 0.500000
O O8 0.515966 0.500000 0.239443
O O9 0.487467 0.395427 0.251765
O O10 0.152840 0.822845 0.668692
O O11 0.272751 0.846705 0.057291
O O12 0.500000 0.833292 0.500000
O O13 0.420705 0.821420 0.741760
O O14 0.250000 0.250000 0.500000
#
# Coordination Sequence:
#
# PCOD9220944 Si02
#       6
#     8   4   8   8   8   8
#     4   9  18  36  63  92 124 164 210 266 326 384
#     4  12  26  42  63  88 133 170 212 264 316 380
#     4   9  19  37  65  94 125 163 207 260 322 387
#     4  11  24  45  63  95 129 166 219 265 320 393
#     4  11  22  40  63  92 129 165 211 268 325 383
#     4  12  26  41  66  90 126 169 218 267 323 376
#
# _framework density 23.929919000000002
#
# number of rings (size 3 to 8) (size 9 to 14) (size 15 to 20)
#    0.000    1.455    1.818    3.818    5.091    0.364 
#    3.273    0.455    0.000    0.000    0.000    0.000 
#    0.000    0.000    0.000    0.000    0.000    0.000 
#
# Total GULP energy -122642.534268 kJ/mol
# GULP energy per Si atom -5574.660649 kJ/mol
# Density = 2.387545 g / cm^3
# Si number density = 23.929919 Si / 1000 Ang^3
#
#
#
# Elastic Constant Matrix: (Units=GPa)
#
#
# Indices 1 2 3 4 5 6 
#
# 1 55.6157 40.5490 13.1610 0.0000 -12.1735 0.0000
# 2 40.5490 196.6618 34.5340 0.0000 3.1628 0.0000
# 3 13.1610 34.5340 66.1183 0.0000 -7.9426 0.0000
# 4 0.0000 0.0000 0.0000 50.7543 0.0000 -11.0764
# 5 -12.1735 3.1628 -7.9426 0.0000 27.6603 0.0000
# 6 0.0000 0.0000 0.0000 -11.0764 0.0000 17.7670
#
#
#
# Elastic Compliance Matrix: (Units=1/GPa)
#
#
# Indices 1 2 3 4 5 6 
#
# 1 0.024260 -0.005024 -0.000884 0.000000 0.010997 0.000000
# 2 -0.005024 0.006702 -0.002960 0.000000 -0.003827 0.000000
# 3 -0.000884 -0.002960 0.017442 0.000000 0.004958 0.000000
# 4 0.000000 0.000000 0.000000 0.022806 0.000000 0.014218
# 5 0.010997 -0.003827 0.004958 0.000000 0.042854 0.000000
# 6 0.000000 0.000000 0.000000 0.014218 0.000000 0.065148
#
#
# Mechanical properties :
#
#
# Convention : Reuss Voigt Hill
#
# Bulk Modulus (GPa) = 32.60734 54.98711 43.79723
# Shear Modulus (GPa) = 24.13475 34.57977 29.35726
#
# Velocity S-wave (km/s) = 3.17923 3.80550 3.50637
# Velocity P-wave (km/s) = 5.20888 6.50672 5.89363
#
# Compressibility (1/GPa) = 0.03066794
#
# Stress axis : x y z
#
# Youngs Moduli (GPa) = 41.22074 149.20759 57.33243
#
# Poissons Ratio (x) = 0.74957 0.05068
# Poissons Ratio (y) = 0.20708 0.16972
# Poissons Ratio (z) = 0.03644 0.44170
#
# Static dielectric constant tensor:
#      x y z
#    x 1.866290 0.000000 -0.000830 
#    y 0.000000 2.008430 0.000000 
#    z -0.000830 0.000000 2.031520 
# 
# From -- ./inp_files/53431.got.cif
#   From: 2010.05.17/outbox.cif.g08.bks.cpg/sg12_27_cif.got.tgz:53431.got - 2010.06.03 13:09:07.
