data_PCOD9220741
_publ_section_title
;
Structure prediction by ZEFSAII (Michael W. Deem and Ramdas Pophale) SiO2 
 PCOD9220741
Probable space group: C 2/M
;
_chemical_formula_sum "Si O2"
_cell_formula_units_Z 32
_cell_length_a 10.290148
_cell_length_b 24.867848
_cell_length_c 6.132632
_cell_angle_alpha 90.000000
_cell_angle_beta 79.741184
_cell_angle_gamma 90.000000
_cell_volume 1544.214767
_symmetry_space_group_name_H-M "C 2/M"
_symmetry_group_IT_number 12
_symmetry_cell_setting 'monoclinic'
loop_
_space_group_symop_operation_xyz
x,y,z
-x,y,-z
-x,-y,-z
x,-y,z
1/2+x,1/2+y,z
1/2-x,1/2+y,-z
1/2-x,1/2-y,-z
1/2+x,1/2-y,z
loop_
_atom_site_type_symbol
_atom_site_label
_atom_site_fract_x
_atom_site_fract_y
_atom_site_fract_z
Si Si1 0.793757 0.559744 0.249369
Si Si2 0.739091 0.161486 0.483742
Si Si3 0.428141 0.897065 0.821523
Si Si4 0.640013 0.747833 0.842788
O O1 0.744990 0.500000 0.307017
O O2 0.720422 0.608597 0.391084
O O3 0.948546 0.565213 0.280181
O O4 0.813293 0.570968 0.984756
O O5 0.632895 0.140003 0.340618
O O6 0.671900 0.203258 0.669356
O O7 0.844517 0.194465 0.311690
O O8 0.500000 0.865585 0.000000
O O9 0.500000 0.747801 0.000000
O O10 0.750000 0.750000 0.000000
#
# Coordination Sequence:
#
# PCOD9220741 Si02
#       4
#     8   8   8   8
#     4   9  19  32  56  93 132 167 210 262 323 386
#     4  11  22  38  62  86 126 171 212 262 327 383
#     4   8  19  31  54  85 133 161 203 258 314 380
#     4  11  28  43  64  93 127 171 220 272 322 383
#
# _framework density 20.722505999999999
#
# number of rings (size 3 to 8) (size 9 to 14) (size 15 to 20)
#    1.500    0.500    0.000    3.750   10.500    6.000 
#    0.000    0.000    0.000    0.750    0.000    7.000 
#    0.000    0.000    0.000    0.000    0.000    0.000 
#
# Total GULP energy -89118.098024 kJ/mol
# GULP energy per Si atom -5569.881127 kJ/mol
# Density = 2.067534 g / cm^3
# Si number density = 20.722506 Si / 1000 Ang^3
#
#
#
# Elastic Constant Matrix: (Units=GPa)
#
#
# Indices 1 2 3 4 5 6 
#
# 1 55.6948 21.6181 36.8246 0.0000 -12.0736 0.0000
# 2 21.6181 170.8108 64.2381 0.0000 -20.9401 0.0000
# 3 36.8246 64.2381 107.2021 0.0000 -10.6676 0.0000
# 4 0.0000 0.0000 0.0000 18.0914 0.0000 -2.0255
# 5 -12.0736 -20.9401 -10.6676 0.0000 39.3131 0.0000
# 6 0.0000 0.0000 0.0000 -2.0255 0.0000 20.3135
#
#
#
# Elastic Compliance Matrix: (Units=1/GPa)
#
#
# Indices 1 2 3 4 5 6 
#
# 1 0.024336 0.000700 -0.008220 0.000000 0.005616 0.000000
# 2 0.000700 0.007908 -0.004664 0.000000 0.003161 0.000000
# 3 -0.008220 -0.004664 0.014849 0.000000 -0.000980 0.000000
# 4 0.000000 0.000000 0.000000 0.055899 0.000000 0.005574
# 5 0.005616 0.003161 -0.000980 0.000000 0.028580 0.000000
# 6 0.000000 0.000000 0.000000 0.005574 0.000000 0.049784
#
#
# Mechanical properties :
#
#
# Convention : Reuss Voigt Hill
#
# Bulk Modulus (GPa) = 44.00669 64.34104 54.17387
# Shear Modulus (GPa) = 23.44134 29.61208 26.52671
#
# Velocity S-wave (km/s) = 3.36698 3.78429 3.58172
# Velocity P-wave (km/s) = 6.03305 7.08595 6.58059
#
# Compressibility (1/GPa) = 0.02272382
#
# Stress axis : x y z
#
# Youngs Moduli (GPa) = 41.09179 126.46222 67.34354
#
# Poissons Ratio (x) = -0.08851 0.55356
# Poissons Ratio (y) = -0.02876 0.31410
# Poissons Ratio (z) = 0.33777 0.58985
#
# Static dielectric constant tensor:
#      x y z
#    x 1.737410 0.000000 -0.029540 
#    y 0.000000 1.799490 0.000000 
#    z -0.029540 0.000000 1.841900 
# 
# From -- ./inp_files/7262.got.cif
#   From: 2010.05.17/outbox.cif.g08.bks.cpg/sg12_4_cif.got.tgz:7262.got - 2010.06.03 13:09:07.
