data_PCOD9220203
_publ_section_title
;
Structure prediction by ZEFSAII (Michael W. Deem and Ramdas Pophale) SiO2 
 PCOD9220203
Probable space group: C 2/M
;
_chemical_formula_sum "Si O2"
_cell_formula_units_Z 42
_cell_length_a 8.588534
_cell_length_b 27.822303
_cell_length_c 12.742982
_cell_angle_alpha 90.000000
_cell_angle_beta 33.899332
_cell_angle_gamma 90.000000
_cell_volume 1698.288310
_symmetry_space_group_name_H-M "C 2/M"
_symmetry_group_IT_number 12
_symmetry_cell_setting 'monoclinic'
loop_
_space_group_symop_operation_xyz
x,y,z
-x,y,-z
-x,-y,-z
x,-y,z
1/2+x,1/2+y,z
1/2-x,1/2+y,-z
1/2-x,1/2-y,-z
1/2+x,1/2-y,z
loop_
_atom_site_type_symbol
_atom_site_label
_atom_site_fract_x
_atom_site_fract_y
_atom_site_fract_z
Si Si1 0.803674 0.228555 0.279394
Si Si2 0.268161 0.321617 0.798434
Si Si3 0.333356 0.131246 0.707622
Si Si4 0.467495 0.550662 0.839054
Si Si5 0.868454 0.911711 0.473780
Si Si6 0.000000 0.500000 0.000000
O O1 0.500000 0.236415 0.500000
O O2 0.869498 0.280237 0.196223
O O3 0.750849 0.185860 0.225193
O O4 0.023390 0.206840 0.239030
O O5 0.454266 0.362713 0.642591
O O6 0.000000 0.345784 0.000000
O O7 0.500000 0.132334 0.500000
O O8 0.066470 0.097586 0.842658
O O9 0.551801 0.106118 0.661684
O O10 0.577435 0.500000 0.824032
O O11 0.598080 0.556676 0.649014
O O12 0.146610 0.541001 0.993601
O O13 0.000000 0.937122 0.500000
#
# Coordination Sequence:
#
# PCOD9220203 Si02
#       6
#     8   8   8   8   8   2
#     4  11  21  40  62  86 122 166 216 255 307 372
#     4  12  25  38  59  90 128 167 211 264 311 364
#     4   9  18  37  60  88 115 162 214 250 294 367
#     4   9  19  38  67  91 120 155 204 247 311 383
#     4  11  23  38  61  94 124 164 210 259 306 360
#     4   8  20  36  68  98 114 164 192 246 334 366
#
# _framework density 24.730784
#
# number of rings (size 3 to 8) (size 9 to 14) (size 15 to 20)
#    0.571    1.143    5.714    1.714    4.000    3.810 
#    0.000    0.000    0.000    1.143    0.000    0.000 
#    0.000    0.000    0.000    0.000    0.000    0.000 
#
# Total GULP energy -117060.929747 kJ/mol
# GULP energy per Si atom -5574.329988 kJ/mol
# Density = 2.467450 g / cm^3
# Si number density = 24.730784 Si / 1000 Ang^3
#
#
#
# Elastic Constant Matrix: (Units=GPa)
#
#
# Indices 1 2 3 4 5 6 
#
# 1 59.5411 1.2613 23.0652 0.0000 -7.6557 0.0000
# 2 1.2613 113.2039 -1.4987 0.0000 -3.0010 0.0000
# 3 23.0652 -1.4987 62.7002 0.0000 -18.3484 0.0000
# 4 0.0000 0.0000 0.0000 -90.3552 0.0000 -8.2849
# 5 -7.6557 -3.0010 -18.3484 0.0000 17.9841 0.0000
# 6 0.0000 0.0000 0.0000 -8.2849 0.0000 41.8891
#
#
#
# Elastic Compliance Matrix: (Units=1/GPa)
#
#
# Indices 1 2 3 4 5 6 
#
# 1 0.019620 -0.000274 -0.006833 0.000000 0.001334 0.000000
# 2 -0.000274 0.008914 0.001019 0.000000 0.002411 0.000000
# 3 -0.006833 0.001019 0.025213 0.000000 0.022985 0.000000
# 4 0.000000 0.000000 0.000000 -0.010870 0.000000 -0.002150
# 5 0.001334 0.002411 0.022985 0.000000 0.080026 0.000000
# 6 0.000000 0.000000 0.000000 -0.002150 0.000000 0.023447
#
#
# Mechanical properties :
#
#
# Convention : Reuss Voigt Hill
#
# Bulk Modulus (GPa) = 24.05500 31.23341 27.64421
# Shear Modulus (GPa) = 29.00526 8.07810 18.54168
#
# Velocity S-wave (km/s) = 3.42839 1.80928 2.74111
# Velocity P-wave (km/s) = 5.04179 4.12571 4.60658
#
# Compressibility (1/GPa) = 0.04157139
#
# Stress axis : x y z
#
# Youngs Moduli (GPa) = 50.96932 112.18220 39.66151
#
# Poissons Ratio (x) = 0.03070 0.27102
# Poissons Ratio (y) = 0.01395 -0.04043
# Poissons Ratio (z) = 0.34829 -0.11434
#
# Static dielectric constant tensor:
#      x y z
#    x 2.033460 0.000000 0.077590 
#    y 0.000000 1.921670 0.000000 
#    z 0.077590 0.000000 2.047940 
# 
# From -- ./inp_files/200461.got.cif
#   From: 2010.05.17/outbox.cif.g08.bks.cpg/sg12_101_cif.got.tgz:200461.got - 2010.06.03 13:09:07.
