data_PCOD9220304
_publ_section_title
;
Structure prediction by ZEFSAII (Michael W. Deem and Ramdas Pophale) SiO2 
 PCOD9220304
Probable space group: C 2/M
;
_chemical_formula_sum "Si O2"
_cell_formula_units_Z 48
_cell_length_a 14.146469
_cell_length_b 17.691413
_cell_length_c 8.099208
_cell_angle_alpha 90.000000
_cell_angle_beta 104.146606
_cell_angle_gamma 90.000000
_cell_volume 1965.525428
_symmetry_space_group_name_H-M "C 2/M"
_symmetry_group_IT_number 12
_symmetry_cell_setting 'monoclinic'
loop_
_space_group_symop_operation_xyz
x,y,z
-x,y,-z
-x,-y,-z
x,-y,z
1/2+x,1/2+y,z
1/2-x,1/2+y,-z
1/2-x,1/2-y,-z
1/2+x,1/2-y,z
loop_
_atom_site_type_symbol
_atom_site_label
_atom_site_fract_x
_atom_site_fract_y
_atom_site_fract_z
Si Si1 0.575343 0.585088 0.398304
Si Si2 0.785273 0.150972 0.788813
Si Si3 0.418432 0.652119 0.168977
Si Si4 0.027902 0.693119 0.321090
Si Si5 0.380499 0.086444 0.091623
Si Si6 0.226080 0.678268 0.242147
O O1 0.500000 0.618954 0.500000
O O2 0.602305 0.500000 0.455771
O O3 0.665423 0.630890 0.363940
O O4 0.497656 0.586447 0.214446
O O5 0.701210 0.092765 0.800150
O O6 0.743268 0.235139 0.774401
O O7 0.863546 0.153161 0.971211
O O8 0.479979 0.730085 0.224160
O O9 0.330969 0.638468 0.266792
O O10 0.977694 0.623618 0.204397
O O11 0.000000 0.691242 0.500000
O O12 0.144692 0.685766 0.349778
O O13 0.391568 0.000000 0.043493
O O14 0.337089 0.140143 0.930767
#
# Coordination Sequence:
#
# PCOD9220304 Si02
#       6
#     8   8   8   8   8   8
#     4  11  25  41  61  97 138 169 202 257 327 387
#     4  11  21  41  70  95 124 166 217 265 315 377
#     4  11  22  40  64  95 126 165 214 267 311 371
#     4  12  25  40  64  99 130 171 215 259 320 388
#     4  11  24  44  67  94 129 170 217 271 321 372
#     4  11  23  41  68  95 126 164 216 268 316 376
#
# _framework density 24.420950000000001
#
# number of rings (size 3 to 8) (size 9 to 14) (size 15 to 20)
#    0.000    0.833    5.000    3.000    0.000    7.667 
#    0.000    0.000    0.000    0.000    0.000    0.000 
#    0.000    0.000    0.000    0.000    0.000    0.000 
#
# Total GULP energy -134109.712238 kJ/mol
# GULP energy per Si atom -5587.904677 kJ/mol
# Density = 2.436537 g / cm^3
# Si number density = 24.420950 Si / 1000 Ang^3
#
#
#
# Elastic Constant Matrix: (Units=GPa)
#
#
# Indices 1 2 3 4 5 6 
#
# 1 153.8487 13.5042 28.0182 0.0000 -24.7403 0.0000
# 2 13.5042 119.4533 2.3890 0.0000 -4.6911 0.0000
# 3 28.0182 2.3890 56.3176 0.0000 -29.8551 0.0000
# 4 0.0000 0.0000 0.0000 19.4579 0.0000 1.6268
# 5 -24.7403 -4.6911 -29.8551 0.0000 53.7761 0.0000
# 6 0.0000 0.0000 0.0000 1.6268 0.0000 24.7819
#
#
#
# Elastic Compliance Matrix: (Units=1/GPa)
#
#
# Indices 1 2 3 4 5 6 
#
# 1 0.007340 -0.000704 -0.002642 0.000000 0.001849 0.000000
# 2 -0.000704 0.008468 0.000299 0.000000 0.000581 0.000000
# 3 -0.002642 0.000299 0.026113 0.000000 0.013308 0.000000
# 4 0.000000 0.000000 0.000000 0.051677 0.000000 -0.003392
# 5 0.001849 0.000581 0.013308 0.000000 0.026885 0.000000
# 6 0.000000 0.000000 0.000000 -0.003392 0.000000 0.040575
#
#
# Mechanical properties :
#
#
# Convention : Reuss Voigt Hill
#
# Bulk Modulus (GPa) = 27.91216 46.38248 37.14732
# Shear Modulus (GPa) = 27.91837 38.65040 33.28438
#
# Velocity S-wave (km/s) = 3.38481 3.98260 3.69581
# Velocity P-wave (km/s) = 5.17014 6.33895 5.78414
#
# Compressibility (1/GPa) = 0.03582667
#
# Stress axis : x y z
#
# Youngs Moduli (GPa) = 136.23732 118.09266 38.29538
#
# Poissons Ratio (x) = 0.08318 0.10117
# Poissons Ratio (y) = 0.09596 -0.01145
# Poissons Ratio (z) = 0.35991 -0.03531
#
# Static dielectric constant tensor:
#      x y z
#    x 1.946860 0.000000 -0.034810 
#    y 0.000000 1.876960 0.000000 
#    z -0.034810 0.000000 2.112830 
# 
# From -- ./inp_files/61705.got.cif
#   From: 2010.05.17/outbox.cif.g08.bks.cpg/sg12_31_cif.got.tgz:61705.got - 2010.06.03 13:09:07.
