data_PCOD9220290
_publ_section_title
;
Structure prediction by ZEFSAII (Michael W. Deem and Ramdas Pophale) SiO2 
 PCOD9220290
Probable space group: C 2/M
;
_chemical_formula_sum "Si O2"
_cell_formula_units_Z 48
_cell_length_a 16.922580
_cell_length_b 9.846553
_cell_length_c 15.697139
_cell_angle_alpha 90.000000
_cell_angle_beta 103.283694
_cell_angle_gamma 90.000000
_cell_volume 2545.617650
_symmetry_space_group_name_H-M "C 2/M"
_symmetry_group_IT_number 12
_symmetry_cell_setting 'monoclinic'
loop_
_space_group_symop_operation_xyz
x,y,z
-x,y,-z
-x,-y,-z
x,-y,z
1/2+x,1/2+y,z
1/2-x,1/2+y,-z
1/2-x,1/2-y,-z
1/2+x,1/2-y,z
loop_
_atom_site_type_symbol
_atom_site_label
_atom_site_fract_x
_atom_site_fract_y
_atom_site_fract_z
Si Si1 0.803530 0.000000 0.381864
Si Si2 0.329205 0.659274 0.030126
Si Si3 0.664439 0.500000 0.415788
Si Si4 0.953424 0.243253 0.203588
Si Si5 0.022801 0.000000 0.658984
Si Si6 0.896048 0.838705 0.862715
Si Si7 0.619349 0.000000 0.720906
Si Si8 0.242410 0.791783 0.305654
O O1 0.795021 0.000000 0.481727
O O2 0.899459 0.000000 0.383103
O O3 0.764494 0.862434 0.334298
O O4 0.307709 0.500000 0.026019
O O5 0.377732 0.697947 0.126532
O O6 0.250000 0.750000 0.000000
O O7 0.384438 0.681772 0.960119
O O8 0.567195 0.500000 0.402158
O O9 0.692472 0.368927 0.367894
O O10 0.933559 0.382401 0.243826
O O11 0.031245 0.243897 0.161083
O O12 0.970097 0.130375 0.278696
O O13 0.813293 0.803011 0.792509
O O14 0.912083 0.000000 0.852782
O O15 0.677629 0.880824 0.692014
#
# Coordination Sequence:
#
# PCOD9220290 Si02
#       8
#     4   8   4   8   4   8   4   8
#     4  12  26  40  71 100 128 163 225 273 315 404
#     4  11  25  39  64  94 130 172 223 265 313 380
#     4  11  23  46  67  98 133 167 207 274 341 386
#     4  12  22  42  64  95 127 171 220 264 318 382
#     4  12  22  43  70  93 126 170 218 261 323 402
#     4  11  21  41  68  91 129 176 215 263 322 385
#     4  11  24  39  66  89 133 170 207 267 325 375
#     4  11  22  43  68  94 129 174 213 258 336 386
#
# _framework density 18.855934000000001
#
# number of rings (size 3 to 8) (size 9 to 14) (size 15 to 20)
#    0.000    0.667    6.667    2.250    3.500    2.000 
#    1.500    0.833    0.000    1.000    0.000    0.000 
#    0.000    0.000    0.000    0.000    0.000    0.000 
#
# Total GULP energy -133630.360571 kJ/mol
# GULP energy per Si atom -5567.931690 kJ/mol
# Density = 1.881302 g / cm^3
# Si number density = 18.855934 Si / 1000 Ang^3
#
#
#
# Elastic Constant Matrix: (Units=GPa)
#
#
# Indices 1 2 3 4 5 6 
#
# 1 50.0440 14.1856 -11.5564 0.0000 -13.8320 0.0000
# 2 14.1856 118.8949 9.4012 0.0000 -5.3369 0.0000
# 3 -11.5564 9.4012 27.4050 0.0000 5.8398 0.0000
# 4 0.0000 0.0000 0.0000 14.5319 0.0000 2.7583
# 5 -13.8320 -5.3369 5.8398 0.0000 22.8485 0.0000
# 6 0.0000 0.0000 0.0000 2.7583 0.0000 23.1315
#
#
#
# Elastic Compliance Matrix: (Units=1/GPa)
#
#
# Indices 1 2 3 4 5 6 
#
# 1 0.026749 -0.003377 0.009683 0.000000 0.012930 0.000000
# 2 -0.003377 0.009262 -0.004893 0.000000 0.001370 0.000000
# 3 0.009683 -0.004893 0.043622 0.000000 -0.006430 0.000000
# 4 0.000000 0.000000 0.000000 0.070408 0.000000 -0.008396
# 5 0.012930 0.001370 -0.006430 0.000000 0.053558 0.000000
# 6 0.000000 0.000000 0.000000 -0.008396 0.000000 0.044232
#
#
# Mechanical properties :
#
#
# Convention : Reuss Voigt Hill
#
# Bulk Modulus (GPa) = 12.12715 24.48940 18.30827
# Shear Modulus (GPa) = 18.34922 24.38994 21.36958
#
# Velocity S-wave (km/s) = 3.12288 3.60041 3.37012
# Velocity P-wave (km/s) = 4.41006 5.50452 4.98740
#
# Compressibility (1/GPa) = 0.08245962
#
# Stress axis : x y z
#
# Youngs Moduli (GPa) = 37.38389 107.96706 22.92432
#
# Poissons Ratio (x) = 0.36458 -0.22198
# Poissons Ratio (y) = 0.12624 0.11217
# Poissons Ratio (z) = -0.36199 0.52830
#
# Static dielectric constant tensor:
#      x y z
#    x 1.669620 0.000000 -0.008790 
#    y 0.000000 1.606530 0.000000 
#    z -0.008790 0.000000 1.643950 
# 
# From -- ./inp_files/221803.got.cif
#   From: 2010.05.17/outbox.cif.g08.bks.cpg/sg12_111_cif.got.tgz:221803.got - 2010.06.03 13:09:07.
