data_PCOD9220428
_publ_section_title
;
Structure prediction by ZEFSAII (Michael W. Deem and Ramdas Pophale) SiO2 
 PCOD9220428
Probable space group: C 2/M
;
_chemical_formula_sum "Si O2"
_cell_formula_units_Z 32
_cell_length_a 16.058343
_cell_length_b 7.318701
_cell_length_c 12.864691
_cell_angle_alpha 90.000000
_cell_angle_beta 60.173017
_cell_angle_gamma 90.000000
_cell_volume 1311.653893
_symmetry_space_group_name_H-M "C 2/M"
_symmetry_group_IT_number 12
_symmetry_cell_setting 'monoclinic'
loop_
_space_group_symop_operation_xyz
x,y,z
-x,y,-z
-x,-y,-z
x,-y,z
1/2+x,1/2+y,z
1/2-x,1/2+y,-z
1/2-x,1/2-y,-z
1/2+x,1/2-y,z
loop_
_atom_site_type_symbol
_atom_site_label
_atom_site_fract_x
_atom_site_fract_y
_atom_site_fract_z
Si Si1 0.058368 0.291441 0.574128
Si Si2 0.881403 0.000000 0.965891
Si Si3 0.891200 0.000000 0.199001
Si Si4 0.629969 0.779302 0.195706
Si Si5 0.227251 0.286511 0.344726
O O1 0.074367 0.500000 0.599267
O O2 0.161200 0.206741 0.477185
O O3 0.000000 0.291904 0.500000
O O4 0.977689 0.218473 0.701898
O O5 0.847600 0.823460 0.924057
O O6 0.996742 0.000000 0.885099
O O7 0.852997 0.000000 0.103370
O O8 0.841247 0.179512 0.282171
O O9 0.696586 0.716507 0.250863
O O10 0.632211 0.000000 0.183584
O O11 0.194227 0.500000 0.362388
#
# Coordination Sequence:
#
# PCOD9220428 Si02
#       5
#     8   4   4   8   8
#     4   7  10  22  49  75  94 125 162 198 252 300
#     4  11  22  34  51  76 105 137 171 206 255 302
#     4   9  20  36  49  68 109 147 161 200 265 308
#     4   9  17  32  55  81  98 128 173 216 247 293
#     4   7  13  30  54  71  95 140 164 195 254 301
#
# _framework density 24.396678999999999
#
# number of rings (size 3 to 8) (size 9 to 14) (size 15 to 20)
#    0.750    3.000    0.000    3.000    0.000    1.000 
#    0.000    9.375    2.750    0.000    0.000    0.000 
#    0.000    0.000    0.000    0.000    0.000    0.000 
#
# Total GULP energy -89101.497245 kJ/mol
# GULP energy per Si atom -5568.843578 kJ/mol
# Density = 2.434115 g / cm^3
# Si number density = 24.396679 Si / 1000 Ang^3
#
#
#
# Elastic Constant Matrix: (Units=GPa)
#
#
# Indices 1 2 3 4 5 6 
#
# 1 114.8410 3.0114 29.1075 0.0000 -40.0880 0.0000
# 2 3.0114 99.1975 28.5139 0.0000 1.4954 0.0000
# 3 29.1075 28.5139 105.7688 0.0000 -3.2830 0.0000
# 4 0.0000 0.0000 0.0000 19.4260 0.0000 19.5701
# 5 -40.0880 1.4954 -3.2830 0.0000 49.4802 0.0000
# 6 0.0000 0.0000 0.0000 19.5701 0.0000 8.4449
#
#
#
# Elastic Compliance Matrix: (Units=1/GPa)
#
#
# Indices 1 2 3 4 5 6 
#
# 1 0.013220 0.000426 -0.003428 0.000000 0.010471 0.000000
# 2 0.000426 0.010955 -0.003077 0.000000 -0.000190 0.000000
# 3 -0.003428 -0.003077 0.011167 0.000000 -0.001944 0.000000
# 4 0.000000 0.000000 0.000000 -0.038572 0.000000 0.089387
# 5 0.010471 -0.000190 -0.001944 0.000000 0.028570 0.000000
# 6 0.000000 0.000000 0.000000 0.089387 0.000000 -0.088729
#
#
# Mechanical properties :
#
#
# Convention : Reuss Voigt Hill
#
# Bulk Modulus (GPa) = 43.13001 49.00809 46.06905
# Shear Modulus (GPa) = -114.93484 32.74851 -41.09316
#
# Velocity S-wave (km/s) = -6.87118 3.66776 -4.10857
# Velocity P-wave (km/s) = 6.72561 6.16995 1.89282
#
# Compressibility (1/GPa) = 0.02318571
#
# Stress axis : x y z
#
# Youngs Moduli (GPa) = 75.64042 91.28114 89.54897
#
# Poissons Ratio (x) = -0.03891 0.30699
# Poissons Ratio (y) = -0.03224 0.27550
# Poissons Ratio (z) = 0.25931 0.28083
#
# Static dielectric constant tensor:
#      x y z
#    x 2.030860 0.000000 -0.046030 
#    y 0.000000 1.910790 0.000000 
#    z -0.046030 0.000000 1.943060 
# 
# From -- ./inp_files/161807.got.cif
#   From: 2010.05.17/outbox.cif.g08.bks.cpg/sg12_81_cif.got.tgz:161807.got - 2010.06.03 13:09:07.
