data_PCOD9220658
_publ_section_title
;
Structure prediction by ZEFSAII (Michael W. Deem and Ramdas Pophale) SiO2 
 PCOD9220658
Probable space group: C 2/M
;
_chemical_formula_sum "Si O2"
_cell_formula_units_Z 48
_cell_length_a 27.728336
_cell_length_b 17.285478
_cell_length_c 13.633164
_cell_angle_alpha 90.000000
_cell_angle_beta 160.439616
_cell_angle_gamma 90.000000
_cell_volume 2187.698504
_symmetry_space_group_name_H-M "C 2/M"
_symmetry_group_IT_number 12
_symmetry_cell_setting 'monoclinic'
loop_
_space_group_symop_operation_xyz
x,y,z
-x,y,-z
-x,-y,-z
x,-y,z
1/2+x,1/2+y,z
1/2-x,1/2+y,-z
1/2-x,1/2-y,-z
1/2+x,1/2-y,z
loop_
_atom_site_type_symbol
_atom_site_label
_atom_site_fract_x
_atom_site_fract_y
_atom_site_fract_z
Si Si1 0.492384 0.379063 0.805335
Si Si2 0.227037 0.739560 0.840339
Si Si3 0.445852 0.800004 0.103328
Si Si4 0.180711 0.585781 0.526274
Si Si5 0.195772 0.587168 0.324621
Si Si6 0.479517 0.642893 0.349714
O O1 0.366796 0.406929 0.634909
O O2 0.458203 0.400352 0.625946
O O3 0.505631 0.285596 0.835155
O O4 0.649290 0.409142 0.132467
O O5 0.324846 0.791241 0.955021
O O6 0.066784 0.774250 0.517939
O O7 0.250000 0.750000 0.000000
O O8 0.312520 0.657349 0.998685
O O9 0.372872 0.847598 0.875327
O O10 0.588432 0.848656 0.403908
O O11 0.131641 0.500000 0.460317
O O12 0.159811 0.597961 0.369547
O O13 0.150295 0.500000 0.209413
O O14 0.500000 0.612163 0.500000
#
# Coordination Sequence:
#
# PCOD9220658 Si02
#       6
#     8   8   8   8   8   8
#     4  11  22  37  62  92 124 159 208 266 309 363
#     4   9  18  33  56  90 121 150 191 250 312 366
#     4  11  22  37  62  93 123 155 206 268 308 357
#     4  11  25  41  59  87 128 174 209 248 314 378
#     4  11  23  41  61  85 125 174 213 249 306 378
#     4   9  18  33  56  89 119 151 195 252 312 369
#
# _framework density 21.940866
#
# number of rings (size 3 to 8) (size 9 to 14) (size 15 to 20)
#    0.000    1.667    1.667    3.000    7.000    6.667 
#    0.000    0.000    0.000    2.000    0.000   10.500 
#    0.000    0.000    0.000    0.000    0.000    0.000 
#
# Total GULP energy -133829.775582 kJ/mol
# GULP energy per Si atom -5576.240649 kJ/mol
# Density = 2.189093 g / cm^3
# Si number density = 21.940866 Si / 1000 Ang^3
#
#
#
# Elastic Constant Matrix: (Units=GPa)
#
#
# Indices 1 2 3 4 5 6 
#
# 1 86.1402 35.3593 -3.8047 0.0000 5.8888 0.0000
# 2 35.3593 92.7347 13.1012 0.0000 1.3707 0.0000
# 3 -3.8047 13.1012 100.0513 0.0000 0.6511 0.0000
# 4 0.0000 0.0000 0.0000 26.5600 0.0000 -15.4842
# 5 5.8888 1.3707 0.6511 0.0000 43.3482 0.0000
# 6 0.0000 0.0000 0.0000 -15.4842 0.0000 34.1322
#
#
#
# Elastic Compliance Matrix: (Units=1/GPa)
#
#
# Indices 1 2 3 4 5 6 
#
# 1 0.014046 -0.005509 0.001267 0.000000 -0.001753 0.000000
# 2 -0.005509 0.013152 -0.001934 0.000000 0.000362 0.000000
# 3 0.001267 -0.001934 0.010298 0.000000 -0.000266 0.000000
# 4 0.000000 0.000000 0.000000 0.051189 0.000000 0.023222
# 5 -0.001753 0.000362 -0.000266 0.000000 0.023300 0.000000
# 6 0.000000 0.000000 0.000000 0.023222 0.000000 0.039833
#
#
# Mechanical properties :
#
#
# Convention : Reuss Voigt Hill
#
# Bulk Modulus (GPa) = 39.77073 40.91533 40.34303
# Shear Modulus (GPa) = 28.97709 36.42610 32.70160
#
# Velocity S-wave (km/s) = 3.63807 4.07897 3.86481
# Velocity P-wave (km/s) = 5.98441 6.39316 6.19216
#
# Compressibility (1/GPa) = 0.02514412
#
# Stress axis : x y z
#
# Youngs Moduli (GPa) = 71.19438 76.03518 97.10599
#
# Poissons Ratio (x) = 0.41886 -0.12302
# Poissons Ratio (y) = 0.39219 0.18780
# Poissons Ratio (z) = -0.09020 0.14705
#
# Static dielectric constant tensor:
#      x y z
#    x 1.823850 0.000000 -0.007150 
#    y 0.000000 1.823980 0.000000 
#    z -0.007150 0.000000 1.911040 
# 
# From -- ./inp_files/196907.got.cif
#   From: 2010.05.17/outbox.cif.g08.bks.cpg/sg12_99_cif.got.tgz:196907.got - 2010.06.03 13:09:07.
