data_PCOD9220662
_publ_section_title
;
Structure prediction by ZEFSAII (Michael W. Deem and Ramdas Pophale) SiO2 
 PCOD9220662
Probable space group: C 2/M
;
_chemical_formula_sum "Si O2"
_cell_formula_units_Z 56
_cell_length_a 29.195446
_cell_length_b 11.064823
_cell_length_c 27.964416
_cell_angle_alpha 90.000000
_cell_angle_beta 20.631009
_cell_angle_gamma 90.000000
_cell_volume 3183.005562
_symmetry_space_group_name_H-M "C 2/M"
_symmetry_group_IT_number 12
_symmetry_cell_setting 'monoclinic'
loop_
_space_group_symop_operation_xyz
x,y,z
-x,y,-z
-x,-y,-z
x,-y,z
1/2+x,1/2+y,z
1/2-x,1/2+y,-z
1/2-x,1/2-y,-z
1/2+x,1/2-y,z
loop_
_atom_site_type_symbol
_atom_site_label
_atom_site_fract_x
_atom_site_fract_y
_atom_site_fract_z
Si Si1 0.746865 0.354938 0.140087
Si Si2 0.762838 0.355748 0.328233
Si Si3 0.268794 0.000000 0.730005
Si Si4 0.975682 0.731930 0.385406
Si Si5 0.481125 0.000000 0.445612
Si Si6 0.136917 0.647291 0.605351
Si Si7 0.654445 0.239530 0.853658
Si Si8 0.999384 0.645168 0.839549
O O1 0.743100 0.500000 0.144685
O O2 0.608928 0.305687 0.257608
O O3 0.788132 0.310894 0.152800
O O4 0.859356 0.311610 0.993727
O O5 0.762867 0.500000 0.329514
O O6 0.639625 0.309015 0.477944
O O7 0.772386 0.315693 0.263942
O O8 0.890496 0.308998 0.231509
O O9 0.339978 0.000000 0.608982
O O10 0.395995 0.000000 0.639286
O O11 0.184160 0.118319 0.821765
O O12 0.992588 0.617443 0.402654
O O13 0.935055 0.682597 0.373259
O O14 0.172332 0.500000 0.570574
O O15 0.250000 0.750000 0.500000
O O16 0.044474 0.667594 0.741581
O O17 0.500000 0.213770 0.000000
O O18 0.997092 0.500000 0.847034
#
# Coordination Sequence:
#
# PCOD9220662 Si02
#       8
#     8   8   4   8   4   8   8   8
#     4  11  24  40  62  91 128 163 201 253 311 369
#     4  11  22  37  62  93 126 158 200 255 306 368
#     4  11  23  40  58  86 123 165 210 248 302 363
#     4  12  23  40  64  91 124 160 208 253 306 365
#     4  11  22  40  60  82 122 168 200 245 305 364
#     4  11  23  40  70  97 124 165 212 260 314 371
#     4  12  23  38  62  90 121 163 208 252 303 369
#     4   9  20  40  61  89 123 162 203 249 310 370
#
# _framework density 17.593433999999998
#
# number of rings (size 3 to 8) (size 9 to 14) (size 15 to 20)
#    0.000    1.000    6.429    1.071    0.000    2.286 
#    0.000    1.429    3.143    0.000    0.000    0.000 
#    0.000    0.000    0.000    0.000    0.000    0.000 
#
# Total GULP energy -156199.456350 kJ/mol
# GULP energy per Si atom -5578.552013 kJ/mol
# Density = 1.755339 g / cm^3
# Si number density = 17.593434 Si / 1000 Ang^3
#
#
#
# Elastic Constant Matrix: (Units=GPa)
#
#
# Indices 1 2 3 4 5 6 
#
# 1 178.3531 64.1238 16.5308 -0.0042 -22.9334 0.0037
# 2 64.1238 113.0372 30.0772 -0.0015 -10.9855 0.0026
# 3 16.5308 30.0772 154.9231 0.0023 24.1880 0.0021
# 4 -0.0042 -0.0015 0.0023 29.7114 0.0019 -8.9213
# 5 -22.9334 -10.9855 24.1880 0.0019 50.6150 -0.0020
# 6 0.0037 0.0026 0.0021 -8.9213 -0.0020 29.1578
#
#
#
# Elastic Compliance Matrix: (Units=1/GPa)
#
#
# Indices 1 2 3 4 5 6 
#
# 1 0.007365 -0.003783 -0.000480 0.000001 0.002745 0.000000
# 2 -0.003783 0.011752 -0.002171 0.000000 0.001874 0.000000
# 3 -0.000480 -0.002171 0.007602 -0.000001 -0.004321 -0.000001
# 4 0.000001 0.000000 -0.000001 0.037062 0.000000 0.011340
# 5 0.002745 0.001874 -0.004321 0.000000 0.023473 0.000001
# 6 0.000000 0.000000 -0.000001 0.011340 0.000001 0.037766
#
#
# Mechanical properties :
#
#
# Convention : Reuss Voigt Hill
#
# Bulk Modulus (GPa) = 72.19336 74.19744 73.19540
# Shear Modulus (GPa) = 35.08673 44.26897 39.67785
#
# Velocity S-wave (km/s) = 4.47061 5.02164 4.75411
# Velocity P-wave (km/s) = 8.23237 8.71134 8.47523
#
# Compressibility (1/GPa) = 0.01385169
#
# Stress axis : x y z
#
# Youngs Moduli (GPa) = 135.78620 85.08845 131.54221
#
# Poissons Ratio (x) = 0.32191 0.06313
# Poissons Ratio (y) = 0.51372 0.28552
# Poissons Ratio (z) = 0.06516 0.18469
#
# Static dielectric constant tensor:
#      x y z
#    x 1.595850 0.000000 -0.003230 
#    y 0.000000 1.567350 0.000000 
#    z -0.003230 0.000000 1.607950 
# 
# From -- ./inp_files/369392.got.cif
#   From: 2010.05.17/outbox.cif.g08.bks.cpg/sg12_185_cif.got.tgz:369392.got - 2010.06.03 13:09:07.
