data_PCOD9220087
_publ_section_title
;
Structure prediction by ZEFSAII (Michael W. Deem and Ramdas Pophale) SiO2 
 PCOD9220087
Probable space group: C 2/M
;
_chemical_formula_sum "Si O2"
_cell_formula_units_Z 56
_cell_length_a 9.711373
_cell_length_b 16.537675
_cell_length_c 27.556460
_cell_angle_alpha 90.000000
_cell_angle_beta 39.099876
_cell_angle_gamma 90.000000
_cell_volume 2791.152265
_symmetry_space_group_name_H-M "C 2/M"
_symmetry_group_IT_number 12
_symmetry_cell_setting 'monoclinic'
loop_
_space_group_symop_operation_xyz
x,y,z
-x,y,-z
-x,-y,-z
x,-y,z
1/2+x,1/2+y,z
1/2-x,1/2+y,-z
1/2-x,1/2-y,-z
1/2+x,1/2-y,z
loop_
_atom_site_type_symbol
_atom_site_label
_atom_site_fract_x
_atom_site_fract_y
_atom_site_fract_z
Si Si1 0.979937 0.708614 0.948358
Si Si2 0.082506 0.145186 0.699415
Si Si3 0.379208 0.094912 0.332393
Si Si4 0.584149 0.200970 0.202081
Si Si5 0.899843 0.591168 0.165781
Si Si6 0.939794 0.353680 0.423125
Si Si7 0.050812 0.166002 0.594917
O O1 0.177036 0.767312 0.877156
O O2 0.006456 0.627557 0.909575
O O3 0.750000 0.750000 0.000000
O O4 0.000000 0.694195 0.000000
O O5 0.053802 0.220096 0.744363
O O6 0.863122 0.093813 0.765633
O O7 0.320764 0.107151 0.640512
O O8 0.075592 0.173983 0.645561
O O9 0.571707 0.143084 0.252411
O O10 0.345449 0.126431 0.396094
O O11 0.161571 0.115415 0.361480
O O12 0.419858 0.000000 0.321528
O O13 0.478352 0.152358 0.186436
O O14 0.972149 0.500000 0.156204
O O15 0.975128 0.256867 0.418496
O O16 0.764390 0.373916 0.512265
#
# Coordination Sequence:
#
# PCOD9220087 Si02
#       7
#     8   8   8   8   8   8   8
#     4  11  24  45  72 103 131 169 211 259 316 393
#     4  11  21  38  65  93 126 168 224 272 317 380
#     4  12  25  41  62  93 131 169 217 275 332 381
#     4  11  22  40  69  93 127 169 216 250 319 392
#     4  11  24  42  69 101 134 172 212 265 326 386
#     4  11  22  37  60  90 127 171 225 275 324 377
#     4  11  21  38  61  88 124 176 226 270 321 387
#
# _framework density 20.063400000000001
#
# number of rings (size 3 to 8) (size 9 to 14) (size 15 to 20)
#    0.000    0.857    5.714    1.286    2.000    4.286 
#    0.000    2.143    0.000    2.571    0.000    0.000 
#    0.000    0.000    0.000    0.000    0.000    0.000 
#
# Total GULP energy -156480.492500 kJ/mol
# GULP energy per Si atom -5588.589018 kJ/mol
# Density = 2.001773 g / cm^3
# Si number density = 20.063400 Si / 1000 Ang^3
#
#
#
# Elastic Constant Matrix: (Units=GPa)
#
#
# Indices 1 2 3 4 5 6 
#
# 1 87.4106 16.1513 39.3403 0.0001 4.4663 0.0006
# 2 16.1513 81.7076 27.1985 0.0003 5.6005 0.0005
# 3 39.3403 27.1985 142.4978 -0.0019 3.0413 0.0018
# 4 0.0001 0.0003 -0.0019 0.1948 0.0021 -6.4370
# 5 4.4663 5.6005 3.0413 0.0021 37.9457 -0.0004
# 6 0.0006 0.0005 0.0018 -6.4370 -0.0004 15.4043
#
#
#
# Elastic Compliance Matrix: (Units=1/GPa)
#
#
# Indices 1 2 3 4 5 6 
#
# 1 0.013276 -0.001429 -0.003369 0.000002 -0.001082 0.000001
# 2 -0.001429 0.013337 -0.002117 0.000002 -0.001631 0.000001
# 3 -0.003369 -0.002117 0.008351 -0.000005 0.000040 -0.000003
# 4 0.000002 0.000002 -0.000005 -0.400792 0.000020 -0.167481
# 5 -0.001082 -0.001631 0.000040 0.000020 0.026718 0.000009
# 6 0.000001 0.000001 -0.000003 -0.167481 0.000009 -0.005069
#
#
# Mechanical properties :
#
#
# Convention : Reuss Voigt Hill
#
# Bulk Modulus (GPa) = 47.31392 52.99958 50.15675
# Shear Modulus (GPa) = -15.46533 25.97068 5.25268
#
# Velocity S-wave (km/s) = -2.77938 3.60172 1.61979
# Velocity P-wave (km/s) = 3.65150 6.61589 5.34338
#
# Compressibility (1/GPa) = 0.02113543
#
# Stress axis : x y z
#
# Youngs Moduli (GPa) = 75.32418 74.97683 119.74607
#
# Poissons Ratio (x) = 0.10711 0.40348
# Poissons Ratio (y) = 0.10760 0.25344
# Poissons Ratio (z) = 0.25380 0.15869
#
# Static dielectric constant tensor:
#      x y z
#    x 1.698940 0.000000 -0.013030 
#    y 0.000000 1.702230 0.000000 
#    z -0.013030 0.000000 1.718620 
# 
# From -- ./inp_files/356650.got.cif
#   From: 2010.05.17/outbox.cif.g08.bks.cpg/sg12_179_cif.got.tgz:356650.got - 2010.06.03 13:09:07.
