data_PCOD9220705
_publ_section_title
;
Structure prediction by ZEFSAII (Michael W. Deem and Ramdas Pophale) SiO2 
 PCOD9220705
Probable space group: C 2/M
;
_chemical_formula_sum "Si O2"
_cell_formula_units_Z 32
_cell_length_a 23.067411
_cell_length_b 8.562889
_cell_length_c 9.485924
_cell_angle_alpha 90.000000
_cell_angle_beta 114.648758
_cell_angle_gamma 90.000000
_cell_volume 1702.966429
_symmetry_space_group_name_H-M "C 2/M"
_symmetry_group_IT_number 12
_symmetry_cell_setting 'monoclinic'
loop_
_space_group_symop_operation_xyz
x,y,z
-x,y,-z
-x,-y,-z
x,-y,z
1/2+x,1/2+y,z
1/2-x,1/2+y,-z
1/2-x,1/2-y,-z
1/2+x,1/2-y,z
loop_
_atom_site_type_symbol
_atom_site_label
_atom_site_fract_x
_atom_site_fract_y
_atom_site_fract_z
Si Si1 0.808998 0.812124 0.650669
Si Si2 0.574166 0.689267 0.738691
Si Si3 0.428857 0.689547 0.589737
Si Si4 0.691736 0.814332 0.033751
O O1 0.750000 0.750000 0.500000
O O2 0.874545 0.758066 0.641838
O O3 0.804995 0.753030 0.805732
O O4 0.808120 0.000000 0.648907
O O5 0.578184 0.500000 0.751786
O O6 0.501269 0.736875 0.698226
O O7 0.586029 0.734182 0.587131
O O8 0.626254 0.762412 0.892850
O O9 0.429204 0.500000 0.591050
O O10 0.696043 0.000000 0.043948
O O11 0.750000 0.750000 0.000000
#
# Coordination Sequence:
#
# PCOD9220705 Si02
#       4
#     8   8   8   8
#     4  11  22  38  59  86 117 153 192 235 282 336
#     4   9  17  36  62  87 113 147 188 232 278 337
#     4   8  17  34  60  87 114 148 187 227 279 341
#     4  12  25  40  57  82 113 150 192 240 291 342
#
# _framework density 18.790738999999999
#
# number of rings (size 3 to 8) (size 9 to 14) (size 15 to 20)
#    0.000    2.000    0.000    6.000    0.000    3.000 
#    0.000   11.250    0.000    0.000    0.000    0.000 
#    0.000    0.000    0.000    0.000    0.000    0.000 
#
# Total GULP energy -89383.056916 kJ/mol
# GULP energy per Si atom -5586.441057 kJ/mol
# Density = 1.874797 g / cm^3
# Si number density = 18.790739 Si / 1000 Ang^3
#
#
#
# Elastic Constant Matrix: (Units=GPa)
#
#
# Indices 1 2 3 4 5 6 
#
# 1 190.6037 50.9827 122.4539 0.0000 -17.2790 0.0000
# 2 50.9827 76.3992 52.0885 0.0000 -0.4291 0.0000
# 3 122.4539 52.0885 188.9428 0.0000 6.0220 0.0000
# 4 0.0000 0.0000 0.0000 36.3877 0.0000 4.3812
# 5 -17.2790 -0.4291 6.0220 0.0000 27.9950 0.0000
# 6 0.0000 0.0000 0.0000 4.3812 0.0000 25.5443
#
#
#
# Elastic Compliance Matrix: (Units=1/GPa)
#
#
# Indices 1 2 3 4 5 6 
#
# 1 0.010970 -0.002771 -0.006606 0.000000 0.008150 0.000000
# 2 -0.002771 0.016860 -0.002825 0.000000 -0.000844 0.000000
# 3 -0.006606 -0.002825 0.010556 0.000000 -0.006391 0.000000
# 4 0.000000 0.000000 0.000000 0.028061 0.000000 -0.004813
# 5 0.008150 -0.000844 -0.006391 0.000000 0.042113 0.000000
# 6 0.000000 0.000000 0.000000 -0.004813 0.000000 0.039973
#
#
# Mechanical properties :
#
#
# Convention : Reuss Voigt Hill
#
# Bulk Modulus (GPa) = 71.51772 100.77733 86.14752
# Shear Modulus (GPa) = 28.15346 33.34677 30.75012
#
# Velocity S-wave (km/s) = 3.87494 4.21722 4.04970
# Velocity P-wave (km/s) = 7.62646 8.80119 8.23480
#
# Compressibility (1/GPa) = 0.01398255
#
# Stress axis : x y z
#
# Youngs Moduli (GPa) = 91.15486 59.31275 94.73083
#
# Poissons Ratio (x) = 0.16437 0.62576
# Poissons Ratio (y) = 0.25261 0.26761
# Poissons Ratio (z) = 0.60214 0.16756
#
# Static dielectric constant tensor:
#      x y z
#    x 1.649650 0.000000 0.001030 
#    y 0.000000 1.641110 0.000000 
#    z 0.001030 0.000000 1.607740 
# 
# From -- ./inp_files/81697.got.cif
#   From: 2010.05.17/outbox.cif.g08.bks.cpg/sg12_41_cif.got.tgz:81697.got - 2010.06.03 13:09:07.
