data_PCOD9220275
_publ_section_title
;
Structure prediction by ZEFSAII (Michael W. Deem and Ramdas Pophale) SiO2 
 PCOD9220275
Probable space group: C 2/M
;
_chemical_formula_sum "Si O2"
_cell_formula_units_Z 32
_cell_length_a 9.290865
_cell_length_b 20.025801
_cell_length_c 10.355998
_cell_angle_alpha 90.000000
_cell_angle_beta 118.846737
_cell_angle_gamma 90.000000
_cell_volume 1687.715277
_symmetry_space_group_name_H-M "C 2/M"
_symmetry_group_IT_number 12
_symmetry_cell_setting 'monoclinic'
loop_
_space_group_symop_operation_xyz
x,y,z
-x,y,-z
-x,-y,-z
x,-y,z
1/2+x,1/2+y,z
1/2-x,1/2+y,-z
1/2-x,1/2-y,-z
1/2+x,1/2-y,z
loop_
_atom_site_type_symbol
_atom_site_label
_atom_site_fract_x
_atom_site_fract_y
_atom_site_fract_z
Si Si1 0.580298 0.125783 0.169038
Si Si2 0.994084 0.500000 0.287245
Si Si3 0.435678 0.766232 0.611721
Si Si4 0.038253 0.116334 0.668140
Si Si5 0.210533 0.000000 0.377350
O O1 0.489648 0.063555 0.193661
O O2 0.564626 0.182784 0.270791
O O3 0.769301 0.103725 0.227556
O O4 0.500000 0.146548 0.000000
O O5 0.167025 0.500000 0.443990
O O6 0.841039 0.500000 0.318136
O O7 0.500000 0.792176 0.500000
O O8 0.250000 0.750000 0.500000
O O9 0.515049 0.695304 0.684688
O O10 0.000000 0.108351 0.500000
O O11 0.909159 0.064985 0.676268
#
# Coordination Sequence:
#
# PCOD9220275 Si02
#       5
#     8   4   8   8   4
#     4  12  26  43  65  96 135 169 207 268 332 377
#     4  11  24  39  66  99 125 166 220 270 309 378
#     4  11  22  41  69  94 125 168 220 262 305 381
#     4  11  21  41  65  94 128 172 210 263 319 378
#     4  11  22  38  72  98 120 166 231 264 300 381
#
# _framework density 18.960545
#
# number of rings (size 3 to 8) (size 9 to 14) (size 15 to 20)
#    0.000    0.750    7.500    1.500    7.000    1.000 
#    0.000    2.500    0.000    0.000    0.000    0.000 
#    0.000    0.000    0.000    0.000    0.000    0.000 
#
# Total GULP energy -89300.569996 kJ/mol
# GULP energy per Si atom -5581.285625 kJ/mol
# Density = 1.891739 g / cm^3
# Si number density = 18.960545 Si / 1000 Ang^3
#
#
#
# Elastic Constant Matrix: (Units=GPa)
#
#
# Indices 1 2 3 4 5 6 
#
# 1 130.6323 47.3460 56.1556 0.0000 -4.5393 0.0000
# 2 47.3460 110.5376 44.6485 0.0000 -22.8440 0.0000
# 3 56.1556 44.6485 117.5646 0.0000 -15.9033 0.0000
# 4 0.0000 0.0000 0.0000 32.4760 0.0000 -1.5939
# 5 -4.5393 -22.8440 -15.9033 0.0000 25.2563 0.0000
# 6 0.0000 0.0000 0.0000 -1.5939 0.0000 35.2253
#
#
#
# Elastic Compliance Matrix: (Units=1/GPa)
#
#
# Indices 1 2 3 4 5 6 
#
# 1 0.010684 -0.003709 -0.004251 0.000000 -0.004111 0.000000
# 2 -0.003709 0.013579 -0.001983 0.000000 0.010366 0.000000
# 3 -0.004251 -0.001983 0.011962 0.000000 0.004975 0.000000
# 4 0.000000 0.000000 0.000000 0.030860 0.000000 0.001396
# 5 -0.004111 0.010366 0.004975 0.000000 0.051364 0.000000
# 6 0.000000 0.000000 0.000000 0.001396 0.000000 0.028452
#
#
# Mechanical properties :
#
#
# Convention : Reuss Voigt Hill
#
# Bulk Modulus (GPa) = 61.20074 72.78164 66.99119
# Shear Modulus (GPa) = 29.03048 32.63047 30.83047
#
# Velocity S-wave (km/s) = 3.91717 4.15295 4.03678
# Velocity P-wave (km/s) = 7.26684 7.83998 7.55884
#
# Compressibility (1/GPa) = 0.01633967
#
# Stress axis : x y z
#
# Youngs Moduli (GPa) = 93.60065 73.64539 83.59494
#
# Poissons Ratio (x) = 0.27313 0.35534
# Poissons Ratio (y) = 0.34714 0.16578
# Poissons Ratio (z) = 0.39787 0.14605
#
# Static dielectric constant tensor:
#      x y z
#    x 1.294890 0.000000 0.029730 
#    y 0.000000 1.557980 0.000000 
#    z 0.029730 0.000000 1.621060 
# 
# From -- ./inp_files/37571.got.cif
#   From: 2010.05.17/outbox.cif.g08.bks.cpg/sg12_19_cif.got.tgz:37571.got - 2010.06.03 13:09:07.
