data_PCOD9220811
_publ_section_title
;
Structure prediction by ZEFSAII (Michael W. Deem and Ramdas Pophale) SiO2 
 PCOD9220811
Probable space group: C 2/M
;
_chemical_formula_sum "Si O2"
_cell_formula_units_Z 42
_cell_length_a 14.355660
_cell_length_b 7.676493
_cell_length_c 32.613854
_cell_angle_alpha 90.000000
_cell_angle_beta 146.601612
_cell_angle_gamma 90.000000
_cell_volume 1978.389244
_symmetry_space_group_name_H-M "C 2/M"
_symmetry_group_IT_number 12
_symmetry_cell_setting 'monoclinic'
loop_
_space_group_symop_operation_xyz
x,y,z
-x,y,-z
-x,-y,-z
x,-y,z
1/2+x,1/2+y,z
1/2-x,1/2+y,-z
1/2-x,1/2-y,-z
1/2+x,1/2-y,z
loop_
_atom_site_type_symbol
_atom_site_label
_atom_site_fract_x
_atom_site_fract_y
_atom_site_fract_z
Si Si1 0.698698 0.696160 0.106856
Si Si2 0.000000 0.500000 0.000000
Si Si3 0.361812 0.290504 0.081205
Si Si4 0.407639 0.290057 0.506563
Si Si5 0.525451 0.791040 0.379006
Si Si6 0.752416 0.291343 0.214742
O O1 0.628290 0.500000 0.085985
O O2 0.795328 0.708896 0.099217
O O3 0.806782 0.734131 0.187420
O O4 0.560098 0.845881 0.053637
O O5 0.347324 0.500000 0.082657
O O6 0.556874 0.236819 0.147081
O O7 0.250000 0.250000 0.000000
O O8 0.500000 0.224848 0.500000
O O9 0.400149 0.500000 0.501556
O O10 0.503342 0.245317 0.583732
O O11 0.214547 0.224069 0.438767
O O12 0.382593 0.720234 0.295973
O O13 0.530760 0.000000 0.375858
O O14 0.746925 0.500000 0.219021
#
# Coordination Sequence:
#
# PCOD9220811 Si02
#       6
#     8   2   8   8   8   8
#     4  11  23  41  62  88 119 157 204 257 315 370
#     4  12  22  40  64  86 116 158 206 252 310 374
#     4  11  22  39  59  86 114 152 206 256 311 372
#     4   9  18  33  56  86 119 154 194 239 292 356
#     4   9  18  36  57  82 117 156 196 240 293 357
#     4   9  21  39  60  82 119 161 197 250 311 366
#
# _framework density 21.229391
#
# number of rings (size 3 to 8) (size 9 to 14) (size 15 to 20)
#    0.000    2.095    0.952    2.000    0.000    3.429 
#    3.429    1.905    0.000    0.000    0.000    0.000 
#    0.000    0.000    0.000    0.000    0.000    0.000 
#
# Total GULP energy -116967.184317 kJ/mol
# GULP energy per Si atom -5569.865920 kJ/mol
# Density = 2.118107 g / cm^3
# Si number density = 21.229391 Si / 1000 Ang^3
#
#
#
# Elastic Constant Matrix: (Units=GPa)
#
#
# Indices 1 2 3 4 5 6 
#
# 1 115.5077 6.3760 85.4325 -0.0001 -30.6654 0.0002
# 2 6.3760 93.3462 20.3757 -0.0005 -1.5450 0.0009
# 3 85.4325 20.3757 227.0731 -0.0004 -26.3231 0.0006
# 4 -0.0001 -0.0005 -0.0004 -54.0722 0.0002 148.6691
# 5 -30.6654 -1.5450 -26.3231 0.0002 24.0460 -0.0003
# 6 0.0002 0.0009 0.0006 148.6691 -0.0003 -290.8026
#
#
#
# Elastic Compliance Matrix: (Units=1/GPa)
#
#
# Indices 1 2 3 4 5 6 
#
# 1 0.015916 0.000084 -0.004171 0.000000 0.015736 0.000000
# 2 0.000084 0.010931 -0.001052 0.000000 -0.000342 0.000000
# 3 -0.004171 -0.001052 0.006234 0.000000 0.001437 0.000000
# 4 0.000000 0.000000 0.000000 0.045594 0.000000 0.023309
# 5 0.015736 -0.000342 0.001437 0.000000 0.063207 0.000000
# 6 0.000000 0.000000 0.000000 0.023309 0.000000 0.008478
#
#
# Mechanical properties :
#
#
# Convention : Reuss Voigt Hill
#
# Bulk Modulus (GPa) = 43.85609 73.36617 58.61113
# Shear Modulus (GPa) = 29.71967 -42.58291 -6.43162
#
# Velocity S-wave (km/s) = 3.74562 -4.48353 -1.74246
# Velocity P-wave (km/s) = 6.27768 2.79841 4.86006
#
# Compressibility (1/GPa) = 0.02280185
#
# Stress axis : x y z
#
# Youngs Moduli (GPa) = 62.83092 91.48235 160.40247
#
# Poissons Ratio (x) = -0.00767 0.66910
# Poissons Ratio (y) = -0.00527 0.16876
# Poissons Ratio (z) = 0.26209 0.09625
#
# Static dielectric constant tensor:
#      x y z
#    x 1.842790 0.000000 0.023380 
#    y 0.000000 1.786860 0.000000 
#    z 0.023380 0.000000 1.778370 
# 
# From -- ./inp_files/360109.got.cif
#   From: 2010.05.17/outbox.cif.g08.bks.cpg/sg12_181_cif.got.tgz:360109.got - 2010.06.03 13:09:07.
