data_PCOD9220904
_publ_section_title
;
Structure prediction by ZEFSAII (Michael W. Deem and Ramdas Pophale) SiO2 
 PCOD9220904
Probable space group: C 2/M
;
_chemical_formula_sum "Si O2"
_cell_formula_units_Z 32
_cell_length_a 7.322245
_cell_length_b 16.930450
_cell_length_c 11.159880
_cell_angle_alpha 90.000000
_cell_angle_beta 101.516080
_cell_angle_gamma 90.000000
_cell_volume 1355.626886
_symmetry_space_group_name_H-M "C 2/M"
_symmetry_group_IT_number 12
_symmetry_cell_setting 'monoclinic'
loop_
_space_group_symop_operation_xyz
x,y,z
-x,y,-z
-x,-y,-z
x,-y,z
1/2+x,1/2+y,z
1/2-x,1/2+y,-z
1/2-x,1/2-y,-z
1/2+x,1/2-y,z
loop_
_atom_site_type_symbol
_atom_site_label
_atom_site_fract_x
_atom_site_fract_y
_atom_site_fract_z
Si Si1 0.090991 0.666831 0.219134
Si Si2 0.620359 0.590299 0.905294
Si Si3 0.776863 0.907679 0.478206
Si Si4 0.796680 0.846798 0.733437
O O1 0.203290 0.638526 0.117568
O O2 0.187152 0.625405 0.345956
O O3 0.115611 0.760205 0.240649
O O4 0.874305 0.644691 0.197301
O O5 0.672915 0.500000 0.938816
O O6 0.463909 0.592899 0.780366
O O7 0.500000 0.623898 0.000000
O O8 0.719509 0.860544 0.590049
O O9 0.000000 0.899170 0.500000
O O10 0.730389 0.000000 0.485521
#
# Coordination Sequence:
#
# PCOD9220904 Si02
#       4
#     8   8   8   8
#     4  12  24  43  68 100 134 176 219 271 330 393
#     4  11  26  47  69  97 133 173 224 278 326 386
#     4  11  22  39  66  98 138 175 211 266 332 398
#     4  12  24  43  68 100 134 176 219 271 330 393
#
# _framework density 23.605316999999999
#
# number of rings (size 3 to 8) (size 9 to 14) (size 15 to 20)
#    0.000    0.500    5.000    3.000    0.000    7.000 
#    0.000    2.500    0.000    0.000    0.000    0.000 
#    0.000    0.000    0.000    0.000    0.000    0.000 
#
# Total GULP energy -89626.869685 kJ/mol
# GULP energy per Si atom -5601.679355 kJ/mol
# Density = 2.355159 g / cm^3
# Si number density = 23.605317 Si / 1000 Ang^3
#
#
#
# Elastic Constant Matrix: (Units=GPa)
#
#
# Indices 1 2 3 4 5 6 
#
# 1 114.1184 11.5694 7.2128 0.0000 -26.2255 0.0000
# 2 11.5694 94.5385 -3.0227 0.0000 -20.0437 0.0000
# 3 7.2128 -3.0227 78.7019 0.0000 -30.9207 0.0000
# 4 0.0000 0.0000 0.0000 27.8522 0.0000 -14.7844
# 5 -26.2255 -20.0437 -30.9207 0.0000 48.8812 0.0000
# 6 0.0000 0.0000 0.0000 -14.7844 0.0000 -2.7968
#
#
#
# Elastic Compliance Matrix: (Units=1/GPa)
#
#
# Indices 1 2 3 4 5 6 
#
# 1 0.010149 0.000207 0.001664 0.000000 0.006583 0.000000
# 2 0.000207 0.012177 0.003266 0.000000 0.007170 0.000000
# 3 0.001664 0.003266 0.018039 0.000000 0.013643 0.000000
# 4 0.000000 0.000000 0.000000 0.009433 0.000000 -0.049867
# 5 0.006583 0.007170 0.013643 0.000000 0.035559 0.000000
# 6 0.000000 0.000000 0.000000 -0.049867 0.000000 -0.093944
#
#
# Mechanical properties :
#
#
# Convention : Reuss Voigt Hill
#
# Bulk Modulus (GPa) = 19.74785 35.43086 27.58935
# Shear Modulus (GPa) = -2526.16982 32.89394 -1246.63794
#
# Velocity S-wave (km/s) = -32.74894 3.73701 -23.00574
# Velocity P-wave (km/s) = 37.70420 5.80195 26.34335
#
# Compressibility (1/GPa) = 0.05063843
#
# Stress axis : x y z
#
# Youngs Moduli (GPa) = 98.52734 82.12246 55.43501
#
# Poissons Ratio (x) = -0.01698 -0.09224
# Poissons Ratio (y) = -0.02037 -0.18103
# Poissons Ratio (z) = -0.16395 -0.26818
#
# Static dielectric constant tensor:
#      x y z
#    x 1.882970 0.000000 -0.018660 
#    y 0.000000 1.814900 0.000000 
#    z -0.018660 0.000000 1.955800 
# 
# From -- ./inp_files/118235.got.cif
#   From: 2010.05.17/outbox.cif.g08.bks.cpg/sg12_60_cif.got.tgz:118235.got - 2010.06.03 13:09:07.
