data_PCOD9220411
_publ_section_title
;
Structure prediction by ZEFSAII (Michael W. Deem and Ramdas Pophale) SiO2 
 PCOD9220411
Probable space group: C 2/M
;
_chemical_formula_sum "Si O2"
_cell_formula_units_Z 40
_cell_length_a 28.232049
_cell_length_b 7.597814
_cell_length_c 26.500808
_cell_angle_alpha 90.000000
_cell_angle_beta 20.560129
_cell_angle_gamma 90.000000
_cell_volume 1996.330920
_symmetry_space_group_name_H-M "C 2/M"
_symmetry_group_IT_number 12
_symmetry_cell_setting 'monoclinic'
loop_
_space_group_symop_operation_xyz
x,y,z
-x,y,-z
-x,-y,-z
x,-y,z
1/2+x,1/2+y,z
1/2-x,1/2+y,-z
1/2-x,1/2-y,-z
1/2+x,1/2-y,z
loop_
_atom_site_type_symbol
_atom_site_label
_atom_site_fract_x
_atom_site_fract_y
_atom_site_fract_z
Si Si1 0.903584 0.784319 0.437207
Si Si2 0.904383 0.214495 0.550645
Si Si3 0.405717 0.214943 0.139159
Si Si4 0.595441 0.788921 0.746604
Si Si5 0.592488 0.706481 0.159788
O O1 0.940572 0.731382 0.457484
O O2 0.748412 0.727897 0.581876
O O3 0.007393 0.717034 0.291707
O O4 0.902674 0.000000 0.437594
O O5 0.749551 0.265111 0.714285
O O6 0.000000 0.277419 0.500000
O O7 0.908703 0.000000 0.546624
O O8 0.442916 0.272782 0.158790
O O9 0.410921 0.000000 0.133747
O O10 0.500000 0.277563 0.000000
O O11 0.487815 0.745505 0.811396
O O12 0.603176 0.000000 0.741475
O O13 0.587032 0.500000 0.172842
O O14 0.750000 0.750000 0.000000
#
# Coordination Sequence:
#
# PCOD9220411 Si02
#       5
#     8   8   8   8   8
#     4   8  16  30  47  68  94 125 158 192 232 280
#     4   8  13  22  38  62  92 121 148 182 227 276
#     4   8  14  24  41  68  97 122 149 185 230 276
#     4   9  17  32  52  72  96 125 159 196 234 281
#     4  11  22  34  48  69  97 126 159 198 241 284
#
# _framework density 20.036756
#
# number of rings (size 3 to 8) (size 9 to 14) (size 15 to 20)
#    0.000    3.200    0.000    3.600    0.000    1.600 
#    0.000    7.000    0.000    0.600    0.000    0.000 
#    0.000    9.600    0.000    0.000    0.000    0.000 
#
# Total GULP energy -111518.249239 kJ/mol
# GULP energy per Si atom -5575.912462 kJ/mol
# Density = 1.999115 g / cm^3
# Si number density = 20.036756 Si / 1000 Ang^3
#
#
#
# Elastic Constant Matrix: (Units=GPa)
#
#
# Indices 1 2 3 4 5 6 
#
# 1 218.4144 5.3591 159.3987 -0.0015 -3.4767 0.0019
# 2 5.3591 40.6162 9.2450 0.0463 3.3085 -0.0103
# 3 159.3987 9.2450 176.1560 0.0513 22.1395 -0.0136
# 4 -0.0015 0.0463 0.0513 6.9359 -0.0155 -2.8571
# 5 -3.4767 3.3085 22.1395 -0.0155 36.1884 0.0004
# 6 0.0019 -0.0103 -0.0136 -2.8571 0.0004 15.5749
#
#
#
# Elastic Compliance Matrix: (Units=1/GPa)
#
#
# Indices 1 2 3 4 5 6 
#
# 1 0.017368 0.000649 -0.017281 0.000159 0.012182 0.000012
# 2 0.000649 0.025029 -0.001756 -0.000163 -0.001151 -0.000015
# 3 -0.017281 -0.001756 0.023393 -0.000207 -0.015811 -0.000016
# 4 0.000159 -0.000163 -0.000207 0.155967 0.000223 0.028611
# 5 0.012182 -0.001151 -0.015811 0.000223 0.038582 0.000024
# 6 0.000012 -0.000015 -0.000016 0.028611 0.000024 0.069454
#
#
# Mechanical properties :
#
#
# Convention : Reuss Voigt Hill
#
# Bulk Modulus (GPa) = 34.46601 87.02136 60.74368
# Shear Modulus (GPa) = 13.28936 29.15210 21.22073
#
# Velocity S-wave (km/s) = 2.57816 3.81849 3.25790
# Velocity P-wave (km/s) = 5.10894 7.93513 6.67336
#
# Compressibility (1/GPa) = 0.02901409
#
# Stress axis : x y z
#
# Youngs Moduli (GPa) = 57.57677 39.95400 42.74718
#
# Poissons Ratio (x) = -0.02595 0.73872
# Poissons Ratio (y) = -0.03739 0.07508
# Poissons Ratio (z) = 0.99499 0.07018
#
# Static dielectric constant tensor:
#      x y z
#    x 1.687060 0.000000 0.053450 
#    y 0.000000 1.790550 0.000000 
#    z 0.053450 0.000000 1.655490 
# 
# From -- ./inp_files/93862.got.cif
#   From: 2010.05.17/outbox.cif.g08.bks.cpg/sg12_47_cif.got.tgz:93862.got - 2010.06.03 13:09:07.
