data_PCOD9220034
_publ_section_title
;
Structure prediction by ZEFSAII (Michael W. Deem and Ramdas Pophale) SiO2 
 PCOD9220034
Probable space group: C 2/M
;
_chemical_formula_sum "Si O2"
_cell_formula_units_Z 36
_cell_length_a 12.357858
_cell_length_b 22.184095
_cell_length_c 8.073031
_cell_angle_alpha 90.000000
_cell_angle_beta 42.960355
_cell_angle_gamma 90.000000
_cell_volume 1508.281461
_symmetry_space_group_name_H-M "C 2/M"
_symmetry_group_IT_number 12
_symmetry_cell_setting 'monoclinic'
loop_
_space_group_symop_operation_xyz
x,y,z
-x,y,-z
-x,-y,-z
x,-y,z
1/2+x,1/2+y,z
1/2-x,1/2+y,-z
1/2-x,1/2-y,-z
1/2+x,1/2-y,z
loop_
_atom_site_type_symbol
_atom_site_label
_atom_site_fract_x
_atom_site_fract_y
_atom_site_fract_z
Si Si1 0.136838 0.371033 0.554162
Si Si2 0.500000 0.810495 0.000000
Si Si3 0.445747 0.500000 0.812687
Si Si4 0.718507 0.000000 0.360629
Si Si5 0.480027 0.367586 0.341473
Si Si6 0.713413 0.712807 0.874553
O O1 0.124811 0.439578 0.508467
O O2 0.299553 0.369378 0.481020
O O3 0.164341 0.326537 0.368750
O O4 0.001101 0.349621 0.832371
O O5 0.645986 0.764266 0.829162
O O6 0.613047 0.500000 0.727092
O O7 0.451026 0.435330 0.720261
O O8 0.287270 0.500000 0.099622
O O9 0.500000 0.338123 0.500000
O O10 0.580233 0.333776 0.088729
O O11 0.750000 0.750000 0.000000
#
# Coordination Sequence:
#
# PCOD9220034 Si02
#       6
#     8   4   4   4   8   8
#     4  11  23  44  64  94 129 167 218 262 320 382
#     4  12  26  41  62  89 138 174 206 262 314 386
#     4   9  17  34  62  95 123 158 209 270 323 364
#     4   9  18  37  68  90 120 166 212 265 321 371
#     4  11  21  37  64  98 127 163 210 270 321 377
#     4  12  25  40  65  93 129 170 212 261 321 383
#
# _framework density 23.868224000000001
#
# number of rings (size 3 to 8) (size 9 to 14) (size 15 to 20)
#    0.000    1.111    4.444    2.333    3.111    0.444 
#    0.000    0.000    0.000    4.000    0.000    0.000 
#    0.000    0.000    0.000    0.000    0.000    0.000 
#
# Total GULP energy -100662.607623 kJ/mol
# GULP energy per Si atom -5592.367090 kJ/mol
# Density = 2.381390 g / cm^3
# Si number density = 23.868224 Si / 1000 Ang^3
#
#
#
# Elastic Constant Matrix: (Units=GPa)
#
#
# Indices 1 2 3 4 5 6 
#
# 1 64.3756 14.5719 11.4202 0.0000 13.7598 0.0000
# 2 14.5719 184.6646 79.1005 0.0000 11.8175 0.0000
# 3 11.4202 79.1005 128.6720 0.0000 28.5483 0.0000
# 4 0.0000 0.0000 0.0000 21.0367 0.0000 29.6657
# 5 13.7598 11.8175 28.5483 0.0000 35.7660 0.0000
# 6 0.0000 0.0000 0.0000 29.6657 0.0000 3.0417
#
#
#
# Elastic Compliance Matrix: (Units=1/GPa)
#
#
# Indices 1 2 3 4 5 6 
#
# 1 0.017130 -0.001236 0.000743 0.000000 -0.006775 0.000000
# 2 -0.001236 0.007501 -0.004930 0.000000 0.001933 0.000000
# 3 0.000743 -0.004930 0.012685 0.000000 -0.008782 0.000000
# 4 0.000000 0.000000 0.000000 -0.003727 0.000000 0.036352
# 5 -0.006775 0.001933 -0.008782 0.000000 0.036937 0.000000
# 6 0.000000 0.000000 0.000000 0.036352 0.000000 -0.025778
#
#
# Mechanical properties :
#
#
# Convention : Reuss Voigt Hill
#
# Bulk Modulus (GPa) = 37.78105 65.32194 51.55150
# Shear Modulus (GPa) = 77.61835 30.14352 53.88093
#
# Velocity S-wave (km/s) = 5.70878 3.55761 4.75640
# Velocity P-wave (km/s) = 7.70175 6.65602 7.19790
#
# Compressibility (1/GPa) = 0.02646829
#
# Stress axis : x y z
#
# Youngs Moduli (GPa) = 58.37733 133.31647 78.83315
#
# Poissons Ratio (x) = 0.16483 -0.05855
# Poissons Ratio (y) = 0.07217 0.38866
# Poissons Ratio (z) = -0.04336 0.65728
#
# Static dielectric constant tensor:
#      x y z
#    x 1.970550 0.000000 -0.017260 
#    y 0.000000 1.879730 0.000000 
#    z -0.017260 0.000000 1.855850 
# 
# From -- ./inp_files/48446.got.cif
#   From: 2010.05.17/outbox.cif.g08.bks.cpg/sg12_25_cif.got.tgz:48446.got - 2010.06.03 13:09:07.
