data_PCOD9220051
_publ_section_title
;
Structure prediction by ZEFSAII (Michael W. Deem and Ramdas Pophale) SiO2 
 PCOD9220051
Probable space group: C 2/M
;
_chemical_formula_sum "Si O2"
_cell_formula_units_Z 36
_cell_length_a 22.020530
_cell_length_b 19.063612
_cell_length_c 9.405069
_cell_angle_alpha 90.000000
_cell_angle_beta 152.383403
_cell_angle_gamma 90.000000
_cell_volume 1830.181165
_symmetry_space_group_name_H-M "C 2/M"
_symmetry_group_IT_number 12
_symmetry_cell_setting 'monoclinic'
loop_
_space_group_symop_operation_xyz
x,y,z
-x,y,-z
-x,-y,-z
x,-y,z
1/2+x,1/2+y,z
1/2-x,1/2+y,-z
1/2-x,1/2-y,-z
1/2+x,1/2-y,z
loop_
_atom_site_type_symbol
_atom_site_label
_atom_site_fract_x
_atom_site_fract_y
_atom_site_fract_z
Si Si1 0.658470 0.500000 0.825427
Si Si2 0.151547 0.500000 0.352745
Si Si3 0.637398 0.500000 0.460493
Si Si4 0.235311 0.382517 0.745461
Si Si5 0.381944 0.753895 0.365756
Si Si6 0.494453 0.651837 0.824778
O O1 0.500000 0.500000 0.500000
O O2 0.697782 0.500000 0.743119
O O3 0.711969 0.432102 0.018483
O O4 0.250408 0.500000 0.425062
O O5 0.183176 0.432677 0.514300
O O6 0.000000 0.500000 0.000000
O O7 0.549423 0.570087 0.265410
O O8 0.127039 0.328812 0.575442
O O9 0.361620 0.342753 0.944812
O O10 0.500000 0.747888 0.500000
O O11 0.398880 0.695143 0.522809
O O12 0.250000 0.750000 0.000000
O O13 0.500000 0.675997 0.000000
#
# Coordination Sequence:
#
# PCOD9220051 Si02
#       6
#     4   4   4   8   8   8
#     4  11  21  37  74 102 132 177 230 290 349 412
#     4  11  26  46  68  98 143 180 227 299 353 406
#     4  12  22  40  74 105 132 172 239 289 347 407
#     4  11  24  45  68 102 137 182 233 285 350 418
#     4  12  27  47  70 102 147 187 234 289 352 421
#     4  12  24  43  72 104 137 181 238 289 352 419
#
# _framework density 19.670183000000002
#
# number of rings (size 3 to 8) (size 9 to 14) (size 15 to 20)
#    0.000    0.444    6.667    2.333    0.000    5.333 
#    0.000    2.222    0.000    0.000    0.000    0.000 
#    0.000    0.000    0.000    0.000    0.000    0.000 
#
# Total GULP energy -100692.121701 kJ/mol
# GULP energy per Si atom -5594.006761 kJ/mol
# Density = 1.962541 g / cm^3
# Si number density = 19.670183 Si / 1000 Ang^3
#
#
#
# Elastic Constant Matrix: (Units=GPa)
#
#
# Indices 1 2 3 4 5 6 
#
# 1 139.9538 43.5093 47.2357 0.0000 -30.2570 0.0000
# 2 43.5093 95.3374 33.3810 0.0000 -14.0537 0.0000
# 3 47.2357 33.3810 118.4278 0.0000 -18.8370 0.0000
# 4 0.0000 0.0000 0.0000 9.4219 0.0000 10.7266
# 5 -30.2570 -14.0537 -18.8370 0.0000 35.4431 0.0000
# 6 0.0000 0.0000 0.0000 10.7266 0.0000 25.3702
#
#
#
# Elastic Compliance Matrix: (Units=1/GPa)
#
#
# Indices 1 2 3 4 5 6 
#
# 1 0.010179 -0.002931 -0.002225 0.000000 0.006345 0.000000
# 2 -0.002931 0.012810 -0.002219 0.000000 0.001398 0.000000
# 3 -0.002225 -0.002219 0.010393 0.000000 0.002745 0.000000
# 4 0.000000 0.000000 0.000000 0.204638 0.000000 -0.086522
# 5 0.006345 0.001398 0.002745 0.000000 0.035644 0.000000
# 6 0.000000 0.000000 0.000000 -0.086522 0.000000 0.075998
#
#
# Mechanical properties :
#
#
# Convention : Reuss Voigt Hill
#
# Bulk Modulus (GPa) = 53.67045 66.88567 60.27806
# Shear Modulus (GPa) = 13.49081 29.35326 21.42203
#
# Velocity S-wave (km/s) = 2.62172 3.86718 3.30367
# Velocity P-wave (km/s) = 6.04226 7.34966 6.72780
#
# Compressibility (1/GPa) = 0.01863223
#
# Stress axis : x y z
#
# Youngs Moduli (GPa) = 98.24114 78.06500 96.21542
#
# Poissons Ratio (x) = 0.22882 0.21403
# Poissons Ratio (y) = 0.28796 0.21353
# Poissons Ratio (z) = 0.21854 0.17325
#
# Static dielectric constant tensor:
#      x y z
#    x 1.689150 0.000000 -0.019310 
#    y 0.000000 1.717360 0.000000 
#    z -0.019310 0.000000 1.675850 
# 
# From -- ./inp_files/88549.got.cif
#   From: 2010.05.17/outbox.cif.g08.bks.cpg/sg12_45_cif.got.tgz:88549.got - 2010.06.03 13:09:07.
