data_PCOD9220292
_publ_section_title
;
Structure prediction by ZEFSAII (Michael W. Deem and Ramdas Pophale) SiO2 
 PCOD9220292
Probable space group: C 2/M
;
_chemical_formula_sum "Si O2"
_cell_formula_units_Z 32
_cell_length_a 13.219518
_cell_length_b 18.629177
_cell_length_c 11.438927
_cell_angle_alpha 90.000000
_cell_angle_beta 147.947505
_cell_angle_gamma 90.000000
_cell_volume 1494.997336
_symmetry_space_group_name_H-M "C 2/M"
_symmetry_group_IT_number 12
_symmetry_cell_setting 'monoclinic'
loop_
_space_group_symop_operation_xyz
x,y,z
-x,y,-z
-x,-y,-z
x,-y,z
1/2+x,1/2+y,z
1/2-x,1/2+y,-z
1/2-x,1/2-y,-z
1/2+x,1/2-y,z
loop_
_atom_site_type_symbol
_atom_site_label
_atom_site_fract_x
_atom_site_fract_y
_atom_site_fract_z
Si Si1 0.715150 0.313037 0.759949
Si Si2 0.075848 0.083924 0.823442
Si Si3 0.307270 0.169775 0.593824
Si Si4 0.145760 0.345229 0.750351
O O1 0.500000 0.305344 0.500000
O O2 0.689844 0.373197 0.833313
O O3 0.831257 0.332322 0.757194
O O4 0.749634 0.232537 0.840496
O O5 0.864402 0.117822 0.613413
O O6 0.068741 0.000000 0.791848
O O7 0.187756 0.099668 0.053650
O O8 0.250000 0.250000 0.500000
O O9 0.499700 0.154718 0.714874
O O10 0.000000 0.358364 0.500000
#
# Coordination Sequence:
#
# PCOD9220292 Si02
#       4
#     8   8   8   8
#     4   9  19  38  65  95 120 163 214 268 310 371
#     4  11  25  42  63  97 134 168 210 265 326 379
#     4  11  21  41  68  97 122 168 217 265 319 375
#     4  11  22  42  65  92 129 171 220 263 309 379
#
# _framework density 21.404720000000001
#
# number of rings (size 3 to 8) (size 9 to 14) (size 15 to 20)
#    0.000    1.500    7.500    0.750    0.000    8.000 
#    0.000    2.500    0.000    0.000    0.000    0.000 
#    0.000    0.000    0.000    0.000    0.000    0.000 
#
# Total GULP energy -89360.562679 kJ/mol
# GULP energy per Si atom -5585.035167 kJ/mol
# Density = 2.135600 g / cm^3
# Si number density = 21.404720 Si / 1000 Ang^3
#
#
#
# Elastic Constant Matrix: (Units=GPa)
#
#
# Indices 1 2 3 4 5 6 
#
# 1 90.7903 17.4870 20.5766 0.0000 9.7900 0.0000
# 2 17.4870 102.1380 50.8233 0.0000 -13.2500 0.0000
# 3 20.5766 50.8233 110.8522 0.0000 -5.3198 0.0000
# 4 0.0000 0.0000 0.0000 27.2799 0.0000 1.2366
# 5 9.7900 -13.2500 -5.3198 0.0000 12.1657 0.0000
# 6 0.0000 0.0000 0.0000 1.2366 0.0000 -2.1331
#
#
#
# Elastic Compliance Matrix: (Units=1/GPa)
#
#
# Indices 1 2 3 4 5 6 
#
# 1 0.013772 -0.003559 -0.001678 0.000000 -0.015692 0.000000
# 2 -0.003559 0.015407 -0.005578 0.000000 0.017205 0.000000
# 3 -0.001678 -0.005578 0.011913 0.000000 0.000485 0.000000
# 4 0.000000 0.000000 0.000000 0.035718 0.000000 0.020707
# 5 -0.015692 0.017205 0.000485 0.000000 0.113777 0.000000
# 6 0.000000 0.000000 0.000000 0.020707 0.000000 -0.456798
#
#
# Mechanical properties :
#
#
# Convention : Reuss Voigt Hill
#
# Bulk Modulus (GPa) = 51.37704 53.50604 52.44154
# Shear Modulus (GPa) = -21.00014 21.78875 0.39430
#
# Velocity S-wave (km/s) = -3.13565 3.19398 0.42967
# Velocity P-wave (km/s) = 3.30833 6.21720 4.97989
#
# Compressibility (1/GPa) = 0.01946395
#
# Stress axis : x y z
#
# Youngs Moduli (GPa) = 72.60982 64.90391 83.94207
#
# Poissons Ratio (x) = 0.23098 0.14085
# Poissons Ratio (y) = 0.25840 0.46820
# Poissons Ratio (z) = 0.12183 0.36201
#
# Static dielectric constant tensor:
#      x y z
#    x 1.888720 0.000000 -0.049710 
#    y 0.000000 1.723140 0.000000 
#    z -0.049710 0.000000 1.904090 
# 
# From -- ./inp_files/58231.got.cif
#   From: 2010.05.17/outbox.cif.g08.bks.cpg/sg12_30_cif.got.tgz:58231.got - 2010.06.03 13:09:07.
