data_PCOD9220908
_publ_section_title
;
Structure prediction by ZEFSAII (Michael W. Deem and Ramdas Pophale) SiO2 
 PCOD9220908
Probable space group: C 2/M
;
_chemical_formula_sum "Si O2"
_cell_formula_units_Z 46
_cell_length_a 22.836751
_cell_length_b 15.965974
_cell_length_c 8.210089
_cell_angle_alpha 90.000000
_cell_angle_beta 41.281774
_cell_angle_gamma 90.000000
_cell_volume 1974.991943
_symmetry_space_group_name_H-M "C 2/M"
_symmetry_group_IT_number 12
_symmetry_cell_setting 'monoclinic'
loop_
_space_group_symop_operation_xyz
x,y,z
-x,y,-z
-x,-y,-z
x,-y,z
1/2+x,1/2+y,z
1/2-x,1/2+y,-z
1/2-x,1/2-y,-z
1/2+x,1/2-y,z
loop_
_atom_site_type_symbol
_atom_site_label
_atom_site_fract_x
_atom_site_fract_y
_atom_site_fract_z
Si Si1 0.210850 0.596371 0.309308
Si Si2 0.437448 0.403172 0.391567
Si Si3 0.670170 0.186331 0.714719
Si Si4 0.000000 0.216917 0.000000
Si Si5 0.879366 0.361659 0.845955
Si Si6 0.384902 0.333384 0.820382
Si Si7 0.000000 0.500000 0.500000
O O1 0.236761 0.500000 0.276085
O O2 0.161432 0.627632 0.573837
O O3 0.161058 0.604265 0.240271
O O4 0.297788 0.652787 0.106599
O O5 0.427723 0.500000 0.371626
O O6 0.371795 0.374333 0.670692
O O7 0.534685 0.383325 0.264686
O O8 0.437685 0.342522 0.238576
O O9 0.750000 0.250000 0.500000
O O10 0.573001 0.228840 0.940709
O O11 0.682834 0.140815 0.862718
O O12 0.902509 0.264670 0.762243
O O13 0.959663 0.425498 0.704198
#
# Coordination Sequence:
#
# PCOD9220908 Si02
#       7
#     8   8   8   4   8   8   2
#     4  12  26  46  72 108 145 192 248 308 374 441
#     4  11  22  39  67 105 137 181 237 303 374 441
#     4  12  28  49  73 108 147 197 257 305 373 461
#     4  12  25  44  69 102 142 196 244 303 388 443
#     4  12  26  48  73 104 149 194 248 309 371 443
#     4  11  22  44  71  98 142 190 238 300 372 451
#     4  12  28  48  74 116 150 190 264 308 374 454
#
# _framework density 23.291235
#
# number of rings (size 3 to 8) (size 9 to 14) (size 15 to 20)
#    0.000    0.348    4.348    4.957    6.087    0.000 
#    0.000    2.174    0.000    0.000    0.000    0.000 
#    0.000    0.000    0.000    0.000    0.000    0.000 
#
# Total GULP energy -128291.444663 kJ/mol
# GULP energy per Si atom -5577.888898 kJ/mol
# Density = 2.323822 g / cm^3
# Si number density = 23.291235 Si / 1000 Ang^3
#
#
#
# Elastic Constant Matrix: (Units=GPa)
#
#
# Indices 1 2 3 4 5 6 
#
# 1 53.2126 3.8730 8.7610 0.0000 14.9873 0.0000
# 2 3.8730 130.6204 18.5426 0.0000 -7.8862 0.0000
# 3 8.7610 18.5426 111.2600 0.0000 18.5504 0.0000
# 4 0.0000 0.0000 0.0000 25.7127 0.0000 25.2185
# 5 14.9873 -7.8862 18.5504 0.0000 35.9033 0.0000
# 6 0.0000 0.0000 0.0000 25.2185 0.0000 28.4383
#
#
#
# Elastic Compliance Matrix: (Units=1/GPa)
#
#
# Indices 1 2 3 4 5 6 
#
# 1 0.021479 -0.001203 0.000053 0.000000 -0.009258 0.000000
# 2 -0.001203 0.008141 -0.001799 0.000000 0.003220 0.000000
# 3 0.000053 -0.001799 0.010235 0.000000 -0.005705 0.000000
# 4 0.000000 0.000000 0.000000 0.298547 0.000000 -0.264745
# 5 -0.009258 0.003220 -0.005705 0.000000 0.035372 0.000000
# 6 0.000000 0.000000 0.000000 -0.264745 0.000000 0.269934
#
#
# Mechanical properties :
#
#
# Convention : Reuss Voigt Hill
#
# Bulk Modulus (GPa) = 29.44992 39.71626 34.58309
# Shear Modulus (GPa) = 7.56515 35.60530 21.58523
#
# Velocity S-wave (km/s) = 1.80419 3.91410 3.04756
# Velocity P-wave (km/s) = 4.12454 6.12503 5.22148
#
# Compressibility (1/GPa) = 0.03395595
#
# Stress axis : x y z
#
# Youngs Moduli (GPa) = 46.55748 122.83153 97.70533
#
# Poissons Ratio (x) = 0.14780 -0.00515
# Poissons Ratio (y) = 0.05602 0.17577
# Poissons Ratio (z) = -0.00246 0.22097
#
# Static dielectric constant tensor:
#      x y z
#    x 1.974920 0.000000 0.008360 
#    y 0.000000 1.800960 0.000000 
#    z 0.008360 0.000000 1.949380 
# 
# From -- ./inp_files/105003.got.cif
#   From: 2010.05.17/outbox.cif.g08.bks.cpg/sg12_53_cif.got.tgz:105003.got - 2010.06.03 13:09:07.
