data_PCOD9220667
_publ_section_title
;
Structure prediction by ZEFSAII (Michael W. Deem and Ramdas Pophale) SiO2 
 PCOD9220667
Probable space group: C 2/M
;
_chemical_formula_sum "Si O2"
_cell_formula_units_Z 44
_cell_length_a 28.840799
_cell_length_b 13.098932
_cell_length_c 11.441718
_cell_angle_alpha 90.000000
_cell_angle_beta 29.777639
_cell_angle_gamma 90.000000
_cell_volume 2146.703001
_symmetry_space_group_name_H-M "C 2/M"
_symmetry_group_IT_number 12
_symmetry_cell_setting 'monoclinic'
loop_
_space_group_symop_operation_xyz
x,y,z
-x,y,-z
-x,-y,-z
x,-y,z
1/2+x,1/2+y,z
1/2-x,1/2+y,-z
1/2-x,1/2-y,-z
1/2+x,1/2-y,z
loop_
_atom_site_type_symbol
_atom_site_label
_atom_site_fract_x
_atom_site_fract_y
_atom_site_fract_z
Si Si1 0.500000 0.685849 0.000000
Si Si2 0.053560 0.000000 0.254538
Si Si3 0.082901 0.000000 0.679942
Si Si4 0.451851 0.000000 0.732478
Si Si5 0.537984 0.206829 0.154179
Si Si6 0.638949 0.717863 0.330410
Si Si7 0.269589 0.500000 0.817546
Si Si8 0.177840 0.799729 0.991742
O O1 0.567074 0.602463 0.789755
O O2 0.469203 0.761008 0.963887
O O3 0.124606 0.905463 0.095024
O O4 0.000000 0.000000 0.500000
O O5 0.986242 0.000000 0.285279
O O6 0.187468 0.000000 0.405215
O O7 0.500000 0.000000 0.500000
O O8 0.479006 0.096348 0.753742
O O9 0.341118 0.000000 0.945212
O O10 0.460894 0.276339 0.391239
O O11 0.643092 0.232873 0.961403
O O12 0.686284 0.604641 0.225916
O O13 0.635519 0.748860 0.203083
O O14 0.711673 0.792917 0.235213
#
# Coordination Sequence:
#
# PCOD9220667 Si02
#       8
#     4   4   4   4   8   8   4   8
#     4  11  24  43  74  94 136 187 240 281 346 394
#     4  12  21  38  68 101 139 169 224 302 369 404
#     4  11  22  42  71 106 132 178 232 301 344 401
#     4  12  28  45  72 101 147 181 222 287 370 425
#     4  12  24  46  66  97 138 186 232 284 343 407
#     4  11  23  38  67  99 140 178 226 282 358 420
#     4  12  21  44  67 108 132 183 224 276 356 431
#     4  11  22  37  62  99 134 176 225 287 349 419
#
# _framework density 20.496547
#
# number of rings (size 3 to 8) (size 9 to 14) (size 15 to 20)
#    0.000    0.545    5.455    4.364    2.545    1.091 
#    0.000    3.636    0.000    0.000    0.000    0.000 
#    0.000    0.000    0.000    0.000    0.000    0.000 
#
# Total GULP energy -122704.347657 kJ/mol
# GULP energy per Si atom -5577.470348 kJ/mol
# Density = 2.044990 g / cm^3
# Si number density = 20.496547 Si / 1000 Ang^3
#
#
#
# Elastic Constant Matrix: (Units=GPa)
#
#
# Indices 1 2 3 4 5 6 
#
# 1 137.5111 45.9060 34.7067 0.0000 9.4121 0.0000
# 2 45.9060 136.9456 16.2095 0.0000 -2.6825 0.0000
# 3 34.7067 16.2095 79.7977 0.0000 -9.3308 0.0000
# 4 0.0000 0.0000 0.0000 21.2160 0.0000 3.0882
# 5 9.4121 -2.6825 -9.3308 0.0000 33.1056 0.0000
# 6 0.0000 0.0000 0.0000 3.0882 0.0000 34.2026
#
#
#
# Elastic Compliance Matrix: (Units=1/GPa)
#
#
# Indices 1 2 3 4 5 6 
#
# 1 0.009501 -0.002786 -0.004042 0.000000 -0.004066 0.000000
# 2 -0.002786 0.008300 -0.000313 0.000000 0.001376 0.000000
# 3 -0.004042 -0.000313 0.014978 0.000000 0.005345 0.000000
# 4 0.000000 0.000000 0.000000 0.047762 0.000000 -0.004313
# 5 -0.004066 0.001376 0.005345 0.000000 0.032980 0.000000
# 6 0.000000 0.000000 0.000000 -0.004313 0.000000 0.029627
#
#
# Mechanical properties :
#
#
# Convention : Reuss Voigt Hill
#
# Bulk Modulus (GPa) = 54.06299 60.87762 57.47031
# Shear Modulus (GPa) = 30.56311 34.86697 32.71504
#
# Velocity S-wave (km/s) = 3.86571 4.12893 3.99949
# Velocity P-wave (km/s) = 6.80873 7.24546 7.03049
#
# Compressibility (1/GPa) = 0.01849694
#
# Stress axis : x y z
#
# Youngs Moduli (GPa) = 105.25684 120.48028 66.76362
#
# Poissons Ratio (x) = 0.33565 0.26983
# Poissons Ratio (y) = 0.29324 0.02092
# Poissons Ratio (z) = 0.42541 0.03776
#
# Static dielectric constant tensor:
#      x y z
#    x 1.744340 0.000000 -0.004640 
#    y 0.000000 1.863420 0.000000 
#    z -0.004640 0.000000 1.703320 
# 
# From -- ./inp_files/183434.got.cif
#   From: 2010.05.17/outbox.cif.g08.bks.cpg/sg12_92_cif.got.tgz:183434.got - 2010.06.03 13:09:07.
