data_PCOD9220437
_publ_section_title
;
Structure prediction by ZEFSAII (Michael W. Deem and Ramdas Pophale) SiO2 
 PCOD9220437
Probable space group: C 2/M
;
_chemical_formula_sum "Si O2"
_cell_formula_units_Z 40
_cell_length_a 20.710612
_cell_length_b 8.984940
_cell_length_c 18.358101
_cell_angle_alpha 90.000000
_cell_angle_beta 43.709814
_cell_angle_gamma 90.000000
_cell_volume 2360.575172
_symmetry_space_group_name_H-M "C 2/M"
_symmetry_group_IT_number 12
_symmetry_cell_setting 'monoclinic'
loop_
_space_group_symop_operation_xyz
x,y,z
-x,y,-z
-x,-y,-z
x,-y,z
1/2+x,1/2+y,z
1/2-x,1/2+y,-z
1/2-x,1/2-y,-z
1/2+x,1/2-y,z
loop_
_atom_site_type_symbol
_atom_site_label
_atom_site_fract_x
_atom_site_fract_y
_atom_site_fract_z
Si Si1 0.537357 0.322150 0.221367
Si Si2 0.326612 0.822256 0.991128
Si Si3 0.311144 0.677870 0.775674
Si Si4 0.155854 0.178591 0.546539
Si Si5 0.108360 0.676907 0.431006
O O1 0.543659 0.500000 0.205814
O O2 0.576452 0.242065 0.117601
O O3 0.606616 0.286064 0.232842
O O4 0.433043 0.282177 0.330211
O O5 0.324921 0.000000 0.984284
O O6 0.250000 0.750000 0.000000
O O7 0.286788 0.788103 0.103916
O O8 0.315793 0.500000 0.758738
O O9 0.330353 0.765300 0.686440
O O10 0.250000 0.250000 0.500000
O O11 0.134891 0.239792 0.483248
O O12 0.162884 0.000000 0.539015
O O13 0.119029 0.500000 0.431745
O O14 0.000000 0.708106 0.500000
#
# Coordination Sequence:
#
# PCOD9220437 Si02
#       5
#     8   8   8   8   8
#     4   9  18  32  51  75 105 141 177 216 266 319
#     4   9  17  28  46  74 106 138 174 216 264 316
#     4   9  17  31  50  76 107 140 175 214 269 319
#     4  11  23  39  57  78 109 146 183 222 269 325
#     4  11  22  34  53  82 110 140 181 225 268 316
#
# _framework density 16.945022999999999
#
# number of rings (size 3 to 8) (size 9 to 14) (size 15 to 20)
#    0.000    2.200    2.000    3.000    0.000    6.400 
#    0.000    0.000    0.000    1.200    0.000    8.400 
#    0.000    0.000    0.000    0.000    0.000    0.000 
#
# Total GULP energy -111531.085573 kJ/mol
# GULP energy per Si atom -5576.554279 kJ/mol
# Density = 1.690645 g / cm^3
# Si number density = 16.945023 Si / 1000 Ang^3
#
#
#
# Elastic Constant Matrix: (Units=GPa)
#
#
# Indices 1 2 3 4 5 6 
#
# 1 66.5991 42.8916 61.9069 0.0000 -7.7894 0.0000
# 2 42.8916 56.7503 76.4894 0.0000 -0.0127 0.0000
# 3 61.9069 76.4894 194.4111 0.0000 -0.0980 0.0000
# 4 0.0000 0.0000 0.0000 34.8132 0.0000 2.5476
# 5 -7.7894 -0.0127 -0.0980 0.0000 16.7521 0.0000
# 6 0.0000 0.0000 0.0000 2.5476 0.0000 23.9752
#
#
#
# Elastic Compliance Matrix: (Units=1/GPa)
#
#
# Indices 1 2 3 4 5 6 
#
# 1 0.032907 -0.022896 -0.001463 0.000000 0.015275 0.000000
# 2 -0.022896 0.053446 -0.013742 0.000000 -0.010686 0.000000
# 3 -0.001463 -0.013742 0.011016 0.000000 -0.000626 0.000000
# 4 0.000000 0.000000 0.000000 0.028950 0.000000 -0.003076
# 5 0.015275 -0.010686 -0.000626 0.000000 0.066785 0.000000
# 6 0.000000 0.000000 0.000000 -0.003076 0.000000 0.042037
#
#
# Mechanical properties :
#
#
# Convention : Reuss Voigt Hill
#
# Bulk Modulus (GPa) = 47.24448 75.59293 61.41870
# Shear Modulus (GPa) = 15.70363 24.20628 19.95495
#
# Velocity S-wave (km/s) = 3.04754 3.78368 3.43538
# Velocity P-wave (km/s) = 6.35019 7.98723 7.21529
#
# Compressibility (1/GPa) = 0.02116649
#
# Stress axis : x y z
#
# Youngs Moduli (GPa) = 30.38842 18.71062 90.77746
#
# Poissons Ratio (x) = 0.42840 0.13278
# Poissons Ratio (y) = 0.69578 1.24748
# Poissons Ratio (z) = 0.04445 0.25712
#
# Static dielectric constant tensor:
#      x y z
#    x 1.541490 0.000000 -0.011760 
#    y 0.000000 1.562210 0.000000 
#    z -0.011760 0.000000 1.607160 
# 
# From -- ./inp_files/220596.got.cif
#   From: 2010.05.17/outbox.cif.g08.bks.cpg/sg12_111_cif.got.tgz:220596.got - 2010.06.03 13:09:07.
