data_PCOD9220510
_publ_section_title
;
Structure prediction by ZEFSAII (Michael W. Deem and Ramdas Pophale) SiO2 
 PCOD9220510
Probable space group: C 2/M
;
_chemical_formula_sum "Si O2"
_cell_formula_units_Z 64
_cell_length_a 19.102566
_cell_length_b 7.598542
_cell_length_c 26.430057
_cell_angle_alpha 90.000000
_cell_angle_beta 56.566866
_cell_angle_gamma 90.000000
_cell_volume 3201.560469
_symmetry_space_group_name_H-M "C 2/M"
_symmetry_group_IT_number 12
_symmetry_cell_setting 'monoclinic'
loop_
_space_group_symop_operation_xyz
x,y,z
-x,y,-z
-x,-y,-z
x,-y,z
1/2+x,1/2+y,z
1/2-x,1/2+y,-z
1/2-x,1/2-y,-z
1/2+x,1/2-y,z
loop_
_atom_site_type_symbol
_atom_site_label
_atom_site_fract_x
_atom_site_fract_y
_atom_site_fract_z
Si Si1 0.027190 0.289249 0.699807
Si Si2 0.646737 0.787326 0.186485
Si Si3 0.804123 0.784389 0.191866
Si Si4 0.581825 0.298074 0.941362
Si Si5 0.764516 0.702238 0.052211
Si Si6 0.127240 0.715203 0.567523
Si Si7 0.703000 0.204676 0.438830
Si Si8 0.697032 0.287944 0.692646
O O1 0.018277 0.500000 0.700275
O O2 0.049805 0.229466 0.633716
O O3 0.108310 0.251159 0.701623
O O4 0.943005 0.220249 0.759147
O O5 0.718642 0.733974 0.197546
O O6 0.680329 0.729921 0.118477
O O7 0.644565 0.000000 0.186357
O O8 0.880264 0.721682 0.125707
O O9 0.803897 0.723577 0.249597
O O10 0.807012 0.000000 0.190828
O O11 0.558755 0.500000 0.938215
O O12 0.659629 0.300521 0.949624
O O13 0.500000 0.216155 0.000000
O O14 0.788866 0.500000 0.045512
O O15 0.750000 0.750000 0.000000
O O16 0.131304 0.500000 0.565905
O O17 0.209686 0.782401 0.564413
O O18 0.135431 0.776046 0.506101
O O19 0.729150 0.280822 0.373966
O O20 0.681631 0.000000 0.439357
O O21 0.706016 0.500000 0.690500
#
# Coordination Sequence:
#
# PCOD9220510 Si02
#       8
#     8   8   8   8   8   8   8   8
#     4   9  17  28  44  66  90 116 149 192 235 272
#     4   9  18  34  51  66  89 123 158 187 225 279
#     4   8  15  29  47  64  86 119 153 182 218 270
#     4   9  18  34  54  74  97 126 159 193 234 284
#     4  11  22  36  54  75  99 126 158 195 234 277
#     4   8  13  22  36  56  83 113 144 181 228 273
#     4   8  13  21  35  56  83 113 145 183 224 269
#     4   9  16  26  42  65  90 117 152 191 229 272
#
# _framework density 19.990252999999999
#
# number of rings (size 3 to 8) (size 9 to 14) (size 15 to 20)
#    0.000    3.125    0.000    1.875    0.000    1.750 
#    0.000    3.750    0.000    0.750    0.000    5.250 
#    0.000    0.000    0.000   45.000    0.000   24.000 
#
# Total GULP energy -178191.137254 kJ/mol
# GULP energy per Si atom -5568.473039 kJ/mol
# Density = 1.994475 g / cm^3
# Si number density = 19.990253 Si / 1000 Ang^3
#
#
#
# Elastic Constant Matrix: (Units=GPa)
#
#
# Indices 1 2 3 4 5 6 
#
# 1 34.2556 -4.7465 76.8767 -0.0006 7.8437 0.0008
# 2 -4.7465 49.2551 2.1696 -0.0057 -1.2162 0.0038
# 3 76.8767 2.1696 247.9980 0.0000 22.1140 0.0001
# 4 -0.0006 -0.0057 0.0000 8.4871 -0.0003 0.4021
# 5 7.8437 -1.2162 22.1140 -0.0003 22.8931 0.0000
# 6 0.0008 0.0038 0.0001 0.4021 0.0000 8.2222
#
#
#
# Elastic Compliance Matrix: (Units=1/GPa)
#
#
# Indices 1 2 3 4 5 6 
#
# 1 0.102093 0.011120 -0.031382 0.000016 -0.004075 -0.000015
# 2 0.011120 0.021561 -0.003718 0.000016 0.000927 -0.000012
# 3 -0.031382 -0.003718 0.014063 -0.000005 -0.003030 0.000005
# 4 0.000016 0.000016 -0.000005 0.118099 0.000002 -0.005775
# 5 -0.004075 0.000927 -0.003030 0.000002 0.048053 0.000000
# 6 -0.000015 -0.000012 0.000005 -0.005775 0.000000 0.121904
#
#
# Mechanical properties :
#
#
# Convention : Reuss Voigt Hill
#
# Bulk Modulus (GPa) = 11.14121 53.34537 32.24329
# Shear Modulus (GPa) = 9.92746 25.06774 17.49760
#
# Velocity S-wave (km/s) = 2.23090 3.54503 2.96177
# Velocity P-wave (km/s) = 3.49590 6.59545 5.27832
#
# Compressibility (1/GPa) = 0.08975684
#
# Stress axis : x y z
#
# Youngs Moduli (GPa) = 9.79495 46.38057 71.10853
#
# Poissons Ratio (x) = -0.51575 2.23151
# Poissons Ratio (y) = -0.10892 0.26441
# Poissons Ratio (z) = 0.30738 0.17246
#
# Static dielectric constant tensor:
#      x y z
#    x 1.678670 0.000000 0.001050 
#    y 0.000000 1.791790 0.000000 
#    z 0.001050 0.000000 1.780420 
# 
# From -- ./inp_files/365189.got.cif
#   From: 2010.05.17/outbox.cif.g08.bks.cpg/sg12_183_cif.got.tgz:365189.got - 2010.06.03 13:09:07.
