data_PCOD9220955
_publ_section_title
;
Structure prediction by ZEFSAII (Michael W. Deem and Ramdas Pophale) SiO2 
 PCOD9220955
Probable space group: C 2/M
;
_chemical_formula_sum "Si O2"
_cell_formula_units_Z 40
_cell_length_a 9.145060
_cell_length_b 16.186504
_cell_length_c 17.132785
_cell_angle_alpha 90.000000
_cell_angle_beta 126.899630
_cell_angle_gamma 90.000000
_cell_volume 2028.095742
_symmetry_space_group_name_H-M "C 2/M"
_symmetry_group_IT_number 12
_symmetry_cell_setting 'monoclinic'
loop_
_space_group_symop_operation_xyz
x,y,z
-x,y,-z
-x,-y,-z
x,-y,z
1/2+x,1/2+y,z
1/2-x,1/2+y,-z
1/2-x,1/2-y,-z
1/2+x,1/2-y,z
loop_
_atom_site_type_symbol
_atom_site_label
_atom_site_fract_x
_atom_site_fract_y
_atom_site_fract_z
Si Si1 0.304952 0.000000 0.100833
Si Si2 0.885364 0.831605 0.766965
Si Si3 0.794005 0.327471 0.458431
Si Si4 0.958835 0.664016 0.222839
Si Si5 0.706247 0.406999 0.575326
Si Si6 0.525896 0.500000 0.879511
O O1 0.412109 0.915771 0.155174
O O2 0.135715 0.000000 0.107588
O O3 0.216268 0.000000 0.986954
O O4 0.826019 0.834230 0.657338
O O5 0.704808 0.827033 0.765240
O O6 0.007794 0.748936 0.813034
O O7 0.992515 0.915553 0.821764
O O8 0.750000 0.250000 0.500000
O O9 0.777413 0.405323 0.509897
O O10 0.000000 0.318971 0.500000
O O11 0.151018 0.643780 0.327439
O O12 0.500000 0.374585 0.500000
O O13 0.696868 0.500000 0.603509
#
# Coordination Sequence:
#
# PCOD9220955 Si02
#       6
#     4   8   8   8   8   4
#     4   9  20  44  69  85 118 161 205 261 320 369
#     4  11  23  38  61  95 125 162 205 253 304 369
#     4  12  22  35  56  84 125 164 200 243 299 361
#     4  11  22  40  64  91 123 163 206 251 309 369
#     4  11  24  38  56  89 125 169 207 247 303 370
#     4   9  22  42  65  92 118 156 211 263 308 367
#
# _framework density 19.722935
#
# number of rings (size 3 to 8) (size 9 to 14) (size 15 to 20)
#    0.000    1.200    5.000    0.600    4.200    1.200 
#    0.000    1.000    0.000    1.200    0.000    0.000 
#    0.000    0.000    0.000    0.000    0.000    0.000 
#
# Total GULP energy -111604.578770 kJ/mol
# GULP energy per Si atom -5580.228939 kJ/mol
# Density = 1.967804 g / cm^3
# Si number density = 19.722935 Si / 1000 Ang^3
#
#
#
# Elastic Constant Matrix: (Units=GPa)
#
#
# Indices 1 2 3 4 5 6 
#
# 1 75.2764 38.9884 35.4538 0.0000 9.6142 0.0000
# 2 38.9884 180.8912 88.1288 0.0000 4.5204 0.0000
# 3 35.4538 88.1288 143.1066 0.0000 3.4826 0.0000
# 4 0.0000 0.0000 0.0000 175.5084 0.0000 11.2162
# 5 9.6142 4.5204 3.4826 0.0000 19.2588 0.0000
# 6 0.0000 0.0000 0.0000 11.2162 0.0000 22.7592
#
#
#
# Elastic Compliance Matrix: (Units=1/GPa)
#
#
# Indices 1 2 3 4 5 6 
#
# 1 0.016541 -0.002104 -0.002625 0.000000 -0.007289 0.000000
# 2 -0.002104 0.008184 -0.004517 0.000000 -0.000054 0.000000
# 3 -0.002625 -0.004517 0.010408 0.000000 0.000488 0.000000
# 4 0.000000 0.000000 0.000000 0.005883 0.000000 -0.002899
# 5 -0.007289 -0.000054 0.000488 0.000000 0.055487 0.000000
# 6 0.000000 0.000000 0.000000 -0.002899 0.000000 0.045367
#
#
# Mechanical properties :
#
#
# Convention : Reuss Voigt Hill
#
# Bulk Modulus (GPa) = 60.09359 80.49068 70.29213
# Shear Modulus (GPa) = 30.13676 59.28548 44.71112
#
# Velocity S-wave (km/s) = 3.91321 5.48857 4.76643
# Velocity P-wave (km/s) = 7.13811 9.00362 8.12459
#
# Compressibility (1/GPa) = 0.01664071
#
# Stress axis : x y z
#
# Youngs Moduli (GPa) = 60.45416 122.19255 96.08029
#
# Poissons Ratio (x) = 0.25714 0.25219
# Poissons Ratio (y) = 0.12722 0.43401
# Poissons Ratio (z) = 0.15868 0.55196
#
# Static dielectric constant tensor:
#      x y z
#    x 1.683340 0.000000 0.007960 
#    y 0.000000 1.763830 0.000000 
#    z 0.007960 0.000000 1.685650 
# 
# From -- ./inp_files/256790.got.cif
#   From: 2010.05.17/outbox.cif.g08.bks.cpg/sg12_129_cif.got.tgz:256790.got - 2010.06.03 13:09:07.
