data_PCOD9220476
_publ_section_title
;
Structure prediction by ZEFSAII (Michael W. Deem and Ramdas Pophale) SiO2 
 PCOD9220476
Probable space group: C 2/M
;
_chemical_formula_sum "Si O2"
_cell_formula_units_Z 44
_cell_length_a 16.371825
_cell_length_b 17.851169
_cell_length_c 7.706349
_cell_angle_alpha 90.000000
_cell_angle_beta 64.739537
_cell_angle_gamma 90.000000
_cell_volume 2036.864079
_symmetry_space_group_name_H-M "C 2/M"
_symmetry_group_IT_number 12
_symmetry_cell_setting 'monoclinic'
loop_
_space_group_symop_operation_xyz
x,y,z
-x,y,-z
-x,-y,-z
x,-y,z
1/2+x,1/2+y,z
1/2-x,1/2+y,-z
1/2-x,1/2-y,-z
1/2+x,1/2-y,z
loop_
_atom_site_type_symbol
_atom_site_label
_atom_site_fract_x
_atom_site_fract_y
_atom_site_fract_z
Si Si1 0.632104 0.588852 0.495005
Si Si2 0.572014 0.587722 0.180266
Si Si3 0.908544 0.582156 0.965226
Si Si4 0.016747 0.695132 0.672402
Si Si5 0.500000 0.694225 0.000000
Si Si6 0.320192 0.088425 0.402020
O O1 0.649643 0.500000 0.460855
O O2 0.623751 0.615822 0.303960
O O3 0.534253 0.592913 0.671014
O O4 0.718372 0.616847 0.522628
O O5 0.592141 0.500000 0.126749
O O6 0.577393 0.641128 0.010558
O O7 0.896497 0.500000 0.895642
O O8 0.929442 0.646350 0.809706
O O9 0.833974 0.594097 0.179779
O O10 0.000000 0.579936 0.000000
O O11 0.032106 0.753007 0.813931
O O12 0.101475 0.638525 0.586787
O O13 0.000000 0.730102 0.500000
O O14 0.332207 0.000000 0.436330
#
# Coordination Sequence:
#
# PCOD9220476 Si02
#       6
#     8   8   8   8   4   8
#     4   8  16  34  63  91 109 136 186 240 289 334
#     4   9  19  37  61  84 107 142 190 242 290 337
#     4   8  14  29  52  77 109 149 184 219 263 316
#     4  11  22  35  55  81 121 156 193 221 272 333
#     4  12  23  38  59  80 112 154 192 232 283 338
#     4   9  16  33  60  88 119 148 182 232 275 329
#
# _framework density 21.601835000000001
#
# number of rings (size 3 to 8) (size 9 to 14) (size 15 to 20)
#    0.000    2.727    2.727    3.000    2.545    1.455 
#    0.000    3.636    0.000    6.545    0.000    0.000 
#    0.000    0.000    0.000    0.000    0.000    0.000 
#
# Total GULP energy -122616.515725 kJ/mol
# GULP energy per Si atom -5573.477987 kJ/mol
# Density = 2.155267 g / cm^3
# Si number density = 21.601835 Si / 1000 Ang^3
#
#
#
# Elastic Constant Matrix: (Units=GPa)
#
#
# Indices 1 2 3 4 5 6 
#
# 1 65.6617 13.7384 18.4650 0.0000 -3.3949 0.0000
# 2 13.7384 84.4937 26.3840 0.0000 18.6078 0.0000
# 3 18.4650 26.3840 71.5396 0.0000 24.3792 0.0000
# 4 0.0000 0.0000 0.0000 16.0017 0.0000 11.3688
# 5 -3.3949 18.6078 24.3792 0.0000 30.9750 0.0000
# 6 0.0000 0.0000 0.0000 11.3688 0.0000 3.3708
#
#
#
# Elastic Compliance Matrix: (Units=1/GPa)
#
#
# Indices 1 2 3 4 5 6 
#
# 1 0.018171 -0.002838 -0.006700 0.000000 0.008970 0.000000
# 2 -0.002838 0.014591 -0.002126 0.000000 -0.007403 0.000000
# 3 -0.006700 -0.002126 0.022284 0.000000 -0.016996 0.000000
# 4 0.000000 0.000000 0.000000 -0.044758 0.000000 0.150956
# 5 0.008970 -0.007403 -0.016996 0.000000 0.051091 0.000000
# 6 0.000000 0.000000 0.000000 0.150956 0.000000 -0.212471
#
#
# Mechanical properties :
#
#
# Convention : Reuss Voigt Hill
#
# Bulk Modulus (GPa) = 31.52825 37.65222 34.59023
# Shear Modulus (GPa) = -42.66514 20.94331 -10.86091
#
# Velocity S-wave (km/s) = -4.44900 3.11708 -2.24470
# Velocity P-wave (km/s) = 3.42995 5.51569 3.05437
#
# Compressibility (1/GPa) = 0.03171759
#
# Stress axis : x y z
#
# Youngs Moduli (GPa) = 55.03164 68.53639 44.87613
#
# Poissons Ratio (x) = 0.19449 0.30069
# Poissons Ratio (y) = 0.15617 0.09540
# Poissons Ratio (z) = 0.36873 0.14570
#
# Static dielectric constant tensor:
#      x y z
#    x 1.826440 0.000000 -0.019210 
#    y 0.000000 1.843220 0.000000 
#    z -0.019210 0.000000 1.847340 
# 
# From -- ./inp_files/74402.got.cif
#   From: 2010.05.17/outbox.cif.g08.bks.cpg/sg12_38_cif.got.tgz:74402.got - 2010.06.03 13:09:07.
