data_PCOD9220896
_publ_section_title
;
Structure prediction by ZEFSAII (Michael W. Deem and Ramdas Pophale) SiO2 
 PCOD9220896
Probable space group: C 2/M
;
_chemical_formula_sum "Si O2"
_cell_formula_units_Z 48
_cell_length_a 26.956534
_cell_length_b 17.567960
_cell_length_c 13.137934
_cell_angle_alpha 90.000000
_cell_angle_beta 159.004285
_cell_angle_gamma 90.000000
_cell_volume 2229.240890
_symmetry_space_group_name_H-M "C 2/M"
_symmetry_group_IT_number 12
_symmetry_cell_setting 'monoclinic'
loop_
_space_group_symop_operation_xyz
x,y,z
-x,y,-z
-x,-y,-z
x,-y,z
1/2+x,1/2+y,z
1/2-x,1/2+y,-z
1/2-x,1/2-y,-z
1/2+x,1/2-y,z
loop_
_atom_site_type_symbol
_atom_site_label
_atom_site_fract_x
_atom_site_fract_y
_atom_site_fract_z
Si Si1 0.033574 0.652520 0.943734
Si Si2 0.265923 0.239415 0.412014
Si Si3 0.807432 0.706289 0.011889
Si Si4 0.166895 0.140145 0.061028
Si Si5 0.924899 0.084472 0.466620
Si Si6 0.027244 0.584680 0.382261
O O1 0.927025 0.720403 0.705809
O O2 0.008000 0.591177 0.806618
O O3 0.188116 0.684742 0.226680
O O4 0.000000 0.634926 0.000000
O O5 0.250000 0.250000 0.500000
O O6 0.188906 0.164099 0.220644
O O7 0.841295 0.776831 0.005086
O O8 0.685101 0.651543 0.740038
O O9 0.750000 0.750000 0.000000
O O10 0.939613 0.650497 0.270249
O O11 0.309161 0.101284 0.296381
O O12 0.037028 0.094402 0.770898
O O13 0.000000 0.090433 0.500000
O O14 0.861919 0.000000 0.351649
O O15 0.995407 0.500000 0.358194
#
# Coordination Sequence:
#
# PCOD9220896 Si02
#       6
#     8   8   8   8   8   8
#     4   9  18  34  57  87 121 157 198 252 311 370
#     4   9  18  33  57  91 121 153 204 259 306 360
#     4  12  24  42  63  89 120 162 212 258 307 369
#     4  11  22  39  66  89 121 163 209 255 307 373
#     4  11  24  42  61  87 123 164 206 259 320 375
#     4  11  24  40  60  92 126 159 203 260 317 371
#
# _framework density 21.531994000000001
#
# number of rings (size 3 to 8) (size 9 to 14) (size 15 to 20)
#    0.000    1.500    3.333    2.000    2.333    0.333 
#    0.000    0.833    0.000    0.000    0.000    1.167 
#    0.000    0.000    0.000    0.000    0.000    0.000 
#
# Total GULP energy -133849.108441 kJ/mol
# GULP energy per Si atom -5577.046185 kJ/mol
# Density = 2.148299 g / cm^3
# Si number density = 21.531994 Si / 1000 Ang^3
#
#
#
# Elastic Constant Matrix: (Units=GPa)
#
#
# Indices 1 2 3 4 5 6 
#
# 1 94.3063 20.0532 8.8528 0.0000 -6.7901 0.0000
# 2 20.0532 121.8262 30.7872 0.0000 6.6033 0.0000
# 3 8.8528 30.7872 98.1530 0.0000 -2.3286 0.0000
# 4 0.0000 0.0000 0.0000 19.2187 0.0000 -1.3483
# 5 -6.7901 6.6033 -2.3286 0.0000 23.3109 0.0000
# 6 0.0000 0.0000 0.0000 -1.3483 0.0000 -5.3249
#
#
#
# Elastic Compliance Matrix: (Units=1/GPa)
#
#
# Indices 1 2 3 4 5 6 
#
# 1 0.011333 -0.001996 -0.000305 0.000000 0.003836 0.000000
# 2 -0.001996 0.009454 -0.002870 0.000000 -0.003546 0.000000
# 3 -0.000305 -0.002870 0.011159 0.000000 0.001839 0.000000
# 4 0.000000 0.000000 0.000000 0.051124 0.000000 -0.012945
# 5 0.003836 -0.003546 0.001839 0.000000 0.045204 0.000000
# 6 0.000000 0.000000 0.000000 -0.012945 0.000000 -0.184518
#
#
# Mechanical properties :
#
#
# Convention : Reuss Voigt Hill
#
# Bulk Modulus (GPa) = 46.28548 48.18580 47.23564
# Shear Modulus (GPa) = -129.20270 24.41376 -52.39447
#
# Velocity S-wave (km/s) = -7.75469 3.37090 -4.93823
# Velocity P-wave (km/s) = 7.65751 6.13008 3.24497
#
# Compressibility (1/GPa) = 0.02160505
#
# Stress axis : x y z
#
# Youngs Moduli (GPa) = 88.23725 105.77046 89.61054
#
# Poissons Ratio (x) = 0.21115 0.02733
# Poissons Ratio (y) = 0.17615 0.25715
# Poissons Ratio (z) = 0.02691 0.30352
#
# Static dielectric constant tensor:
#      x y z
#    x 1.958440 0.000000 -0.068770 
#    y 0.000000 1.741140 0.000000 
#    z -0.068770 0.000000 1.900500 
# 
# From -- ./inp_files/251510.got.cif
#   From: 2010.05.17/outbox.cif.g08.bks.cpg/sg12_126_cif.got.tgz:251510.got - 2010.06.03 13:09:07.
