data_PCOD9220927
_publ_section_title
;
Structure prediction by ZEFSAII (Michael W. Deem and Ramdas Pophale) SiO2 
 PCOD9220927
Probable space group: C 2/M
;
_chemical_formula_sum "Si O2"
_cell_formula_units_Z 48
_cell_length_a 11.190748
_cell_length_b 29.958360
_cell_length_c 14.642415
_cell_angle_alpha 90.000000
_cell_angle_beta 150.574895
_cell_angle_gamma 90.000000
_cell_volume 2411.702635
_symmetry_space_group_name_H-M "C 2/M"
_symmetry_group_IT_number 12
_symmetry_cell_setting 'monoclinic'
loop_
_space_group_symop_operation_xyz
x,y,z
-x,y,-z
-x,-y,-z
x,-y,z
1/2+x,1/2+y,z
1/2-x,1/2+y,-z
1/2-x,1/2-y,-z
1/2+x,1/2-y,z
loop_
_atom_site_type_symbol
_atom_site_label
_atom_site_fract_x
_atom_site_fract_y
_atom_site_fract_z
Si Si1 0.904357 0.000000 0.255299
Si Si2 0.509966 0.000000 0.157710
Si Si3 0.055139 0.334599 0.303910
Si Si4 0.521177 0.711925 0.614391
Si Si5 0.711045 0.300944 0.937708
Si Si6 0.304218 0.427173 0.451845
Si Si7 0.288008 0.811617 0.294268
O O1 0.066681 0.043644 0.383506
O O2 0.702504 0.000000 0.201836
O O3 0.756320 0.000000 0.062978
O O4 0.582321 0.956780 0.264654
O O5 0.235077 0.293529 0.449338
O O6 0.207034 0.379370 0.416253
O O7 0.829658 0.332664 0.223341
O O8 0.942752 0.327732 0.129079
O O9 0.500000 0.688661 0.500000
O O10 0.666365 0.695433 0.799878
O O11 0.649850 0.758967 0.677908
O O12 0.466114 0.316561 0.825044
O O13 0.750000 0.250000 0.000000
O O14 0.500000 0.422837 0.500000
O O15 0.500000 0.830032 0.500000
#
# Coordination Sequence:
#
# PCOD9220927 Si02
#       7
#     4   4   8   8   8   8   8
#     4   8  15  33  62  81 119 157 189 223 299 360
#     4   8  15  33  58  85 113 159 188 230 284 367
#     4  12  23  37  57  88 121 154 198 252 297 352
#     4  11  24  39  58  80 114 157 203 252 300 349
#     4  12  24  39  59  82 108 157 211 253 296 348
#     4   9  19  34  54  90 124 152 189 238 295 356
#     4  11  22  40  59  76 111 159 208 251 299 350
#
# _framework density 19.902951999999999
#
# number of rings (size 3 to 8) (size 9 to 14) (size 15 to 20)
#    0.000    1.500    3.333    4.500    0.000    3.333 
#    0.000    3.333    0.000    0.000    0.000   11.667 
#    0.000    0.000    0.000    0.000    0.000    0.000 
#
# Total GULP energy -133862.983029 kJ/mol
# GULP energy per Si atom -5577.624293 kJ/mol
# Density = 1.985765 g / cm^3
# Si number density = 19.902952 Si / 1000 Ang^3
#
#
#
# Elastic Constant Matrix: (Units=GPa)
#
#
# Indices 1 2 3 4 5 6 
#
# 1 58.8643 24.7393 32.6293 0.0000 -16.3273 0.0000
# 2 24.7393 84.0136 41.7863 0.0000 3.1923 0.0000
# 3 32.6293 41.7863 169.2637 0.0000 -24.1145 0.0000
# 4 0.0000 0.0000 0.0000 9.4336 0.0000 4.5173
# 5 -16.3273 3.1923 -24.1145 0.0000 37.0064 0.0000
# 6 0.0000 0.0000 0.0000 4.5173 0.0000 7.9553
#
#
#
# Elastic Compliance Matrix: (Units=1/GPa)
#
#
# Indices 1 2 3 4 5 6 
#
# 1 0.023272 -0.006493 -0.001478 0.000000 0.009865 0.000000
# 2 -0.006493 0.015855 -0.003600 0.000000 -0.006578 0.000000
# 3 -0.001478 -0.003600 0.007753 0.000000 0.004710 0.000000
# 4 0.000000 0.000000 0.000000 0.145592 0.000000 -0.082672
# 5 0.009865 -0.006578 0.004710 0.000000 0.035011 0.000000
# 6 0.000000 0.000000 0.000000 -0.082672 0.000000 0.172647
#
#
# Mechanical properties :
#
#
# Convention : Reuss Voigt Hill
#
# Bulk Modulus (GPa) = 42.12428 56.71684 49.42056
# Shear Modulus (GPa) = 11.59597 25.07817 18.33707
#
# Velocity S-wave (km/s) = 2.41638 3.55353 3.03863
# Velocity P-wave (km/s) = 5.38479 6.73761 6.09882
#
# Compressibility (1/GPa) = 0.02373928
#
# Stress axis : x y z
#
# Youngs Moduli (GPa) = 42.96926 63.07126 128.98946
#
# Poissons Ratio (x) = 0.40950 0.19065
# Poissons Ratio (y) = 0.27899 0.46432
# Poissons Ratio (z) = 0.06351 0.22704
#
# Static dielectric constant tensor:
#      x y z
#    x 1.790440 0.000000 -0.025440 
#    y 0.000000 1.712930 0.000000 
#    z -0.025440 0.000000 1.757690 
# 
# From -- ./inp_files/209931.got.cif
#   From: 2010.05.17/outbox.cif.g08.bks.cpg/sg12_105_cif.got.tgz:209931.got - 2010.06.03 13:09:07.
