data_PCOD9220324
_publ_section_title
;
Structure prediction by ZEFSAII (Michael W. Deem and Ramdas Pophale) SiO2 
 PCOD9220324
Probable space group: C 2/M
;
_chemical_formula_sum "Si O2"
_cell_formula_units_Z 64
_cell_length_a 16.584697
_cell_length_b 23.935745
_cell_length_c 13.717330
_cell_angle_alpha 90.000000
_cell_angle_beta 144.337993
_cell_angle_gamma 90.000000
_cell_volume 3174.640557
_symmetry_space_group_name_H-M "C 2/M"
_symmetry_group_IT_number 12
_symmetry_cell_setting 'monoclinic'
loop_
_space_group_symop_operation_xyz
x,y,z
-x,y,-z
-x,-y,-z
x,-y,z
1/2+x,1/2+y,z
1/2-x,1/2+y,-z
1/2-x,1/2-y,-z
1/2+x,1/2-y,z
loop_
_atom_site_type_symbol
_atom_site_label
_atom_site_fract_x
_atom_site_fract_y
_atom_site_fract_z
Si Si1 0.194033 0.629457 0.951355
Si Si2 0.547418 0.784968 0.272710
Si Si3 0.018223 0.843936 0.262286
Si Si4 0.642857 0.619971 0.196314
Si Si5 0.343200 0.064836 0.886189
Si Si6 0.720384 0.662809 0.637945
Si Si7 0.632799 0.936432 0.695404
Si Si8 0.643771 0.217763 0.590986
O O1 0.150170 0.602307 0.805978
O O2 0.099986 0.684482 0.871967
O O3 0.357224 0.641678 0.109616
O O4 0.162158 0.587382 0.008712
O O5 0.532723 0.719430 0.235743
O O6 0.648398 0.818016 0.298960
O O7 0.616693 0.785472 0.448133
O O8 0.103157 0.882311 0.270561
O O9 0.092494 0.847147 0.439500
O O10 0.734211 0.570329 0.243169
O O11 0.737175 0.674165 0.268369
O O12 0.500000 0.624547 0.000000
O O13 0.255624 0.109117 0.736473
O O14 0.297554 0.000000 0.835015
O O15 0.500000 0.067448 0.000000
O O16 0.684459 0.719337 0.661420
O O17 0.500000 0.922163 0.500000
O O18 0.617878 0.000000 0.714132
O O19 0.500000 0.203715 0.500000
#
# Coordination Sequence:
#
# PCOD9220324 Si02
#       8
#     8   8   8   8   8   8   8   8
#     4  12  24  44  68  99 134 174 221 283 337 390
#     4  11  21  42  65  95 135 178 218 265 329 413
#     4  11  24  41  63 103 144 168 214 271 337 411
#     4  12  22  40  64  99 138 175 214 269 333 405
#     4  11  26  47  71  96 126 176 241 290 330 388
#     4  11  23  44  66  94 135 180 223 273 332 395
#     4  11  26  46  69  97 131 177 230 276 331 402
#     4  11  23  38  66 100 140 178 217 270 338 408
#
# _framework density 20.159762000000001
#
# number of rings (size 3 to 8) (size 9 to 14) (size 15 to 20)
#    0.000    0.750    5.000    3.375    3.500    1.750 
#    0.000    2.500    0.000    0.000    0.000    0.000 
#    0.000    0.000    0.000    0.000    0.000    0.000 
#
# Total GULP energy -178995.295082 kJ/mol
# GULP energy per Si atom -5593.602971 kJ/mol
# Density = 2.011388 g / cm^3
# Si number density = 20.159762 Si / 1000 Ang^3
#
#
#
# Elastic Constant Matrix: (Units=GPa)
#
#
# Indices 1 2 3 4 5 6 
#
# 1 86.2300 24.9625 34.9248 0.0000 14.9630 0.0000
# 2 24.9625 82.0941 29.6053 0.0000 -5.8226 0.0000
# 3 34.9248 29.6053 110.0422 0.0000 16.4231 0.0000
# 4 0.0000 0.0000 0.0000 44.0455 0.0000 2.7932
# 5 14.9630 -5.8226 16.4231 0.0000 31.8032 0.0000
# 6 0.0000 0.0000 0.0000 2.7932 0.0000 24.8877
#
#
#
# Elastic Compliance Matrix: (Units=1/GPa)
#
#
# Indices 1 2 3 4 5 6 
#
# 1 0.014969 -0.004024 -0.002716 0.000000 -0.006377 0.000000
# 2 -0.004024 0.015255 -0.003821 0.000000 0.006659 0.000000
# 3 -0.002716 -0.003821 0.011801 0.000000 -0.005515 0.000000
# 4 0.000000 0.000000 0.000000 0.022867 0.000000 -0.002566
# 5 -0.006377 0.006659 -0.005515 0.000000 0.038511 0.000000
# 6 0.000000 0.000000 0.000000 -0.002566 0.000000 0.040469
#
#
# Mechanical properties :
#
#
# Convention : Reuss Voigt Hill
#
# Bulk Modulus (GPa) = 47.84370 50.81685 49.33028
# Shear Modulus (GPa) = 29.07658 32.73885 30.90771
#
# Velocity S-wave (km/s) = 3.80189 4.03422 3.91978
# Velocity P-wave (km/s) = 6.56173 6.85286 6.70888
#
# Compressibility (1/GPa) = 0.02090139
#
# Stress axis : x y z
#
# Youngs Moduli (GPa) = 66.80689 65.55233 84.74156
#
# Poissons Ratio (x) = 0.26379 0.23019
# Poissons Ratio (y) = 0.26884 0.32378
# Poissons Ratio (z) = 0.18147 0.25046
#
# Static dielectric constant tensor:
#      x y z
#    x 1.734220 0.000000 -0.006400 
#    y 0.000000 1.708980 0.000000 
#    z -0.006400 0.000000 1.685410 
# 
# From -- ./inp_files/228186.got.cif
#   From: 2010.05.17/outbox.cif.g08.bks.cpg/sg12_115_cif.got.tgz:228186.got - 2010.06.03 13:09:07.
