data_PCOD9220889
_publ_section_title
;
Structure prediction by ZEFSAII (Michael W. Deem and Ramdas Pophale) SiO2 
 PCOD9220889
Probable space group: C 2/M
;
_chemical_formula_sum "Si O2"
_cell_formula_units_Z 64
_cell_length_a 23.582457
_cell_length_b 17.908317
_cell_length_c 22.263905
_cell_angle_alpha 90.000000
_cell_angle_beta 160.559082
_cell_angle_gamma 90.000000
_cell_volume 3129.490961
_symmetry_space_group_name_H-M "C 2/M"
_symmetry_group_IT_number 12
_symmetry_cell_setting 'monoclinic'
loop_
_space_group_symop_operation_xyz
x,y,z
-x,y,-z
-x,-y,-z
x,-y,z
1/2+x,1/2+y,z
1/2-x,1/2+y,-z
1/2-x,1/2-y,-z
1/2+x,1/2-y,z
loop_
_atom_site_type_symbol
_atom_site_label
_atom_site_fract_x
_atom_site_fract_y
_atom_site_fract_z
Si Si1 0.812459 0.658638 0.948475
Si Si2 0.707927 0.914198 0.708969
Si Si3 0.189810 0.329281 0.327200
Si Si4 0.702564 0.585441 0.449514
Si Si5 0.993826 0.086482 0.565455
Si Si6 0.699051 0.171324 0.820359
Si Si7 0.208951 0.661057 0.585338
Si Si8 0.705180 0.413169 0.963101
O O1 0.671525 0.613436 0.770819
O O2 0.771357 0.745988 0.900707
O O3 0.793284 0.633711 0.998484
O O4 0.005175 0.644712 0.120826
O O5 0.500000 0.915187 0.500000
O O6 0.757992 0.866707 0.817232
O O7 0.763866 0.876465 0.702695
O O8 0.764878 0.000000 0.770250
O O9 0.217023 0.358658 0.422028
O O10 0.342454 0.364023 0.441094
O O11 0.200885 0.240024 0.335522
O O12 0.752620 0.500000 0.512645
O O13 0.754985 0.607642 0.434794
O O14 0.498057 0.591024 0.250010
O O15 0.000000 0.093488 0.500000
O O16 0.964791 0.000000 0.552851
O O17 0.493674 0.175727 0.613807
O O18 0.751727 0.120780 0.929306
O O19 0.756328 0.500000 0.010983
#
# Coordination Sequence:
#
# PCOD9220889 Si02
#       8
#     8   8   8   8   8   8   8   8
#     4  12  25  43  70 100 135 176 226 276 335 401
#     4   9  20  38  63  95 133 179 225 270 331 396
#     4  12  25  43  70 100 135 176 226 276 335 401
#     4  11  23  41  64  94 135 176 223 284 344 399
#     4  11  26  48  72 100 136 175 221 277 338 400
#     4  11  22  39  65  96 135 178 226 280 333 399
#     4  11  22  39  65  96 135 178 226 280 333 399
#     4  11  23  41  64  94 135 176 223 284 344 399
#
# _framework density 20.450610999999999
#
# number of rings (size 3 to 8) (size 9 to 14) (size 15 to 20)
#    0.000    1.000    2.500    3.750    1.750    5.000 
#    0.000    3.125    0.000    4.500    0.000    0.000 
#    0.000    0.000    0.000    0.000    0.000    0.000 
#
# Total GULP energy -179123.766499 kJ/mol
# GULP energy per Si atom -5597.617703 kJ/mol
# Density = 2.040406 g / cm^3
# Si number density = 20.450611 Si / 1000 Ang^3
#
#
#
# Elastic Constant Matrix: (Units=GPa)
#
#
# Indices 1 2 3 4 5 6 
#
# 1 76.0657 28.0188 3.8982 0.0221 -21.7352 0.0068
# 2 28.0188 76.0027 -20.3453 0.0299 -28.3338 0.0044
# 3 3.8982 -20.3453 42.5561 0.0379 3.7530 0.0169
# 4 0.0221 0.0299 0.0379 14.6651 0.0030 -10.7883
# 5 -21.7352 -28.3338 3.7530 0.0030 34.7275 0.0011
# 6 0.0068 0.0044 0.0169 -10.7883 0.0011 39.4099
#
#
#
# Elastic Compliance Matrix: (Units=1/GPa)
#
#
# Indices 1 2 3 4 5 6 
#
# 1 0.017261 -0.004842 -0.004544 -0.000008 0.007344 -0.000003
# 2 -0.004842 0.023193 0.010228 -0.000093 0.014787 -0.000032
# 3 -0.004544 0.010228 0.028592 -0.000122 0.002411 -0.000046
# 4 -0.000008 -0.000093 -0.000122 0.085385 -0.000076 0.023374
# 5 0.007344 0.014787 0.002411 -0.000076 0.045196 -0.000026
# 6 -0.000003 -0.000032 -0.000046 0.023374 -0.000026 0.031773
#
#
# Mechanical properties :
#
#
# Convention : Reuss Voigt Hill
#
# Bulk Modulus (GPa) = 14.13819 24.19643 19.16731
# Shear Modulus (GPa) = 19.74001 29.96402 24.85202
#
# Velocity S-wave (km/s) = 3.11022 3.83193 3.48978
# Velocity P-wave (km/s) = 4.45268 5.60675 5.06270
#
# Compressibility (1/GPa) = 0.07073043
#
# Stress axis : x y z
#
# Youngs Moduli (GPa) = 57.93260 43.11648 34.97505
#
# Poissons Ratio (x) = 0.20877 0.15892
# Poissons Ratio (y) = 0.28051 -0.35771
# Poissons Ratio (z) = 0.26323 -0.44098
#
# Static dielectric constant tensor:
#      x y z
#    x 1.700890 -0.000010 0.015040 
#    y -0.000010 1.692360 -0.000010 
#    z 0.015040 -0.000010 1.721180 
# 
# From -- ./inp_files/326123.got.cif
#   From: 2010.05.17/outbox.cif.g08.bks.cpg/sg12_164_cif.got.tgz:326123.got - 2010.06.03 13:09:07.
