data_PCOD9220968
_publ_section_title
;
Structure prediction by ZEFSAII (Michael W. Deem and Ramdas Pophale) SiO2 
 PCOD9220968
Probable space group: C 2/M
;
_chemical_formula_sum "Si O2"
_cell_formula_units_Z 40
_cell_length_a 10.115907
_cell_length_b 23.158023
_cell_length_c 7.960602
_cell_angle_alpha 90.000000
_cell_angle_beta 77.423954
_cell_angle_gamma 90.000000
_cell_volume 1820.143140
_symmetry_space_group_name_H-M "C 2/M"
_symmetry_group_IT_number 12
_symmetry_cell_setting 'monoclinic'
loop_
_space_group_symop_operation_xyz
x,y,z
-x,y,-z
-x,-y,-z
x,-y,z
1/2+x,1/2+y,z
1/2-x,1/2+y,-z
1/2-x,1/2-y,-z
1/2+x,1/2-y,z
loop_
_atom_site_type_symbol
_atom_site_label
_atom_site_fract_x
_atom_site_fract_y
_atom_site_fract_z
Si Si1 0.303009 0.861344 0.356330
Si Si2 0.066793 0.063885 0.294726
Si Si3 0.944900 0.567229 0.825337
Si Si4 0.816867 0.873878 0.237079
Si Si5 0.359839 0.754064 0.116766
O O1 0.190429 0.892206 0.271057
O O2 0.441563 0.897454 0.308024
O O3 0.247732 0.865020 0.560107
O O4 0.321552 0.797301 0.277552
O O5 0.000000 0.062539 0.500000
O O6 0.944275 0.083625 0.212174
O O7 0.117237 0.000000 0.239566
O O8 0.933087 0.500000 0.774816
O O9 0.802060 0.599700 0.843509
O O10 0.000000 0.567990 0.000000
O O11 0.872828 0.811468 0.172914
O O12 0.500000 0.775998 0.000000
O O13 0.250000 0.750000 0.000000
#
# Coordination Sequence:
#
# PCOD9220968 Si02
#       5
#     8   8   8   8   8
#     4  11  22  40  65  93 124 161 209 258 306 365
#     4   9  19  36  60  91 123 153 192 248 306 358
#     4  11  24  41  62  92 130 167 204 251 311 375
#     4  11  23  40  65  93 122 161 212 259 305 366
#     4  12  25  42  63  87 125 166 205 255 314 373
#
# _framework density 21.976292000000001
#
# number of rings (size 3 to 8) (size 9 to 14) (size 15 to 20)
#    0.000    1.200    0.000    6.600    0.000    3.200 
#    0.000    6.000    0.000    6.000    0.000    0.000 
#    0.000    0.000    0.000    0.000    0.000    0.000 
#
# Total GULP energy -111968.401599 kJ/mol
# GULP energy per Si atom -5598.420080 kJ/mol
# Density = 2.192627 g / cm^3
# Si number density = 21.976292 Si / 1000 Ang^3
#
#
#
# Elastic Constant Matrix: (Units=GPa)
#
#
# Indices 1 2 3 4 5 6 
#
# 1 116.8655 14.1777 -0.2029 0.0000 17.7896 0.0000
# 2 14.1777 106.5123 4.4139 0.0000 9.7103 0.0000
# 3 -0.2029 4.4139 64.1928 0.0000 7.7452 0.0000
# 4 0.0000 0.0000 0.0000 13.0111 0.0000 2.4694
# 5 17.7896 9.7103 7.7452 0.0000 20.3795 0.0000
# 6 0.0000 0.0000 0.0000 2.4694 0.0000 29.4225
#
#
#
# Elastic Compliance Matrix: (Units=1/GPa)
#
#
# Indices 1 2 3 4 5 6 
#
# 1 0.009978 -0.000566 0.001141 0.000000 -0.008874 0.000000
# 2 -0.000566 0.009848 -0.000181 0.000000 -0.004129 0.000000
# 3 0.001141 -0.000181 0.016459 0.000000 -0.007165 0.000000
# 4 0.000000 0.000000 0.000000 0.078102 0.000000 -0.006555
# 5 -0.008874 -0.004129 -0.007165 0.000000 0.061506 0.000000
# 6 0.000000 0.000000 0.000000 -0.006555 0.000000 0.034538
#
#
# Mechanical properties :
#
#
# Convention : Reuss Voigt Hill
#
# Bulk Modulus (GPa) = 26.97393 36.03868 31.50630
# Shear Modulus (GPa) = 22.52253 30.50807 26.51530
#
# Velocity S-wave (km/s) = 3.20481 3.72993 3.47730
# Velocity P-wave (km/s) = 5.09854 5.91476 5.52175
#
# Compressibility (1/GPa) = 0.03707283
#
# Stress axis : x y z
#
# Youngs Moduli (GPa) = 100.21659 101.54433 60.75854
#
# Poissons Ratio (x) = 0.05752 -0.06934
# Poissons Ratio (y) = 0.05677 0.01098
# Poissons Ratio (z) = -0.11437 0.01835
#
# Static dielectric constant tensor:
#      x y z
#    x 1.753410 0.000000 -0.001090 
#    y 0.000000 1.760700 0.000000 
#    z -0.001090 0.000000 1.832440 
# 
# From -- ./inp_files/39239.got.cif
#   From: 2010.05.17/outbox.cif.g08.bks.cpg/sg12_20_cif.got.tgz:39239.got - 2010.06.03 13:09:07.
