data_PCOD9220926
_publ_section_title
;
Structure prediction by ZEFSAII (Michael W. Deem and Ramdas Pophale) SiO2 
 PCOD9220926
Probable space group: C 2/M
;
_chemical_formula_sum "Si O2"
_cell_formula_units_Z 56
_cell_length_a 9.631208
_cell_length_b 22.841862
_cell_length_c 16.647043
_cell_angle_alpha 90.000000
_cell_angle_beta 50.760338
_cell_angle_gamma 90.000000
_cell_volume 2836.446507
_symmetry_space_group_name_H-M "C 2/M"
_symmetry_group_IT_number 12
_symmetry_cell_setting 'monoclinic'
loop_
_space_group_symop_operation_xyz
x,y,z
-x,y,-z
-x,-y,-z
x,-y,z
1/2+x,1/2+y,z
1/2-x,1/2+y,-z
1/2-x,1/2-y,-z
1/2+x,1/2-y,z
loop_
_atom_site_type_symbol
_atom_site_label
_atom_site_fract_x
_atom_site_fract_y
_atom_site_fract_z
Si Si1 0.636996 0.377560 0.332493
Si Si2 0.069340 0.568299 0.659431
Si Si3 0.552068 0.253959 0.607774
Si Si4 0.718047 0.434727 0.580718
Si Si5 0.788441 0.351929 0.703148
Si Si6 0.857532 0.673555 0.113688
Si Si7 0.488002 0.266127 0.819466
O O1 0.782573 0.397899 0.343095
O O2 0.546321 0.314178 0.381648
O O3 0.475801 0.423619 0.387543
O O4 0.736256 0.370204 0.210429
O O5 0.057166 0.500000 0.686528
O O6 0.135650 0.570959 0.542675
O O7 0.884323 0.603627 0.728859
O O8 0.750000 0.250000 0.500000
O O9 0.430732 0.198735 0.629440
O O10 0.553206 0.253052 0.704510
O O11 0.731090 0.500000 0.610158
O O12 0.739067 0.386763 0.641196
O O13 0.612436 0.320264 0.801132
O O14 0.717335 0.714670 0.116266
O O15 0.964218 0.713110 0.139565
O O16 0.000000 0.647275 0.000000
#
# Coordination Sequence:
#
# PCOD9220926 Si02
#       7
#     8   8   8   8   8   8   8
#     4  11  22  41  61  90 122 157 206 256 306 368
#     4  11  25  40  60  87 123 171 213 247 292 359
#     4  11  24  37  58  93 135 170 192 243 309 375
#     4  11  23  40  60  85 123 170 215 247 288 357
#     4  12  22  39  58  87 130 162 207 243 295 359
#     4  11  23  42  64  91 121 159 203 255 315 375
#     4  11  22  40  57  92 126 161 197 241 306 373
#
# _framework density 19.743013000000001
#
# number of rings (size 3 to 8) (size 9 to 14) (size 15 to 20)
#    0.000    0.857    5.714    3.857    2.000    3.429 
#    0.000    0.714    0.000    1.714    0.000    1.000 
#    0.000    0.000    0.000    0.000    0.000    0.000 
#
# Total GULP energy -156653.590667 kJ/mol
# GULP energy per Si atom -5594.771095 kJ/mol
# Density = 1.969808 g / cm^3
# Si number density = 19.743013 Si / 1000 Ang^3
#
#
#
# Elastic Constant Matrix: (Units=GPa)
#
#
# Indices 1 2 3 4 5 6 
#
# 1 75.1826 3.9994 -8.2012 0.0000 6.8640 0.0000
# 2 3.9994 82.3652 5.6694 0.0000 11.1455 0.0000
# 3 -8.2012 5.6694 59.6676 0.0000 -13.9174 0.0000
# 4 0.0000 0.0000 0.0000 12.5788 0.0000 5.5670
# 5 6.8640 11.1455 -13.9174 0.0000 18.9493 0.0000
# 6 0.0000 0.0000 0.0000 5.5670 0.0000 25.4616
#
#
#
# Elastic Compliance Matrix: (Units=1/GPa)
#
#
# Indices 1 2 3 4 5 6 
#
# 1 0.013796 -0.000163 0.000927 0.000000 -0.004221 0.000000
# 2 -0.000163 0.013905 -0.003907 0.000000 -0.010989 0.000000
# 3 0.000927 -0.003907 0.021378 0.000000 0.017663 0.000000
# 4 0.000000 0.000000 0.000000 0.088015 0.000000 -0.019244
# 5 -0.004221 -0.010989 0.017663 0.000000 0.073737 0.000000
# 6 0.000000 0.000000 0.000000 -0.019244 0.000000 0.043482
#
#
# Mechanical properties :
#
#
# Convention : Reuss Voigt Hill
#
# Bulk Modulus (GPa) = 23.36726 24.46118 23.91422
# Shear Modulus (GPa) = 18.19088 25.78114 21.98601
#
# Velocity S-wave (km/s) = 3.03872 3.61756 3.34070
# Velocity P-wave (km/s) = 4.91662 5.46495 5.19802
#
# Compressibility (1/GPa) = 0.04279492
#
# Stress axis : x y z
#
# Youngs Moduli (GPa) = 72.48436 71.91737 46.77697
#
# Poissons Ratio (x) = 0.01169 -0.04337
# Poissons Ratio (y) = 0.01178 0.18274
# Poissons Ratio (z) = -0.06721 0.28096
#
# Static dielectric constant tensor:
#      x y z
#    x 1.753950 0.000000 0.002350 
#    y 0.000000 1.708790 0.000000 
#    z 0.002350 0.000000 1.682390 
# 
# From -- ./inp_files/198374.got.cif
#   From: 2010.05.17/outbox.cif.g08.bks.cpg/sg12_100_cif.got.tgz:198374.got - 2010.06.03 13:09:07.
