data_PCOD9220702
_publ_section_title
;
Structure prediction by ZEFSAII (Michael W. Deem and Ramdas Pophale) SiO2 
 PCOD9220702
Probable space group: C 2/M
;
_chemical_formula_sum "Si O2"
_cell_formula_units_Z 48
_cell_length_a 29.643757
_cell_length_b 8.014166
_cell_length_c 8.125314
_cell_angle_alpha 90.000000
_cell_angle_beta 102.407054
_cell_angle_gamma 90.000000
_cell_volume 1885.249496
_symmetry_space_group_name_H-M "C 2/M"
_symmetry_group_IT_number 12
_symmetry_cell_setting 'monoclinic'
loop_
_space_group_symop_operation_xyz
x,y,z
-x,y,-z
-x,-y,-z
x,-y,z
1/2+x,1/2+y,z
1/2-x,1/2+y,-z
1/2-x,1/2-y,-z
1/2+x,1/2-y,z
loop_
_atom_site_type_symbol
_atom_site_label
_atom_site_fract_x
_atom_site_fract_y
_atom_site_fract_z
Si Si1 0.028548 0.302803 0.695053
Si Si2 0.556949 0.203559 0.183852
Si Si3 0.887654 0.298037 0.440837
Si Si4 0.280430 0.311286 0.677127
Si Si5 0.358722 0.807022 0.947511
Si Si6 0.699655 0.313002 0.794446
O O1 0.034279 0.500000 0.734816
O O2 0.994678 0.236082 0.810991
O O3 0.000000 0.293264 0.500000
O O4 0.078524 0.238581 0.680818
O O5 0.586712 0.243001 0.370345
O O6 0.590355 0.257377 0.061970
O O7 0.554211 0.000000 0.169811
O O8 0.884028 0.500000 0.429592
O O9 0.837869 0.220635 0.377679
O O10 0.295610 0.500000 0.664481
O O11 0.250000 0.250000 0.500000
O O12 0.324859 0.204368 0.762618
O O13 0.243381 0.303197 0.798283
O O14 0.363156 0.000000 0.000454
O O15 0.330218 0.715696 0.066100
O O16 0.717485 0.500000 0.799332
#
# Coordination Sequence:
#
# PCOD9220702 Si02
#       6
#     8   8   8   8   8   8
#     4   7  11  23  48  82 112 138 176 229 282 329
#     4   8  15  29  54  85 112 140 181 232 281 333
#     4   9  16  31  57  85 111 142 185 236 285 334
#     4  12  25  43  65  89 114 142 181 226 276 333
#     4  11  22  38  59  84 115 151 190 232 281 333
#     4  12  25  40  56  79 114 153 191 232 282 335
#
# _framework density 25.460819999999998
#
# number of rings (size 3 to 8) (size 9 to 14) (size 15 to 20)
#    0.000    2.167    0.000    7.000    0.000    1.333 
#    0.000    1.667    0.000   11.500    0.000    0.000 
#    0.000    0.000    0.000    0.000    0.000    0.000 
#
# Total GULP energy -134256.798286 kJ/mol
# GULP energy per Si atom -5594.033262 kJ/mol
# Density = 2.540287 g / cm^3
# Si number density = 25.460820 Si / 1000 Ang^3
#
#
#
# Elastic Constant Matrix: (Units=GPa)
#
#
# Indices 1 2 3 4 5 6 
#
# 1 166.2929 1.0715 15.5646 0.0000 -19.8406 0.0000
# 2 1.0715 49.1160 1.1975 0.0000 0.7695 0.0000
# 3 15.5646 1.1975 90.5755 0.0000 -16.3220 0.0000
# 4 0.0000 0.0000 0.0000 21.1185 0.0000 -3.0293
# 5 -19.8406 0.7695 -16.3220 0.0000 51.3187 0.0000
# 6 0.0000 0.0000 0.0000 -3.0293 0.0000 -5.4405
#
#
#
# Elastic Compliance Matrix: (Units=1/GPa)
#
#
# Indices 1 2 3 4 5 6 
#
# 1 0.006346 -0.000157 -0.000685 0.000000 0.002238 0.000000
# 2 -0.000157 0.020379 -0.000327 0.000000 -0.000470 0.000000
# 3 -0.000685 -0.000327 0.011792 0.000000 0.003490 0.000000
# 4 0.000000 0.000000 0.000000 0.043849 0.000000 -0.024416
# 5 0.002238 -0.000470 0.003490 0.000000 0.021468 0.000000
# 6 0.000000 0.000000 0.000000 -0.024416 0.000000 -0.170212
#
#
# Mechanical properties :
#
#
# Convention : Reuss Voigt Hill
#
# Bulk Modulus (GPa) = 27.64140 37.96129 32.80134
# Shear Modulus (GPa) = -96.18981 32.60941 -31.79020
#
# Velocity S-wave (km/s) = -6.15317 3.58266 -3.53738
# Velocity P-wave (km/s) = 6.29302 5.66181 1.94242
#
# Compressibility (1/GPa) = 0.03617762
#
# Stress axis : x y z
#
# Youngs Moduli (GPa) = 157.58921 49.07074 84.80655
#
# Poissons Ratio (x) = 0.00769 0.05810
# Poissons Ratio (y) = 0.02471 0.02775
# Poissons Ratio (z) = 0.10797 0.01606
#
# Static dielectric constant tensor:
#      x y z
#    x 1.981490 0.000000 -0.020440 
#    y 0.000000 1.914360 0.000000 
#    z -0.020440 0.000000 2.143850 
# 
# From -- ./inp_files/108681.got.cif
#   From: 2010.05.17/outbox.cif.g08.bks.cpg/sg12_55_cif.got.tgz:108681.got - 2010.06.03 13:09:07.
