data_PCOD9220890
_publ_section_title
;
Structure prediction by ZEFSAII (Michael W. Deem and Ramdas Pophale) SiO2 
 PCOD9220890
Probable space group: C 2/M
;
_chemical_formula_sum "Si O2"
_cell_formula_units_Z 42
_cell_length_a 10.433423
_cell_length_b 15.147331
_cell_length_c 15.111869
_cell_angle_alpha 90.000000
_cell_angle_beta 63.796636
_cell_angle_gamma 90.000000
_cell_volume 2142.821926
_symmetry_space_group_name_H-M "C 2/M"
_symmetry_group_IT_number 12
_symmetry_cell_setting 'monoclinic'
loop_
_space_group_symop_operation_xyz
x,y,z
-x,y,-z
-x,-y,-z
x,-y,z
1/2+x,1/2+y,z
1/2-x,1/2+y,-z
1/2-x,1/2-y,-z
1/2+x,1/2-y,z
loop_
_atom_site_type_symbol
_atom_site_label
_atom_site_fract_x
_atom_site_fract_y
_atom_site_fract_z
Si Si1 0.580887 0.756979 0.565821
Si Si2 0.902449 0.146225 0.909322
Si Si3 0.098304 0.895945 0.297823
Si Si4 0.409676 0.900249 0.287402
Si Si5 0.500000 0.500000 0.000000
Si Si6 0.917367 0.354319 0.936534
O O1 0.500000 0.780257 0.500000
O O2 0.750000 0.750000 0.500000
O O3 0.517967 0.663993 0.618477
O O4 0.552059 0.829475 0.650106
O O5 0.892895 0.132279 0.807365
O O6 0.932467 0.248243 0.921441
O O7 0.010130 0.078094 0.920614
O O8 0.748246 0.123224 0.999003
O O9 0.251901 0.880332 0.296821
O O10 0.067348 0.000000 0.312579
O O11 0.515886 0.894812 0.171637
O O12 0.409234 0.000000 0.322846
O O13 0.000000 0.382235 0.000000
#
# Coordination Sequence:
#
# PCOD9220890 Si02
#       6
#     8   8   8   8   2   8
#     4  12  26  48  73  98 133 175 228 296 354 404
#     4  11  23  38  63  98 142 179 218 270 326 399
#     4  11  23  43  71 100 132 179 224 273 340 418
#     4  11  25  43  69 102 137 172 230 280 339 411
#     4  12  24  40  58 100 140 178 230 272 320 396
#     4  11  22  39  65  97 136 181 216 265 329 396
#
# _framework density 19.600321999999998
#
# number of rings (size 3 to 8) (size 9 to 14) (size 15 to 20)
#    0.000    0.762    7.619    0.000    1.333    1.905 
#    3.429    0.000    0.000    0.000    0.000    0.000 
#    0.000    0.000    0.000    0.000    0.000    0.000 
#
# Total GULP energy -117186.795706 kJ/mol
# GULP energy per Si atom -5580.323605 kJ/mol
# Density = 1.955571 g / cm^3
# Si number density = 19.600322 Si / 1000 Ang^3
#
#
#
# Elastic Constant Matrix: (Units=GPa)
#
#
# Indices 1 2 3 4 5 6 
#
# 1 72.1506 21.8496 49.0318 0.0000 12.9472 0.0000
# 2 21.8496 59.7724 43.2039 0.0000 9.1437 0.0000
# 3 49.0318 43.2039 123.9461 0.0000 12.2452 0.0000
# 4 0.0000 0.0000 0.0000 67.5534 0.0000 37.4784
# 5 12.9472 9.1437 12.2452 0.0000 44.3537 0.0000
# 6 0.0000 0.0000 0.0000 37.4784 0.0000 42.1105
#
#
#
# Elastic Compliance Matrix: (Units=1/GPa)
#
#
# Indices 1 2 3 4 5 6 
#
# 1 0.019647 -0.001710 -0.006831 0.000000 -0.003497 0.000000
# 2 -0.001710 0.022793 -0.007046 0.000000 -0.002255 0.000000
# 3 -0.006831 -0.007046 0.013247 0.000000 -0.000211 0.000000
# 4 0.000000 0.000000 0.000000 0.029242 0.000000 -0.026025
# 5 -0.003497 -0.002255 -0.000211 0.000000 0.024090 0.000000
# 6 0.000000 0.000000 0.000000 -0.026025 0.000000 0.046910
#
#
# Mechanical properties :
#
#
# Convention : Reuss Voigt Hill
#
# Bulk Modulus (GPa) = 40.79245 53.78219 47.28732
# Shear Modulus (GPa) = 25.60527 40.25575 32.93051
#
# Velocity S-wave (km/s) = 3.61829 4.53684 4.10335
# Velocity P-wave (km/s) = 6.18978 7.41235 6.82848
#
# Compressibility (1/GPa) = 0.02451434
#
# Stress axis : x y z
#
# Youngs Moduli (GPa) = 50.89787 43.87360 75.48881
#
# Poissons Ratio (x) = 0.07501 0.51565
# Poissons Ratio (y) = 0.08702 0.53188
# Poissons Ratio (z) = 0.34767 0.30912
#
# Static dielectric constant tensor:
#      x y z
#    x 1.701670 0.000000 -0.000010 
#    y 0.000000 1.756800 0.000000 
#    z -0.000010 0.000000 1.667990 
# 
# From -- ./inp_files/204207.got.cif
#   From: 2010.05.17/outbox.cif.g08.bks.cpg/sg12_103_cif.got.tgz:204207.got - 2010.06.03 13:09:07.
