data_PCOD9220652
_publ_section_title
;
Structure prediction by ZEFSAII (Michael W. Deem and Ramdas Pophale) SiO2 
 PCOD9220652
Probable space group: C 2/M
;
_chemical_formula_sum "Si O2"
_cell_formula_units_Z 56
_cell_length_a 27.117981
_cell_length_b 13.844121
_cell_length_c 8.900759
_cell_angle_alpha 90.000000
_cell_angle_beta 58.106918
_cell_angle_gamma 90.000000
_cell_volume 2837.106397
_symmetry_space_group_name_H-M "C 2/M"
_symmetry_group_IT_number 12
_symmetry_cell_setting 'monoclinic'
loop_
_space_group_symop_operation_xyz
x,y,z
-x,y,-z
-x,-y,-z
x,-y,z
1/2+x,1/2+y,z
1/2-x,1/2+y,-z
1/2-x,1/2-y,-z
1/2+x,1/2-y,z
loop_
_atom_site_type_symbol
_atom_site_label
_atom_site_fract_x
_atom_site_fract_y
_atom_site_fract_z
Si Si1 0.350576 0.889672 0.940850
Si Si2 0.560163 0.615889 0.586575
Si Si3 0.694923 0.110764 0.306757
Si Si4 0.935164 0.612980 0.058635
Si Si5 0.351768 0.255124 0.373438
Si Si6 0.429154 0.616033 0.783985
Si Si7 0.813490 0.196402 0.123191
O O1 0.413221 0.878022 0.921218
O O2 0.309377 0.807789 0.077325
O O3 0.331478 0.000000 0.003771
O O4 0.347957 0.877943 0.766311
O O5 0.563103 0.500000 0.597431
O O6 0.607084 0.668165 0.612132
O O7 0.493852 0.645760 0.732296
O O8 0.572346 0.638499 0.391551
O O9 0.681809 0.192077 0.450147
O O10 0.760748 0.132264 0.148258
O O11 0.690317 0.000000 0.368666
O O12 0.928626 0.500000 0.108745
O O13 0.891793 0.678609 0.221535
O O14 0.000000 0.640863 0.000000
O O15 0.314854 0.305571 0.301755
O O16 0.425893 0.500000 0.803860
O O17 0.375338 0.660934 0.958876
#
# Coordination Sequence:
#
# PCOD9220652 Si02
#       7
#     8   8   8   8   8   8   8
#     4   9  20  37  59  85 116 152 197 244 291 344
#     4   9  20  37  58  85 121 151 188 243 304 358
#     4  11  23  41  59  84 119 159 204 250 289 343
#     4   9  19  37  59  84 115 150 193 242 296 354
#     4  11  23  36  57  85 121 153 196 239 307 342
#     4   9  19  38  60  85 115 154 195 245 297 352
#     4  11  22  37  62  86 117 157 202 241 294 350
#
# _framework density 19.738420999999999
#
# number of rings (size 3 to 8) (size 9 to 14) (size 15 to 20)
#    0.000    2.143    0.000    3.429    4.000    1.714 
#    0.000    3.571    0.000    3.429    0.000    0.000 
#    0.000    0.000    0.000    0.000    0.000    0.000 
#
# Total GULP energy -156216.503059 kJ/mol
# GULP energy per Si atom -5579.160824 kJ/mol
# Density = 1.969350 g / cm^3
# Si number density = 19.738421 Si / 1000 Ang^3
#
#
#
# Elastic Constant Matrix: (Units=GPa)
#
#
# Indices 1 2 3 4 5 6 
#
# 1 110.7683 35.1398 42.5832 0.0000 5.2930 0.0000
# 2 35.1398 50.7053 24.4192 0.0000 2.0721 0.0000
# 3 42.5832 24.4192 65.7688 0.0000 1.0046 0.0000
# 4 0.0000 0.0000 0.0000 27.7751 0.0000 2.4855
# 5 5.2930 2.0721 1.0046 0.0000 21.8237 0.0000
# 6 0.0000 0.0000 0.0000 2.4855 0.0000 33.9538
#
#
#
# Elastic Compliance Matrix: (Units=1/GPa)
#
#
# Indices 1 2 3 4 5 6 
#
# 1 0.013598 -0.006214 -0.006460 0.000000 -0.002411 0.000000
# 2 -0.006214 0.026932 -0.005964 0.000000 -0.000775 0.000000
# 3 -0.006460 -0.005964 0.021585 0.000000 0.001140 0.000000
# 4 0.000000 0.000000 0.000000 0.036241 0.000000 -0.002653
# 5 -0.002411 -0.000775 0.001140 0.000000 0.046428 0.000000
# 6 0.000000 0.000000 0.000000 -0.002653 0.000000 0.029646
#
#
# Mechanical properties :
#
#
# Convention : Reuss Voigt Hill
#
# Bulk Modulus (GPa) = 40.26150 47.94744 44.10447
# Shear Modulus (GPa) = 22.72876 25.05055 23.88965
#
# Velocity S-wave (km/s) = 3.39706 3.56634 3.48273
# Velocity P-wave (km/s) = 5.98569 6.42671 6.21011
#
# Compressibility (1/GPa) = 0.02483762
#
# Stress axis : x y z
#
# Youngs Moduli (GPa) = 73.54103 37.13018 46.32909
#
# Poissons Ratio (x) = 0.23072 0.29930
# Poissons Ratio (y) = 0.45698 0.27633
# Poissons Ratio (z) = 0.47509 0.22146
#
# Static dielectric constant tensor:
#      x y z
#    x 1.714740 0.000000 0.016570 
#    y 0.000000 1.690590 0.000000 
#    z 0.016570 0.000000 1.686830 
# 
# From -- ./inp_files/96790.got.cif
#   From: 2010.05.17/outbox.cif.g08.bks.cpg/sg12_49_cif.got.tgz:96790.got - 2010.06.03 13:09:07.
