data_PCOD9220503
_publ_section_title
;
Structure prediction by ZEFSAII (Michael W. Deem and Ramdas Pophale) SiO2 
 PCOD9220503
Probable space group: C 2/M
;
_chemical_formula_sum "Si O2"
_cell_formula_units_Z 64
_cell_length_a 24.454696
_cell_length_b 8.001922
_cell_length_c 15.925313
_cell_angle_alpha 90.000000
_cell_angle_beta 94.751176
_cell_angle_gamma 90.000000
_cell_volume 3105.629673
_symmetry_space_group_name_H-M "C 2/M"
_symmetry_group_IT_number 12
_symmetry_cell_setting 'monoclinic'
loop_
_space_group_symop_operation_xyz
x,y,z
-x,y,-z
-x,-y,-z
x,-y,z
1/2+x,1/2+y,z
1/2-x,1/2+y,-z
1/2-x,1/2-y,-z
1/2+x,1/2-y,z
loop_
_atom_site_type_symbol
_atom_site_label
_atom_site_fract_x
_atom_site_fract_y
_atom_site_fract_z
Si Si1 0.926339 0.298671 0.840982
Si Si2 0.547337 0.689338 0.820352
Si Si3 0.153507 0.704091 0.323998
Si Si4 0.170850 0.704510 0.055343
Si Si5 0.583670 0.797380 0.465418
Si Si6 0.253630 0.198873 0.781092
Si Si7 0.464665 0.202351 0.370768
Si Si8 0.162271 0.690811 0.871892
O O1 0.930214 0.500000 0.839973
O O2 0.891927 0.251479 0.752701
O O3 0.888732 0.249482 0.915042
O O4 0.987236 0.228795 0.847784
O O5 0.562389 0.500000 0.841342
O O6 0.544458 0.717565 0.720049
O O7 0.596822 0.799905 0.860657
O O8 0.153997 0.500000 0.327494
O O9 0.132534 0.763813 0.411839
O O10 0.212253 0.761952 0.295015
O O11 0.172206 0.500000 0.052788
O O12 0.214066 0.759275 0.131349
O O13 0.180237 0.770137 0.963014
O O14 0.576729 0.741956 0.560647
O O15 0.526038 0.759783 0.411714
O O16 0.586729 0.000000 0.469342
O O17 0.190615 0.234713 0.792837
O O18 0.259963 0.000000 0.779858
O O19 0.461381 0.000000 0.361174
O O20 0.179827 0.500000 0.874571
#
# Coordination Sequence:
#
# PCOD9220503 Si02
#       8
#     8   8   8   8   8   8   8   8
#     4   9  16  32  55  75  98 130 167 201 243 300
#     4  12  24  35  47  69 104 139 170 205 250 298
#     4   8  13  25  51  80 104 128 157 197 245 296
#     4   8  17  33  56  80  98 124 164 210 254 299
#     4   8  13  24  50  83 103 124 163 202 238 290
#     4   9  17  32  54  79 103 127 160 205 253 296
#     4   9  16  29  51  76 102 131 166 202 237 291
#     4  11  22  36  52  71  97 134 176 210 246 294
#
# _framework density 20.607738000000001
#
# number of rings (size 3 to 8) (size 9 to 14) (size 15 to 20)
#    0.000    2.750    1.250    4.125    0.000    0.500 
#    0.000    8.125    0.000    0.750    0.000    0.000 
#    0.000    0.000    0.000    0.000    0.000    0.000 
#
# Total GULP energy -178394.043370 kJ/mol
# GULP energy per Si atom -5574.813855 kJ/mol
# Density = 2.056083 g / cm^3
# Si number density = 20.607738 Si / 1000 Ang^3
#
#
#
# Elastic Constant Matrix: (Units=GPa)
#
#
# Indices 1 2 3 4 5 6 
#
# 1 72.7740 4.4078 15.0037 0.0000 -35.7174 0.0000
# 2 4.4078 21.4714 3.2501 0.0000 -6.6311 0.0000
# 3 15.0037 3.2501 43.8087 0.0000 -34.5254 0.0000
# 4 0.0000 0.0000 0.0000 -1.8637 0.0000 -23.0211
# 5 -35.7174 -6.6311 -34.5254 0.0000 38.3936 0.0000
# 6 0.0000 0.0000 0.0000 -23.0211 0.0000 -13.1955
#
#
#
# Elastic Compliance Matrix: (Units=1/GPa)
#
#
# Indices 1 2 3 4 5 6 
#
# 1 0.066155 0.018087 0.092568 0.000000 0.147909 0.000000
# 2 0.018087 0.055579 0.036072 0.000000 0.058863 0.000000
# 3 0.092568 0.036072 0.210175 0.000000 0.281345 0.000000
# 4 0.000000 0.000000 0.000000 0.026110 0.000000 -0.045552
# 5 0.147909 0.058863 0.281345 0.000000 0.426812 0.000000
# 6 0.000000 0.000000 0.000000 -0.045552 0.000000 0.003688
#
#
# Mechanical properties :
#
#
# Convention : Reuss Voigt Hill
#
# Bulk Modulus (GPa) = 1.59908 20.37525 10.98716
# Shear Modulus (GPa) = 7.10712 12.35971 9.73341
#
# Velocity S-wave (km/s) = 1.85910 2.45166 2.17565
# Velocity P-wave (km/s) = 2.32077 4.23353 3.41385
#
# Compressibility (1/GPa) = 0.62536129
#
# Stress axis : x y z
#
# Youngs Moduli (GPa) = 15.11605 17.99231 4.75795
#
# Poissons Ratio (x) = -0.32542 -0.44043
# Poissons Ratio (y) = -0.27340 -0.17163
# Poissons Ratio (z) = -1.39926 -0.64901
#
# Static dielectric constant tensor:
#      x y z
#    x 1.762430 0.000000 -0.036780 
#    y 0.000000 1.735490 0.000000 
#    z -0.036780 0.000000 1.744450 
# 
# From -- ./inp_files/287679.got.cif
#   From: 2010.05.17/outbox.cif.g08.bks.cpg/sg12_144_cif.got.tgz:287679.got - 2010.06.03 13:09:07.
