data_PCOD9220497
_publ_section_title
;
Structure prediction by ZEFSAII (Michael W. Deem and Ramdas Pophale) SiO2 
 PCOD9220497
Probable space group: C 2/M
;
_chemical_formula_sum "Si O2"
_cell_formula_units_Z 44
_cell_length_a 9.108946
_cell_length_b 20.210047
_cell_length_c 9.672597
_cell_angle_alpha 90.000000
_cell_angle_beta 98.391664
_cell_angle_gamma 90.000000
_cell_volume 1761.585528
_symmetry_space_group_name_H-M "C 2/M"
_symmetry_group_IT_number 12
_symmetry_cell_setting 'monoclinic'
loop_
_space_group_symop_operation_xyz
x,y,z
-x,y,-z
-x,-y,-z
x,-y,z
1/2+x,1/2+y,z
1/2-x,1/2+y,-z
1/2-x,1/2-y,-z
1/2+x,1/2-y,z
loop_
_atom_site_type_symbol
_atom_site_label
_atom_site_fract_x
_atom_site_fract_y
_atom_site_fract_z
Si Si1 0.332314 0.199857 0.726062
Si Si2 0.120763 0.077005 0.403932
Si Si3 0.000000 0.237430 0.000000
Si Si4 0.359108 0.829784 0.335204
Si Si5 0.645869 0.927421 0.922654
Si Si6 0.617040 0.617119 0.838874
O O1 0.397568 0.219125 0.886771
O O2 0.467823 0.188613 0.640655
O O3 0.233076 0.262193 0.671324
O O4 0.234399 0.135060 0.735590
O O5 0.030468 0.086828 0.247115
O O6 0.000000 0.099823 0.500000
O O7 0.270108 0.119216 0.418891
O O8 0.151305 0.000000 0.431954
O O9 0.921465 0.187206 0.095323
O O10 0.348339 0.867649 0.184706
O O11 0.638439 0.000000 0.852007
O O12 0.500000 0.922518 0.000000
O O13 0.792464 0.924190 0.037093
#
# Coordination Sequence:
#
# PCOD9220497 Si02
#       6
#     8   8   4   8   8   8
#     4  12  22  35  63 100 132 170 200 257 329 394
#     4  11  26  49  70  88 122 173 229 280 321 371
#     4  12  20  32  63  98 141 168 202 242 322 402
#     4  12  22  41  63  97 134 169 215 263 328 391
#     4  11  22  35  59  97 137 169 205 265 324 391
#     4  12  21  39  64  98 130 172 216 262 322 396
#
# _framework density 24.977499000000002
#
# number of rings (size 3 to 8) (size 9 to 14) (size 15 to 20)
#    0.000    0.364    7.273    2.727    0.000    0.000 
#    0.000    7.273    0.000    2.182    0.000    0.000 
#    0.000    0.000    0.000    0.000    0.000    0.000 
#
# Total GULP energy -123281.532637 kJ/mol
# GULP energy per Si atom -5603.706029 kJ/mol
# Density = 2.492065 g / cm^3
# Si number density = 24.977499 Si / 1000 Ang^3
#
#
#
# Elastic Constant Matrix: (Units=GPa)
#
#
# Indices 1 2 3 4 5 6 
#
# 1 147.2321 37.2190 27.9544 0.0000 -20.9830 0.0000
# 2 37.2190 77.3677 -1.2381 0.0000 -10.8079 0.0000
# 3 27.9544 -1.2381 82.4049 0.0000 -22.8076 0.0000
# 4 0.0000 0.0000 0.0000 28.9533 0.0000 13.6853
# 5 -20.9830 -10.8079 -22.8076 0.0000 52.3556 0.0000
# 6 0.0000 0.0000 0.0000 13.6853 0.0000 104.5975
#
#
#
# Elastic Compliance Matrix: (Units=1/GPa)
#
#
# Indices 1 2 3 4 5 6 
#
# 1 0.008470 -0.003907 -0.002520 0.000000 0.001491 0.000000
# 2 -0.003907 0.015198 0.002261 0.000000 0.002557 0.000000
# 3 -0.002520 0.002261 0.014639 0.000000 0.005834 0.000000
# 4 0.000000 0.000000 0.000000 0.036815 0.000000 -0.004817
# 5 0.001491 0.002557 0.005834 0.000000 0.022767 0.000000
# 6 0.000000 0.000000 0.000000 -0.004817 0.000000 0.010191
#
#
# Mechanical properties :
#
#
# Convention : Reuss Voigt Hill
#
# Bulk Modulus (GPa) = 33.35913 48.31949 40.83931
# Shear Modulus (GPa) = 39.55619 53.38589 46.47104
#
# Velocity S-wave (km/s) = 3.98386 4.62817 4.31805
# Velocity P-wave (km/s) = 5.87760 6.92439 6.42236
#
# Compressibility (1/GPa) = 0.02997680
#
# Stress axis : x y z
#
# Youngs Moduli (GPa) = 118.05738 65.79763 68.31253
#
# Poissons Ratio (x) = 0.25707 0.17212
# Poissons Ratio (y) = 0.46124 -0.15448
# Poissons Ratio (z) = 0.29745 -0.14879
#
# Static dielectric constant tensor:
#      x y z
#    x 1.976450 0.000000 -0.020370 
#    y 0.000000 1.923150 0.000000 
#    z -0.020370 0.000000 2.067240 
# 
# From -- ./inp_files/120704.got.cif
#   From: 2010.05.17/outbox.cif.g08.bks.cpg/sg12_61_cif.got.tgz:120704.got - 2010.06.03 13:09:07.
