data_PCOD9220688
_publ_section_title
;
Structure prediction by ZEFSAII (Michael W. Deem and Ramdas Pophale) SiO2 
 PCOD9220688
Probable space group: C 2/M
;
_chemical_formula_sum "Si O2"
_cell_formula_units_Z 42
_cell_length_a 7.928026
_cell_length_b 33.456560
_cell_length_c 8.795980
_cell_angle_alpha 90.000000
_cell_angle_beta 122.030736
_cell_angle_gamma 90.000000
_cell_volume 1977.904878
_symmetry_space_group_name_H-M "C 2/M"
_symmetry_group_IT_number 12
_symmetry_cell_setting 'monoclinic'
loop_
_space_group_symop_operation_xyz
x,y,z
-x,y,-z
-x,-y,-z
x,-y,z
1/2+x,1/2+y,z
1/2-x,1/2+y,-z
1/2-x,1/2-y,-z
1/2+x,1/2-y,z
loop_
_atom_site_type_symbol
_atom_site_label
_atom_site_fract_x
_atom_site_fract_y
_atom_site_fract_z
Si Si1 0.969793 0.289104 0.808447
Si Si2 0.500000 0.500000 0.500000
Si Si3 0.274513 0.788581 0.328500
Si Si4 0.803015 0.564587 0.489507
Si Si5 0.658317 0.123052 0.210552
Si Si6 0.445201 0.370338 0.794410
O O1 0.837124 0.252340 0.688877
O O2 0.873771 0.332513 0.737810
O O3 0.183166 0.288471 0.831537
O O4 0.000000 0.285011 0.000000
O O5 0.636881 0.534460 0.475839
O O6 0.500000 0.791292 0.500000
O O7 0.146741 0.827705 0.297632
O O8 0.861608 0.591415 0.664285
O O9 0.708009 0.594679 0.320247
O O10 0.000000 0.547447 0.500000
O O11 0.867615 0.121838 0.224727
O O12 0.500000 0.116735 0.000000
O O13 0.500000 0.370120 0.000000
#
# Coordination Sequence:
#
# PCOD9220688 Si02
#       6
#     8   2   8   8   8   8
#     4  11  22  38  57  89 132 182 231 285 338 393
#     4  12  26  52  76 110 140 178 222 280 356 414
#     4  12  24  38  59  93 134 182 234 285 341 396
#     4  12  25  48  77 106 142 180 225 281 349 418
#     4  11  23  43  70 102 138 183 234 285 342 412
#     4  12  23  42  69 101 139 185 234 283 342 411
#
# _framework density 21.234591000000002
#
# number of rings (size 3 to 8) (size 9 to 14) (size 15 to 20)
#    0.000    0.381    1.905    9.429    0.000    1.524 
#    0.000    0.952    0.000    0.000    0.000    0.000 
#    0.000    0.000    0.000    0.000    0.000    0.000 
#
# Total GULP energy -117189.991616 kJ/mol
# GULP energy per Si atom -5580.475791 kJ/mol
# Density = 2.118626 g / cm^3
# Si number density = 21.234591 Si / 1000 Ang^3
#
#
#
# Elastic Constant Matrix: (Units=GPa)
#
#
# Indices 1 2 3 4 5 6 
#
# 1 148.8123 31.7101 14.2024 0.0000 -20.6333 0.0000
# 2 31.7101 140.2043 52.0177 0.0000 0.5686 0.0000
# 3 14.2024 52.0177 104.7584 0.0000 -9.2915 0.0000
# 4 0.0000 0.0000 0.0000 -8.2440 0.0000 -8.9569
# 5 -20.6333 0.5686 -9.2915 0.0000 30.0088 0.0000
# 6 0.0000 0.0000 0.0000 -8.9569 0.0000 40.7755
#
#
#
# Elastic Compliance Matrix: (Units=1/GPa)
#
#
# Indices 1 2 3 4 5 6 
#
# 1 0.007870 -0.001949 0.000395 0.000000 0.005570 0.000000
# 2 -0.001949 0.009297 -0.004613 0.000000 -0.002945 0.000000
# 3 0.000395 -0.004613 0.012148 0.000000 0.004120 0.000000
# 4 0.000000 0.000000 0.000000 -0.097929 0.000000 -0.021511
# 5 0.005570 -0.002945 0.004120 0.000000 0.038485 0.000000
# 6 0.000000 0.000000 0.000000 -0.021511 0.000000 0.019799
#
#
# Mechanical properties :
#
#
# Convention : Reuss Voigt Hill
#
# Bulk Modulus (GPa) = 58.89184 65.51503 62.20344
# Shear Modulus (GPa) = 652.27807 32.23105 342.25456
#
# Velocity S-wave (km/s) = 17.54548 3.90019 12.70936
# Velocity P-wave (km/s) = 20.93449 7.15556 15.64376
#
# Compressibility (1/GPa) = 0.01698028
#
# Stress axis : x y z
#
# Youngs Moduli (GPa) = 127.06742 107.56418 82.31544
#
# Poissons Ratio (x) = 0.20965 -0.03251
# Poissons Ratio (y) = 0.24766 0.37974
# Poissons Ratio (z) = -0.05018 0.49622
#
# Static dielectric constant tensor:
#      x y z
#    x 1.810300 0.000000 -0.018350 
#    y 0.000000 1.775450 0.000000 
#    z -0.018350 0.000000 1.854000 
# 
# From -- ./inp_files/42348.got.cif
#   From: 2010.05.17/outbox.cif.g08.bks.cpg/sg12_22_cif.got.tgz:42348.got - 2010.06.03 13:09:07.
