data_PCOD9220339
_publ_section_title
;
Structure prediction by ZEFSAII (Michael W. Deem and Ramdas Pophale) SiO2 
 PCOD9220339
Probable space group: C 2/M
;
_chemical_formula_sum "Si O2"
_cell_formula_units_Z 36
_cell_length_a 21.689100
_cell_length_b 9.870967
_cell_length_c 20.680837
_cell_angle_alpha 90.000000
_cell_angle_beta 156.472206
_cell_angle_gamma 90.000000
_cell_volume 1767.474768
_symmetry_space_group_name_H-M "C 2/M"
_symmetry_group_IT_number 12
_symmetry_cell_setting 'monoclinic'
loop_
_space_group_symop_operation_xyz
x,y,z
-x,y,-z
-x,-y,-z
x,-y,z
1/2+x,1/2+y,z
1/2-x,1/2+y,-z
1/2-x,1/2-y,-z
1/2+x,1/2-y,z
loop_
_atom_site_type_symbol
_atom_site_label
_atom_site_fract_x
_atom_site_fract_y
_atom_site_fract_z
Si Si1 0.413653 0.500000 0.985846
Si Si2 0.420396 0.500000 0.716967
Si Si3 0.436428 0.000000 0.812324
Si Si4 0.684092 0.500000 0.669152
Si Si5 0.566276 0.000000 0.345407
Si Si6 0.897581 0.223391 0.187179
Si Si7 0.196738 0.301909 0.111876
O O1 0.320628 0.640848 0.900497
O O2 0.500000 0.500000 0.000000
O O3 0.520959 0.500000 0.152991
O O4 0.237532 0.500000 0.537374
O O5 0.488742 0.628183 0.743785
O O6 0.264884 0.000000 0.676985
O O7 0.430716 0.000000 0.729869
O O8 0.537254 0.871727 0.934544
O O9 0.500000 0.500000 0.500000
O O10 0.753871 0.370669 0.774011
O O11 0.477595 0.135115 0.280072
O O12 0.827164 0.161979 0.184603
O O13 0.750000 0.250000 0.000000
#
# Coordination Sequence:
#
# PCOD9220339 Si02
#       7
#     4   4   4   4   4   8   8
#     4  12  23  42  65  90 127 173 215 250 318 399
#     4  12  25  41  63  99 129 169 214 276 331 371
#     4  11  21  42  69  93 126 171 225 258 317 385
#     4  11  26  45  65  99 129 167 217 276 321 372
#     4  12  25  40  66 101 135 169 206 282 332 381
#     4  12  22  42  68  95 131 169 223 264 323 390
#     4  11  23  42  69  94 124 174 219 264 312 392
#
# _framework density 20.368041999999999
#
# number of rings (size 3 to 8) (size 9 to 14) (size 15 to 20)
#    0.000    0.444    4.444    6.000    3.111    0.000 
#    4.000    0.556    0.000    0.000    0.000    0.000 
#    0.000    0.000    0.000    0.000    0.000    0.000 
#
# Total GULP energy -100710.787464 kJ/mol
# GULP energy per Si atom -5595.043748 kJ/mol
# Density = 2.032168 g / cm^3
# Si number density = 20.368042 Si / 1000 Ang^3
#
#
#
# Elastic Constant Matrix: (Units=GPa)
#
#
# Indices 1 2 3 4 5 6 
#
# 1 106.0644 6.8014 7.2986 0.0000 21.2837 0.0000
# 2 6.8014 148.0257 41.3277 0.0001 7.8640 0.0001
# 3 7.2986 41.3277 97.3156 0.0001 21.9208 0.0001
# 4 0.0000 0.0001 0.0001 32.8197 0.0000 14.2905
# 5 21.2837 7.8640 21.9208 0.0000 31.0034 0.0000
# 6 0.0000 0.0001 0.0001 14.2905 0.0000 27.8711
#
#
#
# Elastic Compliance Matrix: (Units=1/GPa)
#
#
# Indices 1 2 3 4 5 6 
#
# 1 0.011044 -0.000406 0.001224 0.000000 -0.008344 0.000000
# 2 -0.000406 0.007684 -0.003398 0.000000 0.000732 0.000000
# 3 0.001224 -0.003398 0.013824 0.000000 -0.009752 0.000000
# 4 0.000000 0.000000 0.000000 0.039227 0.000000 -0.020113
# 5 -0.008344 0.000732 -0.009752 0.000000 0.044692 0.000000
# 6 0.000000 0.000000 0.000000 -0.020113 0.000000 0.046192
#
#
# Mechanical properties :
#
#
# Convention : Reuss Voigt Hill
#
# Bulk Modulus (GPa) = 36.50647 51.36233 43.93440
# Shear Modulus (GPa) = 28.25589 38.07072 33.16331
#
# Velocity S-wave (km/s) = 3.72864 4.32805 4.03948
# Velocity P-wave (km/s) = 6.04147 7.08857 6.58586
#
# Compressibility (1/GPa) = 0.02739240
#
# Stress axis : x y z
#
# Youngs Moduli (GPa) = 90.54321 130.14160 72.33967
#
# Poissons Ratio (x) = 0.05281 -0.08851
# Poissons Ratio (y) = 0.03674 0.24578
# Poissons Ratio (z) = -0.11078 0.44217
#
# Static dielectric constant tensor:
#      x y z
#    x 1.758540 0.000000 0.004650 
#    y 0.000000 1.735210 0.000000 
#    z 0.004650 0.000000 1.682620 
# 
# From -- ./inp_files/321660.got.cif
#   From: 2010.05.17/outbox.cif.g08.bks.cpg/sg12_161_cif.got.tgz:321660.got - 2010.06.03 13:09:07.
