data_PCOD9220913
_publ_section_title
;
Structure prediction by ZEFSAII (Michael W. Deem and Ramdas Pophale) SiO2 
 PCOD9220913
Probable space group: C 2/M
;
_chemical_formula_sum "Si O2"
_cell_formula_units_Z 64
_cell_length_a 20.709580
_cell_length_b 20.364800
_cell_length_c 12.575193
_cell_angle_alpha 90.000000
_cell_angle_beta 144.677180
_cell_angle_gamma 90.000000
_cell_volume 3066.416495
_symmetry_space_group_name_H-M "C 2/M"
_symmetry_group_IT_number 12
_symmetry_cell_setting 'monoclinic'
loop_
_space_group_symop_operation_xyz
x,y,z
-x,y,-z
-x,-y,-z
x,-y,z
1/2+x,1/2+y,z
1/2-x,1/2+y,-z
1/2-x,1/2-y,-z
1/2+x,1/2-y,z
loop_
_atom_site_type_symbol
_atom_site_label
_atom_site_fract_x
_atom_site_fract_y
_atom_site_fract_z
Si Si1 0.967139 0.389527 0.198476
Si Si2 0.393758 0.323969 0.419018
Si Si3 0.208101 0.573423 0.469675
Si Si4 0.127460 0.573776 0.710940
Si Si5 0.803935 0.423539 0.797368
Si Si6 0.750540 0.204920 0.817952
Si Si7 0.015663 0.765680 0.785785
Si Si8 0.173423 0.205735 0.319152
O O1 0.884705 0.415783 0.178604
O O2 0.089967 0.420419 0.371006
O O3 0.982832 0.311899 0.232296
O O4 0.912132 0.404832 0.011124
O O5 0.500000 0.351485 0.500000
O O6 0.295761 0.376050 0.301196
O O7 0.344064 0.260089 0.291396
O O8 0.441840 0.300269 0.596663
O O9 0.253076 0.500000 0.543475
O O10 0.180958 0.584372 0.308566
O O11 0.291612 0.630279 0.616544
O O12 0.167997 0.500000 0.741575
O O13 0.198682 0.632741 0.757623
O O14 0.000000 0.579636 0.500000
O O15 0.778338 0.500000 0.782649
O O16 0.796338 0.221107 0.761408
O O17 0.856909 0.211002 0.037231
O O18 0.951541 0.780360 0.810015
O O19 0.250000 0.250000 0.500000
#
# Coordination Sequence:
#
# PCOD9220913 Si02
#       8
#     8   8   8   8   8   8   8   8
#     4  12  23  40  69 101 133 172 228 285 341 403
#     4  12  25  43  66  98 133 175 226 272 334 407
#     4  11  22  39  67  98 135 175 222 283 346 404
#     4  11  25  45  67  98 137 180 227 277 340 410
#     4  11  24  42  64  96 137 177 222 283 344 407
#     4  12  25  43  68  98 136 175 225 284 341 399
#     4  12  25  41  69 102 132 174 226 280 343 401
#     4  12  22  42  67  97 133 174 224 281 340 403
#
# _framework density 20.871268000000001
#
# number of rings (size 3 to 8) (size 9 to 14) (size 15 to 20)
#    0.000    0.375    5.000    4.500    1.750    4.750 
#    0.000    1.250    0.000    1.500    0.000    0.000 
#    0.000    0.000    0.000    0.000    0.000    0.000 
#
# Total GULP energy -179150.368622 kJ/mol
# GULP energy per Si atom -5598.449019 kJ/mol
# Density = 2.082376 g / cm^3
# Si number density = 20.871268 Si / 1000 Ang^3
#
#
#
# Elastic Constant Matrix: (Units=GPa)
#
#
# Indices 1 2 3 4 5 6 
#
# 1 62.3641 10.7234 -3.0050 0.0000 10.3249 0.0000
# 2 10.7234 95.3451 10.7548 0.0000 12.2236 0.0000
# 3 -3.0050 10.7548 60.8971 0.0000 9.0657 0.0000
# 4 0.0000 0.0000 0.0000 1.3677 0.0000 12.2992
# 5 10.3249 12.2236 9.0657 0.0000 28.3797 0.0000
# 6 0.0000 0.0000 0.0000 12.2992 0.0000 20.2797
#
#
#
# Elastic Compliance Matrix: (Units=1/GPa)
#
#
# Indices 1 2 3 4 5 6 
#
# 1 0.017431 -0.001371 0.002056 0.000000 -0.006408 0.000000
# 2 -0.001371 0.011310 -0.001485 0.000000 -0.003898 0.000000
# 3 0.002056 -0.001485 0.017640 0.000000 -0.005744 0.000000
# 4 0.000000 0.000000 0.000000 -0.164163 0.000000 0.099562
# 5 -0.006408 -0.003898 -0.005744 0.000000 0.041081 0.000000
# 6 0.000000 0.000000 0.000000 0.099562 0.000000 -0.011072
#
#
# Mechanical properties :
#
#
# Convention : Reuss Voigt Hill
#
# Bulk Modulus (GPa) = 22.33074 28.39473 25.36274
# Shear Modulus (GPa) = -70.17777 23.34764 -23.41507
#
# Velocity S-wave (km/s) = -5.80492 3.34825 -3.35308
# Velocity P-wave (km/s) = 5.84867 5.34621 1.67705
#
# Compressibility (1/GPa) = 0.04478132
#
# Stress axis : x y z
#
# Youngs Moduli (GPa) = 57.37059 88.42025 56.68991
#
# Poissons Ratio (x) = 0.12121 -0.11656
# Poissons Ratio (y) = 0.07864 0.08417
# Poissons Ratio (z) = -0.11796 0.13127
#
# Static dielectric constant tensor:
#      x y z
#    x 1.795990 0.000000 -0.025480 
#    y 0.000000 1.712810 0.000000 
#    z -0.025480 0.000000 1.732020 
# 
# From -- ./inp_files/216816.got.cif
#   From: 2010.05.17/outbox.cif.g08.bks.cpg/sg12_109_cif.got.tgz:216816.got - 2010.06.03 13:09:07.
