data_PCOD9220488
_publ_section_title
;
Structure prediction by ZEFSAII (Michael W. Deem and Ramdas Pophale) SiO2 
 PCOD9220488
Probable space group: C 2/M
;
_chemical_formula_sum "Si O2"
_cell_formula_units_Z 58
_cell_length_a 18.275667
_cell_length_b 24.197434
_cell_length_c 12.084594
_cell_angle_alpha 90.000000
_cell_angle_beta 36.753119
_cell_angle_gamma 90.000000
_cell_volume 3197.739872
_symmetry_space_group_name_H-M "C 2/M"
_symmetry_group_IT_number 12
_symmetry_cell_setting 'monoclinic'
loop_
_space_group_symop_operation_xyz
x,y,z
-x,y,-z
-x,-y,-z
x,-y,z
1/2+x,1/2+y,z
1/2-x,1/2+y,-z
1/2-x,1/2-y,-z
1/2+x,1/2-y,z
loop_
_atom_site_type_symbol
_atom_site_label
_atom_site_fract_x
_atom_site_fract_y
_atom_site_fract_z
Si Si1 0.982297 0.287953 0.394810
Si Si2 0.000000 0.000000 0.500000
Si Si3 0.885251 0.059714 0.056406
Si Si4 0.439039 0.596839 0.746421
Si Si5 0.285552 0.667012 0.281963
Si Si6 0.367819 0.317313 0.432400
Si Si7 0.220978 0.686482 0.999730
Si Si8 0.360288 0.785027 0.142062
O O1 0.857969 0.321848 0.536978
O O2 0.956128 0.235557 0.346453
O O3 0.000000 0.267598 0.500000
O O4 0.099212 0.323680 0.219107
O O5 0.058908 0.950661 0.347867
O O6 0.807020 0.111104 0.191353
O O7 0.822928 0.000000 0.140039
O O8 0.930434 0.069309 0.877569
O O9 0.000000 0.059468 0.000000
O O10 0.565185 0.631818 0.589737
O O11 0.329587 0.642313 0.877377
O O12 0.345688 0.668985 0.331005
O O13 0.345376 0.718977 0.146377
O O14 0.237448 0.301819 0.645018
O O15 0.182004 0.687406 0.919423
O O16 0.250000 0.750000 0.000000
O O17 0.500000 0.798263 0.000000
#
# Coordination Sequence:
#
# PCOD9220488 Si02
#       8
#     8   2   8   8   8   8   8   8
#     4  11  22  37  57  92 126 164 201 247 315 384
#     4  12  28  44  62  92 128 172 214 264 308 370
#     4  11  22  40  62  90 116 155 212 260 306 355
#     4  12  24  42  64  91 126 164 209 260 311 367
#     4  11  22  37  60  87 127 160 199 253 310 368
#     4  11  22  37  59  90 126 163 200 250 311 376
#     4  12  22  37  62  91 126 165 205 255 316 375
#     4  11  22  35  56  91 127 165 200 244 309 383
#
# _framework density 18.137810000000002
#
# number of rings (size 3 to 8) (size 9 to 14) (size 15 to 20)
#    0.000    0.690    3.448    7.862    0.966    0.000 
#    0.000    0.000    1.517    1.241    0.000    2.897 
#    0.000    0.000    0.000    0.000    0.000    0.000 
#
# Total GULP energy -161728.339440 kJ/mol
# GULP energy per Si atom -5576.839291 kJ/mol
# Density = 1.809653 g / cm^3
# Si number density = 18.137810 Si / 1000 Ang^3
#
#
#
# Elastic Constant Matrix: (Units=GPa)
#
#
# Indices 1 2 3 4 5 6 
#
# 1 81.5532 29.7825 37.7822 -0.0005 -0.5035 0.0010
# 2 29.7825 117.6068 43.3493 -0.0003 -3.2900 0.0006
# 3 37.7822 43.3493 84.1383 -0.0003 -1.3826 0.0009
# 4 -0.0005 -0.0003 -0.0003 30.4508 0.0003 9.7633
# 5 -0.5035 -3.2900 -1.3826 0.0003 36.5557 -0.0008
# 6 0.0010 0.0006 0.0009 9.7633 -0.0008 8.3525
#
#
#
# Elastic Compliance Matrix: (Units=1/GPa)
#
#
# Indices 1 2 3 4 5 6 
#
# 1 0.015757 -0.001711 -0.006197 0.000001 -0.000171 -0.000002
# 2 -0.001711 0.010702 -0.004733 0.000000 0.000761 0.000000
# 3 -0.006197 -0.004733 0.017109 0.000000 0.000136 -0.000001
# 4 0.000001 0.000000 0.000000 0.052525 -0.000002 -0.061397
# 5 -0.000171 0.000761 0.000136 -0.000002 0.027427 0.000005
# 6 -0.000002 0.000000 -0.000001 -0.061397 0.000005 0.191492
#
#
# Mechanical properties :
#
#
# Convention : Reuss Voigt Hill
#
# Bulk Modulus (GPa) = 54.68746 56.12514 55.40630
# Shear Modulus (GPa) = 14.43469 26.56408 20.49938
#
# Velocity S-wave (km/s) = 2.82411 3.83112 3.36549
# Velocity P-wave (km/s) = 6.39145 7.11202 6.76135
#
# Compressibility (1/GPa) = 0.01828573
#
# Stress axis : x y z
#
# Youngs Moduli (GPa) = 63.46566 93.44018 58.44988
#
# Poissons Ratio (x) = 0.15986 0.36220
# Poissons Ratio (y) = 0.10858 0.27665
# Poissons Ratio (z) = 0.39329 0.44226
#
# Static dielectric constant tensor:
#      x y z
#    x 1.685670 0.000000 0.029540 
#    y 0.000000 1.627200 0.000000 
#    z 0.029540 0.000000 1.664490 
# 
# From -- ./inp_files/159748.got.cif
#   From: 2010.05.17/outbox.cif.g08.bks.cpg/sg12_80_cif.got.tgz:159748.got - 2010.06.03 13:09:07.
