data_PCOD9220082
_publ_section_title
;
Structure prediction by ZEFSAII (Michael W. Deem and Ramdas Pophale) SiO2 
 PCOD9220082
Probable space group: C 2/M
;
_chemical_formula_sum "Si O2"
_cell_formula_units_Z 40
_cell_length_a 7.536945
_cell_length_b 24.367464
_cell_length_c 10.225365
_cell_angle_alpha 90.000000
_cell_angle_beta 81.288172
_cell_angle_gamma 90.000000
_cell_volume 1856.285438
_symmetry_space_group_name_H-M "C 2/M"
_symmetry_group_IT_number 12
_symmetry_cell_setting 'monoclinic'
loop_
_space_group_symop_operation_xyz
x,y,z
-x,y,-z
-x,-y,-z
x,-y,z
1/2+x,1/2+y,z
1/2-x,1/2+y,-z
1/2-x,1/2-y,-z
1/2+x,1/2-y,z
loop_
_atom_site_type_symbol
_atom_site_label
_atom_site_fract_x
_atom_site_fract_y
_atom_site_fract_z
Si Si1 0.331619 0.000000 0.216337
Si Si2 0.298137 0.376937 0.036905
Si Si3 0.743552 0.000000 0.075768
Si Si4 0.920716 0.690978 0.729824
Si Si5 0.444933 0.696037 0.359125
Si Si6 0.748256 0.882319 0.739254
O O1 0.278463 0.054922 0.296365
O O2 0.540918 0.000000 0.152974
O O3 0.237956 0.000000 0.084163
O O4 0.311706 0.438326 0.100181
O O5 0.179042 0.336538 0.136072
O O6 0.500000 0.355787 0.000000
O O7 0.217879 0.381157 0.899909
O O8 0.766373 0.689221 0.637133
O O9 0.984579 0.753614 0.737449
O O10 0.099389 0.655609 0.688387
O O11 0.500000 0.710381 0.500000
O O12 0.556495 0.641975 0.310216
#
# Coordination Sequence:
#
# PCOD9220082 Si02
#       6
#     4   8   4   8   8   8
#     4   9  18  36  63  94 132 172 205 246 315 386
#     4  11  21  38  61 101 136 166 208 255 324 383
#     4   9  17  32  60  93 133 173 204 245 305 399
#     4  12  24  42  66  93 126 169 213 266 318 379
#     4  12  27  46  66  92 121 172 226 268 319 374
#     4  11  23  42  66  98 135 166 208 263 317 388
#
# _framework density 21.548411000000002
#
# number of rings (size 3 to 8) (size 9 to 14) (size 15 to 20)
#    0.000    1.000    6.000    1.500    0.000    0.800 
#    3.600    1.500    0.000    1.200    0.000    0.000 
#    0.000    0.000    0.000    0.000    0.000    0.000 
#
# Total GULP energy -111734.012881 kJ/mol
# GULP energy per Si atom -5586.700644 kJ/mol
# Density = 2.149937 g / cm^3
# Si number density = 21.548411 Si / 1000 Ang^3
#
#
#
# Elastic Constant Matrix: (Units=GPa)
#
#
# Indices 1 2 3 4 5 6 
#
# 1 81.9710 34.1401 6.3102 0.0000 27.8715 0.0000
# 2 34.1401 108.2471 18.4899 0.0000 -12.2629 0.0000
# 3 6.3102 18.4899 41.3148 0.0000 1.5470 0.0000
# 4 0.0000 0.0000 0.0000 65.1651 0.0000 -33.5147
# 5 27.8715 -12.2629 1.5470 0.0000 21.9752 0.0000
# 6 0.0000 0.0000 0.0000 -33.5147 0.0000 51.0693
#
#
#
# Elastic Compliance Matrix: (Units=1/GPa)
#
#
# Indices 1 2 3 4 5 6 
#
# 1 0.046370 -0.023935 0.006349 0.000000 -0.072615 0.000000
# 2 -0.023935 0.023187 -0.008365 0.000000 0.043886 0.000000
# 3 0.006349 -0.008365 0.027527 0.000000 -0.014658 0.000000
# 4 0.000000 0.000000 0.000000 0.023164 0.000000 0.015201
# 5 -0.072615 0.043886 -0.014658 0.000000 0.163126 0.000000
# 6 0.000000 0.000000 0.000000 0.015201 0.000000 0.029557
#
#
# Mechanical properties :
#
#
# Convention : Reuss Voigt Hill
#
# Bulk Modulus (GPa) = 22.13289 38.82371 30.47830
# Shear Modulus (GPa) = 13.16155 39.14812 26.15484
#
# Velocity S-wave (km/s) = 2.47410 4.26696 3.48770
# Velocity P-wave (km/s) = 4.29594 6.50631 5.51304
#
# Compressibility (1/GPa) = 0.04518162
#
# Stress axis : x y z
#
# Youngs Moduli (GPa) = 21.56578 43.12674 36.32782
#
# Poissons Ratio (x) = 1.03225 -0.23063
# Poissons Ratio (y) = 0.51618 0.30387
# Poissons Ratio (z) = -0.13691 0.36075
#
# Static dielectric constant tensor:
#      x y z
#    x 1.789200 0.000000 0.030150 
#    y 0.000000 1.804800 0.000000 
#    z 0.030150 0.000000 1.794310 
# 
# From -- ./inp_files/121320.got.cif
#   From: 2010.05.17/outbox.cif.g08.bks.cpg/sg12_61_cif.got.tgz:121320.got - 2010.06.03 13:09:07.
