data_PCOD9220840
_publ_section_title
;
Structure prediction by ZEFSAII (Michael W. Deem and Ramdas Pophale) SiO2 
 PCOD9220840
Probable space group: C 2/M
;
_chemical_formula_sum "Si O2"
_cell_formula_units_Z 44
_cell_length_a 9.011089
_cell_length_b 29.260759
_cell_length_c 9.026530
_cell_angle_alpha 90.000000
_cell_angle_beta 120.607960
_cell_angle_gamma 90.000000
_cell_volume 2048.429476
_symmetry_space_group_name_H-M "C 2/M"
_symmetry_group_IT_number 12
_symmetry_cell_setting 'monoclinic'
loop_
_space_group_symop_operation_xyz
x,y,z
-x,y,-z
-x,-y,-z
x,-y,z
1/2+x,1/2+y,z
1/2-x,1/2+y,-z
1/2-x,1/2-y,-z
1/2+x,1/2-y,z
loop_
_atom_site_type_symbol
_atom_site_label
_atom_site_fract_x
_atom_site_fract_y
_atom_site_fract_z
Si Si1 0.887963 0.314197 0.670319
Si Si2 0.266728 0.861408 0.192667
Si Si3 0.000000 0.075163 0.500000
Si Si4 0.294719 0.359475 0.178076
Si Si5 0.713736 0.948933 0.599260
Si Si6 0.917854 0.207815 0.714124
O O1 0.861914 0.346861 0.796926
O O2 0.926456 0.261927 0.731691
O O3 0.719314 0.308791 0.481253
O O4 0.048560 0.339155 0.677836
O O5 0.231061 0.906009 0.272527
O O6 0.142380 0.819978 0.174095
O O7 0.245263 0.872789 0.009218
O O8 0.090610 0.104363 0.674877
O O9 0.168593 0.054027 0.494108
O O10 0.397898 0.311732 0.232949
O O11 0.500000 0.946005 0.500000
O O12 0.752196 0.000000 0.677504
#
# Coordination Sequence:
#
# PCOD9220840 Si02
#       6
#     8   8   4   8   8   8
#     4  11  23  39  62  95 133 184 227 272 333 403
#     4  12  24  40  65  97 135 172 220 287 337 393
#     4  12  23  46  72  96 134 182 220 278 347 420
#     4  12  23  39  63  93 134 176 224 276 338 404
#     4  11  25  47  75 103 133 175 226 280 346 417
#     4  11  22  39  62  90 136 182 225 272 333 404
#
# _framework density 21.479869999999998
#
# number of rings (size 3 to 8) (size 9 to 14) (size 15 to 20)
#    0.000    0.545    3.636    5.182    0.000    7.273 
#    0.000    2.727    0.000    4.364    0.000    0.000 
#    0.000    0.000    0.000    0.000    0.000    0.000 
#
# Total GULP energy -122646.715507 kJ/mol
# GULP energy per Si atom -5574.850705 kJ/mol
# Density = 2.143098 g / cm^3
# Si number density = 21.479870 Si / 1000 Ang^3
#
#
#
# Elastic Constant Matrix: (Units=GPa)
#
#
# Indices 1 2 3 4 5 6 
#
# 1 123.8037 35.1337 35.6562 0.0000 -15.7271 0.0000
# 2 35.1337 125.9924 45.0692 0.0000 -12.5219 0.0000
# 3 35.6562 45.0692 108.1832 0.0000 -17.3386 0.0000
# 4 0.0000 0.0000 0.0000 -103.6342 0.0000 -112.3429
# 5 -15.7271 -12.5219 -17.3386 0.0000 27.1121 0.0000
# 6 0.0000 0.0000 0.0000 -112.3429 0.0000 -76.6428
#
#
#
# Elastic Compliance Matrix: (Units=1/GPa)
#
#
# Indices 1 2 3 4 5 6 
#
# 1 0.009538 -0.001628 -0.001893 0.000000 0.003570 0.000000
# 2 -0.001628 0.009706 -0.003276 0.000000 0.001444 0.000000
# 3 -0.001893 -0.003276 0.012049 0.000000 0.005094 0.000000
# 4 0.000000 0.000000 0.000000 0.016383 0.000000 -0.024015
# 5 0.003570 0.001444 0.005094 0.000000 0.042879 0.000000
# 6 0.000000 0.000000 0.000000 -0.024015 0.000000 0.022153
#
#
# Mechanical properties :
#
#
# Convention : Reuss Voigt Hill
#
# Bulk Modulus (GPa) = 56.49900 65.52195 61.01048
# Shear Modulus (GPa) = 37.82098 -14.49162 11.66468
#
# Velocity S-wave (km/s) = 4.20070 -2.60024 2.33288
# Velocity P-wave (km/s) = 7.06315 4.64275 5.97676
#
# Compressibility (1/GPa) = 0.01769943
#
# Stress axis : x y z
#
# Youngs Moduli (GPa) = 104.84341 103.02776 82.99633
#
# Poissons Ratio (x) = 0.16769 0.15714
# Poissons Ratio (y) = 0.17064 0.27187
# Poissons Ratio (z) = 0.19851 0.33749
#
# Static dielectric constant tensor:
#      x y z
#    x 1.628820 0.000000 0.021830 
#    y 0.000000 1.718420 0.000000 
#    z 0.021830 0.000000 1.801830 
# 
# From -- ./inp_files/41810.got.cif
#   From: 2010.05.17/outbox.cif.g08.bks.cpg/sg12_21_cif.got.tgz:41810.got - 2010.06.03 13:09:07.
