data_PCOD9220330
_publ_section_title
;
Structure prediction by ZEFSAII (Michael W. Deem and Ramdas Pophale) SiO2 
 PCOD9220330
Probable space group: C 2/M
;
_chemical_formula_sum "Si O2"
_cell_formula_units_Z 48
_cell_length_a 20.231942
_cell_length_b 17.928565
_cell_length_c 8.680999
_cell_angle_alpha 90.000000
_cell_angle_beta 46.700097
_cell_angle_gamma 90.000000
_cell_volume 2291.655309
_symmetry_space_group_name_H-M "C 2/M"
_symmetry_group_IT_number 12
_symmetry_cell_setting 'monoclinic'
loop_
_space_group_symop_operation_xyz
x,y,z
-x,y,-z
-x,-y,-z
x,-y,z
1/2+x,1/2+y,z
1/2-x,1/2+y,-z
1/2-x,1/2-y,-z
1/2+x,1/2-y,z
loop_
_atom_site_type_symbol
_atom_site_label
_atom_site_fract_x
_atom_site_fract_y
_atom_site_fract_z
Si Si1 0.247168 0.084266 0.528265
Si Si2 0.597614 0.305828 0.898534
Si Si3 0.570372 0.139815 0.274268
Si Si4 0.566027 0.149911 0.776201
Si Si5 0.597522 0.302503 0.269360
Si Si6 0.754639 0.083656 0.839340
O O1 0.177809 0.143802 0.705789
O O2 0.348855 0.103989 0.417327
O O3 0.249528 0.089222 0.338810
O O4 0.222429 0.000000 0.611959
O O5 0.600879 0.223599 0.812519
O O6 0.500000 0.336359 0.000000
O O7 0.600779 0.306869 0.078400
O O8 0.500000 0.099074 0.500000
O O9 0.502136 0.169503 0.251269
O O10 0.610281 0.214908 0.288330
O O11 0.654363 0.096306 0.069062
O O12 0.500000 0.106695 0.000000
O O13 0.500000 0.323876 0.500000
O O14 0.676224 0.354370 0.210174
O O15 0.785770 0.000000 0.830174
#
# Coordination Sequence:
#
# PCOD9220330 Si02
#       6
#     8   8   8   8   8   8
#     4  11  25  41  65  95 129 170 207 255 315 377
#     4  11  22  42  68  95 122 162 214 267 313 362
#     4  11  24  41  67  97 126 165 211 259 314 373
#     4  11  21  42  67  97 125 161 211 263 310 366
#     4  11  23  42  67  94 125 164 211 264 315 367
#     4  11  25  43  62  93 133 170 207 253 315 379
#
# _framework density 20.945558999999999
#
# number of rings (size 3 to 8) (size 9 to 14) (size 15 to 20)
#    0.000    1.000    5.000    2.000    4.667    2.667 
#    0.000    0.000    0.000    0.000    0.000    0.000 
#    0.000    0.000    0.000    0.000    0.000    0.000 
#
# Total GULP energy -134061.163009 kJ/mol
# GULP energy per Si atom -5585.881792 kJ/mol
# Density = 2.089789 g / cm^3
# Si number density = 20.945559 Si / 1000 Ang^3
#
#
#
# Elastic Constant Matrix: (Units=GPa)
#
#
# Indices 1 2 3 4 5 6 
#
# 1 41.7149 14.3152 -11.7047 0.0000 -5.8666 0.0000
# 2 14.3152 43.6531 3.4448 0.0000 5.7112 0.0000
# 3 -11.7047 3.4448 110.7239 0.0000 -5.0828 0.0000
# 4 0.0000 0.0000 0.0000 -12.0266 0.0000 28.8473
# 5 -5.8666 5.7112 -5.0828 0.0000 23.3618 0.0000
# 6 0.0000 0.0000 0.0000 28.8473 0.0000 -13.3962
#
#
#
# Elastic Compliance Matrix: (Units=1/GPa)
#
#
# Indices 1 2 3 4 5 6 
#
# 1 0.030880 -0.011972 0.004169 0.000000 0.011588 0.000000
# 2 -0.011972 0.028419 -0.002633 0.000000 -0.010527 0.000000
# 3 0.004169 -0.002633 0.009729 0.000000 0.003807 0.000000
# 4 0.000000 0.000000 0.000000 0.019963 0.000000 0.042988
# 5 0.011588 -0.010527 0.003807 0.000000 0.049117 0.000000
# 6 0.000000 0.000000 0.000000 0.042988 0.000000 0.017922
#
#
# Mechanical properties :
#
#
# Convention : Reuss Voigt Hill
#
# Bulk Modulus (GPa) = 20.76583 23.13362 21.94972
# Shear Modulus (GPa) = 25.91311 12.25691 19.08501
#
# Velocity S-wave (km/s) = 3.52115 2.42167 3.02184
# Velocity P-wave (km/s) = 5.14461 4.34603 4.76209
#
# Compressibility (1/GPa) = 0.04815604
#
# Stress axis : x y z
#
# Youngs Moduli (GPa) = 32.38348 35.18808 102.78717
#
# Poissons Ratio (x) = 0.42126 -0.42850
# Poissons Ratio (y) = 0.38768 0.27063
# Poissons Ratio (z) = -0.13500 0.09265
#
# Static dielectric constant tensor:
#      x y z
#    x 1.768280 0.000000 0.046440 
#    y 0.000000 1.746360 0.000000 
#    z 0.046440 0.000000 1.787870 
# 
# From -- ./inp_files/87738.got.cif
#   From: 2010.05.17/outbox.cif.g08.bks.cpg/sg12_44_cif.got.tgz:87738.got - 2010.06.03 13:09:07.
