data_PCOD9220718
_publ_section_title
;
Structure prediction by ZEFSAII (Michael W. Deem and Ramdas Pophale) SiO2 
 PCOD9220718
Probable space group: C 2/M
;
_chemical_formula_sum "Si O2"
_cell_formula_units_Z 64
_cell_length_a 18.423312
_cell_length_b 19.727032
_cell_length_c 14.949956
_cell_angle_alpha 90.000000
_cell_angle_beta 40.026111
_cell_angle_gamma 90.000000
_cell_volume 3494.400088
_symmetry_space_group_name_H-M "C 2/M"
_symmetry_group_IT_number 12
_symmetry_cell_setting 'monoclinic'
loop_
_space_group_symop_operation_xyz
x,y,z
-x,y,-z
-x,-y,-z
x,-y,z
1/2+x,1/2+y,z
1/2-x,1/2+y,-z
1/2-x,1/2-y,-z
1/2+x,1/2-y,z
loop_
_atom_site_type_symbol
_atom_site_label
_atom_site_fract_x
_atom_site_fract_y
_atom_site_fract_z
Si Si1 0.277823 0.783987 0.112559
Si Si2 0.577243 0.787074 0.200433
Si Si3 0.502350 0.077375 0.349893
Si Si4 0.340350 0.422323 0.731744
Si Si5 0.687902 0.077251 0.333029
Si Si6 0.622750 0.687056 0.843060
Si Si7 0.141740 0.202877 0.613955
Si Si8 0.103247 0.077121 0.530542
O O1 0.172608 0.737355 0.180320
O O2 0.235694 0.861274 0.160438
O O3 0.327987 0.754653 0.156797
O O4 0.370147 0.776956 0.947242
O O5 0.540064 0.864719 0.247032
O O6 0.467962 0.741462 0.319546
O O7 0.597161 0.078180 0.338419
O O8 0.384297 0.095242 0.510125
O O9 0.495523 0.000000 0.322430
O O10 0.302158 0.500000 0.785971
O O11 0.352831 0.414597 0.612583
O O12 0.466974 0.415838 0.652212
O O13 0.789350 0.127371 0.218497
O O14 0.727752 0.000000 0.305469
O O15 0.619723 0.692008 0.739451
O O16 0.500000 0.673913 0.000000
O O17 0.250000 0.250000 0.500000
O O18 0.152469 0.132778 0.550306
O O19 0.128168 0.000000 0.535464
#
# Coordination Sequence:
#
# PCOD9220718 Si02
#       8
#     8   8   8   8   8   8   8   8
#     4  11  22  39  61  84 122 158 202 247 296 360
#     4  11  22  38  60  86 117 161 203 250 292 352
#     4   9  18  36  62  88 114 146 200 258 296 345
#     4   9  18  36  65  92 115 149 198 254 303 345
#     4   9  19  37  59  85 116 154 199 243 295 359
#     4  12  24  40  58  84 127 164 194 242 304 358
#     4  12  24  39  59  92 124 158 203 247 297 361
#     4   9  19  38  61  90 122 152 199 254 297 349
#
# _framework density 18.315017999999998
#
# number of rings (size 3 to 8) (size 9 to 14) (size 15 to 20)
#    0.000    1.750    3.750    3.000    0.000    1.250 
#    0.000    0.625    0.000    1.125    0.000    0.000 
#    0.000    0.000    0.000    0.000    0.000    0.000 
#
# Total GULP energy -178616.211356 kJ/mol
# GULP energy per Si atom -5581.756605 kJ/mol
# Density = 1.827333 g / cm^3
# Si number density = 18.315018 Si / 1000 Ang^3
#
#
#
# Elastic Constant Matrix: (Units=GPa)
#
#
# Indices 1 2 3 4 5 6 
#
# 1 50.3358 31.7311 19.2043 0.0000 5.2473 0.0000
# 2 31.7311 119.8228 45.1641 0.0000 -7.0115 0.0000
# 3 19.2043 45.1641 70.4533 0.0000 -16.5022 0.0000
# 4 0.0000 0.0000 0.0000 27.6246 0.0000 2.6695
# 5 5.2473 -7.0115 -16.5022 0.0000 25.4184 0.0000
# 6 0.0000 0.0000 0.0000 2.6695 0.0000 32.6007
#
#
#
# Elastic Compliance Matrix: (Units=1/GPa)
#
#
# Indices 1 2 3 4 5 6 
#
# 1 0.026895 -0.005305 -0.006573 0.000000 -0.011283 0.000000
# 2 -0.005305 0.012123 -0.006234 0.000000 0.000392 0.000000
# 3 -0.006573 -0.006234 0.023465 0.000000 0.014871 0.000000
# 4 0.000000 0.000000 0.000000 0.036488 0.000000 -0.002988
# 5 -0.011283 0.000392 0.014871 0.000000 0.051434 0.000000
# 6 0.000000 0.000000 0.000000 -0.002988 0.000000 0.030919
#
#
# Mechanical properties :
#
#
# Convention : Reuss Voigt Hill
#
# Bulk Modulus (GPa) = 38.08145 48.09009 43.08577
# Shear Modulus (GPa) = 22.09462 26.76290 24.42876
#
# Velocity S-wave (km/s) = 3.47705 3.82678 3.65610
# Velocity P-wave (km/s) = 6.07926 6.77052 6.43418
#
# Compressibility (1/GPa) = 0.02625951
#
# Stress axis : x y z
#
# Youngs Moduli (GPa) = 37.18219 82.48779 42.61698
#
# Poissons Ratio (x) = 0.43758 0.28012
# Poissons Ratio (y) = 0.19724 0.26566
# Poissons Ratio (z) = 0.24440 0.51420
#
# Static dielectric constant tensor:
#      x y z
#    x 1.636210 0.000000 -0.001370 
#    y 0.000000 1.625390 0.000000 
#    z -0.001370 0.000000 1.603460 
# 
# From -- ./inp_files/226850.got.cif
#   From: 2010.05.17/outbox.cif.g08.bks.cpg/sg12_114_cif.got.tgz:226850.got - 2010.06.03 13:09:07.
