data_PCOD9220378
_publ_section_title
;
Structure prediction by ZEFSAII (Michael W. Deem and Ramdas Pophale) SiO2 
 PCOD9220378
Probable space group: C 2/M
;
_chemical_formula_sum "Si O2"
_cell_formula_units_Z 56
_cell_length_a 23.684600
_cell_length_b 27.238181
_cell_length_c 10.072696
_cell_angle_alpha 90.000000
_cell_angle_beta 153.615938
_cell_angle_gamma 90.000000
_cell_volume 2887.687897
_symmetry_space_group_name_H-M "C 2/M"
_symmetry_group_IT_number 12
_symmetry_cell_setting 'monoclinic'
loop_
_space_group_symop_operation_xyz
x,y,z
-x,y,-z
-x,-y,-z
x,-y,z
1/2+x,1/2+y,z
1/2-x,1/2+y,-z
1/2-x,1/2-y,-z
1/2+x,1/2-y,z
loop_
_atom_site_type_symbol
_atom_site_label
_atom_site_fract_x
_atom_site_fract_y
_atom_site_fract_z
Si Si1 0.458797 0.000000 0.693684
Si Si2 0.261325 0.334086 0.775024
Si Si3 0.843518 0.339259 0.881776
Si Si4 0.877852 0.273102 0.715002
Si Si5 0.291958 0.000000 0.609531
Si Si6 0.651156 0.394471 0.304676
Si Si7 0.944252 0.398262 0.528817
Si Si8 0.366898 0.247481 0.143812
O O1 0.425024 0.046631 0.534323
O O2 0.374649 0.000000 0.649178
O O3 0.605515 0.000000 0.053747
O O4 0.157243 0.294684 0.500451
O O5 0.307992 0.366442 0.747066
O O6 0.183842 0.367520 0.714762
O O7 0.366558 0.299351 0.063514
O O8 0.900280 0.315689 0.868779
O O9 0.713385 0.363736 0.557695
O O10 0.838362 0.296675 0.980995
O O11 0.944193 0.378531 0.142095
O O12 0.750000 0.250000 0.500000
O O13 0.000000 0.239260 0.000000
O O14 0.210584 0.949502 0.436426
O O15 0.500000 0.396411 0.000000
O O16 0.000000 0.393744 0.500000
O O17 0.500000 0.239315 0.500000
O O18 0.250000 0.250000 0.000000
#
# Coordination Sequence:
#
# PCOD9220378 Si02
#       8
#     4   8   8   8   4   8   8   8
#     4  11  23  40  72 102 127 161 226 274 348 399
#     4  11  24  43  64  95 127 174 225 270 336 387
#     4  11  23  41  64  96 123 171 226 268 332 387
#     4  11  22  36  63  86 126 165 213 280 324 381
#     4  11  21  44  72  98 131 169 204 288 348 403
#     4  11  25  41  70  98 133 168 214 284 338 406
#     4  12  23  43  68  96 132 171 220 278 331 397
#     4  12  27  44  63  90 136 188 227 269 319 397
#
# _framework density 19.392676999999999
#
# number of rings (size 3 to 8) (size 9 to 14) (size 15 to 20)
#    0.000    0.714    5.714    2.571    2.000    2.286 
#    0.000    0.000    0.000    0.000    0.000    3.000 
#    0.000    0.000    0.000    0.000    0.000    0.000 
#
# Total GULP energy -156350.540753 kJ/mol
# GULP energy per Si atom -5583.947884 kJ/mol
# Density = 1.934854 g / cm^3
# Si number density = 19.392677 Si / 1000 Ang^3
#
#
#
# Elastic Constant Matrix: (Units=GPa)
#
#
# Indices 1 2 3 4 5 6 
#
# 1 89.0781 43.9172 39.6167 0.0000 3.6449 0.0000
# 2 43.9172 132.8876 51.6205 0.0000 -1.3607 0.0000
# 3 39.6167 51.6205 126.1286 0.0000 13.1245 0.0000
# 4 0.0000 0.0000 0.0000 20.7077 0.0000 4.8725
# 5 3.6449 -1.3607 13.1245 0.0000 33.7489 0.0000
# 6 0.0000 0.0000 0.0000 4.8725 0.0000 20.9307
#
#
#
# Elastic Compliance Matrix: (Units=1/GPa)
#
#
# Indices 1 2 3 4 5 6 
#
# 1 0.014342 -0.003587 -0.002981 0.000000 -0.000534 0.000000
# 2 -0.003587 0.009958 -0.003159 0.000000 0.002017 0.000000
# 3 -0.002981 -0.003159 0.010565 0.000000 -0.003914 0.000000
# 4 0.000000 0.000000 0.000000 0.051090 0.000000 -0.011893
# 5 -0.000534 0.002017 -0.003914 0.000000 0.031292 0.000000
# 6 0.000000 0.000000 0.000000 -0.011893 0.000000 0.050545
#
#
# Mechanical properties :
#
#
# Convention : Reuss Voigt Hill
#
# Bulk Modulus (GPa) = 64.88834 68.71146 66.79990
# Shear Modulus (GPa) = 25.98965 29.27345 27.63155
#
# Velocity S-wave (km/s) = 3.66482 3.88946 3.77881
# Velocity P-wave (km/s) = 7.17222 7.46184 7.31846
#
# Compressibility (1/GPa) = 0.01541109
#
# Stress axis : x y z
#
# Youngs Moduli (GPa) = 69.72309 100.41740 94.65355
#
# Poissons Ratio (x) = 0.36024 0.28217
# Poissons Ratio (y) = 0.25012 0.29899
# Poissons Ratio (z) = 0.20785 0.31720
#
# Static dielectric constant tensor:
#      x y z
#    x 1.736560 0.000000 0.084870 
#    y 0.000000 1.715060 0.000000 
#    z 0.084870 0.000000 1.832820 
# 
# From -- ./inp_files/91685.got.cif
#   From: 2010.05.17/outbox.cif.g08.bks.cpg/sg12_46_cif.got.tgz:91685.got - 2010.06.03 13:09:07.
