data_PCOD9220313
_publ_section_title
;
Structure prediction by ZEFSAII (Michael W. Deem and Ramdas Pophale) SiO2 
 PCOD9220313
Probable space group: C 2/M
;
_chemical_formula_sum "Si O2"
_cell_formula_units_Z 48
_cell_length_a 11.966948
_cell_length_b 19.334484
_cell_length_c 13.571651
_cell_angle_alpha 90.000000
_cell_angle_beta 135.347122
_cell_angle_gamma 90.000000
_cell_volume 2206.919697
_symmetry_space_group_name_H-M "C 2/M"
_symmetry_group_IT_number 12
_symmetry_cell_setting 'monoclinic'
loop_
_space_group_symop_operation_xyz
x,y,z
-x,y,-z
-x,-y,-z
x,-y,z
1/2+x,1/2+y,z
1/2-x,1/2+y,-z
1/2-x,1/2-y,-z
1/2+x,1/2-y,z
loop_
_atom_site_type_symbol
_atom_site_label
_atom_site_fract_x
_atom_site_fract_y
_atom_site_fract_z
Si Si1 0.471360 0.418010 0.868789
Si Si2 0.765592 0.612666 0.906649
Si Si3 0.894106 0.578057 0.783331
Si Si4 0.847167 0.337957 0.346004
Si Si5 0.353027 0.755569 0.162079
Si Si6 0.206012 0.280793 0.366185
O O1 0.446338 0.500000 0.858176
O O2 0.620738 0.405791 0.889296
O O3 0.309040 0.382472 0.731336
O O4 0.500000 0.393076 0.000000
O O5 0.797128 0.572424 0.825202
O O6 0.720812 0.687713 0.834672
O O7 0.930180 0.604986 0.071711
O O8 0.907919 0.500000 0.749907
O O9 0.812540 0.637084 0.663871
O O10 0.855490 0.322597 0.234118
O O11 0.825849 0.260341 0.372976
O O12 0.000000 0.366800 0.500000
O O13 0.532047 0.749620 0.237910
O O14 0.250000 0.750000 0.000000
O O15 0.250000 0.250000 0.500000
#
# Coordination Sequence:
#
# PCOD9220313 Si02
#       6
#     8   8   8   8   8   8
#     4  11  25  43  68 103 144 189 241 298 358 432
#     4  11  21  41  72 105 143 183 236 302 359 424
#     4  11  24  42  70 107 146 183 233 300 372 433
#     4  12  26  44  67 100 142 185 239 297 360 429
#     4  12  23  40  70 102 134 182 240 296 350 418
#     4  12  25  43  69 101 141 187 234 296 356 423
#
# _framework density 21.749773000000001
#
# number of rings (size 3 to 8) (size 9 to 14) (size 15 to 20)
#    0.000    0.500    6.667    3.000    0.000    0.333 
#    0.000    0.833    0.000    1.500    0.000    0.000 
#    0.000    0.000    0.000    0.000    0.000    0.000 
#
# Total GULP energy -133736.904690 kJ/mol
# GULP energy per Si atom -5572.371029 kJ/mol
# Density = 2.170027 g / cm^3
# Si number density = 21.749773 Si / 1000 Ang^3
#
#
#
# Elastic Constant Matrix: (Units=GPa)
#
#
# Indices 1 2 3 4 5 6 
#
# 1 112.4824 22.6466 61.3623 0.0000 7.9292 0.0000
# 2 22.6466 97.2161 52.8195 0.0000 -1.3962 0.0000
# 3 61.3623 52.8195 154.1399 0.0000 10.4905 0.0000
# 4 0.0000 0.0000 0.0000 9.7672 0.0000 -10.1868
# 5 7.9292 -1.3962 10.4905 0.0000 40.5125 0.0000
# 6 0.0000 0.0000 0.0000 -10.1868 0.0000 20.6353
#
#
#
# Elastic Compliance Matrix: (Units=1/GPa)
#
#
# Indices 1 2 3 4 5 6 
#
# 1 0.011410 -0.000304 -0.004362 0.000000 -0.001114 0.000000
# 2 -0.000304 0.012748 -0.004358 0.000000 0.001627 0.000000
# 3 -0.004362 -0.004358 0.009843 0.000000 -0.001845 0.000000
# 4 0.000000 0.000000 0.000000 0.211044 0.000000 0.104184
# 5 -0.001114 0.001627 -0.001845 0.000000 0.025436 0.000000
# 6 0.000000 0.000000 0.000000 0.104184 0.000000 0.099892
#
#
# Mechanical properties :
#
#
# Convention : Reuss Voigt Hill
#
# Bulk Modulus (GPa) = 62.68549 70.83280 66.75914
# Shear Modulus (GPa) = 12.69874 29.31700 21.00787
#
# Velocity S-wave (km/s) = 2.41893 3.67539 3.11125
# Velocity P-wave (km/s) = 6.05685 7.11682 6.60812
#
# Compressibility (1/GPa) = 0.01595266
#
# Stress axis : x y z
#
# Youngs Moduli (GPa) = 87.64484 78.44061 101.59228
#
# Poissons Ratio (x) = 0.02383 0.44317
# Poissons Ratio (y) = 0.02663 0.44278
# Poissons Ratio (z) = 0.38232 0.34187
#
# Static dielectric constant tensor:
#      x y z
#    x 1.999410 0.000000 -0.181000 
#    y 0.000000 2.119210 0.000000 
#    z -0.181000 0.000000 1.896980 
# 
# From -- ./inp_files/207991.got.cif
#   From: 2010.05.17/outbox.cif.g08.bks.cpg/sg12_104_cif.got.tgz:207991.got - 2010.06.03 13:09:07.
