data_PCOD9220509
_publ_section_title
;
Structure prediction by ZEFSAII (Michael W. Deem and Ramdas Pophale) SiO2 
 PCOD9220509
Probable space group: C 2/M
;
_chemical_formula_sum "Si O2"
_cell_formula_units_Z 56
_cell_length_a 19.384631
_cell_length_b 7.682296
_cell_length_c 30.785652
_cell_angle_alpha 90.000000
_cell_angle_beta 38.344401
_cell_angle_gamma 90.000000
_cell_volume 2844.196657
_symmetry_space_group_name_H-M "C 2/M"
_symmetry_group_IT_number 12
_symmetry_cell_setting 'monoclinic'
loop_
_space_group_symop_operation_xyz
x,y,z
-x,y,-z
-x,-y,-z
x,-y,z
1/2+x,1/2+y,z
1/2-x,1/2+y,-z
1/2-x,1/2-y,-z
1/2+x,1/2-y,z
loop_
_atom_site_type_symbol
_atom_site_label
_atom_site_fract_x
_atom_site_fract_y
_atom_site_fract_z
Si Si1 0.023708 0.291118 0.351793
Si Si2 0.326958 0.209005 0.503697
Si Si3 0.121754 0.701086 0.059128
Si Si4 0.224615 0.786507 0.778941
Si Si5 0.941860 0.789588 0.214994
Si Si6 0.371267 0.289635 0.344229
Si Si7 0.456586 0.700957 0.066371
O O1 0.030766 0.500000 0.353169
O O2 0.149006 0.224908 0.286055
O O3 0.948293 0.224822 0.429392
O O4 0.955469 0.255456 0.341474
O O5 0.250000 0.250000 0.500000
O O6 0.252408 0.273112 0.580743
O O7 0.335607 0.000000 0.503801
O O8 0.113605 0.500000 0.051600
O O9 0.053222 0.797365 0.055106
O O10 0.056699 0.731667 0.136343
O O11 0.250000 0.750000 0.000000
O O12 0.154999 0.736693 0.770657
O O13 0.152495 0.724345 0.855888
O O14 0.224973 0.000000 0.780163
O O15 0.915367 0.725480 0.276284
O O16 0.943945 0.000000 0.214888
O O17 0.365880 0.500000 0.344694
O O18 0.428125 0.500000 0.070478
O O19 0.500000 0.781141 0.000000
#
# Coordination Sequence:
#
# PCOD9220509 Si02
#       7
#     8   8   8   8   8   8   8
#     4   9  16  27  45  68  93 123 160 198 235 284
#     4   8  14  25  41  63  91 121 154 193 238 282
#     4  11  22  36  54  75 100 129 163 201 241 288
#     4   8  15  29  47  66  91 123 156 190 232 280
#     4   9  18  34  51  67  93 127 159 194 241 291
#     4   9  17  29  46  68  93 122 157 199 242 281
#     4   9  18  34  54  74  99 131 163 198 244 293
#
# _framework density 19.689215000000001
#
# number of rings (size 3 to 8) (size 9 to 14) (size 15 to 20)
#    0.000    3.000    0.000    2.143    0.000    2.000 
#    0.000    5.000    0.000    4.286    0.000    0.000 
#    0.000   16.000    0.000    0.000    0.000    0.000 
#
# Total GULP energy -155986.629945 kJ/mol
# GULP energy per Si atom -5570.951069 kJ/mol
# Density = 1.964440 g / cm^3
# Si number density = 19.689215 Si / 1000 Ang^3
#
#
#
# Elastic Constant Matrix: (Units=GPa)
#
#
# Indices 1 2 3 4 5 6 
#
# 1 48.9617 -5.3535 88.4643 -0.0028 -6.6651 0.0275
# 2 -5.3535 39.0006 1.0331 0.0054 -1.5927 -0.0077
# 3 88.4643 1.0331 232.9819 -0.0041 -14.4916 0.0013
# 4 -0.0028 0.0054 -0.0041 10.5430 -0.0024 -1.0918
# 5 -6.6651 -1.5927 -14.4916 -0.0024 33.8762 0.0021
# 6 0.0275 -0.0077 0.0013 -1.0918 0.0021 12.5624
#
#
#
# Elastic Compliance Matrix: (Units=1/GPa)
#
#
# Indices 1 2 3 4 5 6 
#
# 1 0.069127 0.010300 -0.026112 -0.000011 0.002915 -0.000144
# 2 0.010300 0.027225 -0.003930 -0.000013 0.001625 -0.000007
# 3 -0.026112 -0.003930 0.014273 0.000006 0.000783 0.000054
# 4 -0.000011 -0.000013 0.000006 0.095711 0.000006 0.008318
# 5 0.002915 0.001625 0.000783 0.000006 0.030504 -0.000010
# 6 -0.000144 -0.000007 0.000054 0.008318 -0.000010 0.080326
#
#
# Mechanical properties :
#
#
# Convention : Reuss Voigt Hill
#
# Bulk Modulus (GPa) = 14.05703 54.35912 34.20808
# Shear Modulus (GPa) = 13.14531 27.18304 20.16417
#
# Velocity S-wave (km/s) = 2.58668 3.71968 3.20366
# Velocity P-wave (km/s) = 4.00951 6.79092 5.57641
#
# Compressibility (1/GPa) = 0.07113878
#
# Stress axis : x y z
#
# Youngs Moduli (GPa) = 14.46623 36.73109 70.06131
#
# Poissons Ratio (x) = -0.37831 1.82944
# Poissons Ratio (y) = -0.14900 0.27537
# Poissons Ratio (z) = 0.37774 0.14437
#
# Static dielectric constant tensor:
#      x y z
#    x 1.663010 -0.000010 0.002780 
#    y -0.000010 1.731260 0.000010 
#    z 0.002780 0.000010 1.743970 
# 
# From -- ./inp_files/377677.got.cif
#   From: 2010.05.17/outbox.cif.g08.bks.cpg/sg12_189_cif.got.tgz:377677.got - 2010.06.03 13:09:07.
