data_PCOD9220295
_publ_section_title
;
Structure prediction by ZEFSAII (Michael W. Deem and Ramdas Pophale) SiO2 
 PCOD9220295
Probable space group: C 2/M
;
_chemical_formula_sum "Si O2"
_cell_formula_units_Z 58
_cell_length_a 19.072387
_cell_length_b 15.162292
_cell_length_c 15.187345
_cell_angle_alpha 90.000000
_cell_angle_beta 143.700942
_cell_angle_gamma 90.000000
_cell_volume 2600.000428
_symmetry_space_group_name_H-M "C 2/M"
_symmetry_group_IT_number 12
_symmetry_cell_setting 'monoclinic'
loop_
_space_group_symop_operation_xyz
x,y,z
-x,y,-z
-x,-y,-z
x,-y,z
1/2+x,1/2+y,z
1/2-x,1/2+y,-z
1/2-x,1/2-y,-z
1/2+x,1/2-y,z
loop_
_atom_site_type_symbol
_atom_site_label
_atom_site_fract_x
_atom_site_fract_y
_atom_site_fract_z
Si Si1 0.234524 0.898772 0.931242
Si Si2 0.500131 0.318741 0.233845
Si Si3 0.074095 0.296355 0.473118
Si Si4 0.757643 0.603701 0.483571
Si Si5 0.000000 0.500000 0.000000
Si Si6 0.751861 0.736306 0.788333
Si Si7 0.921825 0.669030 0.809924
Si Si8 0.157798 0.398780 0.780382
O O1 0.244779 0.834391 0.859275
O O2 0.116278 0.875776 0.866908
O O3 0.233103 0.000000 0.899651
O O4 0.336002 0.887560 0.107526
O O5 0.520760 0.268037 0.346299
O O6 0.618589 0.375748 0.341023
O O7 0.497893 0.243833 0.155566
O O8 0.183072 0.348179 0.539196
O O9 0.130088 0.239513 0.608247
O O10 0.971045 0.368087 0.381268
O O11 0.779900 0.500000 0.504410
O O12 0.822484 0.644035 0.635604
O O13 0.019621 0.578968 0.095407
O O14 0.750993 0.833227 0.829707
O O15 0.854967 0.711977 0.825475
O O16 0.181254 0.500000 0.783809
#
# Coordination Sequence:
#
# PCOD9220295 Si02
#       8
#     8   8   8   8   2   8   8   8
#     4  11  27  47  70 103 143 196 240 288 365 442
#     4  11  22  46  69  95 139 193 234 283 365 434
#     4  11  22  41  70 101 139 181 238 299 363 419
#     4  11  21  41  69 101 137 185 236 288 358 431
#     4  12  28  44  72 116 140 190 248 300 364 422
#     4  12  24  45  70 105 141 184 233 307 367 415
#     4  11  25  44  67 104 146 182 235 302 355 423
#     4  11  26  46  69 101 143 187 241 293 361 444
#
# _framework density 22.307689
#
# number of rings (size 3 to 8) (size 9 to 14) (size 15 to 20)
#    0.000    0.828    4.828    2.483    2.897    2.759 
#    4.966    0.690    0.000    1.655    0.000    0.000 
#    0.000    0.000    0.000    0.000    0.000    0.000 
#
# Total GULP energy -162037.069855 kJ/mol
# GULP energy per Si atom -5587.485167 kJ/mol
# Density = 2.225692 g / cm^3
# Si number density = 22.307689 Si / 1000 Ang^3
#
#
#
# Elastic Constant Matrix: (Units=GPa)
#
#
# Indices 1 2 3 4 5 6 
#
# 1 85.4761 40.9093 40.9935 0.0000 -9.1303 0.0000
# 2 40.9093 122.7120 46.0610 0.0000 -12.9952 0.0000
# 3 40.9935 46.0610 103.3362 0.0000 -12.8518 0.0000
# 4 0.0000 0.0000 0.0000 40.5532 0.0000 -7.5547
# 5 -9.1303 -12.9952 -12.8518 0.0000 35.5150 0.0000
# 6 0.0000 0.0000 0.0000 -7.5547 0.0000 10.3292
#
#
#
# Elastic Compliance Matrix: (Units=1/GPa)
#
#
# Indices 1 2 3 4 5 6 
#
# 1 0.015619 -0.003380 -0.004549 0.000000 0.001133 0.000000
# 2 -0.003380 0.010669 -0.003181 0.000000 0.001884 0.000000
# 3 -0.004549 -0.003181 0.013203 0.000000 0.002445 0.000000
# 4 0.000000 0.000000 0.000000 0.028549 0.000000 0.020880
# 5 0.001133 0.001884 0.002445 0.000000 0.030022 0.000000
# 6 0.000000 0.000000 0.000000 0.020880 0.000000 0.112084
#
#
# Mechanical properties :
#
#
# Convention : Reuss Voigt Hill
#
# Bulk Modulus (GPa) = 57.89169 63.05020 60.47095
# Shear Modulus (GPa) = 20.99748 29.51687 25.25718
#
# Velocity S-wave (km/s) = 3.07134 3.64149 3.36850
# Velocity P-wave (km/s) = 6.21170 6.78276 6.50350
#
# Compressibility (1/GPa) = 0.01727364
#
# Stress axis : x y z
#
# Youngs Moduli (GPa) = 64.02345 93.72697 75.73777
#
# Poissons Ratio (x) = 0.31677 0.34452
# Poissons Ratio (y) = 0.21638 0.24090
# Poissons Ratio (z) = 0.29123 0.29811
#
# Static dielectric constant tensor:
#      x y z
#    x 1.883200 0.000000 0.012450 
#    y 0.000000 1.757570 0.000000 
#    z 0.012450 0.000000 1.891810 
# 
# From -- ./inp_files/289913.got.cif
#   From: 2010.05.17/outbox.cif.g08.bks.cpg/sg12_145_cif.got.tgz:289913.got - 2010.06.03 13:09:07.
