data_PCOD9220892
_publ_section_title
;
Structure prediction by ZEFSAII (Michael W. Deem and Ramdas Pophale) SiO2 
 PCOD9220892
Probable space group: C 2/M
;
_chemical_formula_sum "Si O2"
_cell_formula_units_Z 26
_cell_length_a 16.040006
_cell_length_b 7.535304
_cell_length_c 21.647130
_cell_angle_alpha 90.000000
_cell_angle_beta 26.235289
_cell_angle_gamma 90.000000
_cell_volume 1156.605560
_symmetry_space_group_name_H-M "C 2/M"
_symmetry_group_IT_number 12
_symmetry_cell_setting 'monoclinic'
loop_
_space_group_symop_operation_xyz
x,y,z
-x,y,-z
-x,-y,-z
x,-y,z
1/2+x,1/2+y,z
1/2-x,1/2+y,-z
1/2-x,1/2-y,-z
1/2+x,1/2-y,z
loop_
_atom_site_type_symbol
_atom_site_label
_atom_site_fract_x
_atom_site_fract_y
_atom_site_fract_z
Si Si1 0.954277 0.289012 0.335264
Si Si2 0.500000 0.500000 0.500000
Si Si3 0.711103 0.295306 0.676547
Si Si4 0.673259 0.284419 0.842898
O O1 0.975906 0.500000 0.318160
O O2 0.750000 0.250000 0.500000
O O3 0.949137 0.217878 0.268794
O O4 0.129179 0.221170 0.259633
O O5 0.372731 0.656888 0.551708
O O6 0.775772 0.500000 0.635151
O O7 0.654725 0.236697 0.783247
O O8 0.672669 0.500000 0.844450
O O9 0.500000 0.223343 0.000000
#
# Coordination Sequence:
#
# PCOD9220892 Si02
#       4
#     8   2   8   8
#     4  11  22  39  65  98 133 172 221 275 330 394
#     4  12  22  40  66  94 134 170 218 268 326 398
#     4  11  23  41  66  96 133 175 215 276 333 390
#     4   9  21  42  67  94 131 179 225 269 327 397
#
# _framework density 22.479572000000001
#
# number of rings (size 3 to 8) (size 9 to 14) (size 15 to 20)
#    0.000    1.538    1.538    3.231    0.000    3.692 
#    2.769    0.769    0.000    0.000    0.000    0.000 
#    0.000    0.000    0.000    0.000    0.000    0.000 
#
# Total GULP energy -72420.531541 kJ/mol
# GULP energy per Si atom -5570.810119 kJ/mol
# Density = 2.242841 g / cm^3
# Si number density = 22.479572 Si / 1000 Ang^3
#
#
#
# Elastic Constant Matrix: (Units=GPa)
#
#
# Indices 1 2 3 4 5 6 
#
# 1 207.6321 6.1245 98.1809 0.0002 30.2657 -0.0001
# 2 6.1245 122.8742 6.7963 0.0001 4.8670 0.0000
# 3 98.1809 6.7963 118.4612 -0.0006 -2.8984 0.0000
# 4 0.0002 0.0001 -0.0006 21.3554 -0.0002 -7.4197
# 5 30.2657 4.8670 -2.8984 -0.0002 13.7310 0.0001
# 6 -0.0001 0.0000 0.0000 -7.4197 0.0001 29.9189
#
#
#
# Elastic Compliance Matrix: (Units=1/GPa)
#
#
# Indices 1 2 3 4 5 6 
#
# 1 0.021263 0.002035 -0.019002 -0.000001 -0.051600 0.000000
# 2 0.002035 0.008485 -0.002369 0.000000 -0.007993 0.000000
# 3 -0.019002 -0.002369 0.025504 0.000001 0.048107 0.000000
# 4 -0.000001 0.000000 0.000001 0.051242 0.000004 0.012708
# 5 -0.051600 -0.007993 0.048107 0.000004 0.199552 0.000000
# 6 0.000000 0.000000 0.000000 0.012708 0.000000 0.036575
#
#
# Mechanical properties :
#
#
# Convention : Reuss Voigt Hill
#
# Bulk Modulus (GPa) = 60.31700 74.57454 67.44577
# Shear Modulus (GPa) = 12.92596 35.52544 24.22570
#
# Velocity S-wave (km/s) = 2.40054 3.97967 3.28636
# Velocity P-wave (km/s) = 5.87993 7.37315 6.66847
#
# Compressibility (1/GPa) = 0.01657907
#
# Stress axis : x y z
#
# Youngs Moduli (GPa) = 47.02987 117.86047 39.21020
#
# Poissons Ratio (x) = -0.23986 0.74508
# Poissons Ratio (y) = -0.09571 0.09289
# Poissons Ratio (z) = 0.89367 0.27921
#
# Static dielectric constant tensor:
#      x y z
#    x 1.857750 0.000000 0.012130 
#    y 0.000000 1.780760 0.000000 
#    z 0.012130 0.000000 1.840740 
# 
# From -- ./inp_files/81956.got.cif
#   From: 2010.05.17/outbox.cif.g08.bks.cpg/sg12_41_cif.got.tgz:81956.got - 2010.06.03 13:09:07.
