data_PCOD9220475
_publ_section_title
;
Structure prediction by ZEFSAII (Michael W. Deem and Ramdas Pophale) SiO2 
 PCOD9220475
Probable space group: C 2/M
;
_chemical_formula_sum "Si O2"
_cell_formula_units_Z 56
_cell_length_a 9.296421
_cell_length_b 17.093171
_cell_length_c 28.126885
_cell_angle_alpha 90.000000
_cell_angle_beta 139.304370
_cell_angle_gamma 90.000000
_cell_volume 2914.302856
_symmetry_space_group_name_H-M "C 2/M"
_symmetry_group_IT_number 12
_symmetry_cell_setting 'monoclinic'
loop_
_space_group_symop_operation_xyz
x,y,z
-x,y,-z
-x,-y,-z
x,-y,z
1/2+x,1/2+y,z
1/2-x,1/2+y,-z
1/2-x,1/2-y,-z
1/2+x,1/2-y,z
loop_
_atom_site_type_symbol
_atom_site_label
_atom_site_fract_x
_atom_site_fract_y
_atom_site_fract_z
Si Si1 0.298800 0.906527 0.305145
Si Si2 0.844707 0.161665 0.286356
Si Si3 0.558180 0.179700 0.744143
Si Si4 0.126940 0.094479 0.104495
Si Si5 0.304142 0.590356 0.180039
Si Si6 0.302208 0.094336 0.415508
Si Si7 0.328473 0.905187 0.050780
O O1 0.465159 0.873059 0.308637
O O2 0.349960 0.885117 0.372319
O O3 0.048460 0.877916 0.230189
O O4 0.294752 0.000000 0.301790
O O5 0.656473 0.178748 0.276904
O O6 0.881242 0.236141 0.261524
O O7 0.784967 0.094731 0.232789
O O8 0.071160 0.136233 0.368076
O O9 0.750698 0.141324 0.823986
O O10 0.246698 0.111651 0.084010
O O11 0.139721 0.000000 0.115447
O O12 0.870347 0.117453 0.033880
O O13 0.308929 0.500000 0.165884
O O14 0.075334 0.626076 0.103625
O O15 0.500000 0.116134 0.500000
O O16 0.273431 0.000000 0.410817
O O17 0.339688 0.000000 0.051171
#
# Coordination Sequence:
#
# PCOD9220475 Si02
#       7
#     8   8   8   8   8   8   8
#     4   9  19  34  56  84 113 143 182 230 276 327
#     4  11  22  35  55  81 111 149 189 224 270 333
#     4  12  23  37  53  78 115 152 193 234 272 325
#     4   9  17  30  54  83 109 142 187 239 285 327
#     4   9  16  32  56  80 107 141 184 232 282 336
#     4   9  19  40  67  92 117 142 172 216 272 332
#     4   8  14  28  53  83 108 138 185 237 286 334
#
# _framework density 19.215572999999999
#
# number of rings (size 3 to 8) (size 9 to 14) (size 15 to 20)
#    0.000    2.429    1.429    4.286    0.000    1.714 
#    0.000    5.000    0.000    6.000    0.000    0.000 
#    0.000    0.000    0.000    0.000    0.000    0.000 
#
# Total GULP energy -156094.108099 kJ/mol
# GULP energy per Si atom -5574.789575 kJ/mol
# Density = 1.917184 g / cm^3
# Si number density = 19.215573 Si / 1000 Ang^3
#
#
#
# Elastic Constant Matrix: (Units=GPa)
#
#
# Indices 1 2 3 4 5 6 
#
# 1 104.2062 23.7424 33.6725 0.0000 -1.1281 0.0000
# 2 23.7424 27.3877 37.2921 0.0000 -0.4573 0.0000
# 3 33.6725 37.2921 134.4967 -0.0001 9.3800 0.0000
# 4 0.0000 0.0000 -0.0001 18.3439 0.0000 1.9079
# 5 -1.1281 -0.4573 9.3800 0.0000 14.0264 0.0000
# 6 0.0000 0.0000 0.0000 1.9079 0.0000 34.0674
#
#
#
# Elastic Compliance Matrix: (Units=1/GPa)
#
#
# Indices 1 2 3 4 5 6 
#
# 1 0.011970 -0.009966 -0.000292 0.000000 0.000833 0.000000
# 2 -0.009966 0.069466 -0.017693 0.000000 0.013295 0.000000
# 3 -0.000292 -0.017693 0.013065 0.000000 -0.009338 0.000000
# 4 0.000000 0.000000 0.000000 0.054833 0.000000 -0.003071
# 5 0.000833 0.013295 -0.009338 0.000000 0.078039 0.000000
# 6 0.000000 0.000000 0.000000 -0.003071 0.000000 0.029526
#
#
# Mechanical properties :
#
#
# Convention : Reuss Voigt Hill
#
# Bulk Modulus (GPa) = 25.90692 50.61162 38.25927
# Shear Modulus (GPa) = 15.35312 24.71311 20.03311
#
# Velocity S-wave (km/s) = 2.82971 3.59011 3.23235
# Velocity P-wave (km/s) = 4.91812 6.60161 5.82104
#
# Compressibility (1/GPa) = 0.03859972
#
# Stress axis : x y z
#
# Youngs Moduli (GPa) = 83.54031 14.39563 76.53959
#
# Poissons Ratio (x) = 0.14347 0.02233
# Poissons Ratio (y) = 0.83256 1.35421
# Poissons Ratio (z) = 0.02437 0.25470
#
# Static dielectric constant tensor:
#      x y z
#    x 1.678240 0.000000 0.015950 
#    y 0.000000 1.794390 0.000000 
#    z 0.015950 0.000000 1.686090 
# 
# From -- ./inp_files/356749.got.cif
#   From: 2010.05.17/outbox.cif.g08.bks.cpg/sg12_179_cif.got.tgz:356749.got - 2010.06.03 13:09:07.
