data_PCOD9220400
_publ_section_title
;
Structure prediction by ZEFSAII (Michael W. Deem and Ramdas Pophale) SiO2 
 PCOD9220400
Probable space group: C 2/M
;
_chemical_formula_sum "Si O2"
_cell_formula_units_Z 56
_cell_length_a 18.610301
_cell_length_b 19.241379
_cell_length_c 7.600598
_cell_angle_alpha 90.000000
_cell_angle_beta 80.633289
_cell_angle_gamma 90.000000
_cell_volume 2685.393344
_symmetry_space_group_name_H-M "C 2/M"
_symmetry_group_IT_number 12
_symmetry_cell_setting 'monoclinic'
loop_
_space_group_symop_operation_xyz
x,y,z
-x,y,-z
-x,-y,-z
x,-y,z
1/2+x,1/2+y,z
1/2-x,1/2+y,-z
1/2-x,1/2-y,-z
1/2+x,1/2-y,z
loop_
_atom_site_type_symbol
_atom_site_label
_atom_site_fract_x
_atom_site_fract_y
_atom_site_fract_z
Si Si1 0.321796 0.219874 0.236712
Si Si2 0.328555 0.207782 0.652859
Si Si3 0.123073 0.922669 0.166770
Si Si4 0.716050 0.075948 0.810858
Si Si5 0.455447 0.293921 0.691079
Si Si6 0.766989 0.920217 0.382044
Si Si7 0.405177 0.351126 0.167373
O O1 0.343226 0.218766 0.436335
O O2 0.236533 0.239597 0.270740
O O3 0.331997 0.144232 0.150453
O O4 0.363114 0.281571 0.123133
O O5 0.400219 0.229293 0.731236
O O6 0.292164 0.131513 0.683408
O O7 0.209928 0.918636 0.107789
O O8 0.095347 0.862084 0.304170
O O9 0.105112 0.000000 0.237117
O O10 0.088850 0.905864 0.991594
O O11 0.745148 0.078587 0.596718
O O12 0.682538 0.000000 0.853515
O O13 0.500000 0.278566 0.500000
O O14 0.519015 0.320546 0.794818
O O15 0.846934 0.886549 0.323577
O O16 0.765970 0.000000 0.319437
#
# Coordination Sequence:
#
# PCOD9220400 Si02
#       7
#     8   8   8   8   8   8   8
#     4   9  16  33  55  80 103 136 182 229 267 313
#     4   9  17  32  56  81 107 135 183 233 261 313
#     4  11  24  38  51  77 115 146 178 223 269 325
#     4   9  17  32  55  78 107 140 178 219 263 317
#     4  12  22  37  56  78 105 149 186 218 269 325
#     4   9  18  35  60  85 109 144 183 224 275 326
#     4  11  22  33  55  80 110 143 178 226 272 321
#
# _framework density 20.853556999999999
#
# number of rings (size 3 to 8) (size 9 to 14) (size 15 to 20)
#    0.000    2.000    2.857    2.571    0.000    2.571 
#    0.000    0.000    0.000    1.286    0.000    0.000 
#    0.000    2.286    0.000    0.000    0.000    0.000 
#
# Total GULP energy -156159.020089 kJ/mol
# GULP energy per Si atom -5577.107860 kJ/mol
# Density = 2.080609 g / cm^3
# Si number density = 20.853557 Si / 1000 Ang^3
#
#
#
# Elastic Constant Matrix: (Units=GPa)
#
#
# Indices 1 2 3 4 5 6 
#
# 1 76.8112 47.8093 15.0604 0.0000 8.0970 0.0000
# 2 47.8093 146.0522 1.7151 0.0000 12.3695 0.0000
# 3 15.0604 1.7151 27.2921 0.0000 2.9045 0.0000
# 4 0.0000 0.0000 0.0000 10.1894 0.0000 4.4111
# 5 8.0970 12.3695 2.9045 0.0000 11.1967 0.0000
# 6 0.0000 0.0000 0.0000 4.4111 0.0000 26.5383
#
#
#
# Elastic Compliance Matrix: (Units=1/GPa)
#
#
# Indices 1 2 3 4 5 6 
#
# 1 0.018947 -0.005670 -0.009572 0.000000 -0.004955 0.000000
# 2 -0.005670 0.009255 0.003290 0.000000 -0.006978 0.000000
# 3 -0.009572 0.003290 0.042540 0.000000 -0.007748 0.000000
# 4 0.000000 0.000000 0.000000 0.105750 0.000000 -0.017577
# 5 -0.004955 -0.006978 -0.007748 0.000000 0.102613 0.000000
# 6 0.000000 0.000000 0.000000 -0.017577 0.000000 0.040603
#
#
# Mechanical properties :
#
#
# Convention : Reuss Voigt Hill
#
# Bulk Modulus (GPa) = 21.34995 42.14725 31.74860
# Shear Modulus (GPa) = 13.91878 21.95628 17.93753
#
# Velocity S-wave (km/s) = 2.58632 3.24833 2.93604
# Velocity P-wave (km/s) = 4.37938 5.85865 5.17217
#
# Compressibility (1/GPa) = 0.04683852
#
# Stress axis : x y z
#
# Youngs Moduli (GPa) = 52.77789 108.04600 23.50705
#
# Poissons Ratio (x) = 0.61265 0.22501
# Poissons Ratio (y) = 0.29926 -0.07734
# Poissons Ratio (z) = 0.50519 -0.35546
#
# Static dielectric constant tensor:
#      x y z
#    x 1.771000 0.000000 0.028580 
#    y 0.000000 1.747360 0.000000 
#    z 0.028580 0.000000 1.839210 
# 
# From -- ./inp_files/76814.got.cif
#   From: 2010.05.17/outbox.cif.g08.bks.cpg/sg12_39_cif.got.tgz:76814.got - 2010.06.03 13:09:07.
