data_PCOD9220876
_publ_section_title
;
Structure prediction by ZEFSAII (Michael W. Deem and Ramdas Pophale) SiO2 
 PCOD9220876
Probable space group: C 2/M
;
_chemical_formula_sum "Si O2"
_cell_formula_units_Z 56
_cell_length_a 9.701089
_cell_length_b 18.080666
_cell_length_c 16.955685
_cell_angle_alpha 90.000000
_cell_angle_beta 126.123036
_cell_angle_gamma 90.000000
_cell_volume 2402.308590
_symmetry_space_group_name_H-M "C 2/M"
_symmetry_group_IT_number 12
_symmetry_cell_setting 'monoclinic'
loop_
_space_group_symop_operation_xyz
x,y,z
-x,y,-z
-x,-y,-z
x,-y,z
1/2+x,1/2+y,z
1/2-x,1/2+y,-z
1/2-x,1/2-y,-z
1/2+x,1/2-y,z
loop_
_atom_site_type_symbol
_atom_site_label
_atom_site_fract_x
_atom_site_fract_y
_atom_site_fract_z
Si Si1 0.634221 0.680112 0.481825
Si Si2 0.195739 0.080691 0.044449
Si Si3 0.796063 0.585284 0.411911
Si Si4 0.295795 0.224080 0.781343
Si Si5 0.845608 0.628905 0.257919
Si Si6 0.334730 0.302264 0.093299
Si Si7 0.709566 0.082764 0.334191
O O1 0.500000 0.713163 0.500000
O O2 0.750000 0.750000 0.500000
O O3 0.651151 0.636185 0.404232
O O4 0.690713 0.611721 0.556761
O O5 0.264690 0.126361 0.142981
O O6 0.281139 0.000000 0.071607
O O7 0.188312 0.119260 0.957323
O O8 0.000000 0.072381 0.000000
O O9 0.778239 0.500000 0.430488
O O10 0.764849 0.591896 0.307365
O O11 0.000000 0.604798 0.500000
O O12 0.146228 0.284358 0.715878
O O13 0.472713 0.270112 0.829615
O O14 0.271736 0.200494 0.863032
O O15 0.280706 0.150589 0.724453
O O16 0.018321 0.586066 0.301463
O O17 0.250000 0.250000 0.000000
O O18 0.754967 0.000000 0.323081
#
# Coordination Sequence:
#
# PCOD9220876 Si02
#       7
#     8   8   8   8   8   8   8
#     4  12  28  49  76 107 149 194 246 303 368 444
#     4  11  22  39  65 102 145 187 241 309 369 425
#     4  11  23  43  73 105 142 190 241 295 363 439
#     4  12  25  42  73 104 141 193 251 300 362 444
#     4  12  23  44  73 107 146 193 248 294 368 447
#     4  12  22  43  67  99 141 194 248 306 365 439
#     4  12  27  47  74 111 153 194 241 309 375 435
#
# _framework density 23.310911000000001
#
# number of rings (size 3 to 8) (size 9 to 14) (size 15 to 20)
#    0.000    0.286    5.714    3.429    2.000    2.857 
#    0.000    0.000    0.000    3.429    0.000    0.000 
#    0.000    0.000    0.000    0.000    0.000    0.000 
#
# Total GULP energy -156071.327397 kJ/mol
# GULP energy per Si atom -5573.975978 kJ/mol
# Density = 2.325785 g / cm^3
# Si number density = 23.310911 Si / 1000 Ang^3
#
#
#
# Elastic Constant Matrix: (Units=GPa)
#
#
# Indices 1 2 3 4 5 6 
#
# 1 88.7221 27.4057 7.4603 0.0000 -26.3324 0.0000
# 2 27.4057 170.3877 13.5630 0.0000 -21.9766 0.0000
# 3 7.4603 13.5630 51.1117 0.0000 -20.9634 0.0000
# 4 0.0000 0.0000 0.0000 32.4762 0.0000 -24.5612
# 5 -26.3324 -21.9766 -20.9634 0.0000 41.9874 0.0000
# 6 0.0000 0.0000 0.0000 -24.5612 0.0000 -1.2516
#
#
#
# Elastic Compliance Matrix: (Units=1/GPa)
#
#
# Indices 1 2 3 4 5 6 
#
# 1 0.014249 -0.001256 0.002074 0.000000 0.009315 0.000000
# 2 -0.001256 0.006411 -0.000584 0.000000 0.002276 0.000000
# 3 0.002074 -0.000584 0.024931 0.000000 0.013442 0.000000
# 4 0.000000 0.000000 0.000000 0.001944 0.000000 -0.038145
# 5 0.009315 0.002276 0.013442 0.000000 0.037561 0.000000
# 6 0.000000 0.000000 0.000000 -0.038145 0.000000 -0.050437
#
#
# Mechanical properties :
#
#
# Convention : Reuss Voigt Hill
#
# Bulk Modulus (GPa) = 21.71156 45.23109 33.47132
# Shear Modulus (GPa) = 100.92093 32.09524 66.50809
#
# Velocity S-wave (km/s) = 6.58691 3.71460 5.34723
# Velocity P-wave (km/s) = 8.19659 6.15168 7.24663
#
# Compressibility (1/GPa) = 0.04605841
#
# Stress axis : x y z
#
# Youngs Moduli (GPa) = 70.17969 155.98088 40.11145
#
# Poissons Ratio (x) = 0.19584 -0.08318
# Poissons Ratio (y) = 0.08811 0.02344
# Poissons Ratio (z) = -0.14553 0.09114
#
# Static dielectric constant tensor:
#      x y z
#    x 1.965740 0.000000 0.050320 
#    y 0.000000 1.991100 0.000000 
#    z 0.050320 0.000000 1.931630 
# 
# From -- ./inp_files/257164.got.cif
#   From: 2010.05.17/outbox.cif.g08.bks.cpg/sg12_129_cif.got.tgz:257164.got - 2010.06.03 13:09:07.
