data_PCOD9220745
_publ_section_title
;
Structure prediction by ZEFSAII (Michael W. Deem and Ramdas Pophale) SiO2 
 PCOD9220745
Probable space group: C 2/M
;
_chemical_formula_sum "Si O2"
_cell_formula_units_Z 56
_cell_length_a 28.427411
_cell_length_b 7.699100
_cell_length_c 19.127476
_cell_angle_alpha 90.000000
_cell_angle_beta 37.025112
_cell_angle_gamma 90.000000
_cell_volume 2520.869952
_symmetry_space_group_name_H-M "C 2/M"
_symmetry_group_IT_number 12
_symmetry_cell_setting 'monoclinic'
loop_
_space_group_symop_operation_xyz
x,y,z
-x,y,-z
-x,-y,-z
x,-y,z
1/2+x,1/2+y,z
1/2-x,1/2+y,-z
1/2-x,1/2-y,-z
1/2+x,1/2-y,z
loop_
_atom_site_type_symbol
_atom_site_label
_atom_site_fract_x
_atom_site_fract_y
_atom_site_fract_z
Si Si1 0.498677 0.788654 0.702170
Si Si2 0.734878 0.800472 0.294050
Si Si3 0.330155 0.208241 0.942565
Si Si4 0.378640 0.794565 0.036529
Si Si5 0.720118 0.792539 0.612838
Si Si6 0.546199 0.788036 0.801968
Si Si7 0.566921 0.786575 0.474634
O O1 0.408069 0.732962 0.809779
O O2 0.534306 0.737909 0.734708
O O3 0.542583 0.729400 0.581148
O O4 0.500312 0.000000 0.699284
O O5 0.817046 0.725637 0.171261
O O6 0.729681 0.785888 0.383934
O O7 0.655362 0.725531 0.355545
O O8 0.738131 0.000000 0.269484
O O9 0.334188 0.000000 0.940611
O O10 0.250000 0.250000 0.000000
O O11 0.339525 0.273830 0.011111
O O12 0.388590 0.000000 0.015135
O O13 0.467879 0.728338 0.935299
O O14 0.750000 0.750000 0.500000
O O15 0.630735 0.727768 0.726340
O O16 0.721782 0.000000 0.619414
O O17 0.549398 0.000000 0.800863
O O18 0.500000 0.733033 0.500000
O O19 0.568596 0.000000 0.471935
#
# Coordination Sequence:
#
# PCOD9220745 Si02
#       7
#     8   8   8   8   8   8   8
#     4   8  14  28  49  73 100 131 177 228 264 308
#     4  11  23  37  56  85 116 146 185 237 289 335
#     4   9  18  30  51  77 103 137 177 225 275 325
#     4   9  19  37  56  78 110 149 191 232 277 331
#     4  11  22  38  62  88 114 147 188 233 279 333
#     4   8  16  33  57  80 104 145 192 228 267 330
#     4   9  18  31  50  77 106 141 187 233 273 324
#
# _framework density 22.214552000000001
#
# number of rings (size 3 to 8) (size 9 to 14) (size 15 to 20)
#    0.000    2.714    0.000    3.429    2.000    3.429 
#    0.000    4.286    0.000    8.571    0.000    0.000 
#    0.000    0.000    0.000    0.000    0.000    0.000 
#
# Total GULP energy -156254.446768 kJ/mol
# GULP energy per Si atom -5580.515956 kJ/mol
# Density = 2.216399 g / cm^3
# Si number density = 22.214552 Si / 1000 Ang^3
#
#
#
# Elastic Constant Matrix: (Units=GPa)
#
#
# Indices 1 2 3 4 5 6 
#
# 1 94.6125 -4.7202 41.3693 -0.0065 -32.5003 0.0025
# 2 -4.7202 35.0523 -1.6678 -0.0230 -4.9343 0.0023
# 3 41.3693 -1.6678 104.6414 -0.0157 -10.0927 0.0064
# 4 -0.0065 -0.0230 -0.0157 14.1183 0.0003 1.2743
# 5 -32.5003 -4.9343 -10.0927 0.0003 32.4893 0.0054
# 6 0.0025 0.0023 0.0064 1.2743 0.0054 16.6215
#
#
#
# Elastic Compliance Matrix: (Units=1/GPa)
#
#
# Indices 1 2 3 4 5 6 
#
# 1 0.019893 0.005043 -0.005970 0.000011 0.018811 -0.000008
# 2 0.005043 0.030516 -0.000591 0.000052 0.009496 -0.000012
# 3 -0.005970 -0.000591 0.011672 0.000010 -0.002436 -0.000003
# 4 0.000011 0.000052 0.000010 0.071324 0.000022 -0.005468
# 5 0.018811 0.009496 -0.002436 0.000022 0.050283 -0.000021
# 6 -0.000008 -0.000012 -0.000003 -0.005468 -0.000021 0.060582
#
#
# Mechanical properties :
#
#
# Convention : Reuss Voigt Hill
#
# Bulk Modulus (GPa) = 16.93624 33.80764 25.37194
# Shear Modulus (GPa) = 18.72735 25.93414 22.33075
#
# Velocity S-wave (km/s) = 2.90663 3.42049 3.17398
# Velocity P-wave (km/s) = 4.34801 5.55440 4.98781
#
# Compressibility (1/GPa) = 0.05904499
#
# Stress axis : x y z
#
# Youngs Moduli (GPa) = 50.26834 32.76919 85.67326
#
# Poissons Ratio (x) = -0.16525 0.51146
# Poissons Ratio (y) = -0.25350 0.05067
# Poissons Ratio (z) = 0.30010 0.01938
#
# Static dielectric constant tensor:
#      x y z
#    x 1.803520 0.000000 -0.019430 
#    y 0.000000 1.848500 0.000010 
#    z -0.019430 0.000010 1.838810 
# 
# From -- ./inp_files/292445.got.cif
#   From: 2010.05.17/outbox.cif.g08.bks.cpg/sg12_147_cif.got.tgz:292445.got - 2010.06.03 13:09:07.
