data_PCOD9220131
_publ_section_title
;
Structure prediction by ZEFSAII (Michael W. Deem and Ramdas Pophale) SiO2 
 PCOD9220131
Probable space group: C 2/M
;
_chemical_formula_sum "Si O2"
_cell_formula_units_Z 40
_cell_length_a 13.299227
_cell_length_b 27.299086
_cell_length_c 12.958910
_cell_angle_alpha 90.000000
_cell_angle_beta 21.737361
_cell_angle_gamma 90.000000
_cell_volume 1742.441906
_symmetry_space_group_name_H-M "C 2/M"
_symmetry_group_IT_number 12
_symmetry_cell_setting 'monoclinic'
loop_
_space_group_symop_operation_xyz
x,y,z
-x,y,-z
-x,-y,-z
x,-y,z
1/2+x,1/2+y,z
1/2-x,1/2+y,-z
1/2-x,1/2-y,-z
1/2+x,1/2-y,z
loop_
_atom_site_type_symbol
_atom_site_label
_atom_site_fract_x
_atom_site_fract_y
_atom_site_fract_z
Si Si1 0.486691 0.556389 0.708578
Si Si2 0.455871 0.115967 0.163505
Si Si3 0.107945 0.816554 0.792152
Si Si4 0.769936 0.071997 0.298175
Si Si5 0.077617 0.701975 0.194154
O O1 0.459886 0.500000 0.701100
O O2 0.640269 0.557090 0.672903
O O3 0.676124 0.588587 0.453966
O O4 0.193842 0.582407 0.986397
O O5 0.460234 0.169129 0.214101
O O6 0.500000 0.120622 0.000000
O O7 0.240953 0.868704 0.688535
O O8 0.332658 0.788991 0.508865
O O9 0.000000 0.791274 0.000000
O O10 0.825489 0.829175 0.005521
O O11 0.500000 0.054426 0.500000
O O12 0.000000 0.057457 0.000000
O O13 0.250000 0.750000 0.000000
#
# Coordination Sequence:
#
# PCOD9220131 Si02
#       5
#     8   8   8   8   8
#     4  12  26  45  71 103 141 187 242 296 354 427
#     4  12  26  48  70  99 142 187 241 302 356 411
#     4  11  22  41  69 101 138 181 227 281 350 433
#     4  11  21  38  68  99 136 179 219 273 351 419
#     4  12  24  44  71 104 140 182 235 293 361 433
#
# _framework density 22.956289000000002
#
# number of rings (size 3 to 8) (size 9 to 14) (size 15 to 20)
#    0.000    0.400    4.000    6.000    0.000    4.000 
#    0.000    4.000    0.000    0.000    0.000    0.000 
#    0.000    0.000    0.000    0.000    0.000    0.000 
#
# Total GULP energy -111838.205443 kJ/mol
# GULP energy per Si atom -5591.910272 kJ/mol
# Density = 2.290404 g / cm^3
# Si number density = 22.956289 Si / 1000 Ang^3
#
#
#
# Elastic Constant Matrix: (Units=GPa)
#
#
# Indices 1 2 3 4 5 6 
#
# 1 88.6970 18.5314 15.9226 0.0267 10.8634 0.0275
# 2 18.5314 115.9318 31.5812 0.0051 22.1552 0.0073
# 3 15.9226 31.5812 149.6807 0.0124 11.5338 -0.0512
# 4 0.0267 0.0051 0.0124 9.0540 -0.0114 -11.8220
# 5 10.8634 22.1552 11.5338 -0.0114 52.3243 -0.0255
# 6 0.0275 0.0073 -0.0512 -11.8220 -0.0255 -18.3084
#
#
#
# Elastic Compliance Matrix: (Units=1/GPa)
#
#
# Indices 1 2 3 4 5 6 
#
# 1 0.011919 -0.001345 -0.000852 -0.000004 -0.001717 0.000024
# 2 -0.001345 0.009984 -0.001688 0.000006 -0.003576 0.000008
# 3 -0.000852 -0.001688 0.007181 -0.000019 -0.000691 -0.000009
# 4 -0.000004 0.000006 -0.000019 0.059925 -0.000004 -0.038694
# 5 -0.001717 -0.003576 -0.000691 -0.000004 0.021135 -0.000029
# 6 0.000024 0.000008 -0.000009 -0.038694 -0.000029 -0.029634
#
#
# Mechanical properties :
#
#
# Convention : Reuss Voigt Hill
#
# Bulk Modulus (GPa) = 46.91703 54.04223 50.47963
# Shear Modulus (GPa) = 52.42051 27.83226 40.12638
#
# Velocity S-wave (km/s) = 4.78377 3.48573 4.18538
# Velocity P-wave (km/s) = 7.14105 6.30816 6.73749
#
# Compressibility (1/GPa) = 0.02131422
#
# Stress axis : x y z
#
# Youngs Moduli (GPa) = 83.90278 100.16055 139.25842
#
# Poissons Ratio (x) = 0.13471 0.11861
# Poissons Ratio (y) = 0.11285 0.23505
# Poissons Ratio (z) = 0.07147 0.16906
#
# Static dielectric constant tensor:
#      x y z
#    x 1.932050 -0.000020 0.007840 
#    y -0.000020 1.933020 0.000010 
#    z 0.007840 0.000010 1.816220 
# 
# From -- ./inp_files/219032.got.cif
#   From: 2010.05.17/outbox.cif.g08.bks.cpg/sg12_110_cif.got.tgz:219032.got - 2010.06.03 13:09:07.
