data_PCOD9220580
_publ_section_title
;
Structure prediction by ZEFSAII (Michael W. Deem and Ramdas Pophale) SiO2 
 PCOD9220580
Probable space group: C 2/M
;
_chemical_formula_sum "Si O2"
_cell_formula_units_Z 56
_cell_length_a 14.192392
_cell_length_b 19.824527
_cell_length_c 11.629373
_cell_angle_alpha 90.000000
_cell_angle_beta 115.420426
_cell_angle_gamma 90.000000
_cell_volume 2955.222331
_symmetry_space_group_name_H-M "C 2/M"
_symmetry_group_IT_number 12
_symmetry_cell_setting 'monoclinic'
loop_
_space_group_symop_operation_xyz
x,y,z
-x,y,-z
-x,-y,-z
x,-y,z
1/2+x,1/2+y,z
1/2-x,1/2+y,-z
1/2-x,1/2-y,-z
1/2+x,1/2-y,z
loop_
_atom_site_type_symbol
_atom_site_label
_atom_site_fract_x
_atom_site_fract_y
_atom_site_fract_z
Si Si1 0.384139 0.320458 0.444397
Si Si2 0.295650 0.141805 0.081257
Si Si3 0.418786 0.000000 0.781021
Si Si4 0.154255 0.500000 0.999303
Si Si5 0.411570 0.271759 0.051092
Si Si6 0.315190 0.822513 0.341456
Si Si7 0.404522 0.727010 0.711141
Si Si8 0.336334 0.130413 0.618046
O O1 0.500000 0.351003 0.500000
O O2 0.370235 0.251431 0.363669
O O3 0.378343 0.290241 0.568217
O O4 0.281734 0.366936 0.390930
O O5 0.365250 0.197667 0.051231
O O6 0.336984 0.137773 0.235192
O O7 0.181536 0.176467 0.019376
O O8 0.295542 0.069328 0.020891
O O9 0.391830 0.063750 0.688477
O O10 0.353336 0.000000 0.866161
O O11 0.537538 0.000000 0.885747
O O12 0.481707 0.296192 0.194598
O O13 0.500000 0.267690 0.000000
O O14 0.191709 0.806025 0.272848
O O15 0.337141 0.856643 0.478643
O O16 0.394070 0.807262 0.710186
#
# Coordination Sequence:
#
# PCOD9220580 Si02
#       8
#     8   8   4   4   8   8   8   8
#     4   9  17  30  54  87 116 147 185 249 311 346
#     4  11  24  39  60  94 124 162 203 251 300 369
#     4  11  24  43  60  81 113 163 205 241 299 357
#     4  11  28  43  58  85 127 166 197 242 310 373
#     4  11  22  36  64  93 122 157 208 253 299 349
#     4   9  18  36  57  86 119 148 196 246 297 357
#     4   9  17  33  56  85 117 149 189 246 308 343
#     4   9  20  35  59  81 114 158 195 247 299 356
#
# _framework density 18.949504999999998
#
# number of rings (size 3 to 8) (size 9 to 14) (size 15 to 20)
#    0.000    2.143    1.429    3.429    4.000    4.000 
#    0.000    1.429    0.000    0.857    0.000    0.000 
#    0.000    0.000    0.000    0.000    0.000    0.000 
#
# Total GULP energy -155986.772954 kJ/mol
# GULP energy per Si atom -5570.956177 kJ/mol
# Density = 1.890638 g / cm^3
# Si number density = 18.949505 Si / 1000 Ang^3
#
#
#
# Elastic Constant Matrix: (Units=GPa)
#
#
# Indices 1 2 3 4 5 6 
#
# 1 92.2062 25.6896 27.3451 0.0000 -2.1471 0.0000
# 2 25.6896 86.2755 35.2867 0.0000 -13.4922 0.0000
# 3 27.3451 35.2867 81.8133 0.0000 0.9474 0.0000
# 4 0.0000 0.0000 0.0000 26.1663 0.0000 -1.0005
# 5 -2.1471 -13.4922 0.9474 0.0000 32.4474 0.0000
# 6 0.0000 0.0000 0.0000 -1.0005 0.0000 10.8277
#
#
#
# Elastic Compliance Matrix: (Units=1/GPa)
#
#
# Indices 1 2 3 4 5 6 
#
# 1 0.012446 -0.002455 -0.003100 0.000000 -0.000107 0.000000
# 2 -0.002455 0.015845 -0.006090 0.000000 0.006604 0.000000
# 3 -0.003100 -0.006090 0.015923 0.000000 -0.003202 0.000000
# 4 0.000000 0.000000 0.000000 0.038353 0.000000 0.003544
# 5 -0.000107 0.006604 -0.003202 0.000000 0.033652 0.000000
# 6 0.000000 0.000000 0.000000 0.003544 0.000000 0.092683
#
#
# Mechanical properties :
#
#
# Convention : Reuss Voigt Hill
#
# Bulk Modulus (GPa) = 47.79094 48.54864 48.16979
# Shear Modulus (GPa) = 20.90595 25.35320 23.12957
#
# Velocity S-wave (km/s) = 3.32512 3.66175 3.49748
# Velocity P-wave (km/s) = 6.32588 6.59951 6.46414
#
# Compressibility (1/GPa) = 0.02092447
#
# Stress axis : x y z
#
# Youngs Moduli (GPa) = 80.34695 63.10973 62.80250
#
# Poissons Ratio (x) = 0.15492 0.19468
# Poissons Ratio (y) = 0.19723 0.38248
# Poissons Ratio (z) = 0.24907 0.38435
#
# Static dielectric constant tensor:
#      x y z
#    x 1.741530 0.000000 -0.008320 
#    y 0.000000 1.621700 0.000000 
#    z -0.008320 0.000000 1.769250 
# 
# From -- ./inp_files/146272.got.cif
#   From: 2010.05.17/outbox.cif.g08.bks.cpg/sg12_74_cif.got.tgz:146272.got - 2010.06.03 13:09:07.
