data_PCOD9220514
_publ_section_title
;
Structure prediction by ZEFSAII (Michael W. Deem and Ramdas Pophale) SiO2 
 PCOD9220514
Probable space group: C 2/M
;
_chemical_formula_sum "Si O2"
_cell_formula_units_Z 64
_cell_length_a 16.162076
_cell_length_b 27.621059
_cell_length_c 12.518848
_cell_angle_alpha 90.000000
_cell_angle_beta 143.061697
_cell_angle_gamma 90.000000
_cell_volume 3358.486185
_symmetry_space_group_name_H-M "C 2/M"
_symmetry_group_IT_number 12
_symmetry_cell_setting 'monoclinic'
loop_
_space_group_symop_operation_xyz
x,y,z
-x,y,-z
-x,-y,-z
x,-y,z
1/2+x,1/2+y,z
1/2-x,1/2+y,-z
1/2-x,1/2-y,-z
1/2+x,1/2-y,z
loop_
_atom_site_type_symbol
_atom_site_label
_atom_site_fract_x
_atom_site_fract_y
_atom_site_fract_z
Si Si1 0.345994 0.555952 0.717159
Si Si2 0.678517 0.556651 0.061199
Si Si3 0.878909 0.778630 0.803510
Si Si4 0.182132 0.853873 0.440754
Si Si5 0.557189 0.828241 0.175222
Si Si6 0.629052 0.221142 0.701981
Si Si7 0.181168 0.359597 0.928851
Si Si8 0.069100 0.828662 0.685093
O O1 0.313890 0.500000 0.661859
O O2 0.298968 0.567009 0.789667
O O3 0.283199 0.594416 0.572405
O O4 0.512336 0.561501 0.879467
O O5 0.711125 0.500000 0.075045
O O6 0.765021 0.592331 0.075091
O O7 0.816305 0.813951 0.650958
O O8 0.946879 0.730492 0.823058
O O9 0.753573 0.764456 0.751797
O O10 0.000000 0.802551 0.000000
O O11 0.284948 0.840754 0.641366
O O12 0.028900 0.851332 0.327339
O O13 0.470244 0.855031 0.176982
O O14 0.500000 0.841147 0.000000
O O15 0.500000 0.201149 0.500000
O O16 0.685831 0.183157 0.845758
O O17 0.575138 0.270454 0.699946
O O18 0.280824 0.348078 0.131626
O O19 0.000000 0.839750 0.500000
#
# Coordination Sequence:
#
# PCOD9220514 Si02
#       8
#     8   8   8   8   8   8   8   8
#     4   9  19  37  62  93 119 137 176 240 303 350
#     4   9  19  37  62  92 119 140 174 237 303 356
#     4  11  22  36  56  85 120 152 194 237 288 347
#     4  12  21  36  62  84 111 159 198 229 286 349
#     4  11  24  40  53  79 123 166 197 235 277 329
#     4  11  22  36  54  84 120 150 190 241 285 336
#     4  12  21  37  60  85 114 155 194 233 287 343
#     4  11  22  36  54  80 112 152 204 240 271 317
#
# _framework density 19.056206
#
# number of rings (size 3 to 8) (size 9 to 14) (size 15 to 20)
#    0.000    1.250    1.250    8.250    1.750    0.000 
#    0.000    0.625    0.000    6.375    0.000    0.000 
#    0.000    0.000    0.000    0.000    0.000    0.000 
#
# Total GULP energy -178701.747899 kJ/mol
# GULP energy per Si atom -5584.429622 kJ/mol
# Density = 1.901283 g / cm^3
# Si number density = 19.056206 Si / 1000 Ang^3
#
#
#
# Elastic Constant Matrix: (Units=GPa)
#
#
# Indices 1 2 3 4 5 6 
#
# 1 72.8599 37.2123 3.4137 0.0000 -1.6585 0.0000
# 2 37.2123 73.7777 21.4143 0.0000 -23.6050 0.0000
# 3 3.4137 21.4143 78.3488 0.0000 -5.4315 0.0000
# 4 0.0000 0.0000 0.0000 22.0954 0.0000 -21.8048
# 5 -1.6585 -23.6050 -5.4315 0.0000 28.1131 0.0000
# 6 0.0000 0.0000 0.0000 -21.8048 0.0000 108.3892
#
#
#
# Elastic Compliance Matrix: (Units=1/GPa)
#
#
# Indices 1 2 3 4 5 6 
#
# 1 0.020801 -0.014539 0.002338 0.000000 -0.010529 0.000000
# 2 -0.014539 0.030049 -0.005970 0.000000 0.023220 0.000000
# 3 0.002338 -0.005970 0.014145 0.000000 -0.002142 0.000000
# 4 0.000000 0.000000 0.000000 0.056469 0.000000 0.011360
# 5 -0.010529 0.023220 -0.002142 0.000000 0.054032 0.000000
# 6 0.000000 0.000000 0.000000 0.011360 0.000000 0.011511
#
#
# Mechanical properties :
#
#
# Convention : Reuss Voigt Hill
#
# Bulk Modulus (GPa) = 34.90065 38.78522 36.84293
# Shear Modulus (GPa) = 21.46831 42.58262 32.02547
#
# Velocity S-wave (km/s) = 3.36010 4.73226 4.10393
# Velocity P-wave (km/s) = 5.77997 7.08917 6.46778
#
# Compressibility (1/GPa) = 0.02865276
#
# Stress axis : x y z
#
# Youngs Moduli (GPa) = 48.07355 33.27849 70.69734
#
# Poissons Ratio (x) = 0.48384 -0.16526
# Poissons Ratio (y) = 0.69895 0.42206
# Poissons Ratio (z) = -0.11238 0.19867
#
# Static dielectric constant tensor:
#      x y z
#    x 1.664610 0.000000 -0.009960 
#    y 0.000000 1.637180 0.000000 
#    z -0.009960 0.000000 1.664190 
# 
# From -- ./inp_files/149716.got.cif
#   From: 2010.05.17/outbox.cif.g08.bks.cpg/sg12_75_cif.got.tgz:149716.got - 2010.06.03 13:09:07.
