data_PCOD9220394
_publ_section_title
;
Structure prediction by ZEFSAII (Michael W. Deem and Ramdas Pophale) SiO2 
 PCOD9220394
Probable space group: C 2/M
;
_chemical_formula_sum "Si O2"
_cell_formula_units_Z 40
_cell_length_a 14.005757
_cell_length_b 24.952744
_cell_length_c 11.230377
_cell_angle_alpha 90.000000
_cell_angle_beta 29.735869
_cell_angle_gamma 90.000000
_cell_volume 1946.717706
_symmetry_space_group_name_H-M "C 2/M"
_symmetry_group_IT_number 12
_symmetry_cell_setting 'monoclinic'
loop_
_space_group_symop_operation_xyz
x,y,z
-x,y,-z
-x,-y,-z
x,-y,z
1/2+x,1/2+y,z
1/2-x,1/2+y,-z
1/2-x,1/2-y,-z
1/2+x,1/2-y,z
loop_
_atom_site_type_symbol
_atom_site_label
_atom_site_fract_x
_atom_site_fract_y
_atom_site_fract_z
Si Si1 0.822118 0.850683 0.506270
Si Si2 0.868620 0.845425 0.037381
Si Si3 0.886882 0.359771 0.883281
Si Si4 0.776290 0.560871 0.203693
Si Si5 0.293625 0.223166 0.170316
O O1 0.614737 0.854817 0.663087
O O2 0.831321 0.903428 0.580409
O O3 0.838658 0.801611 0.583085
O O4 0.981077 0.843676 0.234421
O O5 0.677485 0.868763 0.182443
O O6 0.800643 0.786617 0.153902
O O7 0.000000 0.870168 0.000000
O O8 0.790921 0.406698 0.065414
O O9 0.794495 0.305878 0.042047
O O10 0.709923 0.500000 0.265549
O O11 0.000000 0.559508 0.000000
O O12 0.500000 0.205363 0.000000
#
# Coordination Sequence:
#
# PCOD9220394 Si02
#       5
#     8   8   8   8   8
#     4   9  19  36  53  74 106 132 165 220 260 293
#     4  11  22  33  48  73 106 143 177 202 241 307
#     4   9  18  34  52  76 104 129 166 213 257 302
#     4   8  15  32  60  85 100 123 166 219 268 304
#     4   8  17  32  49  72  98 130 171 210 249 294
#
# _framework density 20.547408000000001
#
# number of rings (size 3 to 8) (size 9 to 14) (size 15 to 20)
#    0.000    3.000    0.000    3.000    0.000   11.200 
#    0.000    8.000    0.000    2.400    0.000    5.600 
#    0.000    0.000    0.000    0.000    0.000    0.000 
#
# Total GULP energy -111446.953773 kJ/mol
# GULP energy per Si atom -5572.347689 kJ/mol
# Density = 2.050064 g / cm^3
# Si number density = 20.547408 Si / 1000 Ang^3
#
#
#
# Elastic Constant Matrix: (Units=GPa)
#
#
# Indices 1 2 3 4 5 6 
#
# 1 145.2712 15.0659 2.2465 -0.0005 -17.8683 -0.0001
# 2 15.0659 72.0103 11.1490 0.0001 5.3484 -0.0001
# 3 2.2465 11.1490 63.7904 -0.0009 -4.1603 0.0001
# 4 -0.0005 0.0001 -0.0009 -5.4333 0.0003 2.0110
# 5 -17.8683 5.3484 -4.1603 0.0003 30.1389 -0.0002
# 6 -0.0001 -0.0001 0.0001 2.0110 -0.0002 11.6589
#
#
#
# Elastic Compliance Matrix: (Units=1/GPa)
#
#
# Indices 1 2 3 4 5 6 
#
# 1 0.007703 -0.002046 0.000411 0.000000 0.004987 0.000000
# 2 -0.002046 0.015073 -0.002841 0.000001 -0.004280 0.000000
# 3 0.000411 -0.002841 0.016354 -0.000003 0.003006 0.000000
# 4 0.000000 0.000001 -0.000003 -0.173004 0.000001 0.029841
# 5 0.004987 -0.004280 0.003006 0.000001 0.037310 0.000000
# 6 0.000000 0.000000 0.000000 0.029841 0.000000 0.080624
#
#
# Mechanical properties :
#
#
# Convention : Reuss Voigt Hill
#
# Bulk Modulus (GPa) = 33.13582 37.55497 35.34540
# Shear Modulus (GPa) = 1628.15790 24.11360 826.13575
#
# Velocity S-wave (km/s) = 28.17998 3.42944 20.07327
# Velocity P-wave (km/s) = 32.78683 5.83081 23.54755
#
# Compressibility (1/GPa) = 0.03017882
#
# Stress axis : x y z
#
# Youngs Moduli (GPa) = 129.82279 66.34518 61.14528
#
# Poissons Ratio (x) = 0.13572 -0.02516
# Poissons Ratio (y) = 0.26557 0.17374
# Poissons Ratio (z) = -0.05342 0.18851
#
# Static dielectric constant tensor:
#      x y z
#    x 1.820410 0.000000 -0.061740 
#    y 0.000000 1.718850 0.000000 
#    z -0.061740 0.000000 1.788660 
# 
# From -- ./inp_files/148800.got.cif
#   From: 2010.05.17/outbox.cif.g08.bks.cpg/sg12_75_cif.got.tgz:148800.got - 2010.06.03 13:09:07.
