data_PCOD9220754
_publ_section_title
;
Structure prediction by ZEFSAII (Michael W. Deem and Ramdas Pophale) SiO2 
 PCOD9220754
Probable space group: C 2/M
;
_chemical_formula_sum "Si O2"
_cell_formula_units_Z 64
_cell_length_a 9.494500
_cell_length_b 16.373710
_cell_length_c 21.159282
_cell_angle_alpha 90.000000
_cell_angle_beta 86.803130
_cell_angle_gamma 90.000000
_cell_volume 3284.307027
_symmetry_space_group_name_H-M "C 2/M"
_symmetry_group_IT_number 12
_symmetry_cell_setting 'monoclinic'
loop_
_space_group_symop_operation_xyz
x,y,z
-x,y,-z
-x,-y,-z
x,-y,z
1/2+x,1/2+y,z
1/2-x,1/2+y,-z
1/2-x,1/2-y,-z
1/2+x,1/2-y,z
loop_
_atom_site_type_symbol
_atom_site_label
_atom_site_fract_x
_atom_site_fract_y
_atom_site_fract_z
Si Si1 0.067085 0.804586 0.861297
Si Si2 0.029946 0.236857 0.344110
Si Si3 0.300101 0.205862 0.258269
Si Si4 0.293270 0.590353 0.835850
Si Si5 0.921310 0.093683 0.435887
Si Si6 0.847667 0.316213 0.535276
Si Si7 0.157170 0.093545 0.967025
Si Si8 0.380124 0.847559 0.049574
O O1 0.143637 0.767941 0.797539
O O2 0.150901 0.876294 0.895185
O O3 0.065151 0.732243 0.914000
O O4 0.914624 0.842790 0.848382
O O5 0.143541 0.223120 0.286646
O O6 0.112077 0.282931 0.397238
O O7 0.902774 0.286309 0.315421
O O8 0.970591 0.155192 0.379566
O O9 0.287660 0.118592 0.224831
O O10 0.355180 0.500000 0.830074
O O11 0.179401 0.594461 0.894426
O O12 0.756183 0.107621 0.453736
O O13 0.000000 0.114326 0.500000
O O14 0.952620 0.000000 0.419379
O O15 0.750000 0.250000 0.500000
O O16 0.000000 0.330491 0.500000
O O17 0.208657 0.000000 0.971037
O O18 0.247185 0.156613 0.005886
O O19 0.000000 0.094370 0.000000
O O20 0.500000 0.878889 0.000000
#
# Coordination Sequence:
#
# PCOD9220754 Si02
#       8
#     8   8   8   8   8   8   8   8
#     4  11  23  40  63  90 123 166 215 264 317 386
#     4  12  21  42  67  95 128 174 222 262 312 390
#     4  11  25  40  66  95 122 172 227 265 310 386
#     4  11  24  44  65  90 127 167 212 269 327 387
#     4  11  24  41  65 104 141 169 216 276 330 379
#     4  12  20  38  71 102 132 179 220 268 325 384
#     4  11  22  38  62  92 125 164 211 266 334 402
#     4  11  25  38  64  95 125 157 208 271 333 396
#
# _framework density 19.486606999999999
#
# number of rings (size 3 to 8) (size 9 to 14) (size 15 to 20)
#    0.000    0.750    6.250    1.500    3.500    1.750 
#    0.000    0.625    0.000    0.000    0.000    0.000 
#    0.000    0.000    0.000    0.000    0.000    0.000 
#
# Total GULP energy -178544.099807 kJ/mol
# GULP energy per Si atom -5579.503119 kJ/mol
# Density = 1.944225 g / cm^3
# Si number density = 19.486607 Si / 1000 Ang^3
#
#
#
# Elastic Constant Matrix: (Units=GPa)
#
#
# Indices 1 2 3 4 5 6 
#
# 1 113.3347 37.5926 41.0148 0.0000 -2.0967 0.0000
# 2 37.5926 86.1279 33.2242 0.0000 12.6742 0.0000
# 3 41.0148 33.2242 102.4860 0.0000 7.6717 0.0000
# 4 0.0000 0.0000 0.0000 -67.4555 0.0000 104.2587
# 5 -2.0967 12.6742 7.6717 0.0000 48.0426 0.0000
# 6 0.0000 0.0000 0.0000 104.2587 0.0000 -98.6170
#
#
#
# Elastic Compliance Matrix: (Units=1/GPa)
#
#
# Indices 1 2 3 4 5 6 
#
# 1 0.011424 -0.003966 -0.003443 0.000000 0.002095 0.000000
# 2 -0.003966 0.015044 -0.003016 0.000000 -0.003660 0.000000
# 3 -0.003443 -0.003016 0.012210 0.000000 -0.001305 0.000000
# 4 0.000000 0.000000 0.000000 0.023382 0.000000 0.024720
# 5 0.002095 -0.003660 -0.001305 0.000000 0.022080 0.000000
# 6 0.000000 0.000000 0.000000 0.024720 0.000000 0.015994
#
#
# Mechanical properties :
#
#
# Convention : Reuss Voigt Hill
#
# Bulk Modulus (GPa) = 56.08980 58.40131 57.24555
# Shear Modulus (GPa) = 39.39298 -10.93151 14.23073
#
# Velocity S-wave (km/s) = 4.50103 -2.37106 2.70531
# Velocity P-wave (km/s) = 7.47386 4.74754 6.26090
#
# Compressibility (1/GPa) = 0.01782855
#
# Stress axis : x y z
#
# Youngs Moduli (GPa) = 87.53736 66.47270 81.89695
#
# Poissons Ratio (x) = 0.26365 0.28195
# Poissons Ratio (y) = 0.34720 0.24697
# Poissons Ratio (z) = 0.30137 0.20046
#
# Static dielectric constant tensor:
#      x y z
#    x 1.738680 0.000000 -0.036460 
#    y 0.000000 1.698800 0.000000 
#    z -0.036460 0.000000 1.734680 
# 
# From -- ./inp_files/300803.got.cif
#   From: 2010.05.17/outbox.cif.g08.bks.cpg/sg12_151_cif.got.tgz:300803.got - 2010.06.03 13:09:07.
