data_PCOD9220744
_publ_section_title
;
Structure prediction by ZEFSAII (Michael W. Deem and Ramdas Pophale) SiO2 
 PCOD9220744
Probable space group: C 2/M
;
_chemical_formula_sum "Si O2"
_cell_formula_units_Z 48
_cell_length_a 14.847098
_cell_length_b 8.719729
_cell_length_c 18.654061
_cell_angle_alpha 90.000000
_cell_angle_beta 82.565570
_cell_angle_gamma 90.000000
_cell_volume 2394.703038
_symmetry_space_group_name_H-M "C 2/M"
_symmetry_group_IT_number 12
_symmetry_cell_setting 'monoclinic'
loop_
_space_group_symop_operation_xyz
x,y,z
-x,y,-z
-x,-y,-z
x,-y,z
1/2+x,1/2+y,z
1/2-x,1/2+y,-z
1/2-x,1/2-y,-z
1/2+x,1/2-y,z
loop_
_atom_site_type_symbol
_atom_site_label
_atom_site_fract_x
_atom_site_fract_y
_atom_site_fract_z
Si Si1 0.385699 0.818249 0.632909
Si Si2 0.441172 0.682952 0.324957
Si Si3 0.731195 0.684387 0.109974
Si Si4 0.601775 0.184998 0.009639
Si Si5 0.222593 0.683128 0.732672
Si Si6 0.351398 0.683580 0.487455
O O1 0.456896 0.743430 0.680201
O O2 0.286125 0.768712 0.669108
O O3 0.400636 0.751008 0.552087
O O4 0.394482 0.000000 0.630732
O O5 0.439045 0.500000 0.316276
O O6 0.379883 0.764291 0.271884
O O7 0.397580 0.722462 0.407172
O O8 0.724828 0.500000 0.106108
O O9 0.643707 0.754633 0.079750
O O10 0.744309 0.725672 0.191361
O O11 0.822313 0.731468 0.057087
O O12 0.599909 0.000000 0.012135
O O13 0.500000 0.237538 0.000000
O O14 0.230552 0.500000 0.722675
O O15 0.349005 0.500000 0.493778
O O16 0.250000 0.750000 0.500000
#
# Coordination Sequence:
#
# PCOD9220744 Si02
#       6
#     8   8   8   8   8   8
#     4  12  25  40  60  86 116 155 202 249 300 355
#     4  11  24  41  61  87 117 153 198 246 300 360
#     4   9  20  37  57  86 119 152 190 233 285 340
#     4   9  18  35  60  88 118 151 189 232 280 339
#     4  11  23  40  60  84 121 160 198 245 292 349
#     4  11  22  38  62  87 116 151 196 249 300 355
#
# _framework density 20.044239000000001
#
# number of rings (size 3 to 8) (size 9 to 14) (size 15 to 20)
#    0.000    1.500    1.667    3.500    0.000    7.000 
#    0.000    1.667    0.000    0.000    0.000    0.000 
#    0.000    0.000    0.000    0.000    0.000    0.000 
#
# Total GULP energy -134160.187502 kJ/mol
# GULP energy per Si atom -5590.007813 kJ/mol
# Density = 1.999862 g / cm^3
# Si number density = 20.044239 Si / 1000 Ang^3
#
#
#
# Elastic Constant Matrix: (Units=GPa)
#
#
# Indices 1 2 3 4 5 6 
#
# 1 106.6387 1.8897 15.9244 0.0000 32.1282 0.0000
# 2 1.8897 28.7456 20.9529 0.0000 7.0355 0.0000
# 3 15.9244 20.9529 81.4643 0.0000 29.1299 0.0000
# 4 0.0000 0.0000 0.0000 24.5564 0.0000 11.1817
# 5 32.1282 7.0355 29.1299 0.0000 29.2671 0.0000
# 6 0.0000 0.0000 0.0000 11.1817 0.0000 30.7529
#
#
#
# Elastic Compliance Matrix: (Units=1/GPa)
#
#
# Indices 1 2 3 4 5 6 
#
# 1 0.015071 0.001011 0.004342 0.000000 -0.021109 0.000000
# 2 0.001011 0.042903 -0.011097 0.000000 -0.000377 0.000000
# 3 0.004342 -0.011097 0.023337 0.000000 -0.025327 0.000000
# 4 0.000000 0.000000 0.000000 0.048803 0.000000 -0.017745
# 5 -0.021109 -0.000377 -0.025327 0.000000 0.082639 0.000000
# 6 0.000000 0.000000 0.000000 -0.017745 0.000000 0.038969
#
#
# Mechanical properties :
#
#
# Convention : Reuss Voigt Hill
#
# Bulk Modulus (GPa) = 14.32221 32.70919 23.51570
# Shear Modulus (GPa) = 17.45294 28.78739 23.12016
#
# Velocity S-wave (km/s) = 2.95400 3.79382 3.39994
# Velocity P-wave (km/s) = 4.33539 5.96194 5.21250
#
# Compressibility (1/GPa) = 0.06982163
#
# Stress axis : x y z
#
# Youngs Moduli (GPa) = 66.35318 23.30851 42.85034
#
# Poissons Ratio (x) = -0.02356 -0.18606
# Poissons Ratio (y) = -0.06706 0.47552
# Poissons Ratio (z) = -0.28812 0.25866
#
# Static dielectric constant tensor:
#      x y z
#    x 1.698890 0.000000 -0.008340 
#    y 0.000000 1.661490 0.000000 
#    z -0.008340 0.000000 1.701840 
# 
# From -- ./inp_files/267657.got.cif
#   From: 2010.05.17/outbox.cif.g08.bks.cpg/sg12_134_cif.got.tgz:267657.got - 2010.06.03 13:09:07.
