data_PCOD9220073
_publ_section_title
;
Structure prediction by ZEFSAII (Michael W. Deem and Ramdas Pophale) SiO2 
 PCOD9220073
Probable space group: C 2/M
;
_chemical_formula_sum "Si O2"
_cell_formula_units_Z 48
_cell_length_a 9.960376
_cell_length_b 27.577558
_cell_length_c 16.081739
_cell_angle_alpha 90.000000
_cell_angle_beta 145.291657
_cell_angle_gamma 90.000000
_cell_volume 2515.251556
_symmetry_space_group_name_H-M "C 2/M"
_symmetry_group_IT_number 12
_symmetry_cell_setting 'monoclinic'
loop_
_space_group_symop_operation_xyz
x,y,z
-x,y,-z
-x,-y,-z
x,-y,z
1/2+x,1/2+y,z
1/2-x,1/2+y,-z
1/2-x,1/2-y,-z
1/2+x,1/2-y,z
loop_
_atom_site_type_symbol
_atom_site_label
_atom_site_fract_x
_atom_site_fract_y
_atom_site_fract_z
Si Si1 0.256691 0.780642 0.921099
Si Si2 0.120265 0.443193 0.811954
Si Si3 0.246077 0.884881 0.865105
Si Si4 0.239427 0.136457 0.667956
Si Si5 0.042641 0.055795 0.162270
Si Si6 0.761213 0.744940 0.604354
O O1 0.279252 0.838302 0.941608
O O2 0.001586 0.772432 0.750245
O O3 0.500000 0.765415 0.000000
O O4 0.250000 0.750000 0.000000
O O5 0.041871 0.500000 0.768520
O O6 0.235205 0.429700 0.781306
O O7 0.931085 0.403378 0.740553
O O8 0.324153 0.441605 0.986037
O O9 0.208392 0.866182 0.752046
O O10 0.032060 0.914556 0.794894
O O11 0.500000 0.911916 0.000000
O O12 0.290667 0.190922 0.659808
O O13 0.000000 0.122330 0.500000
O O14 0.075896 0.000000 0.202503
O O15 0.500000 0.762255 0.500000
O O16 0.750000 0.750000 0.500000
#
# Coordination Sequence:
#
# PCOD9220073 Si02
#       6
#     8   8   8   8   8   8
#     4  11  23  38  57  87 118 148 196 256 300 341
#     4   9  19  37  60  90 123 154 194 244 298 352
#     4  11  21  38  59  89 119 153 200 249 296 350
#     4  11  23  40  60  85 121 159 199 244 296 356
#     4   9  19  36  61  91 121 154 196 244 294 359
#     4  11  23  42  61  83 118 164 203 241 300 369
#
# _framework density 19.083577999999999
#
# number of rings (size 3 to 8) (size 9 to 14) (size 15 to 20)
#    0.000    1.667    1.667    6.000    0.000    4.000 
#    0.000    0.833    0.000    2.000    0.000    0.000 
#    0.000    0.000    0.000    0.000    0.000    0.000 
#
# Total GULP energy -133762.986958 kJ/mol
# GULP energy per Si atom -5573.457790 kJ/mol
# Density = 1.904014 g / cm^3
# Si number density = 19.083578 Si / 1000 Ang^3
#
#
#
# Elastic Constant Matrix: (Units=GPa)
#
#
# Indices 1 2 3 4 5 6 
#
# 1 143.3301 55.9336 12.3797 -0.0002 -0.0264 -0.0001
# 2 55.9336 59.0944 0.8872 0.0000 5.3178 0.0000
# 3 12.3797 0.8872 57.4133 -0.0003 7.8427 -0.0001
# 4 -0.0002 0.0000 -0.0003 -124.3459 -0.0002 -62.2375
# 5 -0.0264 5.3178 7.8427 -0.0002 40.2113 -0.0001
# 6 -0.0001 0.0000 -0.0001 -62.2375 -0.0001 5.8558
#
#
#
# Elastic Compliance Matrix: (Units=1/GPa)
#
#
# Indices 1 2 3 4 5 6 
#
# 1 0.011503 -0.011026 -0.002579 0.000000 0.001969 0.000000
# 2 -0.011026 0.027695 0.002518 0.000000 -0.004161 0.000000
# 3 -0.002579 0.002518 0.018473 0.000000 -0.003938 0.000000
# 4 0.000000 0.000000 0.000000 -0.001273 0.000000 -0.013525
# 5 0.001969 -0.004161 -0.003938 0.000000 0.026188 0.000000
# 6 0.000000 0.000000 0.000000 -0.013525 0.000000 0.027022
#
#
# Mechanical properties :
#
#
# Convention : Reuss Voigt Hill
#
# Bulk Modulus (GPa) = 28.17180 44.24875 36.21027
# Shear Modulus (GPa) = 34.81552 -2.94662 15.93445
#
# Velocity S-wave (km/s) = 4.27590 -1.24395 2.89274
# Velocity P-wave (km/s) = 6.25876 4.60152 5.49300
#
# Compressibility (1/GPa) = 0.03549649
#
# Stress axis : x y z
#
# Youngs Moduli (GPa) = 86.93517 36.10763 54.13424
#
# Poissons Ratio (x) = 0.39812 0.13960
# Poissons Ratio (y) = 0.95855 -0.13630
# Poissons Ratio (z) = 0.22419 -0.09091
#
# Static dielectric constant tensor:
#      x y z
#    x 1.919210 0.000000 0.517400 
#    y 0.000000 1.643240 0.000000 
#    z 0.517400 0.000000 2.855230 
# 
# From -- ./inp_files/123519.got.cif
#   From: 2010.05.17/outbox.cif.g08.bks.cpg/sg12_62_cif.got.tgz:123519.got - 2010.06.03 13:09:07.
