data_PCOD9220146
_publ_section_title
;
Structure prediction by ZEFSAII (Michael W. Deem and Ramdas Pophale) SiO2 
 PCOD9220146
Probable space group: C 2/M
;
_chemical_formula_sum "Si O2"
_cell_formula_units_Z 56
_cell_length_a 11.786543
_cell_length_b 17.892829
_cell_length_c 14.931792
_cell_angle_alpha 90.000000
_cell_angle_beta 76.163570
_cell_angle_gamma 90.000000
_cell_volume 3057.656918
_symmetry_space_group_name_H-M "C 2/M"
_symmetry_group_IT_number 12
_symmetry_cell_setting 'monoclinic'
loop_
_space_group_symop_operation_xyz
x,y,z
-x,y,-z
-x,-y,-z
x,-y,z
1/2+x,1/2+y,z
1/2-x,1/2+y,-z
1/2-x,1/2-y,-z
1/2+x,1/2-y,z
loop_
_atom_site_type_symbol
_atom_site_label
_atom_site_fract_x
_atom_site_fract_y
_atom_site_fract_z
Si Si1 0.353195 0.657534 0.726137
Si Si2 0.167498 0.663681 0.270948
Si Si3 0.612022 0.657457 0.647592
Si Si4 0.208072 0.911259 0.454873
Si Si5 0.607428 0.909905 0.101310
Si Si6 0.157512 0.589766 0.889365
Si Si7 0.059186 0.320176 0.582574
O O1 0.335365 0.746441 0.731119
O O2 0.489278 0.640902 0.718498
O O3 0.329022 0.626337 0.631381
O O4 0.262452 0.622450 0.812346
O O5 0.277141 0.641407 0.311089
O O6 0.170240 0.628995 0.172068
O O7 0.043582 0.642946 0.339643
O O8 0.625537 0.612403 0.552593
O O9 0.607358 0.745335 0.621001
O O10 0.334969 0.876504 0.452940
O O11 0.212088 0.000000 0.444482
O O12 0.469811 0.888322 0.125389
O O13 0.613267 0.000000 0.108567
O O14 0.658013 0.889294 0.994208
O O15 0.162156 0.500000 0.884506
O O16 0.000000 0.297283 0.500000
#
# Coordination Sequence:
#
# PCOD9220146 Si02
#       7
#     8   8   8   8   8   8   8
#     4  11  23  37  61  86 116 159 199 236 289 348
#     4  11  22  37  61  86 120 155 192 242 293 343
#     4  11  23  40  56  84 123 160 192 237 293 346
#     4  12  24  39  60  86 118 157 202 243 285 343
#     4   9  20  39  65  91 115 151 192 244 298 342
#     4   9  19  40  65  89 119 149 192 246 294 342
#     4  11  21  39  62  82 114 158 199 241 290 341
#
# _framework density 18.314678000000001
#
# number of rings (size 3 to 8) (size 9 to 14) (size 15 to 20)
#    0.000    1.429    2.857    4.714    2.000    4.857 
#    0.000    0.714    0.000    1.714    0.000    0.000 
#    0.000    0.000    0.000    0.000    0.000    0.000 
#
# Total GULP energy -156431.025808 kJ/mol
# GULP energy per Si atom -5586.822350 kJ/mol
# Density = 1.827299 g / cm^3
# Si number density = 18.314678 Si / 1000 Ang^3
#
#
#
# Elastic Constant Matrix: (Units=GPa)
#
#
# Indices 1 2 3 4 5 6 
#
# 1 77.1871 28.8645 58.4544 0.0000 -0.1199 0.0000
# 2 28.8645 54.3249 34.1373 0.0000 2.4137 0.0000
# 3 58.4544 34.1373 124.7746 0.0000 -1.8861 0.0000
# 4 0.0000 0.0000 0.0000 32.5330 0.0000 0.6559
# 5 -0.1199 2.4137 -1.8861 0.0000 38.0459 0.0000
# 6 0.0000 0.0000 0.0000 0.6559 0.0000 26.3336
#
#
#
# Elastic Compliance Matrix: (Units=1/GPa)
#
#
# Indices 1 2 3 4 5 6 
#
# 1 0.021683 -0.006207 -0.008459 0.000000 0.000043 0.000000
# 2 -0.006207 0.024119 -0.003717 0.000000 -0.001734 0.000000
# 3 -0.008459 -0.003717 0.013007 0.000000 0.000854 0.000000
# 4 0.000000 0.000000 0.000000 0.030753 0.000000 -0.000766
# 5 0.000043 -0.001734 0.000854 0.000000 0.026436 0.000000
# 6 0.000000 0.000000 0.000000 -0.000766 0.000000 0.037993
#
#
# Mechanical properties :
#
#
# Convention : Reuss Voigt Hill
#
# Bulk Modulus (GPa) = 45.36726 55.46656 50.41691
# Shear Modulus (GPa) = 25.23903 28.37121 26.80512
#
# Velocity S-wave (km/s) = 3.71627 3.94013 3.82984
# Velocity P-wave (km/s) = 6.57564 7.14496 6.86620
#
# Compressibility (1/GPa) = 0.02204233
#
# Stress axis : x y z
#
# Youngs Moduli (GPa) = 46.11912 41.46191 76.88024
#
# Poissons Ratio (x) = 0.25736 0.65034
# Poissons Ratio (y) = 0.28626 0.28576
# Poissons Ratio (z) = 0.39013 0.15411
#
# Static dielectric constant tensor:
#      x y z
#    x 1.638790 0.000000 -0.009660 
#    y 0.000000 1.609270 0.000000 
#    z -0.009660 0.000000 1.628580 
# 
# From -- ./inp_files/206125.got.cif
#   From: 2010.05.17/outbox.cif.g08.bks.cpg/sg12_104_cif.got.tgz:206125.got - 2010.06.03 13:09:07.
