data_PCOD9220489
_publ_section_title
;
Structure prediction by ZEFSAII (Michael W. Deem and Ramdas Pophale) SiO2 
 PCOD9220489
Probable space group: C 2/M
;
_chemical_formula_sum "Si O2"
_cell_formula_units_Z 48
_cell_length_a 9.201512
_cell_length_b 29.103342
_cell_length_c 9.459341
_cell_angle_alpha 90.000000
_cell_angle_beta 57.547174
_cell_angle_gamma 90.000000
_cell_volume 2137.566946
_symmetry_space_group_name_H-M "C 2/M"
_symmetry_group_IT_number 12
_symmetry_cell_setting 'monoclinic'
loop_
_space_group_symop_operation_xyz
x,y,z
-x,y,-z
-x,-y,-z
x,-y,z
1/2+x,1/2+y,z
1/2-x,1/2+y,-z
1/2-x,1/2-y,-z
1/2+x,1/2-y,z
loop_
_atom_site_type_symbol
_atom_site_label
_atom_site_fract_x
_atom_site_fract_y
_atom_site_fract_z
Si Si1 0.305644 0.796921 0.067091
Si Si2 0.752733 0.121672 0.678929
Si Si3 0.987862 0.750389 0.342366
Si Si4 0.245889 0.670423 0.429066
Si Si5 0.705470 0.946963 0.933361
Si Si6 0.854421 0.625611 0.811097
O O1 0.334392 0.742671 0.832615
O O2 0.306522 0.830557 0.932352
O O3 0.500000 0.781703 0.000000
O O4 0.258010 0.834484 0.213272
O O5 0.844312 0.137761 0.488047
O O6 0.796809 0.078687 0.754045
O O7 0.557222 0.114140 0.721085
O O8 0.904480 0.699970 0.409043
O O9 0.863189 0.785974 0.328473
O O10 0.000000 0.765872 0.500000
O O11 0.193711 0.639914 0.322807
O O12 0.752032 0.000000 0.923776
O O13 0.500000 0.944436 0.000000
O O14 0.732955 0.917485 0.062092
#
# Coordination Sequence:
#
# PCOD9220489 Si02
#       6
#     8   8   8   8   8   8
#     4   9  19  38  60  79 111 157 209 255 298 346
#     4   9  16  33  56  80 116 156 196 240 302 355
#     4  11  22  38  59  78 115 161 223 245 286 365
#     4  11  22  35  57  82 116 162 202 259 308 335
#     4   8  15  30  57  87 120 159 198 240 297 374
#     4   9  18  33  56  86 118 150 197 255 308 341
#
# _framework density 22.455435999999999
#
# number of rings (size 3 to 8) (size 9 to 14) (size 15 to 20)
#    0.000    2.500    1.667    3.500    0.000    0.667 
#    0.000    8.333   11.000    4.000    0.000   18.667 
#    0.000    0.000    0.000    0.000   11.333    1.000 
#
# Total GULP energy -133921.648142 kJ/mol
# GULP energy per Si atom -5580.068673 kJ/mol
# Density = 2.240433 g / cm^3
# Si number density = 22.455436 Si / 1000 Ang^3
#
#
#
# Elastic Constant Matrix: (Units=GPa)
#
#
# Indices 1 2 3 4 5 6 
#
# 1 31.9027 41.7840 25.9434 0.0000 -5.9989 0.0000
# 2 41.7840 174.7546 61.2636 0.0000 16.3459 0.0000
# 3 25.9434 61.2636 122.6187 0.0000 7.5872 0.0000
# 4 0.0000 0.0000 0.0000 25.5254 0.0000 7.7858
# 5 -5.9989 16.3459 7.5872 0.0000 42.5414 0.0000
# 6 0.0000 0.0000 0.0000 7.7858 0.0000 23.1500
#
#
#
# Elastic Compliance Matrix: (Units=1/GPa)
#
#
# Indices 1 2 3 4 5 6 
#
# 1 0.055084 -0.012198 -0.006401 0.000000 0.013596 0.000000
# 2 -0.012198 0.009824 -0.002010 0.000000 -0.005136 0.000000
# 3 -0.006401 -0.002010 0.010639 0.000000 -0.002028 0.000000
# 4 0.000000 0.000000 0.000000 0.043655 0.000000 -0.014682
# 5 0.013596 -0.005136 -0.002028 0.000000 0.027759 0.000000
# 6 0.000000 0.000000 0.000000 -0.014682 0.000000 0.048134
#
#
# Mechanical properties :
#
#
# Convention : Reuss Voigt Hill
#
# Bulk Modulus (GPa) = 29.13002 65.25091 47.19046
# Shear Modulus (GPa) = 20.18112 31.59570 25.88841
#
# Velocity S-wave (km/s) = 3.00112 3.75512 3.39909
# Velocity P-wave (km/s) = 5.00095 6.92259 6.03870
#
# Compressibility (1/GPa) = 0.03432885
#
# Stress axis : x y z
#
# Youngs Moduli (GPa) = 18.15413 101.79313 93.99166
#
# Poissons Ratio (x) = 1.24170 0.60166
# Poissons Ratio (y) = 0.22145 0.18888
# Poissons Ratio (z) = 0.11621 0.20456
#
# Static dielectric constant tensor:
#      x y z
#    x 1.973490 0.000000 -0.033490 
#    y 0.000000 1.804850 0.000000 
#    z -0.033490 0.000000 1.932750 
# 
# From -- ./inp_files/53733.got.cif
#   From: 2010.05.17/outbox.cif.g08.bks.cpg/sg12_27_cif.got.tgz:53733.got - 2010.06.03 13:09:07.
