data_PCOD9220924
_publ_section_title
;
Structure prediction by ZEFSAII (Michael W. Deem and Ramdas Pophale) SiO2 
 PCOD9220924
Probable space group: C 2/M
;
_chemical_formula_sum "Si O2"
_cell_formula_units_Z 32
_cell_length_a 8.972399
_cell_length_b 19.039722
_cell_length_c 14.653964
_cell_angle_alpha 90.000000
_cell_angle_beta 29.376228
_cell_angle_gamma 90.000000
_cell_volume 1228.006642
_symmetry_space_group_name_H-M "C 2/M"
_symmetry_group_IT_number 12
_symmetry_cell_setting 'monoclinic'
loop_
_space_group_symop_operation_xyz
x,y,z
-x,y,-z
-x,-y,-z
x,-y,z
1/2+x,1/2+y,z
1/2-x,1/2+y,-z
1/2-x,1/2-y,-z
1/2+x,1/2-y,z
loop_
_atom_site_type_symbol
_atom_site_label
_atom_site_fract_x
_atom_site_fract_y
_atom_site_fract_z
Si Si1 0.620651 0.345407 0.534719
Si Si2 0.355047 0.500000 0.720451
Si Si3 0.178551 0.209264 0.136238
Si Si4 0.667744 0.639389 0.824730
Si Si5 0.827295 0.000000 0.955517
O O1 0.500000 0.324504 0.500000
O O2 0.498629 0.424599 0.619730
O O3 0.481792 0.287162 0.678127
O O4 0.981321 0.358313 0.340708
O O5 0.349239 0.500000 0.833860
O O6 0.032886 0.500000 0.839640
O O7 0.903059 0.165884 0.237820
O O8 0.500000 0.175961 0.000000
O O9 0.250000 0.250000 0.000000
O O10 0.492868 0.566139 0.910367
O O11 0.500000 0.679141 0.000000
#
# Coordination Sequence:
#
# PCOD9220924 Si02
#       5
#     8   4   8   8   4
#     4  12  26  47  78 116 158 204 255 314 390 471
#     4  11  22  41  74 120 161 205 245 305 386 476
#     4  12  27  51  77 105 146 197 260 329 384 451
#     4  12  25  46  74 113 156 204 254 315 389 465
#     4  11  22  39  74 114 163 203 245 305 389 468
#
# _framework density 26.058492000000001
#
# number of rings (size 3 to 8) (size 9 to 14) (size 15 to 20)
#    0.000    0.250    2.500    7.500    0.000    1.000 
#    0.000   17.500    0.000    0.000    0.000    0.000 
#    0.000    0.000    0.000    0.000    0.000    0.000 
#
# Total GULP energy -89168.215902 kJ/mol
# GULP energy per Si atom -5573.013494 kJ/mol
# Density = 2.599918 g / cm^3
# Si number density = 26.058492 Si / 1000 Ang^3
#
#
#
# Elastic Constant Matrix: (Units=GPa)
#
#
# Indices 1 2 3 4 5 6 
#
# 1 265.8557 37.1389 87.2772 -0.0041 -13.8996 0.0527
# 2 37.1389 81.4126 24.2318 -0.1161 9.7556 0.3584
# 3 87.2772 24.2318 205.7345 -0.2135 -28.2124 0.4937
# 4 -0.0041 -0.1161 -0.2135 12.2970 0.0532 46.4543
# 5 -13.8996 9.7556 -28.2124 0.0532 77.3040 -0.1970
# 6 0.0527 0.3584 0.4937 46.4543 -0.1970 113.5192
#
#
#
# Elastic Compliance Matrix: (Units=1/GPa)
#
#
# Indices 1 2 3 4 5 6 
#
# 1 0.004565 -0.001628 -0.001688 0.000159 0.000410 -0.000054
# 2 -0.001628 0.013698 -0.001264 -0.000501 -0.002482 0.000164
# 3 -0.001688 -0.001264 0.006006 -0.000275 0.002048 0.000095
# 4 0.000159 -0.000501 -0.000275 -0.148923 0.000249 0.060945
# 5 0.000410 -0.002482 0.002048 0.000249 0.014070 -0.000079
# 6 -0.000054 0.000164 0.000095 0.060945 -0.000079 -0.016132
#
#
# Mechanical properties :
#
#
# Convention : Reuss Voigt Hill
#
# Bulk Modulus (GPa) = 66.19043 94.47762 80.33403
# Shear Modulus (GPa) = -44.43690 67.58102 11.57206
#
# Velocity S-wave (km/s) = -4.13398 5.09810 2.10961
# Velocity P-wave (km/s) = 1.63386 8.42549 6.06871
#
# Compressibility (1/GPa) = 0.01510792
#
# Stress axis : x y z
#
# Youngs Moduli (GPa) = 219.07979 73.00262 166.50080
#
# Poissons Ratio (x) = 0.11888 0.28107
# Poissons Ratio (y) = 0.35677 0.21043
# Poissons Ratio (z) = 0.36982 0.09226
#
# Static dielectric constant tensor:
#      x y z
#    x 2.018030 0.000030 -0.005090 
#    y 0.000030 2.146120 0.000070 
#    z -0.005090 0.000070 2.075100 
# 
# From -- ./inp_files/198172.got.cif
#   From: 2010.05.17/outbox.cif.g08.bks.cpg/sg12_100_cif.got.tgz:198172.got - 2010.06.03 13:09:07.
