data_PCOD9220393
_publ_section_title
;
Structure prediction by ZEFSAII (Michael W. Deem and Ramdas Pophale) SiO2 
 PCOD9220393
Probable space group: C 2/M
;
_chemical_formula_sum "Si O2"
_cell_formula_units_Z 64
_cell_length_a 28.700172
_cell_length_b 9.322134
_cell_length_c 23.069152
_cell_angle_alpha 90.000000
_cell_angle_beta 37.009621
_cell_angle_gamma 90.000000
_cell_volume 3715.277482
_symmetry_space_group_name_H-M "C 2/M"
_symmetry_group_IT_number 12
_symmetry_cell_setting 'monoclinic'
loop_
_space_group_symop_operation_xyz
x,y,z
-x,y,-z
-x,-y,-z
x,-y,z
1/2+x,1/2+y,z
1/2-x,1/2+y,-z
1/2-x,1/2-y,-z
1/2+x,1/2-y,z
loop_
_atom_site_type_symbol
_atom_site_label
_atom_site_fract_x
_atom_site_fract_y
_atom_site_fract_z
Si Si1 0.662282 0.170013 0.801395
Si Si2 0.646310 0.332090 0.935729
Si Si3 0.525304 0.672453 0.609070
Si Si4 0.185385 0.827345 0.026467
Si Si5 0.990953 0.174063 0.771822
Si Si6 0.964591 0.169065 0.147553
Si Si7 0.426436 0.836225 0.617082
Si Si8 0.665182 0.670204 0.385097
O O1 0.593205 0.244834 0.835495
O O2 0.745669 0.198244 0.689210
O O3 0.649887 0.000000 0.816190
O O4 0.667125 0.234399 0.861031
O O5 0.662083 0.500000 0.907421
O O6 0.687542 0.294324 0.955517
O O7 0.553827 0.319383 0.038608
O O8 0.514404 0.500000 0.617159
O O9 0.525141 0.717666 0.676173
O O10 0.456268 0.749418 0.642944
O O11 0.604986 0.706152 0.496160
O O12 0.099258 0.784894 0.133347
O O13 0.191895 0.000000 0.025589
O O14 0.250000 0.750000 0.000000
O O15 0.035304 0.221144 0.785751
O O16 0.991907 0.000000 0.773283
O O17 0.944551 0.000000 0.165251
O O18 0.500000 0.837816 0.500000
O O19 0.360301 0.756670 0.646619
O O20 0.405993 0.000000 0.651374
O O21 0.656601 0.500000 0.381830
#
# Coordination Sequence:
#
# PCOD9220393 Si02
#       8
#     8   8   8   8   8   8   8   8
#     4  11  22  33  48  73 101 126 158 203 247 283
#     4   9  19  35  53  72  96 129 164 195 235 292
#     4   9  16  31  54  72  92 128 167 196 230 283
#     4   9  18  33  51  74 103 128 155 194 237 281
#     4   8  16  32  54  74  91 122 166 200 228 280
#     4   9  18  35  55  72  93 123 161 201 242 291
#     4   9  17  29  46  69  96 124 157 198 238 275
#     4   9  19  33  47  68  99 131 161 195 237 285
#
# _framework density 17.226168999999999
#
# number of rings (size 3 to 8) (size 9 to 14) (size 15 to 20)
#    0.000    2.875    0.000    2.625    0.000    6.000 
#    0.000    7.500    0.000    0.000    0.000    0.000 
#    0.000    0.000    0.000    0.000    0.000    0.000 
#
# Total GULP energy -178377.011108 kJ/mol
# GULP energy per Si atom -5574.281597 kJ/mol
# Density = 1.718696 g / cm^3
# Si number density = 17.226169 Si / 1000 Ang^3
#
#
#
# Elastic Constant Matrix: (Units=GPa)
#
#
# Indices 1 2 3 4 5 6 
#
# 1 126.2754 51.2197 49.8968 0.0028 3.9310 -0.0023
# 2 51.2197 41.1811 32.6310 0.0001 1.9983 -0.0032
# 3 49.8968 32.6310 56.6943 -0.0059 18.2814 -0.0005
# 4 0.0028 0.0001 -0.0059 17.4845 0.0001 -2.6221
# 5 3.9310 1.9983 18.2814 0.0001 22.8959 0.0029
# 6 -0.0023 -0.0032 -0.0005 -2.6221 0.0029 23.1414
#
#
#
# Elastic Compliance Matrix: (Units=1/GPa)
#
#
# Indices 1 2 3 4 5 6 
#
# 1 0.017002 -0.015387 -0.007540 -0.000005 0.004444 -0.000002
# 2 -0.015387 0.069094 -0.033848 -0.000009 0.023638 0.000003
# 3 -0.007540 -0.033848 0.057083 0.000021 -0.041330 0.000003
# 4 -0.000005 -0.000009 0.000021 0.058182 -0.000016 0.006592
# 5 0.004444 0.023638 -0.041330 -0.000016 0.073850 -0.000008
# 6 -0.000002 0.000003 0.000003 0.006592 -0.000008 0.043959
#
#
# Mechanical properties :
#
#
# Convention : Reuss Voigt Hill
#
# Bulk Modulus (GPa) = 33.75078 54.62731 44.18904
# Shear Modulus (GPa) = 11.29697 18.73124 15.01411
#
# Velocity S-wave (km/s) = 2.56364 3.30111 2.95547
# Velocity P-wave (km/s) = 5.32900 6.80518 6.11182
#
# Compressibility (1/GPa) = 0.02962895
#
# Stress axis : x y z
#
# Youngs Moduli (GPa) = 58.81832 14.47297 17.51839
#
# Poissons Ratio (x) = 0.22270 0.13209
# Poissons Ratio (y) = 0.90504 0.59296
# Poissons Ratio (z) = 0.44349 0.48988
#
# Static dielectric constant tensor:
#      x y z
#    x 1.564400 0.000000 0.003760 
#    y 0.000000 1.570240 0.000000 
#    z 0.003760 0.000000 1.601000 
# 
# From -- ./inp_files/324140.got.cif
#   From: 2010.05.17/outbox.cif.g08.bks.cpg/sg12_163_cif.got.tgz:324140.got - 2010.06.03 13:09:07.
