data_PCOD9220052
_publ_section_title
;
Structure prediction by ZEFSAII (Michael W. Deem and Ramdas Pophale) SiO2 
 PCOD9220052
Probable space group: C 2/M
;
_chemical_formula_sum "Si O2"
_cell_formula_units_Z 56
_cell_length_a 8.542138
_cell_length_b 26.217621
_cell_length_c 17.836432
_cell_angle_alpha 90.000000
_cell_angle_beta 50.364349
_cell_angle_gamma 90.000000
_cell_volume 3076.268644
_symmetry_space_group_name_H-M "C 2/M"
_symmetry_group_IT_number 12
_symmetry_cell_setting 'monoclinic'
loop_
_space_group_symop_operation_xyz
x,y,z
-x,y,-z
-x,-y,-z
x,-y,z
1/2+x,1/2+y,z
1/2-x,1/2+y,-z
1/2-x,1/2-y,-z
1/2+x,1/2-y,z
loop_
_atom_site_type_symbol
_atom_site_label
_atom_site_fract_x
_atom_site_fract_y
_atom_site_fract_z
Si Si1 0.399511 0.149694 0.150005
Si Si2 0.120380 0.286172 0.386480
Si Si3 0.681153 0.943198 0.051036
Si Si4 0.625404 0.443785 0.843912
Si Si5 0.544274 0.348870 0.776661
Si Si6 0.597564 0.267356 0.890680
Si Si7 0.556052 0.200584 0.718600
O O1 0.543727 0.105341 0.076132
O O2 0.452139 0.207740 0.108198
O O3 0.417936 0.152492 0.234943
O O4 0.172914 0.139398 0.191389
O O5 0.307326 0.325498 0.330965
O O6 0.241611 0.234078 0.330637
O O7 0.000000 0.282231 0.500000
O O8 0.979626 0.302697 0.359544
O O9 0.749751 0.939367 0.117094
O O10 0.589542 0.000000 0.067612
O O11 0.889027 0.941085 0.940782
O O12 0.664686 0.500000 0.799864
O O13 0.654150 0.397238 0.779692
O O14 0.521588 0.307056 0.850620
O O15 0.842024 0.273980 0.810917
O O16 0.500000 0.282042 0.000000
#
# Coordination Sequence:
#
# PCOD9220052 Si02
#       7
#     8   8   8   8   8   8   8
#     4  12  22  35  53  80 121 148 186 234 273 329
#     4  11  21  38  59  80 110 147 190 241 288 332
#     4   9  20  36  56  79 108 154 198 228 271 329
#     4   9  20  39  57  77 109 151 195 235 275 326
#     4  11  23  37  55  84 114 145 194 234 280 345
#     4  11  24  37  52  78 119 162 189 222 276 336
#     4  11  21  38  52  81 113 150 192 227 275 345
#
# _framework density 18.203872
#
# number of rings (size 3 to 8) (size 9 to 14) (size 15 to 20)
#    0.000    1.429    4.286    3.000    6.000    1.714 
#    0.000    1.429    0.000    0.429    0.000    0.000 
#    0.000    5.143    0.000    0.000    0.000    0.000 
#
# Total GULP energy -156278.587621 kJ/mol
# GULP energy per Si atom -5581.378129 kJ/mol
# Density = 1.816244 g / cm^3
# Si number density = 18.203872 Si / 1000 Ang^3
#
#
#
# Elastic Constant Matrix: (Units=GPa)
#
#
# Indices 1 2 3 4 5 6 
#
# 1 73.1139 7.7935 11.8848 0.0000 5.1066 0.0000
# 2 7.7935 79.7274 15.7095 0.0000 -9.6264 0.0000
# 3 11.8848 15.7095 94.3577 0.0000 5.6888 0.0000
# 4 0.0000 0.0000 0.0000 12.3877 0.0000 -0.0318
# 5 5.1066 -9.6264 5.6888 0.0000 18.4712 0.0000
# 6 0.0000 0.0000 0.0000 -0.0318 0.0000 19.0081
#
#
#
# Elastic Compliance Matrix: (Units=1/GPa)
#
#
# Indices 1 2 3 4 5 6 
#
# 1 0.014375 -0.001697 -0.001259 0.000000 -0.004471 0.000000
# 2 -0.001697 0.014296 -0.002694 0.000000 0.008749 0.000000
# 3 -0.001259 -0.002694 0.011482 0.000000 -0.004592 0.000000
# 4 0.000000 0.000000 0.000000 0.080726 0.000000 0.000135
# 5 -0.004471 0.008749 -0.004592 0.000000 0.061348 0.000000
# 6 0.000000 0.000000 0.000000 0.000135 0.000000 0.052610
#
#
# Mechanical properties :
#
#
# Convention : Reuss Voigt Hill
#
# Bulk Modulus (GPa) = 34.65733 35.33051 34.99392
# Shear Modulus (GPa) = 19.55015 24.09415 21.82215
#
# Velocity S-wave (km/s) = 3.28068 3.64204 3.46607
# Velocity P-wave (km/s) = 5.78189 6.09396 5.93997
#
# Compressibility (1/GPa) = 0.02885392
#
# Stress axis : x y z
#
# Youngs Moduli (GPa) = 69.56513 69.95068 87.09415
#
# Poissons Ratio (x) = 0.11871 0.10961
# Poissons Ratio (y) = 0.11805 0.23462
# Poissons Ratio (z) = 0.08755 0.18843
#
# Static dielectric constant tensor:
#      x y z
#    x 1.687500 0.000000 0.018140 
#    y 0.000000 1.655590 0.000000 
#    z 0.018140 0.000000 1.610330 
# 
# From -- ./inp_files/259532.got.cif
#   From: 2010.05.17/outbox.cif.g08.bks.cpg/sg12_130_cif.got.tgz:259532.got - 2010.06.03 13:09:07.
