data_PCOD9220556
_publ_section_title
;
Structure prediction by ZEFSAII (Michael W. Deem and Ramdas Pophale) SiO2 
 PCOD9220556
Probable space group: C 2/M
;
_chemical_formula_sum "Si O2"
_cell_formula_units_Z 40
_cell_length_a 19.530881
_cell_length_b 22.075808
_cell_length_c 4.973768
_cell_angle_alpha 90.000000
_cell_angle_beta 85.689714
_cell_angle_gamma 90.000000
_cell_volume 2138.424354
_symmetry_space_group_name_H-M "C 2/M"
_symmetry_group_IT_number 12
_symmetry_cell_setting 'monoclinic'
loop_
_space_group_symop_operation_xyz
x,y,z
-x,y,-z
-x,-y,-z
x,-y,z
1/2+x,1/2+y,z
1/2-x,1/2+y,-z
1/2-x,1/2-y,-z
1/2+x,1/2-y,z
loop_
_atom_site_type_symbol
_atom_site_label
_atom_site_fract_x
_atom_site_fract_y
_atom_site_fract_z
Si Si1 0.045312 0.699448 0.750347
Si Si2 0.687201 0.253708 0.738208
Si Si3 0.064981 0.566108 0.684583
Si Si4 0.256857 0.355388 0.957043
Si Si5 0.777696 0.568684 0.534713
O O1 0.113208 0.736213 0.649633
O O2 0.062521 0.630159 0.837896
O O3 0.000000 0.694005 0.500000
O O4 0.000000 0.728063 0.000000
O O5 0.750000 0.250000 0.500000
O O6 0.685176 0.316134 0.906755
O O7 0.701817 0.198641 0.940403
O O8 0.064949 0.500000 0.828322
O O9 0.139986 0.570010 0.527164
O O10 0.000000 0.564804 0.500000
O O11 0.235824 0.407957 0.163903
O O12 0.259711 0.386296 0.664620
O O13 0.754596 0.500000 0.499413
#
# Coordination Sequence:
#
# PCOD9220556 Si02
#       5
#     8   8   8   8   8
#     4  11  25  37  56  83 119 151 200 249 285 329
#     4  11  23  39  63  82 117 159 204 237 297 362
#     4   9  19  33  50  71 109 160 202 232 273 323
#     4  11  22  36  59  80 110 152 199 233 302 340
#     4  11  22  37  55  83 115 148 199 250 284 332
#
# _framework density 18.705362000000001
#
# number of rings (size 3 to 8) (size 9 to 14) (size 15 to 20)
#    0.000    1.400    4.000    0.600   11.200    0.400 
#    0.000    0.000    0.000    0.000    0.000    0.000 
#    0.000   16.000    0.000    0.000    0.000    0.000 
#
# Total GULP energy -111384.916397 kJ/mol
# GULP energy per Si atom -5569.245820 kJ/mol
# Density = 1.866279 g / cm^3
# Si number density = 18.705362 Si / 1000 Ang^3
#
#
#
# Elastic Constant Matrix: (Units=GPa)
#
#
# Indices 1 2 3 4 5 6 
#
# 1 78.6469 31.4087 12.2419 0.0000 -1.7241 0.0000
# 2 31.4087 85.5256 4.4408 0.0000 4.9431 0.0000
# 3 12.2419 4.4408 64.8981 0.0000 -0.2416 0.0000
# 4 0.0000 0.0000 0.0000 23.3128 0.0000 7.8491
# 5 -1.7241 4.9431 -0.2416 0.0000 19.2831 0.0000
# 6 0.0000 0.0000 0.0000 7.8491 0.0000 31.9319
#
#
#
# Elastic Compliance Matrix: (Units=1/GPa)
#
#
# Indices 1 2 3 4 5 6 
#
# 1 0.015446 -0.005704 -0.002513 0.000000 0.002812 0.000000
# 2 -0.005704 0.014019 0.000101 0.000000 -0.004102 0.000000
# 3 -0.002513 0.000101 0.015876 0.000000 -0.000052 0.000000
# 4 0.000000 0.000000 0.000000 0.046765 0.000000 -0.011495
# 5 0.002812 -0.004102 -0.000052 0.000000 0.053161 0.000000
# 6 0.000000 0.000000 0.000000 -0.011495 0.000000 0.034142
#
#
# Mechanical properties :
#
#
# Convention : Reuss Voigt Hill
#
# Bulk Modulus (GPa) = 34.35340 36.13926 35.24633
# Shear Modulus (GPa) = 24.34938 26.97085 25.66011
#
# Velocity S-wave (km/s) = 3.61187 3.80133 3.70781
# Velocity P-wave (km/s) = 5.98327 6.21522 6.10035
#
# Compressibility (1/GPa) = 0.02910920
#
# Stress axis : x y z
#
# Youngs Moduli (GPa) = 64.74167 71.33082 62.98967
#
# Poissons Ratio (x) = 0.40691 0.15828
# Poissons Ratio (y) = 0.36932 -0.00639
# Poissons Ratio (z) = 0.16268 -0.00724
#
# Static dielectric constant tensor:
#      x y z
#    x 1.673480 0.000000 0.007450 
#    y 0.000000 1.690140 0.000000 
#    z 0.007450 0.000000 1.675950 
# 
# From -- ./inp_files/15791.got.cif
#   From: 2010.05.17/outbox.cif.g08.bks.cpg/sg12_8_cif.got.tgz:15791.got - 2010.06.03 13:09:07.
