data_PCOD9220371
_publ_section_title
;
Structure prediction by ZEFSAII (Michael W. Deem and Ramdas Pophale) SiO2 
 PCOD9220371
Probable space group: C 2/M
;
_chemical_formula_sum "Si O2"
_cell_formula_units_Z 40
_cell_length_a 19.372034
_cell_length_b 17.505322
_cell_length_c 8.906220
_cell_angle_alpha 90.000000
_cell_angle_beta 136.877254
_cell_angle_gamma 90.000000
_cell_volume 2064.513212
_symmetry_space_group_name_H-M "C 2/M"
_symmetry_group_IT_number 12
_symmetry_cell_setting 'monoclinic'
loop_
_space_group_symop_operation_xyz
x,y,z
-x,y,-z
-x,-y,-z
x,-y,z
1/2+x,1/2+y,z
1/2-x,1/2+y,-z
1/2-x,1/2-y,-z
1/2+x,1/2-y,z
loop_
_atom_site_type_symbol
_atom_site_label
_atom_site_fract_x
_atom_site_fract_y
_atom_site_fract_z
Si Si1 0.182257 0.500000 0.908663
Si Si2 0.000000 0.247118 0.500000
Si Si3 0.609557 0.500000 0.602488
Si Si4 0.635034 0.878978 0.581297
Si Si5 0.850526 0.909705 0.794551
Si Si6 0.504147 0.000000 0.186613
Si Si7 0.527635 0.630497 0.283831
O O1 0.154514 0.429411 0.759617
O O2 0.110333 0.500000 0.937465
O O3 0.297619 0.500000 0.139331
O O4 0.087044 0.302174 0.571568
O O5 0.984166 0.192798 0.330036
O O6 0.500000 0.500000 0.500000
O O7 0.603885 0.576300 0.496199
O O8 0.742761 0.876340 0.669900
O O9 0.560472 0.926646 0.351841
O O10 0.903449 0.855628 0.754088
O O11 0.839809 0.000000 0.731336
O O12 0.929451 0.910379 0.057928
O O13 0.500000 0.000000 0.000000
#
# Coordination Sequence:
#
# PCOD9220371 Si02
#       7
#     4   4   4   8   8   4   8
#     4  11  22  40  73  96 124 178 220 278 326 375
#     4  12  26  44  60  94 146 182 206 264 330 424
#     4  12  21  37  65 104 122 161 238 273 306 377
#     4  11  23  45  67  94 134 174 219 265 337 397
#     4  11  21  43  73  96 124 173 226 287 326 368
#     4  11  23  42  69 102 124 166 230 280 314 378
#     4  11  24  40  65  97 138 168 218 276 329 393
#
# _framework density 19.375026999999999
#
# number of rings (size 3 to 8) (size 9 to 14) (size 15 to 20)
#    0.000    0.800    7.000    2.400    2.800    1.600 
#    3.600    0.000    0.000    0.000    0.000    0.000 
#    0.000    0.000    0.000    0.000    0.000    0.000 
#
# Total GULP energy -111413.873548 kJ/mol
# GULP energy per Si atom -5570.693677 kJ/mol
# Density = 1.933093 g / cm^3
# Si number density = 19.375027 Si / 1000 Ang^3
#
#
#
# Elastic Constant Matrix: (Units=GPa)
#
#
# Indices 1 2 3 4 5 6 
#
# 1 176.8619 41.6732 48.3774 0.0000 0.2655 0.0000
# 2 41.6732 72.6021 32.3878 0.0000 -10.5754 0.0000
# 3 48.3774 32.3878 101.4607 0.0000 -13.4971 0.0000
# 4 0.0000 0.0000 0.0000 9.0224 0.0000 5.6839
# 5 0.2655 -10.5754 -13.4971 0.0000 33.7827 0.0000
# 6 0.0000 0.0000 0.0000 5.6839 0.0000 34.0606
#
#
#
# Elastic Compliance Matrix: (Units=1/GPa)
#
#
# Indices 1 2 3 4 5 6 
#
# 1 0.007145 -0.003224 -0.002661 0.000000 -0.002128 0.000000
# 2 -0.003224 0.017839 -0.003602 0.000000 0.004170 0.000000
# 3 -0.002661 -0.003602 0.012808 0.000000 0.004010 0.000000
# 4 0.000000 0.000000 0.000000 0.123856 0.000000 -0.020669
# 5 -0.002128 0.004170 0.004010 0.000000 0.032525 0.000000
# 6 0.000000 0.000000 0.000000 -0.020669 0.000000 0.032809
#
#
# Mechanical properties :
#
#
# Convention : Reuss Voigt Hill
#
# Bulk Modulus (GPa) = 53.14235 66.20016 59.67125
# Shear Modulus (GPa) = 19.82330 30.60559 25.21444
#
# Velocity S-wave (km/s) = 3.20212 3.97878 3.61139
# Velocity P-wave (km/s) = 6.41555 7.43973 6.94654
#
# Compressibility (1/GPa) = 0.01881739
#
# Stress axis : x y z
#
# Youngs Moduli (GPa) = 139.96203 56.05753 78.07585
#
# Poissons Ratio (x) = 0.18074 0.20773
# Poissons Ratio (y) = 0.45126 0.28125
# Poissons Ratio (z) = 0.37239 0.20194
#
# Static dielectric constant tensor:
#      x y z
#    x 1.756800 0.000000 -0.046460 
#    y 0.000000 1.678320 0.000000 
#    z -0.046460 0.000000 1.672880 
# 
# From -- ./inp_files/88279.got.cif
#   From: 2010.05.17/outbox.cif.g08.bks.cpg/sg12_45_cif.got.tgz:88279.got - 2010.06.03 13:09:07.
