data_PCOD9220420
_publ_section_title
;
Structure prediction by ZEFSAII (Michael W. Deem and Ramdas Pophale) SiO2 
 PCOD9220420
Probable space group: C 2/M
;
_chemical_formula_sum "Si O2"
_cell_formula_units_Z 56
_cell_length_a 7.378847
_cell_length_b 18.967832
_cell_length_c 19.840094
_cell_angle_alpha 90.000000
_cell_angle_beta 69.511365
_cell_angle_gamma 90.000000
_cell_volume 2601.176068
_symmetry_space_group_name_H-M "C 2/M"
_symmetry_group_IT_number 12
_symmetry_cell_setting 'monoclinic'
loop_
_space_group_symop_operation_xyz
x,y,z
-x,y,-z
-x,-y,-z
x,-y,z
1/2+x,1/2+y,z
1/2-x,1/2+y,-z
1/2-x,1/2-y,-z
1/2+x,1/2-y,z
loop_
_atom_site_type_symbol
_atom_site_label
_atom_site_fract_x
_atom_site_fract_y
_atom_site_fract_z
Si Si1 0.880856 0.831042 0.226310
Si Si2 0.819066 0.582235 0.937520
Si Si3 0.722223 0.585942 0.481673
Si Si4 0.220913 0.421414 0.668770
Si Si5 0.915101 0.081157 0.904519
Si Si6 0.176662 0.919663 0.633310
Si Si7 0.486661 0.832101 0.196787
O O1 0.832073 0.863734 0.305411
O O2 0.687082 0.842560 0.209698
O O3 0.050801 0.873331 0.166178
O O4 0.931791 0.749286 0.211265
O O5 0.883118 0.500000 0.928368
O O6 0.616327 0.583870 0.921463
O O7 0.969745 0.634223 0.881854
O O8 0.754037 0.602131 0.021588
O O9 0.500000 0.610665 0.500000
O O10 0.721964 0.500000 0.479718
O O11 0.833762 0.607273 0.398720
O O12 0.782018 0.603513 0.550286
O O13 0.138341 0.500000 0.687432
O O14 0.452376 0.426815 0.640362
O O15 0.163219 0.375424 0.739333
O O16 0.884465 0.000000 0.889541
O O17 0.239393 0.000000 0.644597
#
# Coordination Sequence:
#
# PCOD9220420 Si02
#       7
#     8   8   8   8   8   8   8
#     4  11  22  34  49  72 103 137 172 207 246 293
#     4   8  15  30  52  75  97 124 161 204 249 297
#     4   7  12  26  50  77 100 125 159 199 246 299
#     4   9  17  32  55  79 102 129 163 204 250 300
#     4   8  15  30  52  75  97 124 161 204 249 297
#     4   9  17  32  55  79 102 129 163 204 250 300
#     4  11  22  34  49  72 103 137 172 207 246 293
#
# _framework density 21.528722999999999
#
# number of rings (size 3 to 8) (size 9 to 14) (size 15 to 20)
#    0.000    3.000    0.000    4.286    0.000    2.286 
#    0.000    1.429    0.000    5.143    0.000   10.000 
#    0.000    0.000    0.000    0.000    0.000    0.000 
#
# Total GULP energy -156147.143485 kJ/mol
# GULP energy per Si atom -5576.683696 kJ/mol
# Density = 2.147972 g / cm^3
# Si number density = 21.528723 Si / 1000 Ang^3
#
#
#
# Elastic Constant Matrix: (Units=GPa)
#
#
# Indices 1 2 3 4 5 6 
#
# 1 40.5264 -1.2613 9.6046 0.0000 1.9813 0.0000
# 2 -1.2613 77.7754 79.6995 0.0000 -0.0632 0.0000
# 3 9.6046 79.6995 164.1541 0.0000 -1.4202 0.0000
# 4 0.0000 0.0000 0.0000 1.2134 0.0000 15.4353
# 5 1.9813 -0.0632 -1.4202 0.0000 26.8668 0.0000
# 6 0.0000 0.0000 0.0000 15.4353 0.0000 -75.3166
#
#
#
# Elastic Compliance Matrix: (Units=1/GPa)
#
#
# Indices 1 2 3 4 5 6 
#
# 1 0.025712 0.003931 -0.003431 0.000000 -0.002068 0.000000
# 2 0.003931 0.026199 -0.012958 0.000000 -0.000913 0.000000
# 3 -0.003431 -0.012958 0.012592 0.000000 0.000888 0.000000
# 4 0.000000 0.000000 0.000000 0.228482 0.000000 0.046825
# 5 -0.002068 -0.000913 0.000888 0.000000 0.037418 0.000000
# 6 0.000000 0.000000 0.000000 0.046825 0.000000 -0.003681
#
#
# Mechanical properties :
#
#
# Convention : Reuss Voigt Hill
#
# Bulk Modulus (GPa) = 25.26089 50.94903 38.10496
# Shear Modulus (GPa) = 13.70489 3.51359 8.60924
#
# Velocity S-wave (km/s) = 2.52580 1.27890 2.00191
# Velocity P-wave (km/s) = 4.50170 5.08899 4.80432
#
# Compressibility (1/GPa) = 0.03958689
#
# Stress axis : x y z
#
# Youngs Moduli (GPa) = 38.89260 38.16922 79.41815
#
# Poissons Ratio (x) = -0.15004 0.27247
# Poissons Ratio (y) = -0.15289 1.02910
# Poissons Ratio (z) = 0.13344 0.49460
#
# Static dielectric constant tensor:
#      x y z
#    x 1.860820 0.000000 -0.006060 
#    y 0.000000 1.704930 0.000000 
#    z -0.006060 0.000000 1.844150 
# 
# From -- ./inp_files/300707.got.cif
#   From: 2010.05.17/outbox.cif.g08.bks.cpg/sg12_151_cif.got.tgz:300707.got - 2010.06.03 13:09:07.
