data_PCOD9220042
_publ_section_title
;
Structure prediction by ZEFSAII (Michael W. Deem and Ramdas Pophale) SiO2 
 PCOD9220042
Probable space group: C 2/M
;
_chemical_formula_sum "Si O2"
_cell_formula_units_Z 50
_cell_length_a 12.062695
_cell_length_b 29.504033
_cell_length_c 8.879299
_cell_angle_alpha 90.000000
_cell_angle_beta 52.917675
_cell_angle_gamma 90.000000
_cell_volume 2521.053712
_symmetry_space_group_name_H-M "C 2/M"
_symmetry_group_IT_number 12
_symmetry_cell_setting 'monoclinic'
loop_
_space_group_symop_operation_xyz
x,y,z
-x,y,-z
-x,-y,-z
x,-y,z
1/2+x,1/2+y,z
1/2-x,1/2+y,-z
1/2-x,1/2-y,-z
1/2+x,1/2-y,z
loop_
_atom_site_type_symbol
_atom_site_label
_atom_site_fract_x
_atom_site_fract_y
_atom_site_fract_z
Si Si1 0.435672 0.935891 0.827489
Si Si2 0.894453 0.714970 0.225819
Si Si3 0.268378 0.950618 0.255022
Si Si4 0.924054 0.659949 0.712460
Si Si5 0.000000 0.500000 0.500000
Si Si6 0.859892 0.818872 0.209724
Si Si7 0.353519 0.644811 0.544304
O O1 0.584964 0.948461 0.776031
O O2 0.429091 0.881809 0.821362
O O3 0.434380 0.960717 0.668277
O O4 0.314403 0.949089 0.042703
O O5 0.847613 0.766866 0.274537
O O6 0.768272 0.679831 0.309402
O O7 0.984976 0.700613 0.295861
O O8 0.000000 0.711488 0.000000
O O9 0.184683 0.906161 0.372809
O O10 0.203564 0.000000 0.341103
O O11 0.768853 0.672027 0.794290
O O12 0.000000 0.644067 0.500000
O O13 0.859992 0.850318 0.357597
O O14 0.000000 0.824050 0.000000
O O15 0.500000 0.657498 0.500000
#
# Coordination Sequence:
#
# PCOD9220042 Si02
#       7
#     8   8   8   8   2   8   8
#     4  11  21  37  66 104 132 170 222 282 333 387
#     4  11  25  44  69  98 129 181 229 277 338 406
#     4  11  22  43  66  95 135 177 227 272 333 406
#     4  12  23  40  68  97 137 172 223 283 331 402
#     4  12  20  34  64 108 134 162 214 294 338 376
#     4  11  28  44  66 100 138 178 224 285 346 401
#     4  12  27  44  67  98 136 181 226 280 341 410
#
# _framework density 19.832978000000001
#
# number of rings (size 3 to 8) (size 9 to 14) (size 15 to 20)
#    0.000    0.640    5.600    1.920    6.720    1.600 
#    0.000    0.000    0.000    0.480    0.000    0.000 
#    0.000    0.000    0.000    0.000    0.000    0.000 
#
# Total GULP energy -139445.570799 kJ/mol
# GULP energy per Si atom -5577.822832 kJ/mol
# Density = 1.978784 g / cm^3
# Si number density = 19.832978 Si / 1000 Ang^3
#
#
#
# Elastic Constant Matrix: (Units=GPa)
#
#
# Indices 1 2 3 4 5 6 
#
# 1 103.4369 27.3889 21.6293 0.0000 -15.4855 0.0000
# 2 27.3889 113.0446 55.0392 0.0000 -0.7246 0.0000
# 3 21.6293 55.0392 91.8045 0.0000 -3.2750 0.0000
# 4 0.0000 0.0000 0.0000 29.9379 0.0000 -3.3982
# 5 -15.4855 -0.7246 -3.2750 0.0000 29.1563 0.0000
# 6 0.0000 0.0000 0.0000 -3.3982 0.0000 19.6417
#
#
#
# Elastic Compliance Matrix: (Units=1/GPa)
#
#
# Indices 1 2 3 4 5 6 
#
# 1 0.011357 -0.002137 -0.001186 0.000000 0.005845 0.000000
# 2 -0.002137 0.012903 -0.007290 0.000000 -0.001633 0.000000
# 3 -0.001186 -0.007290 0.015576 0.000000 0.000938 0.000000
# 4 0.000000 0.000000 0.000000 0.034072 0.000000 0.005895
# 5 0.005845 -0.001633 0.000938 0.000000 0.037467 0.000000
# 6 0.000000 0.000000 0.000000 0.005895 0.000000 0.051932
#
#
# Mechanical properties :
#
#
# Convention : Reuss Voigt Hill
#
# Bulk Modulus (GPa) = 53.73595 57.37788 55.55692
# Shear Modulus (GPa) = 26.21421 29.36243 27.78832
#
# Velocity S-wave (km/s) = 3.63953 3.85188 3.74721
# Velocity P-wave (km/s) = 6.69437 6.98398 6.84071
#
# Compressibility (1/GPa) = 0.01860952
#
# Stress axis : x y z
#
# Youngs Moduli (GPa) = 88.05453 77.50235 64.19928
#
# Poissons Ratio (x) = 0.16558 0.07615
# Poissons Ratio (y) = 0.18813 0.46804
# Poissons Ratio (z) = 0.10445 0.56503
#
# Static dielectric constant tensor:
#      x y z
#    x 1.621270 0.000000 -0.033920 
#    y 0.000000 1.717270 0.000000 
#    z -0.033920 0.000000 1.688260 
# 
# From -- ./inp_files/53074.got.cif
#   From: 2010.05.17/outbox.cif.g08.bks.cpg/sg12_27_cif.got.tgz:53074.got - 2010.06.03 13:09:07.
