data_PCOD9220388
_publ_section_title
;
Structure prediction by ZEFSAII (Michael W. Deem and Ramdas Pophale) SiO2 
 PCOD9220388
Probable space group: C 2/M
;
_chemical_formula_sum "Si O2"
_cell_formula_units_Z 40
_cell_length_a 20.606378
_cell_length_b 19.470992
_cell_length_c 7.941883
_cell_angle_alpha 90.000000
_cell_angle_beta 138.504681
_cell_angle_gamma 90.000000
_cell_volume 2111.240407
_symmetry_space_group_name_H-M "C 2/M"
_symmetry_group_IT_number 12
_symmetry_cell_setting 'monoclinic'
loop_
_space_group_symop_operation_xyz
x,y,z
-x,y,-z
-x,-y,-z
x,-y,z
1/2+x,1/2+y,z
1/2-x,1/2+y,-z
1/2-x,1/2-y,-z
1/2+x,1/2-y,z
loop_
_atom_site_type_symbol
_atom_site_label
_atom_site_fract_x
_atom_site_fract_y
_atom_site_fract_z
Si Si1 0.195774 0.918972 0.757061
Si Si2 0.623683 0.304728 0.853018
Si Si3 0.386413 0.079404 0.322406
Si Si4 0.326443 0.210934 0.376790
Si Si5 0.562912 0.674620 0.281682
O O1 0.147522 0.879467 0.821451
O O2 0.143421 0.880505 0.500234
O O3 0.177569 0.000000 0.716902
O O4 0.311762 0.907690 0.020027
O O5 0.981002 0.190350 0.265142
O O6 0.641196 0.250258 0.735200
O O7 0.709345 0.287166 0.151496
O O8 0.500000 0.088886 0.500000
O O9 0.359228 0.133133 0.414338
O O10 0.370853 0.000000 0.340836
O O11 0.378838 0.253810 0.623236
O O12 0.500000 0.652776 0.000000
#
# Coordination Sequence:
#
# PCOD9220388 Si02
#       5
#     8   8   8   8   8
#     4   9  18  33  52  74  99 128 165 206 245 289
#     4   9  18  32  51  72  93 127 170 207 245 283
#     4   9  16  28  52  80  97 116 156 209 255 287
#     4   9  17  32  51  70  95 126 166 209 240 280
#     4  11  22  32  47  74 105 136 164 193 242 302
#
# _framework density 18.946207999999999
#
# number of rings (size 3 to 8) (size 9 to 14) (size 15 to 20)
#    0.000    2.600    0.000    4.800    0.000    2.800 
#    0.000    0.000    0.000    0.600    0.000    0.000 
#    0.000    0.000    0.000    0.000    0.000    0.000 
#
# Total GULP energy -111348.359129 kJ/mol
# GULP energy per Si atom -5567.417956 kJ/mol
# Density = 1.890309 g / cm^3
# Si number density = 18.946208 Si / 1000 Ang^3
#
#
#
# Elastic Constant Matrix: (Units=GPa)
#
#
# Indices 1 2 3 4 5 6 
#
# 1 26.0730 11.0776 28.3085 0.0000 13.7806 0.0000
# 2 11.0776 95.1764 54.3897 0.0000 15.9727 0.0000
# 3 28.3085 54.3897 147.9205 0.0000 26.7289 0.0000
# 4 0.0000 0.0000 0.0000 28.1090 0.0000 6.9176
# 5 13.7806 15.9727 26.7289 0.0000 28.6262 0.0000
# 6 0.0000 0.0000 0.0000 6.9176 0.0000 9.2329
#
#
#
# Elastic Compliance Matrix: (Units=1/GPa)
#
#
# Indices 1 2 3 4 5 6 
#
# 1 0.057252 0.001221 -0.007581 0.000000 -0.021163 0.000000
# 2 0.001221 0.013615 -0.004524 0.000000 -0.003960 0.000000
# 3 -0.007581 -0.004524 0.010537 0.000000 -0.003665 0.000000
# 4 0.000000 0.000000 0.000000 0.043618 0.000000 -0.032680
# 5 -0.021163 -0.003960 -0.003665 0.000000 0.050752 0.000000
# 6 0.000000 0.000000 0.000000 -0.032680 0.000000 0.132794
#
#
# Mechanical properties :
#
#
# Convention : Reuss Voigt Hill
#
# Bulk Modulus (GPa) = 16.76894 50.74683 33.75789
# Shear Modulus (GPa) = 14.27691 24.88657 19.58174
#
# Velocity S-wave (km/s) = 2.74806 3.62821 3.21837
# Velocity P-wave (km/s) = 4.35192 6.66293 5.62734
#
# Compressibility (1/GPa) = 0.05963406
#
# Stress axis : x y z
#
# Youngs Moduli (GPa) = 17.46657 73.45021 94.90412
#
# Poissons Ratio (x) = -0.08965 0.71950
# Poissons Ratio (y) = -0.02132 0.42935
# Poissons Ratio (z) = 0.13242 0.33229
#
# Static dielectric constant tensor:
#      x y z
#    x 1.649960 0.000000 -0.006350 
#    y 0.000000 1.667250 0.000000 
#    z -0.006350 0.000000 1.746550 
# 
# From -- ./inp_files/106475.got.cif
#   From: 2010.05.17/outbox.cif.g08.bks.cpg/sg12_54_cif.got.tgz:106475.got - 2010.06.03 13:09:07.
