data_PCOD9220224
_publ_section_title
;
Structure prediction by ZEFSAII (Michael W. Deem and Ramdas Pophale) SiO2 
 PCOD9220224
Probable space group: C 2/M
;
_chemical_formula_sum "Si O2"
_cell_formula_units_Z 56
_cell_length_a 10.013372
_cell_length_b 17.029415
_cell_length_c 25.373223
_cell_angle_alpha 90.000000
_cell_angle_beta 43.329427
_cell_angle_gamma 90.000000
_cell_volume 2968.939825
_symmetry_space_group_name_H-M "C 2/M"
_symmetry_group_IT_number 12
_symmetry_cell_setting 'monoclinic'
loop_
_space_group_symop_operation_xyz
x,y,z
-x,y,-z
-x,-y,-z
x,-y,z
1/2+x,1/2+y,z
1/2-x,1/2+y,-z
1/2-x,1/2-y,-z
1/2+x,1/2-y,z
loop_
_atom_site_type_symbol
_atom_site_label
_atom_site_fract_x
_atom_site_fract_y
_atom_site_fract_z
Si Si1 0.177524 0.688290 0.691839
Si Si2 0.621030 0.907686 0.813345
Si Si3 0.000664 0.590802 0.647884
Si Si4 0.040788 0.288160 0.550163
Si Si5 0.332341 0.295362 0.836080
Si Si6 0.186080 0.132531 0.911946
Si Si7 0.910662 0.912574 0.177877
O O1 0.188910 0.628980 0.737932
O O2 0.375267 0.734894 0.625094
O O3 0.120507 0.640724 0.656062
O O4 0.002920 0.749059 0.755498
O O5 0.717586 0.853944 0.830612
O O6 0.387287 0.896299 0.879859
O O7 0.667941 0.000000 0.804613
O O8 0.056496 0.500000 0.633927
O O9 0.775616 0.596647 0.730631
O O10 0.030283 0.628656 0.582561
O O11 0.250000 0.250000 0.500000
O O12 0.000000 0.293536 0.500000
O O13 0.202838 0.226200 0.897713
O O14 0.436107 0.346112 0.851417
O O15 0.165135 0.096314 0.859770
O O16 0.000000 0.112442 0.000000
O O17 0.992042 0.000000 0.161992
#
# Coordination Sequence:
#
# PCOD9220224 Si02
#       7
#     8   8   8   8   8   8   8
#     4  11  21  40  66  90 124 164 210 253 304 374
#     4  11  23  39  64  96 124 159 210 261 310 366
#     4  11  22  40  65  93 125 162 207 258 307 370
#     4  12  25  42  66  95 127 168 210 254 316 375
#     4  11  22  38  64  93 124 160 206 257 310 368
#     4  11  24  41  63  90 124 167 213 256 304 372
#     4  11  22  39  63  92 124 163 203 253 317 370
#
# _framework density 18.861951000000001
#
# number of rings (size 3 to 8) (size 9 to 14) (size 15 to 20)
#    0.000    0.857    5.714    3.857    0.000    3.714 
#    0.000    2.143    0.000    2.571    0.000    0.000 
#    0.000    0.000    0.000    0.000    0.000    0.000 
#
# Total GULP energy -156535.757415 kJ/mol
# GULP energy per Si atom -5590.562765 kJ/mol
# Density = 1.881902 g / cm^3
# Si number density = 18.861951 Si / 1000 Ang^3
#
#
#
# Elastic Constant Matrix: (Units=GPa)
#
#
# Indices 1 2 3 4 5 6 
#
# 1 67.7206 19.3620 2.4560 -0.0004 -4.1217 -0.0009
# 2 19.3620 107.1656 7.4886 -0.0004 -1.1416 -0.0006
# 3 2.4560 7.4886 76.3150 -0.0005 -3.6611 0.0002
# 4 -0.0004 -0.0004 -0.0005 -9.6660 0.0003 -27.5963
# 5 -4.1217 -1.1416 -3.6611 0.0003 13.0166 0.0000
# 6 -0.0009 -0.0006 0.0002 -27.5963 0.0000 -20.9237
#
#
#
# Elastic Compliance Matrix: (Units=1/GPa)
#
#
# Indices 1 2 3 4 5 6 
#
# 1 0.015862 -0.002815 -0.000005 0.000000 0.004774 0.000000
# 2 -0.002815 0.009899 -0.000894 0.000000 -0.000274 0.000000
# 3 -0.000005 -0.000894 0.013368 0.000000 0.003680 0.000000
# 4 0.000000 0.000000 0.000000 0.037410 -0.000001 -0.049340
# 5 0.004774 -0.000274 0.003680 -0.000001 0.079347 0.000001
# 6 0.000000 0.000000 0.000000 -0.049340 0.000001 0.017282
#
#
# Mechanical properties :
#
#
# Convention : Reuss Voigt Hill
#
# Bulk Modulus (GPa) = 31.54399 34.42383 32.98391
# Shear Modulus (GPa) = 26.15555 11.27837 18.71696
#
# Velocity S-wave (km/s) = 3.72786 2.44794 3.15352
# Velocity P-wave (km/s) = 5.94047 5.12639 5.54838
#
# Compressibility (1/GPa) = 0.03170176
#
# Stress axis : x y z
#
# Youngs Moduli (GPa) = 63.04350 101.01596 74.80541
#
# Poissons Ratio (x) = 0.28432 0.00039
# Poissons Ratio (y) = 0.17744 0.06688
# Poissons Ratio (z) = 0.00033 0.09031
#
# Static dielectric constant tensor:
#      x y z
#    x 1.643120 0.000000 -0.006080 
#    y 0.000000 1.656680 0.000000 
#    z -0.006080 0.000000 1.640110 
# 
# From -- ./inp_files/257024.got.cif
#   From: 2010.05.17/outbox.cif.g08.bks.cpg/sg12_129_cif.got.tgz:257024.got - 2010.06.03 13:09:07.
