data_PCOD9220038
_publ_section_title
;
Structure prediction by ZEFSAII (Michael W. Deem and Ramdas Pophale) SiO2 
 PCOD9220038
Probable space group: C 2/M
;
_chemical_formula_sum "Si O2"
_cell_formula_units_Z 48
_cell_length_a 20.973295
_cell_length_b 8.622277
_cell_length_c 29.429886
_cell_angle_alpha 90.000000
_cell_angle_beta 29.247512
_cell_angle_gamma 90.000000
_cell_volume 2600.254656
_symmetry_space_group_name_H-M "C 2/M"
_symmetry_group_IT_number 12
_symmetry_cell_setting 'monoclinic'
loop_
_space_group_symop_operation_xyz
x,y,z
-x,y,-z
-x,-y,-z
x,-y,z
1/2+x,1/2+y,z
1/2-x,1/2+y,-z
1/2-x,1/2-y,-z
1/2+x,1/2-y,z
loop_
_atom_site_type_symbol
_atom_site_label
_atom_site_fract_x
_atom_site_fract_y
_atom_site_fract_z
Si Si1 0.024059 0.311297 0.933160
Si Si2 0.269896 0.185905 0.436777
Si Si3 0.265922 0.186521 0.040582
Si Si4 0.022098 0.686069 0.538414
Si Si5 0.431093 0.813847 0.762501
Si Si6 0.181012 0.813394 0.262726
O O1 0.023173 0.500000 0.934327
O O2 0.167733 0.263868 0.827768
O O3 0.000000 0.259803 0.000000
O O4 0.904368 0.261927 0.976079
O O5 0.250000 0.250000 0.500000
O O6 0.158226 0.252491 0.473810
O O7 0.415842 0.226870 0.330001
O O8 0.258978 0.000000 0.444983
O O9 0.152399 0.246987 0.144208
O O10 0.263603 0.000000 0.041593
O O11 0.250000 0.250000 0.000000
O O12 0.022161 0.500000 0.540724
O O13 0.000000 0.733702 0.500000
O O14 0.907770 0.749667 0.641709
O O15 0.374785 0.747144 0.750432
O O16 0.420286 0.000000 0.768476
O O17 0.175534 0.000000 0.265960
#
# Coordination Sequence:
#
# PCOD9220038 Si02
#       6
#     8   8   8   8   8   8
#     4   9  18  36  61  89 118 155 201 247 295 357
#     4  11  23  39  64  92 123 161 207 256 306 369
#     4  11  23  41  63  89 126 162 202 252 305 363
#     4  11  25  43  61  88 128 164 201 256 313 366
#     4  11  23  39  61  92 125 158 202 253 305 364
#     4  11  21  37  65  92 117 158 207 252 304 364
#
# _framework density 18.45973
#
# number of rings (size 3 to 8) (size 9 to 14) (size 15 to 20)
#    0.000    1.333    3.333    2.500    0.000    4.667 
#    0.000    9.167    0.000    0.000    0.000    0.000 
#    0.000    0.000    0.000    0.000    0.000    0.000 
#
# Total GULP energy -134153.873382 kJ/mol
# GULP energy per Si atom -5589.744724 kJ/mol
# Density = 1.841772 g / cm^3
# Si number density = 18.459730 Si / 1000 Ang^3
#
#
#
# Elastic Constant Matrix: (Units=GPa)
#
#
# Indices 1 2 3 4 5 6 
#
# 1 200.0257 52.2193 131.3699 0.0000 -1.8604 -0.0003
# 2 52.2193 54.6896 59.6729 0.0000 -3.1235 0.0001
# 3 131.3699 59.6729 212.2816 -0.0003 -7.7483 0.0002
# 4 0.0000 0.0000 -0.0003 30.1209 0.0001 2.8696
# 5 -1.8604 -3.1235 -7.7483 0.0001 40.5077 0.0000
# 6 -0.0003 0.0001 0.0002 2.8696 0.0000 28.8361
#
#
#
# Elastic Compliance Matrix: (Units=1/GPa)
#
#
# Indices 1 2 3 4 5 6 
#
# 1 0.008906 -0.003610 -0.004523 0.000000 -0.000735 0.000000
# 2 -0.003610 0.027853 -0.005562 0.000000 0.000918 0.000000
# 3 -0.004523 -0.005562 0.009114 0.000000 0.001107 0.000000
# 4 0.000000 0.000000 0.000000 0.033517 0.000000 -0.003335
# 5 -0.000735 0.000918 0.001107 0.000000 0.024935 0.000000
# 6 0.000000 0.000000 0.000000 -0.003335 0.000000 0.035011
#
#
# Mechanical properties :
#
#
# Convention : Reuss Voigt Hill
#
# Bulk Modulus (GPa) = 54.10632 105.94680 80.02656
# Shear Modulus (GPa) = 28.92050 34.80858 31.86454
#
# Velocity S-wave (km/s) = 3.96243 4.34712 4.15922
# Velocity P-wave (km/s) = 7.09285 9.09476 8.15546
#
# Compressibility (1/GPa) = 0.01848213
#
# Stress axis : x y z
#
# Youngs Moduli (GPa) = 112.28757 35.90242 109.72244
#
# Poissons Ratio (x) = 0.12960 0.49631
# Poissons Ratio (y) = 0.40535 0.61029
# Poissons Ratio (z) = 0.50791 0.19969
#
# Static dielectric constant tensor:
#      x y z
#    x 1.606370 0.000000 -0.019810 
#    y 0.000000 1.628210 0.000000 
#    z -0.019810 0.000000 1.617320 
# 
# From -- ./inp_files/230336.got.cif
#   From: 2010.05.17/outbox.cif.g08.bks.cpg/sg12_116_cif.got.tgz:230336.got - 2010.06.03 13:09:07.
