data_PCOD9220954
_publ_section_title
;
Structure prediction by ZEFSAII (Michael W. Deem and Ramdas Pophale) SiO2 
 PCOD9220954
Probable space group: C 2/M
;
_chemical_formula_sum "Si O2"
_cell_formula_units_Z 40
_cell_length_a 25.516818
_cell_length_b 8.506012
_cell_length_c 10.326910
_cell_angle_alpha 90.000000
_cell_angle_beta 114.816932
_cell_angle_gamma 90.000000
_cell_volume 2034.431060
_symmetry_space_group_name_H-M "C 2/M"
_symmetry_group_IT_number 12
_symmetry_cell_setting 'monoclinic'
loop_
_space_group_symop_operation_xyz
x,y,z
-x,y,-z
-x,-y,-z
x,-y,z
1/2+x,1/2+y,z
1/2-x,1/2+y,-z
1/2-x,1/2-y,-z
1/2+x,1/2-y,z
loop_
_atom_site_type_symbol
_atom_site_label
_atom_site_fract_x
_atom_site_fract_y
_atom_site_fract_z
Si Si1 0.304776 0.691191 0.850218
Si Si2 0.112016 0.811706 0.832883
Si Si3 0.675730 0.811848 0.657370
Si Si4 0.871537 0.811595 0.658989
Si Si5 0.502950 0.188096 0.154048
O O1 0.304880 0.500000 0.852583
O O2 0.238501 0.742984 0.773517
O O3 0.338296 0.740027 0.754828
O O4 0.340204 0.744132 0.012525
O O5 0.128031 0.739978 0.711454
O O6 0.049933 0.761868 0.822412
O O7 0.114652 0.000000 0.827213
O O8 0.662341 0.741485 0.503399
O O9 0.676738 0.000000 0.648100
O O10 0.935481 0.740350 0.727028
O O11 0.875706 0.000000 0.665759
O O12 0.497956 0.000000 0.153225
O O13 0.500000 0.238562 0.000000
#
# Coordination Sequence:
#
# PCOD9220954 Si02
#       5
#     8   8   8   8   8
#     4   9  20  38  63  90 122 160 203 247 296 355
#     4  11  22  40  64  91 121 161 204 247 298 358
#     4  11  23  40  59  90 129 162 198 249 302 353
#     4  11  22  40  64  91 121 161 204 247 298 358
#     4  11  23  40  63  92 121 154 198 250 305 360
#
# _framework density 19.661517
#
# number of rings (size 3 to 8) (size 9 to 14) (size 15 to 20)
#    0.000    1.400    2.000    3.600    0.000    1.600 
#    0.000   10.000    0.000    0.000    0.000    0.000 
#    0.000    0.000    0.000    0.000    0.000    0.000 
#
# Total GULP energy -111845.250117 kJ/mol
# GULP energy per Si atom -5592.262506 kJ/mol
# Density = 1.961677 g / cm^3
# Si number density = 19.661517 Si / 1000 Ang^3
#
#
#
# Elastic Constant Matrix: (Units=GPa)
#
#
# Indices 1 2 3 4 5 6 
#
# 1 -74.6126 -165.6660 40.2977 0.0000 107.3316 0.0000
# 2 -165.6660 -157.6111 68.1810 0.0000 120.6934 0.0000
# 3 40.2977 68.1810 15.8283 0.0000 -57.2483 0.0000
# 4 0.0000 0.0000 0.0000 23.8130 0.0000 -0.1123
# 5 107.3316 120.6934 -57.2483 0.0000 -49.1310 0.0000
# 6 0.0000 0.0000 0.0000 -0.1123 0.0000 10.2522
#
#
#
# Elastic Compliance Matrix: (Units=1/GPa)
#
#
# Indices 1 2 3 4 5 6 
#
# 1 0.015287 -0.004790 0.011496 0.000000 0.008234 0.000000
# 2 -0.004790 0.014785 0.008059 0.000000 0.016465 0.000000
# 3 0.011496 0.008059 0.030997 0.000000 0.008793 0.000000
# 4 0.000000 0.000000 0.000000 0.041996 0.000000 0.000460
# 5 0.008234 0.016465 0.008793 0.000000 0.027837 0.000000
# 6 0.000000 0.000000 0.000000 0.000460 0.000000 0.097545
#
#
# Mechanical properties :
#
#
# Convention : Reuss Voigt Hill
#
# Bulk Modulus (GPa) = 11.03761 -36.75222 -12.85730
# Shear Modulus (GPa) = 21.82279 -13.62703 4.09788
#
# Velocity S-wave (km/s) = 3.33517 -2.63550 1.44525
# Velocity P-wave (km/s) = 4.52295 5.29095 1.94127
#
# Compressibility (1/GPa) = 0.09059931
#
# Stress axis : x y z
#
# Youngs Moduli (GPa) = 65.41316 67.63447 32.26079
#
# Poissons Ratio (x) = 0.32400 -0.37086
# Poissons Ratio (y) = 0.31335 -0.26000
# Poissons Ratio (z) = -0.75197 -0.54509
#
# Static dielectric constant tensor:
#      x y z
#    x 1.660330 0.000000 0.006510 
#    y 0.000000 1.658860 0.000000 
#    z 0.006510 0.000000 1.664260 
# 
# From -- ./inp_files/93014.got.cif
#   From: 2010.05.17/outbox.cif.g08.bks.cpg/sg12_47_cif.got.tgz:93014.got - 2010.06.03 13:09:07.
