data_PCOD9220457
_publ_section_title
;
Structure prediction by ZEFSAII (Michael W. Deem and Ramdas Pophale) SiO2 
 PCOD9220457
Probable space group: C 2/M
;
_chemical_formula_sum "Si O2"
_cell_formula_units_Z 64
_cell_length_a 9.674859
_cell_length_b 22.237636
_cell_length_c 19.288493
_cell_angle_alpha 90.000000
_cell_angle_beta 124.580902
_cell_angle_gamma 90.000000
_cell_volume 3416.671127
_symmetry_space_group_name_H-M "C 2/M"
_symmetry_group_IT_number 12
_symmetry_cell_setting 'monoclinic'
loop_
_space_group_symop_operation_xyz
x,y,z
-x,y,-z
-x,-y,-z
x,-y,z
1/2+x,1/2+y,z
1/2-x,1/2+y,-z
1/2-x,1/2-y,-z
1/2+x,1/2-y,z
loop_
_atom_site_type_symbol
_atom_site_label
_atom_site_fract_x
_atom_site_fract_y
_atom_site_fract_z
Si Si1 0.153183 0.931337 0.492600
Si Si2 0.086104 0.073149 0.870504
Si Si3 0.892530 0.431811 0.040805
Si Si4 0.684164 0.872082 0.586148
Si Si5 0.307145 0.737331 0.437924
Si Si6 0.214568 0.426940 0.210061
Si Si7 0.708518 0.071772 0.743156
Si Si8 0.859571 0.619837 0.667414
O O1 0.181869 0.890465 0.434251
O O2 0.310710 0.922413 0.588535
O O3 0.000000 0.917163 0.500000
O O4 0.137018 0.000000 0.464767
O O5 0.156024 0.090374 0.814031
O O6 0.892304 0.088576 0.824105
O O7 0.097871 0.000000 0.875216
O O8 0.216011 0.095672 0.966266
O O9 0.857690 0.500000 0.055423
O O10 0.028573 0.406033 0.132335
O O11 0.000000 0.436035 0.000000
O O12 0.500000 0.882480 0.500000
O O13 0.696621 0.800808 0.603222
O O14 0.707724 0.910670 0.661653
O O15 0.500000 0.717481 0.500000
O O16 0.250000 0.750000 0.500000
O O17 0.194108 0.686201 0.371276
O O18 0.214586 0.500000 0.214280
O O19 0.241896 0.400283 0.293519
O O20 0.556115 0.108162 0.733733
O O21 0.684388 0.000000 0.745070
#
# Coordination Sequence:
#
# PCOD9220457 Si02
#       8
#     8   8   8   8   8   8   8   8
#     4  11  23  35  51  77 106 136 171 214 271 325
#     4   8  16  30  50  75 106 143 179 211 250 320
#     4   7  11  25  47  72 103 140 176 207 251 316
#     4  11  22  39  57  73  95 141 183 225 267 312
#     4  11  23  41  58  73  96 137 191 229 264 308
#     4   9  17  29  50  78 108 140 174 218 270 316
#     4  11  22  35  52  78 110 141 175 216 268 324
#     4  12  22  35  50  75 108 141 172 223 266 315
#
# _framework density 18.731683
#
# number of rings (size 3 to 8) (size 9 to 14) (size 15 to 20)
#    0.000    2.000    2.500    4.125    1.750    0.500 
#    0.000    0.625    0.000    3.000    0.000    0.875 
#    0.000    0.000    0.000    0.000    0.000    0.000 
#
# Total GULP energy -178473.335265 kJ/mol
# GULP energy per Si atom -5577.291727 kJ/mol
# Density = 1.868905 g / cm^3
# Si number density = 18.731683 Si / 1000 Ang^3
#
#
#
# Elastic Constant Matrix: (Units=GPa)
#
#
# Indices 1 2 3 4 5 6 
#
# 1 78.2119 18.6150 20.1945 0.0000 24.2341 0.0000
# 2 18.6150 66.8364 17.2622 0.0000 9.6930 0.0000
# 3 20.1945 17.2622 36.4865 0.0000 11.9044 0.0000
# 4 0.0000 0.0000 0.0000 6.1317 0.0000 -2.2010
# 5 24.2341 9.6930 11.9044 0.0000 36.2453 0.0000
# 6 0.0000 0.0000 0.0000 -2.2010 0.0000 5.4840
#
#
#
# Elastic Compliance Matrix: (Units=1/GPa)
#
#
# Indices 1 2 3 4 5 6 
#
# 1 0.017665 -0.002080 -0.005736 0.000000 -0.009371 0.000000
# 2 -0.002080 0.017439 -0.006755 0.000000 -0.001054 0.000000
# 3 -0.005736 -0.006755 0.035771 0.000000 -0.006107 0.000000
# 4 0.000000 0.000000 0.000000 0.190535 0.000000 0.076470
# 5 -0.009371 -0.001054 -0.006107 0.000000 0.036143 0.000000
# 6 0.000000 0.000000 0.000000 0.076470 0.000000 0.213038
#
#
# Mechanical properties :
#
#
# Convention : Reuss Voigt Hill
#
# Bulk Modulus (GPa) = 23.96197 32.63089 28.29643
# Shear Modulus (GPa) = 9.03106 17.93643 13.48374
#
# Velocity S-wave (km/s) = 2.19812 3.09778 2.68589
# Velocity P-wave (km/s) = 4.38888 5.50027 4.97570
#
# Compressibility (1/GPa) = 0.04173280
#
# Stress axis : x y z
#
# Youngs Moduli (GPa) = 56.60754 57.34342 27.95590
#
# Poissons Ratio (x) = 0.11925 0.16036
# Poissons Ratio (y) = 0.11772 0.18885
# Poissons Ratio (z) = 0.32470 0.38738
#
# Static dielectric constant tensor:
#      x y z
#    x 1.678010 0.000000 0.032490 
#    y 0.000000 1.642290 0.000000 
#    z 0.032490 0.000000 1.691850 
# 
# From -- ./inp_files/301770.got.cif
#   From: 2010.05.17/outbox.cif.g08.bks.cpg/sg12_151_cif.got.tgz:301770.got - 2010.06.03 13:09:07.
