data_PCOD9220205
_publ_section_title
;
Structure prediction by ZEFSAII (Michael W. Deem and Ramdas Pophale) SiO2 
 PCOD9220205
Probable space group: C 2/M
;
_chemical_formula_sum "Si O2"
_cell_formula_units_Z 56
_cell_length_a 14.486034
_cell_length_b 18.595544
_cell_length_c 12.234237
_cell_angle_alpha 90.000000
_cell_angle_beta 118.942817
_cell_angle_gamma 90.000000
_cell_volume 2883.995066
_symmetry_space_group_name_H-M "C 2/M"
_symmetry_group_IT_number 12
_symmetry_cell_setting 'monoclinic'
loop_
_space_group_symop_operation_xyz
x,y,z
-x,y,-z
-x,-y,-z
x,-y,z
1/2+x,1/2+y,z
1/2-x,1/2+y,-z
1/2-x,1/2-y,-z
1/2+x,1/2-y,z
loop_
_atom_site_type_symbol
_atom_site_label
_atom_site_fract_x
_atom_site_fract_y
_atom_site_fract_z
Si Si1 0.193320 0.375714 0.293351
Si Si2 0.615429 0.720437 0.514503
Si Si3 0.407553 0.000000 0.616940
Si Si4 0.358348 0.219021 0.105203
Si Si5 0.860487 0.500000 0.331052
Si Si6 0.579107 0.273189 0.236633
Si Si7 0.620050 0.078043 0.025361
Si Si8 0.285561 0.161140 0.288367
O O1 0.303104 0.340049 0.395037
O O2 0.142919 0.431766 0.349787
O O3 0.115056 0.308458 0.236524
O O4 0.194639 0.410245 0.173734
O O5 0.500000 0.714104 0.500000
O O6 0.601021 0.713411 0.376927
O O7 0.665159 0.798567 0.576442
O O8 0.382936 0.000000 0.474393
O O9 0.534684 0.000000 0.684644
O O10 0.455617 0.272794 0.140834
O O11 0.345120 0.202738 0.225414
O O12 0.250000 0.250000 0.000000
O O13 0.373288 0.143603 0.052948
O O14 0.804344 0.576821 0.284520
O O15 0.661144 0.321690 0.217349
O O16 0.643638 0.000000 0.989339
O O17 0.500000 0.076302 0.000000
#
# Coordination Sequence:
#
# PCOD9220205 Si02
#       8
#     8   8   4   8   4   8   8   8
#     4  11  21  40  62  90 126 170 208 265 325 374
#     4  11  22  38  64  93 129 169 216 263 323 386
#     4  11  22  36  61  93 132 163 210 263 324 384
#     4  12  25  40  67  93 124 167 218 265 311 380
#     4  11  24  36  61  97 131 162 208 259 328 396
#     4  11  22  41  63  93 131 164 213 264 318 384
#     4  11  24  40  64  93 127 165 211 268 324 370
#     4  11  24  40  64  94 129 167 208 263 329 382
#
# _framework density 19.417508000000002
#
# number of rings (size 3 to 8) (size 9 to 14) (size 15 to 20)
#    0.000    0.857    3.571    6.000    3.000    0.000 
#    0.000    0.357    1.571    0.857    0.000    0.000 
#    0.000    0.000    0.000    0.000    0.000    0.000 
#
# Total GULP energy -156432.969275 kJ/mol
# GULP energy per Si atom -5586.891760 kJ/mol
# Density = 1.937331 g / cm^3
# Si number density = 19.417508 Si / 1000 Ang^3
#
#
#
# Elastic Constant Matrix: (Units=GPa)
#
#
# Indices 1 2 3 4 5 6 
#
# 1 133.2793 59.5712 25.2820 0.0000 24.4450 0.0000
# 2 59.5712 114.9249 21.1100 0.0000 22.5064 0.0000
# 3 25.2820 21.1100 60.6775 0.0000 15.7669 0.0000
# 4 0.0000 0.0000 0.0000 69.4131 0.0000 17.3288
# 5 24.4450 22.5064 15.7669 0.0000 38.3263 0.0000
# 6 0.0000 0.0000 0.0000 17.3288 0.0000 27.1234
#
#
#
# Elastic Compliance Matrix: (Units=1/GPa)
#
#
# Indices 1 2 3 4 5 6 
#
# 1 0.010448 -0.004415 -0.001970 0.000000 -0.003261 0.000000
# 2 -0.004415 0.011955 -0.001374 0.000000 -0.003639 0.000000
# 3 -0.001970 -0.001374 0.019307 0.000000 -0.005879 0.000000
# 4 0.000000 0.000000 0.000000 0.017140 0.000000 -0.010951
# 5 -0.003261 -0.003639 -0.005879 0.000000 0.032727 0.000000
# 6 0.000000 0.000000 0.000000 -0.010951 0.000000 0.043865
#
#
# Mechanical properties :
#
#
# Convention : Reuss Voigt Hill
#
# Bulk Modulus (GPa) = 38.17974 57.86756 48.02365
# Shear Modulus (GPa) = 31.31023 40.50044 35.90534
#
# Velocity S-wave (km/s) = 4.01992 4.57198 4.30481
# Velocity P-wave (km/s) = 6.42274 7.59849 7.03522
#
# Compressibility (1/GPa) = 0.02619190
#
# Stress axis : x y z
#
# Youngs Moduli (GPa) = 95.70891 83.64645 51.79434
#
# Poissons Ratio (x) = 0.36934 0.10203
# Poissons Ratio (y) = 0.42260 0.07116
# Poissons Ratio (z) = 0.18854 0.11492
#
# Static dielectric constant tensor:
#      x y z
#    x 1.701060 0.000000 -0.014630 
#    y 0.000000 1.671880 0.000000 
#    z -0.014630 0.000000 1.731880 
# 
# From -- ./inp_files/146274.got.cif
#   From: 2010.05.17/outbox.cif.g08.bks.cpg/sg12_74_cif.got.tgz:146274.got - 2010.06.03 13:09:07.
