data_PCOD9220370
_publ_section_title
;
Structure prediction by ZEFSAII (Michael W. Deem and Ramdas Pophale) SiO2 
 PCOD9220370
Probable space group: C 2/M
;
_chemical_formula_sum "Si O2"
_cell_formula_units_Z 40
_cell_length_a 13.414336
_cell_length_b 13.725056
_cell_length_c 8.477963
_cell_angle_alpha 90.000000
_cell_angle_beta 96.012773
_cell_angle_gamma 90.000000
_cell_volume 1552.311891
_symmetry_space_group_name_H-M "C 2/M"
_symmetry_group_IT_number 12
_symmetry_cell_setting 'monoclinic'
loop_
_space_group_symop_operation_xyz
x,y,z
-x,y,-z
-x,-y,-z
x,-y,z
1/2+x,1/2+y,z
1/2-x,1/2+y,-z
1/2-x,1/2-y,-z
1/2+x,1/2-y,z
loop_
_atom_site_type_symbol
_atom_site_label
_atom_site_fract_x
_atom_site_fract_y
_atom_site_fract_z
Si Si1 0.898334 0.170888 0.850726
Si Si2 0.328348 0.500000 0.041741
Si Si3 0.540821 0.802034 0.689048
Si Si4 0.908082 0.500000 0.118974
Si Si5 0.242162 0.209334 0.674447
Si Si6 0.586759 0.500000 0.389170
Si Si7 0.755026 0.500000 0.651578
O O1 0.885440 0.096781 0.992809
O O2 0.791354 0.220964 0.809770
O O3 0.971548 0.258777 0.818001
O O4 0.918494 0.096109 0.713484
O O5 0.208525 0.500000 0.969691
O O6 0.329060 0.500000 0.227912
O O7 0.500000 0.814353 0.500000
O O8 0.579576 0.904798 0.766289
O O9 0.625134 0.718173 0.686112
O O10 0.000000 0.500000 0.000000
O O11 0.250000 0.250000 0.500000
O O12 0.300339 0.106007 0.682995
O O13 0.500000 0.500000 0.500000
O O14 0.698612 0.500000 0.478343
#
# Coordination Sequence:
#
# PCOD9220370 Si02
#       7
#     8   4   8   4   8   4   4
#     4  11  24  46  72 104 146 190 237 306 368 421
#     4  11  28  50  73 104 153 199 238 295 370 445
#     4  12  25  46  76 108 138 192 250 306 362 431
#     4  12  30  48  67 107 154 195 242 301 362 448
#     4  12  24  43  73 108 143 185 247 305 364 424
#     4  11  21  43  73 104 142 180 249 308 351 422
#     4  12  26  41  74 108 136 191 246 288 361 446
#
# _framework density 25.768018000000001
#
# number of rings (size 3 to 8) (size 9 to 14) (size 15 to 20)
#    0.000    0.400    6.000    2.100    2.800    4.000 
#    0.000    7.000    0.000    0.000    0.000    0.000 
#    0.000    0.000    0.000    0.000    0.000    0.000 
#
# Total GULP energy -111733.796991 kJ/mol
# GULP energy per Si atom -5586.689850 kJ/mol
# Density = 2.570937 g / cm^3
# Si number density = 25.768018 Si / 1000 Ang^3
#
#
#
# Elastic Constant Matrix: (Units=GPa)
#
#
# Indices 1 2 3 4 5 6 
#
# 1 101.1260 13.9004 22.0369 0.0000 0.0015 0.0000
# 2 13.9004 187.1397 34.1463 0.0000 15.5070 0.0000
# 3 22.0369 34.1463 95.1756 0.0000 -5.8283 0.0000
# 4 0.0000 0.0000 0.0000 45.1840 0.0000 -14.7231
# 5 0.0015 15.5070 -5.8283 0.0000 31.6437 0.0000
# 6 0.0000 0.0000 0.0000 -14.7231 0.0000 47.4044
#
#
#
# Elastic Compliance Matrix: (Units=1/GPa)
#
#
# Indices 1 2 3 4 5 6 
#
# 1 0.010439 -0.000331 -0.002314 0.000000 -0.000264 0.000000
# 2 -0.000331 0.006071 -0.002310 0.000000 -0.003401 0.000000
# 3 -0.002314 -0.002310 0.012077 0.000000 0.003356 0.000000
# 4 0.000000 0.000000 0.000000 0.024624 0.000000 0.007648
# 5 -0.000264 -0.003401 0.003356 0.000000 0.033887 0.000000
# 6 0.000000 0.000000 0.000000 0.007648 0.000000 0.023470
#
#
# Mechanical properties :
#
#
# Convention : Reuss Voigt Hill
#
# Bulk Modulus (GPa) = 53.54372 58.17873 55.86123
# Shear Modulus (GPa) = 39.46214 45.73695 42.59955
#
# Velocity S-wave (km/s) = 3.91761 4.21759 4.07036
# Velocity P-wave (km/s) = 6.42556 6.80766 6.61937
#
# Compressibility (1/GPa) = 0.01867633
#
# Stress axis : x y z
#
# Youngs Moduli (GPa) = 95.79920 164.70506 82.80209
#
# Poissons Ratio (x) = 0.05454 0.19163
# Poissons Ratio (y) = 0.03172 0.19126
# Poissons Ratio (z) = 0.22171 0.38044
#
# Static dielectric constant tensor:
#      x y z
#    x 2.081360 0.000000 0.037740 
#    y 0.000000 2.802970 0.000000 
#    z 0.037740 0.000000 2.023160 
# 
# From -- ./inp_files/59157.got.cif
#   From: 2010.05.17/outbox.cif.g08.bks.cpg/sg12_30_cif.got.tgz:59157.got - 2010.06.03 13:09:07.
