data_PCOD9220499
_publ_section_title
;
Structure prediction by ZEFSAII (Michael W. Deem and Ramdas Pophale) SiO2 
 PCOD9220499
Probable space group: C 2/M
;
_chemical_formula_sum "Si O2"
_cell_formula_units_Z 40
_cell_length_a 9.126838
_cell_length_b 17.883612
_cell_length_c 11.689549
_cell_angle_alpha 90.000000
_cell_angle_beta 76.868835
_cell_angle_gamma 90.000000
_cell_volume 1858.089110
_symmetry_space_group_name_H-M "C 2/M"
_symmetry_group_IT_number 12
_symmetry_cell_setting 'monoclinic'
loop_
_space_group_symop_operation_xyz
x,y,z
-x,y,-z
-x,-y,-z
x,-y,z
1/2+x,1/2+y,z
1/2-x,1/2+y,-z
1/2-x,1/2-y,-z
1/2+x,1/2-y,z
loop_
_atom_site_type_symbol
_atom_site_label
_atom_site_fract_x
_atom_site_fract_y
_atom_site_fract_z
Si Si1 0.355661 0.777781 0.583252
Si Si2 0.152815 0.130036 0.795490
Si Si3 0.141531 0.721836 0.923524
Si Si4 0.357845 0.369107 0.724712
Si Si5 0.303217 0.000000 0.921253
Si Si6 0.339076 0.000000 0.194447
O O1 0.500000 0.814785 0.500000
O O2 0.250000 0.750000 0.500000
O O3 0.275574 0.833702 0.686998
O O4 0.403312 0.699206 0.634204
O O5 0.085854 0.204629 0.867483
O O6 0.010777 0.097847 0.751063
O O7 0.223328 0.072486 0.874943
O O8 0.249159 0.673048 0.830744
O O9 0.250000 0.750000 0.000000
O O10 0.000000 0.678795 0.000000
O O11 0.238013 0.433256 0.718957
O O12 0.479550 0.000000 0.850676
O O13 0.289692 0.000000 0.064543
#
# Coordination Sequence:
#
# PCOD9220499 Si02
#       6
#     8   8   8   8   4   4
#     4  11  24  45  72  99 128 166 220 284 334 376
#     4  11  24  42  64  96 127 174 219 265 325 396
#     4  11  22  35  60  92 126 164 214 267 323 384
#     4  11  24  41  66  94 129 172 220 265 324 395
#     4  11  27  43  65  93 142 178 215 264 325 393
#     4  11  27  43  63  97 137 180 214 266 324 391
#
# _framework density 21.527491999999999
#
# number of rings (size 3 to 8) (size 9 to 14) (size 15 to 20)
#    0.000    1.000    4.000    1.800    8.400    0.800 
#    0.000    2.000    0.000    0.000    0.000    0.000 
#    0.000    0.000    0.000    0.000    0.000    0.000 
#
# Total GULP energy -111444.720057 kJ/mol
# GULP energy per Si atom -5572.236003 kJ/mol
# Density = 2.147849 g / cm^3
# Si number density = 21.527492 Si / 1000 Ang^3
#
#
#
# Elastic Constant Matrix: (Units=GPa)
#
#
# Indices 1 2 3 4 5 6 
#
# 1 111.8398 5.8354 16.8158 0.0000 -14.2007 0.0000
# 2 5.8354 72.3124 4.1655 0.0000 -5.8019 0.0000
# 3 16.8158 4.1655 61.5723 0.0000 -20.8560 0.0000
# 4 0.0000 0.0000 0.0000 74.5208 0.0000 -42.4275
# 5 -14.2007 -5.8019 -20.8560 0.0000 43.2011 0.0000
# 6 0.0000 0.0000 0.0000 -42.4275 0.0000 71.7228
#
#
#
# Elastic Compliance Matrix: (Units=1/GPa)
#
#
# Indices 1 2 3 4 5 6 
#
# 1 0.009519 -0.000488 -0.001828 0.000000 0.002181 0.000000
# 2 -0.000488 0.014012 -0.000277 0.000000 0.001588 0.000000
# 3 -0.001828 -0.000277 0.019777 0.000000 0.008910 0.000000
# 4 0.000000 0.000000 0.000000 0.020234 0.000000 0.011969
# 5 0.002181 0.001588 0.008910 0.000000 0.028379 0.000000
# 6 0.000000 0.000000 0.000000 0.011969 0.000000 0.021023
#
#
# Mechanical properties :
#
#
# Convention : Reuss Voigt Hill
#
# Bulk Modulus (GPa) = 26.23165 33.26199 29.74682
# Shear Modulus (GPa) = 38.21611 52.48280 45.34945
#
# Velocity S-wave (km/s) = 4.21791 4.94291 4.59473
# Velocity P-wave (km/s) = 5.99439 6.93260 6.48049
#
# Compressibility (1/GPa) = 0.03812189
#
# Stress axis : x y z
#
# Youngs Moduli (GPa) = 105.05788 71.36946 50.56404
#
# Poissons Ratio (x) = 0.03482 0.09242
# Poissons Ratio (y) = 0.05125 0.01400
# Poissons Ratio (z) = 0.19203 0.01976
#
# Static dielectric constant tensor:
#      x y z
#    x 1.805930 0.000000 0.016120 
#    y 0.000000 1.811530 0.000000 
#    z 0.016120 0.000000 1.822620 
# 
# From -- ./inp_files/118976.got.cif
#   From: 2010.05.17/outbox.cif.g08.bks.cpg/sg12_60_cif.got.tgz:118976.got - 2010.06.03 13:09:07.
