data_PCOD9220712
_publ_section_title
;
Structure prediction by ZEFSAII (Michael W. Deem and Ramdas Pophale) SiO2 
 PCOD9220712
Probable space group: C 2/M
;
_chemical_formula_sum "Si O2"
_cell_formula_units_Z 36
_cell_length_a 15.064398
_cell_length_b 7.518834
_cell_length_c 26.213877
_cell_angle_alpha 90.000000
_cell_angle_beta 152.206014
_cell_angle_gamma 90.000000
_cell_volume 1384.500655
_symmetry_space_group_name_H-M "C 2/M"
_symmetry_group_IT_number 12
_symmetry_cell_setting 'monoclinic'
loop_
_space_group_symop_operation_xyz
x,y,z
-x,y,-z
-x,-y,-z
x,-y,z
1/2+x,1/2+y,z
1/2-x,1/2+y,-z
1/2-x,1/2-y,-z
1/2+x,1/2-y,z
loop_
_atom_site_type_symbol
_atom_site_label
_atom_site_fract_x
_atom_site_fract_y
_atom_site_fract_z
Si Si1 0.906664 0.291517 0.727438
Si Si2 0.031815 0.788017 0.900992
Si Si3 0.462124 0.791724 0.590116
Si Si4 0.260046 0.789809 0.171782
Si Si5 0.500000 0.249069 0.500000
O O1 0.883644 0.500000 0.699838
O O2 0.722570 0.189104 0.613140
O O3 0.921389 0.282445 0.795574
O O4 0.107158 0.222332 0.806452
O O5 0.940917 0.721222 0.908127
O O6 0.006212 0.000000 0.888735
O O7 0.250000 0.750000 0.000000
O O8 0.250000 0.750000 0.500000
O O9 0.602005 0.768267 0.708836
O O10 0.505010 0.683464 0.560796
O O11 0.479547 0.000000 0.583601
O O12 0.232208 0.000000 0.145849
#
# Coordination Sequence:
#
# PCOD9220712 Si02
#       5
#     8   8   8   8   4
#     4  11  23  40  64  95 127 166 210 254 306 372
#     4  11  24  45  68  91 122 163 210 263 316 372
#     4  11  22  38  59  90 128 169 209 252 307 373
#     4   9  20  40  61  86 125 167 203 247 313 377
#     4  12  22  36  64  98 132 166 208 254 308 368
#
# _framework density 26.002155999999999
#
# number of rings (size 3 to 8) (size 9 to 14) (size 15 to 20)
#    0.000    1.333    4.444    1.333    0.000    2.667 
#    0.000    6.667    0.000    0.000    0.000    0.000 
#    0.000    0.000    0.000    0.000    0.000    0.000 
#
# Total GULP energy -100410.754623 kJ/mol
# GULP energy per Si atom -5578.375257 kJ/mol
# Density = 2.594297 g / cm^3
# Si number density = 26.002156 Si / 1000 Ang^3
#
#
#
# Elastic Constant Matrix: (Units=GPa)
#
#
# Indices 1 2 3 4 5 6 
#
# 1 192.8319 7.5408 11.2838 0.0000 40.5569 0.0000
# 2 7.5408 107.1835 -2.9455 -0.0001 4.0379 0.0001
# 3 11.2838 -2.9455 104.3164 0.0001 37.8311 0.0000
# 4 0.0000 -0.0001 0.0001 -15.7732 0.0000 -10.9855
# 5 40.5569 4.0379 37.8311 0.0000 66.5068 0.0000
# 6 0.0000 0.0001 0.0000 -10.9855 0.0000 -5.3813
#
#
#
# Elastic Compliance Matrix: (Units=1/GPa)
#
#
# Indices 1 2 3 4 5 6 
#
# 1 0.006015 -0.000244 0.000841 0.000000 -0.004132 0.000000
# 2 -0.000244 0.009390 0.000560 0.000000 -0.000739 -0.000001
# 3 0.000841 0.000560 0.012233 0.000000 -0.007505 0.000000
# 4 0.000000 0.000000 0.000000 0.150312 0.000000 -0.306852
# 5 -0.004132 -0.000739 -0.007505 0.000000 0.021870 0.000000
# 6 0.000000 -0.000001 0.000000 -0.306852 0.000000 0.440586
#
#
# Mechanical properties :
#
#
# Convention : Reuss Voigt Hill
#
# Bulk Modulus (GPa) = 33.38843 48.45445 40.92144
# Shear Modulus (GPa) = 7.71513 34.96730 21.34122
#
# Velocity S-wave (km/s) = 1.72440 3.67111 2.86798
# Velocity P-wave (km/s) = 4.10283 6.05348 5.17097
#
# Compressibility (1/GPa) = 0.02995049
#
# Stress axis : x y z
#
# Youngs Moduli (GPa) = 166.24591 106.49362 81.74697
#
# Poissons Ratio (x) = 0.02603 -0.06873
# Poissons Ratio (y) = 0.04064 -0.04576
# Poissons Ratio (z) = -0.13978 -0.05961
#
# Static dielectric constant tensor:
#      x y z
#    x 2.028020 0.000000 0.067180 
#    y 0.000000 2.232400 0.000000 
#    z 0.067180 0.000000 2.029720 
# 
# From -- ./inp_files/248728.got.cif
#   From: 2010.05.17/outbox.cif.g08.bks.cpg/sg12_125_cif.got.tgz:248728.got - 2010.06.03 13:09:07.
