data_PCOD9220988
_publ_section_title
;
Structure prediction by ZEFSAII (Michael W. Deem and Ramdas Pophale) SiO2 
 PCOD9220988
Probable space group: C 2/M
;
_chemical_formula_sum "Si O2"
_cell_formula_units_Z 50
_cell_length_a 15.445377
_cell_length_b 15.626318
_cell_length_c 11.524470
_cell_angle_alpha 90.000000
_cell_angle_beta 118.718096
_cell_angle_gamma 90.000000
_cell_volume 2439.343595
_symmetry_space_group_name_H-M "C 2/M"
_symmetry_group_IT_number 12
_symmetry_cell_setting 'monoclinic'
loop_
_space_group_symop_operation_xyz
x,y,z
-x,y,-z
-x,-y,-z
x,-y,z
1/2+x,1/2+y,z
1/2-x,1/2+y,-z
1/2-x,1/2-y,-z
1/2+x,1/2-y,z
loop_
_atom_site_type_symbol
_atom_site_label
_atom_site_fract_x
_atom_site_fract_y
_atom_site_fract_z
Si Si1 0.882779 0.592537 0.492677
Si Si2 0.420050 0.686852 0.849643
Si Si3 0.286443 0.780148 0.147787
Si Si4 0.011236 0.361689 0.799736
Si Si5 0.389825 0.284317 0.413858
Si Si6 0.500000 0.000000 0.000000
Si Si7 0.843220 0.094115 0.583380
O O1 0.903421 0.500000 0.449043
O O2 0.945786 0.603463 0.650801
O O3 0.894497 0.681800 0.433251
O O4 0.767960 0.588996 0.445168
O O5 0.311354 0.693771 0.840905
O O6 0.459094 0.774862 0.814951
O O7 0.409379 0.622113 0.735112
O O8 0.500000 0.663956 0.000000
O O9 0.377771 0.843418 0.175669
O O10 0.338036 0.705284 0.257305
O O11 0.250000 0.750000 0.000000
O O12 0.012749 0.426129 0.907227
O O13 0.500000 0.317581 0.500000
O O14 0.336551 0.332286 0.482713
O O15 0.872827 0.000000 0.557405
#
# Coordination Sequence:
#
# PCOD9220988 Si02
#       7
#     8   8   8   8   8   2   8
#     4  11  22  40  67 101 131 169 225 284 347 412
#     4  12  23  43  73  93 139 188 234 284 346 409
#     4  12  24  42  69 105 136 182 233 276 353 428
#     4  12  23  42  68 105 140 180 222 289 344 422
#     4  12  23  42  72  98 137 180 226 291 351 413
#     4  12  24  44  68 106 152 178 218 284 364 420
#     4  11  25  44  69  99 132 183 243 286 345 414
#
# _framework density 20.497318
#
# number of rings (size 3 to 8) (size 9 to 14) (size 15 to 20)
#    0.000    0.320    8.000    1.440    0.000    0.960 
#    2.880    0.000    0.000    0.000    0.000    0.000 
#    0.000    0.000    0.000    0.000    0.000    0.000 
#
# Total GULP energy -139195.321138 kJ/mol
# GULP energy per Si atom -5567.812846 kJ/mol
# Density = 2.045067 g / cm^3
# Si number density = 20.497318 Si / 1000 Ang^3
#
#
#
# Elastic Constant Matrix: (Units=GPa)
#
#
# Indices 1 2 3 4 5 6 
#
# 1 88.1190 27.6744 11.7271 0.0000 9.1244 0.0000
# 2 27.6744 100.7112 33.3045 0.0000 -6.7025 0.0000
# 3 11.7271 33.3045 154.8062 0.0000 5.5889 0.0000
# 4 0.0000 0.0000 0.0000 12.9570 0.0000 -14.5196
# 5 9.1244 -6.7025 5.5889 0.0000 37.3972 0.0000
# 6 0.0000 0.0000 0.0000 -14.5196 0.0000 10.5038
#
#
#
# Elastic Compliance Matrix: (Units=1/GPa)
#
#
# Indices 1 2 3 4 5 6 
#
# 1 0.012943 -0.003804 -0.000024 0.000000 -0.003836 0.000000
# 2 -0.003804 0.012003 -0.002418 0.000000 0.003441 0.000000
# 3 -0.000024 -0.002418 0.007035 0.000000 -0.001479 0.000000
# 4 0.000000 0.000000 0.000000 -0.140577 0.000000 -0.194321
# 5 -0.003836 0.003441 -0.001479 0.000000 0.028514 0.000000
# 6 0.000000 0.000000 0.000000 -0.194321 0.000000 -0.173409
#
#
# Mechanical properties :
#
#
# Convention : Reuss Voigt Hill
#
# Bulk Modulus (GPa) = 51.30944 54.33871 52.82408
# Shear Modulus (GPa) = -21.32180 30.23365 4.45592
#
# Velocity S-wave (km/s) = -3.22875 3.84475 1.47602
# Velocity P-wave (km/s) = 3.34467 6.80273 5.36022
#
# Compressibility (1/GPa) = 0.01948959
#
# Stress axis : x y z
#
# Youngs Moduli (GPa) = 77.25945 83.30904 142.14303
#
# Poissons Ratio (x) = 0.31693 0.00335
# Poissons Ratio (y) = 0.29391 0.34376
# Poissons Ratio (z) = 0.00182 0.20148
#
# Static dielectric constant tensor:
#      x y z
#    x 1.717790 0.000000 0.014530 
#    y 0.000000 1.765780 0.000000 
#    z 0.014530 0.000000 1.733680 
# 
# From -- ./inp_files/143798.got.cif
#   From: 2010.05.17/outbox.cif.g08.bks.cpg/sg12_72_cif.got.tgz:143798.got - 2010.06.03 13:09:07.
