data_PCOD9220866
_publ_section_title
;
Structure prediction by ZEFSAII (Michael W. Deem and Ramdas Pophale) SiO2 
 PCOD9220866
Probable space group: C 2/M
;
_chemical_formula_sum "Si O2"
_cell_formula_units_Z 40
_cell_length_a 9.599231
_cell_length_b 27.055343
_cell_length_c 6.967561
_cell_angle_alpha 90.000000
_cell_angle_beta 54.944965
_cell_angle_gamma 90.000000
_cell_volume 1481.297842
_symmetry_space_group_name_H-M "C 2/M"
_symmetry_group_IT_number 12
_symmetry_cell_setting 'monoclinic'
loop_
_space_group_symop_operation_xyz
x,y,z
-x,y,-z
-x,-y,-z
x,-y,z
1/2+x,1/2+y,z
1/2-x,1/2+y,-z
1/2-x,1/2-y,-z
1/2+x,1/2-y,z
loop_
_atom_site_type_symbol
_atom_site_label
_atom_site_fract_x
_atom_site_fract_y
_atom_site_fract_z
Si Si1 0.192414 0.319909 0.859933
Si Si2 0.812024 0.121860 0.188780
Si Si3 0.811260 0.281252 0.699344
Si Si4 0.177554 0.082778 0.425813
Si Si5 0.951385 0.554637 0.766428
O O1 0.199668 0.266614 0.746298
O O2 0.312627 0.362246 0.679481
O O3 0.225173 0.301527 0.053776
O O4 0.000000 0.337558 0.000000
O O5 0.712303 0.165595 0.378840
O O6 0.846097 0.082478 0.326364
O O7 0.697857 0.095905 0.115515
O O8 0.000000 0.142025 0.000000
O O9 0.000000 0.264550 0.500000
O O10 0.371690 0.062456 0.257689
O O11 0.000000 0.059296 0.500000
O O12 0.884172 0.500000 0.860936
O O13 0.000000 0.556505 0.500000
#
# Coordination Sequence:
#
# PCOD9220866 Si02
#       5
#     8   8   8   8   8
#     4  11  23  38  60  90 127 166 212 268 317 372
#     4  11  22  39  64  92 127 171 216 260 315 384
#     4  11  23  39  60  89 125 170 215 257 315 384
#     4  11  23  39  63  94 129 167 211 268 320 371
#     4   9  20  41  67  94 128 172 217 262 320 388
#
# _framework density 27.003347999999999
#
# number of rings (size 3 to 8) (size 9 to 14) (size 15 to 20)
#    0.000    1.400    0.000    6.600    0.000    7.200 
#    0.000    0.000    0.000   13.800    0.000    0.000 
#    0.000    0.000    0.000    0.000    0.000    0.000 
#
# Total GULP energy -111671.032042 kJ/mol
# GULP energy per Si atom -5583.551602 kJ/mol
# Density = 2.694189 g / cm^3
# Si number density = 27.003348 Si / 1000 Ang^3
#
#
#
# Elastic Constant Matrix: (Units=GPa)
#
#
# Indices 1 2 3 4 5 6 
#
# 1 181.3321 47.1132 36.0614 0.0000 -19.4451 0.0000
# 2 47.1132 140.2602 8.0468 0.0000 -15.8909 0.0000
# 3 36.0614 8.0468 51.2445 0.0000 -11.3710 0.0000
# 4 0.0000 0.0000 0.0000 13.1561 0.0000 0.8368
# 5 -19.4451 -15.8909 -11.3710 0.0000 57.3054 0.0000
# 6 0.0000 0.0000 0.0000 0.8368 0.0000 33.8454
#
#
#
# Elastic Compliance Matrix: (Units=1/GPa)
#
#
# Indices 1 2 3 4 5 6 
#
# 1 0.007012 -0.001995 -0.004410 0.000000 0.000951 0.000000
# 2 -0.001995 0.007955 0.000517 0.000000 0.001632 0.000000
# 3 -0.004410 0.000517 0.023261 0.000000 0.003262 0.000000
# 4 0.000000 0.000000 0.000000 0.076130 0.000000 -0.001882
# 5 0.000951 0.001632 0.003262 0.000000 0.018873 0.000000
# 6 0.000000 0.000000 0.000000 -0.001882 0.000000 0.029593
#
#
# Mechanical properties :
#
#
# Convention : Reuss Voigt Hill
#
# Bulk Modulus (GPa) = 37.80585 61.69773 49.75179
# Shear Modulus (GPa) = 27.26035 39.63574 33.44805
#
# Velocity S-wave (km/s) = 3.18074 3.83536 3.52328
# Velocity P-wave (km/s) = 5.24598 6.52005 5.91740
#
# Compressibility (1/GPa) = 0.02645094
#
# Stress axis : x y z
#
# Youngs Moduli (GPa) = 142.61253 125.71045 42.99118
#
# Poissons Ratio (x) = 0.25074 0.18960
# Poissons Ratio (y) = 0.28445 -0.02221
# Poissons Ratio (z) = 0.62895 -0.06493
#
# Static dielectric constant tensor:
#      x y z
#    x 2.192830 0.000000 0.180640 
#    y 0.000000 2.153860 0.000000 
#    z 0.180640 0.000000 2.222740 
# 
# From -- ./inp_files/41401.got.cif
#   From: 2010.05.17/outbox.cif.g08.bks.cpg/sg12_21_cif.got.tgz:41401.got - 2010.06.03 13:09:07.
