data_PCOD9220116
_publ_section_title
;
Structure prediction by ZEFSAII (Michael W. Deem and Ramdas Pophale) SiO2 
 PCOD9220116
Probable space group: C 2/M
;
_chemical_formula_sum "Si O2"
_cell_formula_units_Z 50
_cell_length_a 11.108731
_cell_length_b 30.112158
_cell_length_c 8.503355
_cell_angle_alpha 90.000000
_cell_angle_beta 63.546668
_cell_angle_gamma 90.000000
_cell_volume 2546.619217
_symmetry_space_group_name_H-M "C 2/M"
_symmetry_group_IT_number 12
_symmetry_cell_setting 'monoclinic'
loop_
_space_group_symop_operation_xyz
x,y,z
-x,y,-z
-x,-y,-z
x,-y,z
1/2+x,1/2+y,z
1/2-x,1/2+y,-z
1/2-x,1/2-y,-z
1/2+x,1/2-y,z
loop_
_atom_site_type_symbol
_atom_site_label
_atom_site_fract_x
_atom_site_fract_y
_atom_site_fract_z
Si Si1 0.157625 0.700137 0.728710
Si Si2 0.071504 0.430746 0.209764
Si Si3 0.873596 0.203594 0.177998
Si Si4 0.380429 0.362876 0.444460
Si Si5 0.000000 0.500000 0.000000
Si Si6 0.713758 0.051504 0.453941
Si Si7 0.630715 0.828999 0.107082
O O1 0.186442 0.752420 0.706322
O O2 0.259340 0.667216 0.583913
O O3 0.006038 0.694137 0.754654
O O4 0.155737 0.685329 0.913029
O O5 0.167901 0.443481 0.299191
O O6 0.100851 0.380902 0.141677
O O7 0.920095 0.437987 0.365426
O O8 0.079977 0.461829 0.054844
O O9 0.923590 0.165638 0.267497
O O10 0.757409 0.183883 0.137132
O O11 0.000000 0.218549 0.000000
O O12 0.500000 0.366088 0.500000
O O13 0.323132 0.411240 0.432190
O O14 0.751400 0.000000 0.462228
#
# Coordination Sequence:
#
# PCOD9220116 Si02
#       7
#     8   8   8   8   2   8   8
#     4  11  24  42  66 100 132 172 222 271 325 388
#     4  11  21  38  65 102 134 161 215 270 331 387
#     4  12  25  44  66  93 136 181 217 270 327 389
#     4  12  27  44  65  96 130 175 226 273 325 393
#     4  12  20  34  68 108 126 162 210 284 326 388
#     4  11  22  44  65  93 132 174 210 270 336 393
#     4  11  22  40  69  96 134 173 213 272 325 388
#
# _framework density 19.633873999999999
#
# number of rings (size 3 to 8) (size 9 to 14) (size 15 to 20)
#    0.000    0.640    6.400    3.360    2.240    0.960 
#    0.000    0.000    0.000    0.480    0.000    0.000 
#    0.000    0.000    0.000    0.000    0.000    0.000 
#
# Total GULP energy -139481.495567 kJ/mol
# GULP energy per Si atom -5579.259823 kJ/mol
# Density = 1.958919 g / cm^3
# Si number density = 19.633874 Si / 1000 Ang^3
#
#
#
# Elastic Constant Matrix: (Units=GPa)
#
#
# Indices 1 2 3 4 5 6 
#
# 1 91.3000 37.5327 23.2220 0.0000 24.1080 0.0000
# 2 37.5327 182.4105 26.2874 0.0000 14.7055 0.0000
# 3 23.2220 26.2874 42.6705 0.0000 4.4089 0.0000
# 4 0.0000 0.0000 0.0000 44.7648 0.0000 7.8365
# 5 24.1080 14.7055 4.4089 0.0000 23.6377 0.0000
# 6 0.0000 0.0000 0.0000 7.8365 0.0000 24.6338
#
#
#
# Elastic Compliance Matrix: (Units=1/GPa)
#
#
# Indices 1 2 3 4 5 6 
#
# 1 0.017411 -0.001306 -0.007056 0.000000 -0.015629 0.000000
# 2 -0.001306 0.006347 -0.002987 0.000000 -0.002060 0.000000
# 3 -0.007056 -0.002987 0.028734 0.000000 0.003696 0.000000
# 4 0.000000 0.000000 0.000000 0.023656 0.000000 -0.007526
# 5 -0.015629 -0.002060 0.003696 0.000000 0.058838 0.000000
# 6 0.000000 0.000000 0.000000 -0.007526 0.000000 0.042989
#
#
# Mechanical properties :
#
#
# Convention : Reuss Voigt Hill
#
# Bulk Modulus (GPa) = 33.56287 54.49612 44.02949
# Shear Modulus (GPa) = 23.74112 33.89653 28.81883
#
# Velocity S-wave (km/s) = 3.48112 4.15954 3.83536
# Velocity P-wave (km/s) = 5.76967 7.13341 6.48747
#
# Compressibility (1/GPa) = 0.02979483
#
# Stress axis : x y z
#
# Youngs Moduli (GPa) = 57.43356 157.54703 34.80218
#
# Poissons Ratio (x) = 0.20570 0.24558
# Poissons Ratio (y) = 0.07499 0.10395
# Poissons Ratio (z) = 0.40527 0.47058
#
# Static dielectric constant tensor:
#      x y z
#    x 1.652970 0.000000 0.000490 
#    y 0.000000 1.666460 0.000000 
#    z 0.000490 0.000000 1.725030 
# 
# From -- ./inp_files/52497.got.cif
#   From: 2010.05.17/outbox.cif.g08.bks.cpg/sg12_27_cif.got.tgz:52497.got - 2010.06.03 13:09:07.
