data_PCOD9220726
_publ_section_title
;
Structure prediction by ZEFSAII (Michael W. Deem and Ramdas Pophale) SiO2 
 PCOD9220726
Probable space group: C 2/M
;
_chemical_formula_sum "Si O2"
_cell_formula_units_Z 32
_cell_length_a 8.104536
_cell_length_b 17.675973
_cell_length_c 11.696964
_cell_angle_alpha 90.000000
_cell_angle_beta 122.304344
_cell_angle_gamma 90.000000
_cell_volume 1416.299431
_symmetry_space_group_name_H-M "C 2/M"
_symmetry_group_IT_number 12
_symmetry_cell_setting 'monoclinic'
loop_
_space_group_symop_operation_xyz
x,y,z
-x,y,-z
-x,-y,-z
x,-y,z
1/2+x,1/2+y,z
1/2-x,1/2+y,-z
1/2-x,1/2-y,-z
1/2+x,1/2-y,z
loop_
_atom_site_type_symbol
_atom_site_label
_atom_site_fract_x
_atom_site_fract_y
_atom_site_fract_z
Si Si1 0.785059 0.917286 0.472477
Si Si2 0.150878 0.178797 0.292228
Si Si3 0.154275 0.912670 0.950266
Si Si4 0.526641 0.844287 0.782546
O O1 0.770014 0.848790 0.556603
O O2 0.629168 0.906089 0.314616
O O3 0.000000 0.914847 0.500000
O O4 0.755416 0.000000 0.517448
O O5 0.960746 0.128006 0.193874
O O6 0.317047 0.162315 0.261635
O O7 0.084871 0.264871 0.252369
O O8 0.153361 0.632057 0.938999
O O9 0.197595 0.000000 0.941700
O O10 0.000000 0.911060 0.000000
#
# Coordination Sequence:
#
# PCOD9220726 Si02
#       4
#     8   8   8   8
#     4  11  24  41  60  85 117 151 192 241 290 343
#     4  11  22  38  61  87 118 154 193 237 286 342
#     4   9  19  36  59  87 116 149 192 239 286 340
#     4  11  22  38  61  87 118 154 193 237 286 342
#
# _framework density 22.594093000000001
#
# number of rings (size 3 to 8) (size 9 to 14) (size 15 to 20)
#    0.000    1.500    0.000    5.250    0.000    4.000 
#    0.000    3.750    0.000    9.000    0.000    0.000 
#    0.000    0.000    0.000    0.000    0.000    0.000 
#
# Total GULP energy -89539.058231 kJ/mol
# GULP energy per Si atom -5596.191139 kJ/mol
# Density = 2.254267 g / cm^3
# Si number density = 22.594093 Si / 1000 Ang^3
#
#
#
# Elastic Constant Matrix: (Units=GPa)
#
#
# Indices 1 2 3 4 5 6 
#
# 1 93.3589 18.1603 17.6919 0.0000 24.7370 0.0000
# 2 18.1603 110.1513 -7.9736 0.0000 13.3537 0.0000
# 3 17.6919 -7.9736 32.7337 0.0000 24.0855 0.0000
# 4 0.0000 0.0000 0.0000 36.1955 0.0000 9.9786
# 5 24.7370 13.3537 24.0855 0.0000 37.2057 0.0000
# 6 0.0000 0.0000 0.0000 9.9786 0.0000 -23.2629
#
#
#
# Elastic Compliance Matrix: (Units=1/GPa)
#
#
# Indices 1 2 3 4 5 6 
#
# 1 0.013260 -0.001621 -0.002869 0.000000 -0.006377 0.000000
# 2 -0.001621 0.011403 0.011213 0.000000 -0.010274 0.000000
# 3 -0.002869 0.011213 0.069489 0.000000 -0.047101 0.000000
# 4 0.000000 0.000000 0.000000 0.024706 0.000000 0.010598
# 5 -0.006377 -0.010274 -0.047101 0.000000 0.065297 0.000000
# 6 0.000000 0.000000 0.000000 0.010598 0.000000 -0.038441
#
#
# Mechanical properties :
#
#
# Convention : Reuss Voigt Hill
#
# Bulk Modulus (GPa) = 9.29381 32.44455 20.86918
# Shear Modulus (GPa) = 29.73824 23.91866 26.82845
#
# Velocity S-wave (km/s) = 3.63188 3.25718 3.44962
# Velocity P-wave (km/s) = 4.65936 5.34196 5.01230
#
# Compressibility (1/GPa) = 0.10759848
#
# Stress axis : x y z
#
# Youngs Moduli (GPa) = 75.41429 87.69710 14.39074
#
# Poissons Ratio (x) = 0.14214 0.04129
# Poissons Ratio (y) = 0.12223 -0.16137
# Poissons Ratio (z) = 0.21639 -0.98338
#
# Static dielectric constant tensor:
#      x y z
#    x 1.802450 0.000000 0.001450 
#    y 0.000000 1.818470 0.000000 
#    z 0.001450 0.000000 1.793930 
# 
# From -- ./inp_files/117453.got.cif
#   From: 2010.05.17/outbox.cif.g08.bks.cpg/sg12_59_cif.got.tgz:117453.got - 2010.06.03 13:09:07.
