data_PCOD9220188
_publ_section_title
;
Structure prediction by ZEFSAII (Michael W. Deem and Ramdas Pophale) SiO2 
 PCOD9220188
Probable space group: C 2/M
;
_chemical_formula_sum "Si O2"
_cell_formula_units_Z 56
_cell_length_a 9.273285
_cell_length_b 17.079865
_cell_length_c 26.612971
_cell_angle_alpha 90.000000
_cell_angle_beta 40.717436
_cell_angle_gamma 90.000000
_cell_volume 2749.654611
_symmetry_space_group_name_H-M "C 2/M"
_symmetry_group_IT_number 12
_symmetry_cell_setting 'monoclinic'
loop_
_space_group_symop_operation_xyz
x,y,z
-x,y,-z
-x,-y,-z
x,-y,z
1/2+x,1/2+y,z
1/2-x,1/2+y,-z
1/2-x,1/2-y,-z
1/2+x,1/2-y,z
loop_
_atom_site_type_symbol
_atom_site_label
_atom_site_fract_x
_atom_site_fract_y
_atom_site_fract_z
Si Si1 0.517626 0.707223 0.549829
Si Si2 0.139945 0.667042 0.013580
Si Si3 0.363977 0.590664 0.680149
Si Si4 0.237927 0.806890 0.765188
Si Si5 0.102344 0.090142 0.888556
Si Si6 0.528588 0.160014 0.149934
Si Si7 0.140954 0.814471 0.676460
O O1 0.500000 0.666686 0.500000
O O2 0.432536 0.648932 0.616467
O O3 0.340290 0.776956 0.593476
O O4 0.750000 0.750000 0.500000
O O5 0.995458 0.640951 0.100176
O O6 0.250000 0.750000 0.000000
O O7 0.344103 0.607984 0.953876
O O8 0.000000 0.672589 0.000000
O O9 0.357439 0.500000 0.667343
O O10 0.544203 0.609258 0.675657
O O11 0.135311 0.616222 0.767931
O O12 0.214795 0.880112 0.807448
O O13 0.230305 0.826787 0.708807
O O14 0.444695 0.751237 0.725493
O O15 0.026244 0.751203 0.829714
O O16 0.223674 0.139995 0.899596
O O17 0.144806 0.000000 0.887090
#
# Coordination Sequence:
#
# PCOD9220188 Si02
#       7
#     8   8   8   8   8   8   8
#     4  12  22  41  70 100 131 175 216 266 324 404
#     4  12  27  43  68  98 132 181 232 276 334 401
#     4  11  25  42  69 103 135 169 221 279 333 386
#     4  11  21  39  68  97 127 177 221 275 313 403
#     4  12  26  42  66 102 136 169 225 289 340 381
#     4  11  23  44  72  94 131 182 226 270 330 408
#     4  11  21  41  67  98 130 173 227 260 325 400
#
# _framework density 20.366194
#
# number of rings (size 3 to 8) (size 9 to 14) (size 15 to 20)
#    0.000    0.571    7.143    1.714    4.000    2.857 
#    0.000    1.429    0.000    3.429    0.000    0.000 
#    0.000    0.000    0.000    0.000    0.000    0.000 
#
# Total GULP energy -156440.912830 kJ/mol
# GULP energy per Si atom -5587.175458 kJ/mol
# Density = 2.031984 g / cm^3
# Si number density = 20.366194 Si / 1000 Ang^3
#
#
#
# Elastic Constant Matrix: (Units=GPa)
#
#
# Indices 1 2 3 4 5 6 
#
# 1 126.0325 8.1529 43.2327 0.0008 15.9447 -0.0004
# 2 8.1529 36.2639 24.9167 -0.0009 -12.2377 -0.0003
# 3 43.2327 24.9167 103.7291 -0.0005 11.8235 -0.0030
# 4 0.0008 -0.0009 -0.0005 17.8345 -0.0022 -1.6170
# 5 15.9447 -12.2377 11.8235 -0.0022 43.8293 0.0003
# 6 -0.0004 -0.0003 -0.0030 -1.6170 0.0003 10.2598
#
#
#
# Elastic Compliance Matrix: (Units=1/GPa)
#
#
# Indices 1 2 3 4 5 6 
#
# 1 0.009520 -0.000641 -0.003506 -0.000001 -0.002696 -0.000001
# 2 -0.000641 0.040160 -0.011023 0.000003 0.014420 -0.000002
# 3 -0.003506 -0.011023 0.014398 0.000000 -0.005686 0.000004
# 4 -0.000001 0.000003 0.000000 0.056884 0.000004 0.008966
# 5 -0.002696 0.014420 -0.005686 0.000004 0.029357 -0.000002
# 6 -0.000001 -0.000002 0.000004 0.008966 -0.000002 0.098881
#
#
# Mechanical properties :
#
#
# Convention : Reuss Voigt Hill
#
# Bulk Modulus (GPa) = 29.64147 46.51442 38.07795
# Shear Modulus (GPa) = 17.19470 27.03292 22.11381
#
# Velocity S-wave (km/s) = 2.90880 3.64722 3.29874
# Velocity P-wave (km/s) = 5.08599 6.37377 5.76595
#
# Compressibility (1/GPa) = 0.03373652
#
# Stress axis : x y z
#
# Youngs Moduli (GPa) = 105.04378 24.90032 69.45408
#
# Poissons Ratio (x) = 0.01596 0.24354
# Poissons Ratio (y) = 0.06732 0.76562
# Poissons Ratio (z) = 0.36833 0.27449
#
# Static dielectric constant tensor:
#      x y z
#    x 1.768010 0.000000 0.022300 
#    y 0.000000 1.684570 0.000000 
#    z 0.022300 0.000000 1.796700 
# 
# From -- ./inp_files/356658.got.cif
#   From: 2010.05.17/outbox.cif.g08.bks.cpg/sg12_179_cif.got.tgz:356658.got - 2010.06.03 13:09:07.
