data_PCOD9220493
_publ_section_title
;
Structure prediction by ZEFSAII (Michael W. Deem and Ramdas Pophale) SiO2 
 PCOD9220493
Probable space group: C 2/M
;
_chemical_formula_sum "Si O2"
_cell_formula_units_Z 48
_cell_length_a 25.462368
_cell_length_b 7.819299
_cell_length_c 11.326735
_cell_angle_alpha 90.000000
_cell_angle_beta 107.743406
_cell_angle_gamma 90.000000
_cell_volume 2147.854303
_symmetry_space_group_name_H-M "C 2/M"
_symmetry_group_IT_number 12
_symmetry_cell_setting 'monoclinic'
loop_
_space_group_symop_operation_xyz
x,y,z
-x,y,-z
-x,-y,-z
x,-y,z
1/2+x,1/2+y,z
1/2-x,1/2+y,-z
1/2-x,1/2-y,-z
1/2+x,1/2-y,z
loop_
_atom_site_type_symbol
_atom_site_label
_atom_site_fract_x
_atom_site_fract_y
_atom_site_fract_z
Si Si1 0.658059 0.201640 0.742930
Si Si2 0.438816 0.698589 0.474108
Si Si3 0.168494 0.707000 0.008636
Si Si4 0.561005 0.208518 0.068252
Si Si5 0.732934 0.206735 0.287698
Si Si6 0.127425 0.296960 0.341348
O O1 0.600071 0.281181 0.666117
O O2 0.704746 0.229737 0.675994
O O3 0.648870 0.000000 0.748390
O O4 0.679820 0.269379 0.884283
O O5 0.500000 0.774911 0.500000
O O6 0.446081 0.500000 0.506716
O O7 0.402560 0.770598 0.556230
O O8 0.173701 0.500000 0.012815
O O9 0.105563 0.750245 0.998605
O O10 0.205271 0.765194 0.144149
O O11 0.587517 0.268833 0.209520
O O12 0.558402 0.000000 0.071797
O O13 0.500000 0.272052 0.000000
O O14 0.689836 0.267111 0.358649
O O15 0.735911 0.000000 0.291588
O O16 0.131776 0.500000 0.326076
#
# Coordination Sequence:
#
# PCOD9220493 Si02
#       6
#     8   8   8   8   8   8
#     4  11  22  35  58  88 114 148 194 233 272 327
#     4  11  26  44  58  76 110 153 190 231 287 338
#     4   8  16  30  50  84 120 147 179 223 275 333
#     4   8  14  26  50  83 113 141 176 225 281 324
#     4   9  18  36  59  86 121 150 179 225 285 339
#     4   9  19  36  60  86 110 144 189 234 275 326
#
# _framework density 22.347885000000002
#
# number of rings (size 3 to 8) (size 9 to 14) (size 15 to 20)
#    0.000    2.667    0.000    3.500    2.333    2.667 
#    0.000    0.833    0.000    2.500    0.000    0.000 
#    0.000    0.000    0.000    0.000    0.000    0.000 
#
# Total GULP energy -133922.960975 kJ/mol
# GULP energy per Si atom -5580.123374 kJ/mol
# Density = 2.229702 g / cm^3
# Si number density = 22.347885 Si / 1000 Ang^3
#
#
#
# Elastic Constant Matrix: (Units=GPa)
#
#
# Indices 1 2 3 4 5 6 
#
# 1 143.6348 -4.1928 32.0758 0.0000 11.3167 0.0000
# 2 -4.1928 16.4329 -7.3595 0.0000 1.8442 0.0000
# 3 32.0758 -7.3595 45.0180 0.0000 -12.4318 0.0000
# 4 0.0000 0.0000 0.0000 0.9173 0.0000 4.9944
# 5 11.3167 1.8442 -12.4318 0.0000 33.4965 0.0000
# 6 0.0000 0.0000 0.0000 4.9944 0.0000 16.5560
#
#
#
# Elastic Compliance Matrix: (Units=1/GPa)
#
#
# Indices 1 2 3 4 5 6 
#
# 1 0.009333 -0.000721 -0.008498 0.000000 -0.006267 0.000000
# 2 -0.000721 0.065722 0.011506 0.000000 0.000895 0.000000
# 3 -0.008498 0.011506 0.034281 0.000000 0.014961 0.000000
# 4 0.000000 0.000000 0.000000 -1.696699 0.000000 0.511837
# 5 -0.006267 0.000895 0.014961 0.000000 0.037474 0.000000
# 6 0.000000 0.000000 0.000000 0.511837 0.000000 -0.094003
#
#
# Mechanical properties :
#
#
# Convention : Reuss Voigt Hill
#
# Bulk Modulus (GPa) = 8.77911 27.34805 18.06358
# Shear Modulus (GPa) = -3.10464 22.49809 9.69673
#
# Velocity S-wave (km/s) = -1.17993 3.17633 2.08528
# Velocity P-wave (km/s) = 1.44242 5.07110 3.72805
#
# Compressibility (1/GPa) = 0.11390680
#
# Stress axis : x y z
#
# Youngs Moduli (GPa) = 107.15105 15.21566 29.17089
#
# Poissons Ratio (x) = 0.01098 0.24790
# Poissons Ratio (y) = 0.07730 -0.33563
# Poissons Ratio (z) = 0.91060 -0.17506
#
# Static dielectric constant tensor:
#      x y z
#    x 1.834000 0.000000 -0.003290 
#    y 0.000000 1.813980 0.000000 
#    z -0.003290 0.000000 1.852990 
# 
# From -- ./inp_files/173028.got.cif
#   From: 2010.05.17/outbox.cif.g08.bks.cpg/sg12_87_cif.got.tgz:173028.got - 2010.06.03 13:09:07.
