data_PCOD9220914
_publ_section_title
;
Structure prediction by ZEFSAII (Michael W. Deem and Ramdas Pophale) SiO2 
 PCOD9220914
Probable space group: C 2/M
;
_chemical_formula_sum "Si O2"
_cell_formula_units_Z 44
_cell_length_a 12.469438
_cell_length_b 17.469703
_cell_length_c 20.921531
_cell_angle_alpha 90.000000
_cell_angle_beta 156.524533
_cell_angle_gamma 90.000000
_cell_volume 1815.505730
_symmetry_space_group_name_H-M "C 2/M"
_symmetry_group_IT_number 12
_symmetry_cell_setting 'monoclinic'
loop_
_space_group_symop_operation_xyz
x,y,z
-x,y,-z
-x,-y,-z
x,-y,z
1/2+x,1/2+y,z
1/2-x,1/2+y,-z
1/2-x,1/2-y,-z
1/2+x,1/2-y,z
loop_
_atom_site_type_symbol
_atom_site_label
_atom_site_fract_x
_atom_site_fract_y
_atom_site_fract_z
Si Si1 0.679092 0.788144 0.392761
Si Si2 0.500000 0.164383 0.500000
Si Si3 0.812755 0.317915 0.086750
Si Si4 0.639144 0.594665 0.660583
Si Si5 0.820377 0.085752 0.175077
Si Si6 0.386527 0.410678 0.795861
O O1 0.750000 0.750000 0.500000
O O2 0.772711 0.722970 0.394903
O O3 0.385957 0.800551 0.201149
O O4 0.866460 0.864081 0.486365
O O5 0.593381 0.116113 0.612112
O O6 0.077724 0.367159 0.207739
O O7 0.750000 0.250000 0.000000
O O8 0.542246 0.367463 0.935704
O O9 0.645058 0.500000 0.657243
O O10 0.614154 0.620243 0.721292
O O11 0.931770 0.108027 0.167628
O O12 0.931946 0.000000 0.241850
O O13 0.500000 0.084154 0.000000
O O14 0.384063 0.500000 0.806339
#
# Coordination Sequence:
#
# PCOD9220914 Si02
#       6
#     8   4   8   8   8   8
#     4  12  26  45  68  96 143 188 225 282 354 427
#     4  12  23  46  63  98 140 182 238 268 353 440
#     4  12  23  42  64  95 135 175 227 284 345 414
#     4  11  22  39  68 103 137 177 230 295 351 407
#     4   9  17  32  59 100 135 166 219 280 340 397
#     4  11  22  39  68  99 137 183 231 291 346 415
#
# _framework density 24.235671
#
# number of rings (size 3 to 8) (size 9 to 14) (size 15 to 20)
#    0.000    0.909    5.455    1.909    0.000    2.182 
#    0.000    3.636    0.000    1.091    0.000    0.000 
#    0.000    0.000    0.000    0.000    0.000    0.000 
#
# Total GULP energy -122549.538447 kJ/mol
# GULP energy per Si atom -5570.433566 kJ/mol
# Density = 2.418051 g / cm^3
# Si number density = 24.235671 Si / 1000 Ang^3
#
#
#
# Elastic Constant Matrix: (Units=GPa)
#
#
# Indices 1 2 3 4 5 6 
#
# 1 48.7737 7.1916 6.2583 -0.0072 -5.9349 0.0034
# 2 7.1916 158.6740 77.0427 0.0106 -6.3272 0.0103
# 3 6.2583 77.0427 166.1786 0.0582 -39.6322 0.0044
# 4 -0.0072 0.0106 0.0582 39.7580 -0.0008 -0.1155
# 5 -5.9349 -6.3272 -39.6322 -0.0008 41.0378 -0.0077
# 6 0.0034 0.0103 0.0044 -0.1155 -0.0077 23.9804
#
#
#
# Elastic Compliance Matrix: (Units=1/GPa)
#
#
# Indices 1 2 3 4 5 6 
#
# 1 0.021004 -0.001062 0.000502 0.000003 0.003359 -0.000002
# 2 -0.001062 0.008502 -0.004711 0.000004 -0.003392 -0.000004
# 3 0.000502 -0.004711 0.010429 -0.000014 0.009418 0.000003
# 4 0.000003 0.000004 -0.000014 0.025153 -0.000012 0.000121
# 5 0.003359 -0.003392 0.009418 -0.000012 0.033426 0.000010
# 6 -0.000002 -0.000004 0.000003 0.000121 0.000010 0.041701
#
#
# Mechanical properties :
#
#
# Convention : Reuss Voigt Hill
#
# Bulk Modulus (GPa) = 34.02031 61.62348 47.82190
# Shear Modulus (GPa) = 31.14225 39.83082 35.48654
#
# Velocity S-wave (km/s) = 3.58854 4.05838 3.83067
# Velocity P-wave (km/s) = 5.58909 6.88786 6.27218
#
# Compressibility (1/GPa) = 0.02939420
#
# Stress axis : x y z
#
# Youngs Moduli (GPa) = 47.61068 117.61380 95.88797
#
# Poissons Ratio (x) = 0.12490 -0.04818
# Poissons Ratio (y) = 0.05056 0.45171
# Poissons Ratio (z) = -0.02392 0.55406
#
# Static dielectric constant tensor:
#      x y z
#    x 1.621420 -0.000050 -0.044330 
#    y -0.000050 1.981300 -0.000040 
#    z -0.044330 -0.000040 2.156370 
# 
# From -- ./inp_files/340903.got.cif
#   From: 2010.05.17/outbox.cif.g08.bks.cpg/sg12_171_cif.got.tgz:340903.got - 2010.06.03 13:09:07.
