data_PCOD9220097
_publ_section_title
;
Structure prediction by ZEFSAII (Michael W. Deem and Ramdas Pophale) SiO2 
 PCOD9220097
Probable space group: C 2/M
;
_chemical_formula_sum "Si O2"
_cell_formula_units_Z 40
_cell_length_a 17.667453
_cell_length_b 12.736817
_cell_length_c 16.941308
_cell_angle_alpha 90.000000
_cell_angle_beta 33.052731
_cell_angle_gamma 90.000000
_cell_volume 2079.243784
_symmetry_space_group_name_H-M "C 2/M"
_symmetry_group_IT_number 12
_symmetry_cell_setting 'monoclinic'
loop_
_space_group_symop_operation_xyz
x,y,z
-x,y,-z
-x,-y,-z
x,-y,z
1/2+x,1/2+y,z
1/2-x,1/2+y,-z
1/2-x,1/2-y,-z
1/2+x,1/2-y,z
loop_
_atom_site_type_symbol
_atom_site_label
_atom_site_fract_x
_atom_site_fract_y
_atom_site_fract_z
Si Si1 0.990834 0.113641 0.413972
Si Si2 0.831225 0.621547 0.643204
Si Si3 0.219632 0.289253 0.614389
Si Si4 0.202192 0.278345 0.163333
Si Si5 0.408115 0.875160 0.899601
O O1 0.071121 0.204406 0.298486
O O2 0.000000 0.127799 0.500000
O O3 0.830090 0.119620 0.533999
O O4 0.050922 0.000000 0.340914
O O5 0.802553 0.500000 0.650286
O O6 0.763355 0.697701 0.637680
O O7 0.773686 0.654272 0.779246
O O8 0.000000 0.632657 0.500000
O O9 0.250000 0.250000 0.500000
O O10 0.064754 0.331678 0.759112
O O11 0.164274 0.350275 0.121688
O O12 0.324478 0.197765 0.034259
O O13 0.404420 0.000000 0.918938
#
# Coordination Sequence:
#
# PCOD9220097 Si02
#       5
#     8   8   8   8   8
#     4  11  21  38  63  88 122 164 208 252 302 365
#     4  11  22  41  69  93 122 167 210 255 309 363
#     4  12  22  41  61  95 127 156 205 262 306 366
#     4  11  21  44  64  89 125 163 214 252 300 375
#     4  11  25  41  64  93 127 166 201 256 319 364
#
# _framework density 19.237763000000001
#
# number of rings (size 3 to 8) (size 9 to 14) (size 15 to 20)
#    0.000    0.800    6.000    1.800    0.000    4.000 
#    0.000    4.000    0.000    0.000    0.000    0.000 
#    0.000    0.000    0.000    0.000    0.000    0.000 
#
# Total GULP energy -111701.251230 kJ/mol
# GULP energy per Si atom -5585.062561 kJ/mol
# Density = 1.919398 g / cm^3
# Si number density = 19.237763 Si / 1000 Ang^3
#
#
#
# Elastic Constant Matrix: (Units=GPa)
#
#
# Indices 1 2 3 4 5 6 
#
# 1 80.1590 17.9478 20.9401 0.0000 3.5061 0.0000
# 2 17.9478 120.1396 21.3566 0.0000 -3.7060 0.0000
# 3 20.9401 21.3566 104.5416 0.0000 -11.3014 0.0000
# 4 0.0000 0.0000 0.0000 25.9473 0.0000 -3.7873
# 5 3.5061 -3.7060 -11.3014 0.0000 31.9383 0.0000
# 6 0.0000 0.0000 0.0000 -3.7873 0.0000 4.9009
#
#
#
# Elastic Compliance Matrix: (Units=1/GPa)
#
#
# Indices 1 2 3 4 5 6 
#
# 1 0.013661 -0.001645 -0.002686 0.000000 -0.002641 0.000000
# 2 -0.001645 0.008840 -0.001400 0.000000 0.000711 0.000000
# 3 -0.002686 -0.001400 0.010818 0.000000 0.003960 0.000000
# 4 0.000000 0.000000 0.000000 0.043440 0.000000 0.033570
# 5 -0.002641 0.000711 0.003960 0.000000 0.033084 0.000000
# 6 0.000000 0.000000 0.000000 0.033570 0.000000 0.229988
#
#
# Mechanical properties :
#
#
# Convention : Reuss Voigt Hill
#
# Bulk Modulus (GPa) = 45.74988 47.25881 46.50435
# Shear Modulus (GPa) = 13.94404 28.86366 21.40385
#
# Velocity S-wave (km/s) = 2.69518 3.87766 3.33918
# Velocity P-wave (km/s) = 5.78949 6.68336 6.25242
#
# Compressibility (1/GPa) = 0.02185798
#
# Stress axis : x y z
#
# Youngs Moduli (GPa) = 73.20328 113.12083 92.44222
#
# Poissons Ratio (x) = 0.18606 0.24828
# Poissons Ratio (y) = 0.12040 0.12938
# Poissons Ratio (z) = 0.19660 0.15832
#
# Static dielectric constant tensor:
#      x y z
#    x 1.215640 0.000000 0.104130 
#    y 0.000000 1.673000 0.000000 
#    z 0.104130 0.000000 1.635740 
# 
# From -- ./inp_files/277176.got.cif
#   From: 2010.05.17/outbox.cif.g08.bks.cpg/sg12_139_cif.got.tgz:277176.got - 2010.06.03 13:09:07.
