data_PCOD9220930
_publ_section_title
;
Structure prediction by ZEFSAII (Michael W. Deem and Ramdas Pophale) SiO2 
 PCOD9220930
Probable space group: C 2/M
;
_chemical_formula_sum "Si O2"
_cell_formula_units_Z 42
_cell_length_a 7.708505
_cell_length_b 12.503994
_cell_length_c 19.422400
_cell_angle_alpha 90.000000
_cell_angle_beta 77.780886
_cell_angle_gamma 90.000000
_cell_volume 1829.657736
_symmetry_space_group_name_H-M "C 2/M"
_symmetry_group_IT_number 12
_symmetry_cell_setting 'monoclinic'
loop_
_space_group_symop_operation_xyz
x,y,z
-x,y,-z
-x,-y,-z
x,-y,z
1/2+x,1/2+y,z
1/2-x,1/2+y,-z
1/2-x,1/2-y,-z
1/2+x,1/2-y,z
loop_
_atom_site_type_symbol
_atom_site_label
_atom_site_fract_x
_atom_site_fract_y
_atom_site_fract_z
Si Si1 0.500000 0.000000 0.500000
Si Si2 0.893805 0.822343 0.948179
Si Si3 0.627960 0.844103 0.611015
Si Si4 0.401858 0.116687 0.761615
Si Si5 0.975975 0.883837 0.419803
Si Si6 0.681314 0.814573 0.842428
O O1 0.582296 0.907138 0.545309
O O2 0.801880 0.874177 0.889084
O O3 0.031447 0.742367 0.900807
O O4 0.750000 0.750000 0.000000
O O5 0.000000 0.882046 0.000000
O O6 0.475027 0.868694 0.678763
O O7 0.821011 0.877807 0.622939
O O8 0.631165 0.717065 0.597574
O O9 0.575850 0.118589 0.795398
O O10 0.285838 0.218105 0.795208
O O11 0.312490 0.000000 0.776200
O O12 0.000000 0.876524 0.500000
O O13 0.892749 0.000000 0.410669
#
# Coordination Sequence:
#
# PCOD9220930 Si02
#       6
#     2   8   8   8   8   8
#     4  12  24  40  68  88 120 164 220 282 334 384
#     4   8  14  30  61  91 121 164 199 241 299 353
#     4  12  24  42  63  88 122 162 216 269 337 389
#     4  11  22  40  60  85 122 165 205 260 315 380
#     4  11  24  41  61  89 118 153 200 267 334 400
#     4   9  19  35  59  89 122 161 206 242 302 371
#
# _framework density 22.955110999999999
#
# number of rings (size 3 to 8) (size 9 to 14) (size 15 to 20)
#    0.000    1.714    2.857    1.714    0.000    0.000 
#    0.000    4.762    0.000   72.000    0.000    0.000 
#    0.000    0.000    0.000    0.000    0.000    0.000 
#
# Total GULP energy -117027.001595 kJ/mol
# GULP energy per Si atom -5572.714362 kJ/mol
# Density = 2.290286 g / cm^3
# Si number density = 22.955111 Si / 1000 Ang^3
#
#
#
# Elastic Constant Matrix: (Units=GPa)
#
#
# Indices 1 2 3 4 5 6 
#
# 1 48.1578 12.6973 19.4142 0.0000 1.2719 0.0000
# 2 12.6973 165.9755 21.8523 0.0000 0.2307 0.0000
# 3 19.4142 21.8523 75.3139 0.0000 -14.5759 0.0000
# 4 0.0000 0.0000 0.0000 143.8715 0.0000 -21.3566
# 5 1.2719 0.2307 -14.5759 0.0000 39.4233 0.0000
# 6 0.0000 0.0000 0.0000 -21.3566 0.0000 12.5631
#
#
#
# Elastic Compliance Matrix: (Units=1/GPa)
#
#
# Indices 1 2 3 4 5 6 
#
# 1 0.023696 -0.000961 -0.006437 0.000000 -0.003139 0.000000
# 2 -0.000961 0.006325 -0.001711 0.000000 -0.000639 0.000000
# 3 -0.006437 -0.001711 0.016668 0.000000 0.006380 0.000000
# 4 0.000000 0.000000 0.000000 0.009297 0.000000 0.015804
# 5 -0.003139 -0.000639 0.006380 0.000000 0.027830 0.000000
# 6 0.000000 0.000000 0.000000 0.015804 0.000000 0.106464
#
#
# Mechanical properties :
#
#
# Convention : Reuss Voigt Hill
#
# Bulk Modulus (GPa) = 35.12290 44.15276 39.63783
# Shear Modulus (GPa) = 22.93708 54.87048 38.90378
#
# Velocity S-wave (km/s) = 3.16446 4.89441 4.12123
# Velocity P-wave (km/s) = 5.35590 7.15657 6.32069
#
# Compressibility (1/GPa) = 0.02847145
#
# Stress axis : x y z
#
# Youngs Moduli (GPa) = 42.20066 158.11144 59.99388
#
# Poissons Ratio (x) = 0.15193 0.38618
# Poissons Ratio (y) = 0.04055 0.10265
# Poissons Ratio (z) = 0.27165 0.27053
#
# Static dielectric constant tensor:
#      x y z
#    x 1.923320 0.000000 0.005210 
#    y 0.000000 2.056250 0.000000 
#    z 0.005210 0.000000 1.872630 
# 
# From -- ./inp_files/299237.got.cif
#   From: 2010.05.17/outbox.cif.g08.bks.cpg/sg12_150_cif.got.tgz:299237.got - 2010.06.03 13:09:07.
