data_PCOD9220112
_publ_section_title
;
Structure prediction by ZEFSAII (Michael W. Deem and Ramdas Pophale) SiO2 
 PCOD9220112
Probable space group: C 2/M
;
_chemical_formula_sum "Si O2"
_cell_formula_units_Z 48
_cell_length_a 17.055672
_cell_length_b 25.620956
_cell_length_c 9.943019
_cell_angle_alpha 90.000000
_cell_angle_beta 32.667310
_cell_angle_gamma 90.000000
_cell_volume 2345.218013
_symmetry_space_group_name_H-M "C 2/M"
_symmetry_group_IT_number 12
_symmetry_cell_setting 'monoclinic'
loop_
_space_group_symop_operation_xyz
x,y,z
-x,y,-z
-x,-y,-z
x,-y,z
1/2+x,1/2+y,z
1/2-x,1/2+y,-z
1/2-x,1/2-y,-z
1/2+x,1/2-y,z
loop_
_atom_site_type_symbol
_atom_site_label
_atom_site_fract_x
_atom_site_fract_y
_atom_site_fract_z
Si Si1 0.186722 0.273679 0.454761
Si Si2 0.664917 0.061379 0.150808
Si Si3 0.624078 0.896486 0.514233
Si Si4 0.390209 0.561158 0.280815
Si Si5 0.949781 0.883431 0.718586
Si Si6 0.632738 0.272684 0.067836
O O1 0.250000 0.250000 0.500000
O O2 0.162469 0.336121 0.483207
O O3 0.303276 0.260282 0.171036
O O4 0.026386 0.249466 0.670040
O O5 0.547254 0.091326 0.229133
O O6 0.655973 0.083716 0.316009
O O7 0.632438 0.000000 0.198511
O O8 0.828059 0.072715 0.870777
O O9 0.728426 0.928681 0.461722
O O10 0.414627 0.500000 0.270975
O O11 0.429076 0.593832 0.356833
O O12 0.500000 0.576681 0.000000
O O13 0.000000 0.865302 0.500000
O O14 0.877657 0.834603 0.897533
O O15 0.750000 0.250000 0.000000
#
# Coordination Sequence:
#
# PCOD9220112 Si02
#       6
#     8   8   8   8   8   8
#     4  12  25  43  69  97 136 178 228 283 345 404
#     4  11  22  40  69 102 137 178 228 283 343 408
#     4  11  22  40  67  97 134 171 228 283 338 409
#     4  11  21  38  64  95 130 172 222 276 338 405
#     4  12  25  43  66  98 140 180 229 286 346 412
#     4  12  25  44  67  97 132 180 230 282 344 412
#
# _framework density 20.467181
#
# number of rings (size 3 to 8) (size 9 to 14) (size 15 to 20)
#    0.000    0.500    3.333    6.500    2.333    1.333 
#    0.000    2.500    0.000    2.000    0.000    0.000 
#    0.000    0.000    0.000    0.000    0.000    0.000 
#
# Total GULP energy -134183.978784 kJ/mol
# GULP energy per Si atom -5590.999116 kJ/mol
# Density = 2.042060 g / cm^3
# Si number density = 20.467181 Si / 1000 Ang^3
#
#
#
# Elastic Constant Matrix: (Units=GPa)
#
#
# Indices 1 2 3 4 5 6 
#
# 1 144.5855 26.2389 32.3774 0.0001 -5.2762 0.0001
# 2 26.2389 93.8711 1.1695 0.0000 6.3006 0.0000
# 3 32.3774 1.1695 70.0836 0.0001 5.8741 0.0000
# 4 0.0001 0.0000 0.0001 26.1561 -0.0001 -5.1947
# 5 -5.2762 6.3006 5.8741 -0.0001 39.5076 -0.0001
# 6 0.0001 0.0000 0.0000 -5.1947 -0.0001 32.6369
#
#
#
# Elastic Compliance Matrix: (Units=1/GPa)
#
#
# Indices 1 2 3 4 5 6 
#
# 1 0.008322 -0.002417 -0.003979 0.000000 0.002089 0.000000
# 2 -0.002417 0.011470 0.001119 0.000000 -0.002318 0.000000
# 3 -0.003979 0.001119 0.016352 0.000000 -0.003141 0.000000
# 4 0.000000 0.000000 0.000000 0.039480 0.000000 0.006284
# 5 0.002089 -0.002318 -0.003141 0.000000 0.026427 0.000000
# 6 0.000000 0.000000 0.000000 0.006284 0.000000 0.031640
#
#
# Mechanical properties :
#
#
# Convention : Reuss Voigt Hill
#
# Bulk Modulus (GPa) = 39.07713 47.56797 43.32255
# Shear Modulus (GPa) = 32.72773 36.24375 34.48574
#
# Velocity S-wave (km/s) = 4.00313 4.21268 4.10924
# Velocity P-wave (km/s) = 6.36402 6.85228 6.61266
#
# Compressibility (1/GPa) = 0.02559041
#
# Stress axis : x y z
#
# Youngs Moduli (GPa) = 120.15947 87.18294 61.15568
#
# Poissons Ratio (x) = 0.21071 0.24337
# Poissons Ratio (y) = 0.29041 -0.06846
# Poissons Ratio (z) = 0.47817 -0.09760
#
# Static dielectric constant tensor:
#      x y z
#    x 1.693880 0.000000 -0.010620 
#    y 0.000000 1.735030 0.000000 
#    z -0.010620 0.000000 1.797970 
# 
# From -- ./inp_files/67346.got.cif
#   From: 2010.05.17/outbox.cif.g08.bks.cpg/sg12_34_cif.got.tgz:67346.got - 2010.06.03 13:09:07.
