data_PCOD9220518
_publ_section_title
;
Structure prediction by ZEFSAII (Michael W. Deem and Ramdas Pophale) SiO2 
 PCOD9220518
Probable space group: C 2/M
;
_chemical_formula_sum "Si O2"
_cell_formula_units_Z 40
_cell_length_a 8.867201
_cell_length_b 28.019157
_cell_length_c 9.086503
_cell_angle_alpha 90.000000
_cell_angle_beta 64.741231
_cell_angle_gamma 90.000000
_cell_volume 2041.710073
_symmetry_space_group_name_H-M "C 2/M"
_symmetry_group_IT_number 12
_symmetry_cell_setting 'monoclinic'
loop_
_space_group_symop_operation_xyz
x,y,z
-x,y,-z
-x,-y,-z
x,-y,z
1/2+x,1/2+y,z
1/2-x,1/2+y,-z
1/2-x,1/2-y,-z
1/2+x,1/2-y,z
loop_
_atom_site_type_symbol
_atom_site_label
_atom_site_fract_x
_atom_site_fract_y
_atom_site_fract_z
Si Si1 0.546167 0.141660 0.648514
Si Si2 0.109295 0.906446 0.584617
Si Si3 0.513402 0.694560 0.319321
Si Si4 0.860911 0.448321 0.688997
Si Si5 0.374270 0.769409 0.183395
O O1 0.500000 0.155911 0.500000
O O2 0.729684 0.118300 0.559742
O O3 0.417641 0.099630 0.748888
O O4 0.555014 0.186422 0.750665
O O5 0.186862 0.939472 0.677885
O O6 0.000000 0.929154 0.500000
O O7 0.008381 0.861864 0.694473
O O8 0.500000 0.702463 0.500000
O O9 0.373003 0.723605 0.290538
O O10 0.693112 0.715247 0.202113
O O11 0.863970 0.500000 0.763031
O O12 0.000000 0.450202 0.500000
O O13 0.500000 0.759107 0.000000
#
# Coordination Sequence:
#
# PCOD9220518 Si02
#       5
#     8   8   8   8   8
#     4   9  18  33  55  74 104 143 182 207 261 322
#     4   9  16  30  51  77 104 134 181 211 259 313
#     4  11  22  36  55  75 106 148 181 212 260 322
#     4   8  16  29  51  80 107 133 173 223 268 307
#     4  12  24  36  51  80 111 140 182 225 264 304
#
# _framework density 19.591418999999998
#
# number of rings (size 3 to 8) (size 9 to 14) (size 15 to 20)
#    0.000    2.600    4.000    1.800    5.600    0.400 
#    0.000    0.000    0.000    0.600    0.000    1.400 
#    0.000    0.000    0.000    0.000    0.000    0.000 
#
# Total GULP energy -111492.442379 kJ/mol
# GULP energy per Si atom -5574.622119 kJ/mol
# Density = 1.954683 g / cm^3
# Si number density = 19.591419 Si / 1000 Ang^3
#
#
#
# Elastic Constant Matrix: (Units=GPa)
#
#
# Indices 1 2 3 4 5 6 
#
# 1 94.3481 2.9091 -3.9044 0.0000 7.2515 0.0000
# 2 2.9091 72.0534 -3.1927 0.0000 13.1615 0.0000
# 3 -3.9044 -3.1927 23.6536 0.0000 -0.6385 0.0000
# 4 0.0000 0.0000 0.0000 -2.9154 0.0000 -2.1122
# 5 7.2515 13.1615 -0.6385 0.0000 19.9571 0.0000
# 6 0.0000 0.0000 0.0000 -2.1122 0.0000 10.8483
#
#
#
# Elastic Compliance Matrix: (Units=1/GPa)
#
#
# Indices 1 2 3 4 5 6 
#
# 1 0.010982 0.000401 0.001754 0.000000 -0.004199 0.000000
# 2 0.000401 0.015875 0.001924 0.000000 -0.010554 0.000000
# 3 0.001754 0.001924 0.042812 0.000000 -0.000536 0.000000
# 4 0.000000 0.000000 0.000000 -0.300602 0.000000 -0.058529
# 5 -0.004199 -0.010554 -0.000536 0.000000 0.058576 0.000000
# 6 0.000000 0.000000 0.000000 -0.058529 0.000000 0.080784
#
#
# Mechanical properties :
#
#
# Convention : Reuss Voigt Hill
#
# Bulk Modulus (GPa) = 12.84901 20.18655 16.51778
# Shear Modulus (GPa) = -67.76127 18.52755 -24.61686
#
# Velocity S-wave (km/s) = -5.88747 3.07855 -3.54858
# Velocity P-wave (km/s) = 6.29632 4.79195 2.88798
#
# Compressibility (1/GPa) = 0.07782703
#
# Stress axis : x y z
#
# Youngs Moduli (GPa) = 91.05834 62.99022 23.35820
#
# Poissons Ratio (x) = -0.02528 -0.04096
# Poissons Ratio (y) = -0.03654 -0.04494
# Poissons Ratio (z) = -0.15968 -0.12120
#
# Static dielectric constant tensor:
#      x y z
#    x 1.747550 0.000000 0.001790 
#    y 0.000000 1.726930 0.000000 
#    z 0.001790 0.000000 1.674550 
# 
# From -- ./inp_files/41050.got.cif
#   From: 2010.05.17/outbox.cif.g08.bks.cpg/sg12_21_cif.got.tgz:41050.got - 2010.06.03 13:09:07.
