data_PCOD9220727
_publ_section_title
;
Structure prediction by ZEFSAII (Michael W. Deem and Ramdas Pophale) SiO2 
 PCOD9220727
Probable space group: C 2/M
;
_chemical_formula_sum "Si O2"
_cell_formula_units_Z 56
_cell_length_a 11.220715
_cell_length_b 29.051569
_cell_length_c 11.505688
_cell_angle_alpha 90.000000
_cell_angle_beta 51.737136
_cell_angle_gamma 90.000000
_cell_volume 2944.901623
_symmetry_space_group_name_H-M "C 2/M"
_symmetry_group_IT_number 12
_symmetry_cell_setting 'monoclinic'
loop_
_space_group_symop_operation_xyz
x,y,z
-x,y,-z
-x,-y,-z
x,-y,z
1/2+x,1/2+y,z
1/2-x,1/2+y,-z
1/2-x,1/2-y,-z
1/2+x,1/2-y,z
loop_
_atom_site_type_symbol
_atom_site_label
_atom_site_fract_x
_atom_site_fract_y
_atom_site_fract_z
Si Si1 0.711595 0.204036 0.096860
Si Si2 0.750043 0.284821 0.652833
Si Si3 0.126909 0.687459 0.652662
Si Si4 0.168404 0.446017 0.913954
Si Si5 0.663204 0.379609 0.347639
Si Si6 0.055579 0.053185 0.099734
Si Si7 0.043508 0.151782 0.188787
O O1 0.720491 0.212398 0.228763
O O2 0.537414 0.188274 0.187430
O O3 0.750000 0.250000 0.000000
O O4 0.837568 0.167012 0.982007
O O5 0.870513 0.305370 0.488167
O O6 0.719818 0.231827 0.640814
O O7 0.595539 0.313402 0.724118
O O8 0.221521 0.643008 0.632320
O O9 0.156230 0.500000 0.904127
O O10 0.268850 0.424572 0.752003
O O11 0.264803 0.440098 0.975464
O O12 0.000000 0.425512 0.000000
O O13 0.500000 0.387942 0.500000
O O14 0.634266 0.346055 0.255026
O O15 0.020223 0.000000 0.159922
O O16 0.988848 0.098988 0.201735
O O17 0.000000 0.055503 0.000000
#
# Coordination Sequence:
#
# PCOD9220727 Si02
#       7
#     8   8   8   8   8   8   8
#     4  12  24  38  58  88 115 153 204 252 297 355
#     4  11  23  41  58  80 120 157 197 244 301 357
#     4  11  25  38  60  82 117 161 196 244 299 363
#     4   9  20  38  62  93 125 155 199 259 315 364
#     4  11  23  40  60  86 120 160 207 241 301 366
#     4   9  18  34  58  88 120 155 195 244 307 366
#     4  11  22  38  61  87 118 154 197 258 292 351
#
# _framework density 19.015915
#
# number of rings (size 3 to 8) (size 9 to 14) (size 15 to 20)
#    0.000    1.429    2.857    2.571    4.000    1.429 
#    0.000    0.000    0.000    0.000    0.000    0.000 
#    0.000   17.143    0.000    0.000    0.000    0.000 
#
# Total GULP energy -156069.672905 kJ/mol
# GULP energy per Si atom -5573.916889 kJ/mol
# Density = 1.897263 g / cm^3
# Si number density = 19.015915 Si / 1000 Ang^3
#
#
#
# Elastic Constant Matrix: (Units=GPa)
#
#
# Indices 1 2 3 4 5 6 
#
# 1 81.3072 12.0726 32.6154 0.0000 8.1338 0.0000
# 2 12.0726 50.5215 8.1485 0.0000 4.7193 0.0000
# 3 32.6154 8.1485 109.4076 0.0000 -5.4120 0.0000
# 4 0.0000 0.0000 0.0000 7.7464 0.0000 4.3512
# 5 8.1338 4.7193 -5.4120 0.0000 38.1294 0.0000
# 6 0.0000 0.0000 0.0000 4.3512 0.0000 21.4667
#
#
#
# Elastic Compliance Matrix: (Units=1/GPa)
#
#
# Indices 1 2 3 4 5 6 
#
# 1 0.014778 -0.002499 -0.004391 0.000000 -0.003466 0.000000
# 2 -0.002499 0.020739 -0.000906 0.000000 -0.002162 0.000000
# 3 -0.004391 -0.000906 0.010643 0.000000 0.002560 0.000000
# 4 0.000000 0.000000 0.000000 0.145677 0.000000 -0.029528
# 5 -0.003466 -0.002162 0.002560 0.000000 0.027597 0.000000
# 6 0.000000 0.000000 0.000000 -0.029528 0.000000 0.052569
#
#
# Mechanical properties :
#
#
# Convention : Reuss Voigt Hill
#
# Bulk Modulus (GPa) = 32.71501 38.54547 35.63024
# Shear Modulus (GPa) = 16.79057 26.02848 21.40953
#
# Velocity S-wave (km/s) = 2.97471 3.70371 3.35904
# Velocity P-wave (km/s) = 5.38887 6.21322 5.81567
#
# Compressibility (1/GPa) = 0.03056701
#
# Stress axis : x y z
#
# Youngs Moduli (GPa) = 67.66696 48.21828 93.95667
#
# Poissons Ratio (x) = 0.12052 0.41255
# Poissons Ratio (y) = 0.16913 0.08517
# Poissons Ratio (z) = 0.29712 0.04371
#
# Static dielectric constant tensor:
#      x y z
#    x 1.715350 0.000000 -0.004460 
#    y 0.000000 1.658710 0.000000 
#    z -0.004460 0.000000 1.664420 
# 
# From -- ./inp_files/136943.got.cif
#   From: 2010.05.17/outbox.cif.g08.bks.cpg/sg12_69_cif.got.tgz:136943.got - 2010.06.03 13:09:07.
