data_PCOD9220384
_publ_section_title
;
Structure prediction by ZEFSAII (Michael W. Deem and Ramdas Pophale) SiO2 
 PCOD9220384
Probable space group: C 2/M
;
_chemical_formula_sum "Si O2"
_cell_formula_units_Z 48
_cell_length_a 16.484861
_cell_length_b 7.385327
_cell_length_c 15.138430
_cell_angle_alpha 90.000000
_cell_angle_beta 103.418090
_cell_angle_gamma 90.000000
_cell_volume 1792.734430
_symmetry_space_group_name_H-M "C 2/M"
_symmetry_group_IT_number 12
_symmetry_cell_setting 'monoclinic'
loop_
_space_group_symop_operation_xyz
x,y,z
-x,y,-z
-x,-y,-z
x,-y,z
1/2+x,1/2+y,z
1/2-x,1/2+y,-z
1/2-x,1/2-y,-z
1/2+x,1/2-y,z
loop_
_atom_site_type_symbol
_atom_site_label
_atom_site_fract_x
_atom_site_fract_y
_atom_site_fract_z
Si Si1 0.189271 0.221100 0.811534
Si Si2 0.123485 0.219605 0.971178
Si Si3 0.062702 0.779664 0.638862
Si Si4 0.618048 0.714034 0.469253
Si Si5 0.062959 0.218580 0.139516
Si Si6 0.809447 0.296452 0.691712
O O1 0.187289 0.285286 0.912149
O O2 0.102288 0.270674 0.741659
O O3 0.255108 0.291293 0.756075
O O4 0.194749 0.000000 0.817405
O O5 0.031128 0.266094 0.910520
O O6 0.127371 0.000000 0.975589
O O7 0.121454 0.281963 0.072105
O O8 0.122165 0.721519 0.571576
O O9 0.970473 0.716094 0.591004
O O10 0.059260 0.000000 0.640611
O O11 0.609666 0.500000 0.475960
O O12 0.684091 0.738973 0.407931
O O13 0.099293 0.288382 0.240287
O O14 0.064806 0.000000 0.144780
O O15 0.777859 0.500000 0.678083
#
# Coordination Sequence:
#
# PCOD9220384 Si02
#       6
#     8   8   8   8   8   8
#     4   9  17  29  45  69 102 131 154 188 238 293
#     4   8  15  30  54  77  91 115 161 208 242 272
#     4   8  15  30  54  77  91 115 161 208 242 272
#     4   9  17  32  55  76  91 116 162 211 241 268
#     4   9  17  32  55  76  91 116 162 211 241 268
#     4  11  22  31  43  69 104 137 158 180 232 297
#
# _framework density 26.774743000000001
#
# number of rings (size 3 to 8) (size 9 to 14) (size 15 to 20)
#    0.000    3.000    0.000    3.500    0.000    4.000 
#    0.000    3.333    0.000   10.000    0.000    0.000 
#    0.000    0.000    0.000    0.000    0.000    0.000 
#
# Total GULP energy -134084.638647 kJ/mol
# GULP energy per Si atom -5586.859944 kJ/mol
# Density = 2.671380 g / cm^3
# Si number density = 26.774743 Si / 1000 Ang^3
#
#
#
# Elastic Constant Matrix: (Units=GPa)
#
#
# Indices 1 2 3 4 5 6 
#
# 1 66.7727 -4.1876 31.0703 0.0000 -21.5029 0.0000
# 2 -4.1876 85.6344 -0.6587 0.0000 -2.2762 0.0000
# 3 31.0703 -0.6587 220.4392 0.0000 -28.9512 0.0000
# 4 0.0000 0.0000 0.0000 7.8799 0.0000 -13.9003
# 5 -21.5029 -2.2762 -28.9512 0.0000 54.0099 0.0000
# 6 0.0000 0.0000 0.0000 -13.9003 0.0000 -10.7149
#
#
#
# Elastic Compliance Matrix: (Units=1/GPa)
#
#
# Indices 1 2 3 4 5 6 
#
# 1 0.017836 0.001025 -0.001692 0.000000 0.006238 0.000000
# 2 0.001025 0.011752 0.000010 0.000000 0.000909 0.000000
# 3 -0.001692 0.000010 0.005041 0.000000 0.002029 0.000000
# 4 0.000000 0.000000 0.000000 0.038591 0.000000 -0.050064
# 5 0.006238 0.000909 0.002029 0.000000 0.022125 0.000000
# 6 0.000000 0.000000 0.000000 -0.050064 0.000000 -0.028381
#
#
# Mechanical properties :
#
#
# Convention : Reuss Voigt Hill
#
# Bulk Modulus (GPa) = 30.01547 47.25493 38.63520
# Shear Modulus (GPa) = 62.98508 33.34312 48.16410
#
# Velocity S-wave (km/s) = 4.85542 3.53274 4.24590
# Velocity P-wave (km/s) = 6.53209 5.85898 6.20467
#
# Compressibility (1/GPa) = 0.03331616
#
# Stress axis : x y z
#
# Youngs Moduli (GPa) = 56.06530 85.09260 198.35831
#
# Poissons Ratio (x) = -0.08722 0.33557
# Poissons Ratio (y) = -0.05747 -0.00198
# Poissons Ratio (z) = 0.09485 -0.00085
#
# Static dielectric constant tensor:
#      x y z
#    x 2.211670 0.000000 -0.049260 
#    y 0.000000 2.046080 0.000000 
#    z -0.049260 0.000000 2.039190 
# 
# From -- ./inp_files/221667.got.cif
#   From: 2010.05.17/outbox.cif.g08.bks.cpg/sg12_111_cif.got.tgz:221667.got - 2010.06.03 13:09:07.
