data_PCOD9220731
_publ_section_title
;
Structure prediction by ZEFSAII (Michael W. Deem and Ramdas Pophale) SiO2 
 PCOD9220731
Probable space group: C 2/M
;
_chemical_formula_sum "Si O2"
_cell_formula_units_Z 48
_cell_length_a 9.086876
_cell_length_b 14.166845
_cell_length_c 28.780822
_cell_angle_alpha 90.000000
_cell_angle_beta 142.121749
_cell_angle_gamma 90.000000
_cell_volume 2274.831019
_symmetry_space_group_name_H-M "C 2/M"
_symmetry_group_IT_number 12
_symmetry_cell_setting 'monoclinic'
loop_
_space_group_symop_operation_xyz
x,y,z
-x,y,-z
-x,-y,-z
x,-y,z
1/2+x,1/2+y,z
1/2-x,1/2+y,-z
1/2-x,1/2-y,-z
1/2+x,1/2-y,z
loop_
_atom_site_type_symbol
_atom_site_label
_atom_site_fract_x
_atom_site_fract_y
_atom_site_fract_z
Si Si1 0.864261 0.602239 0.282217
Si Si2 0.226810 0.113605 0.090724
Si Si3 0.154116 0.250000 0.161647
Si Si4 0.546824 0.397761 0.282217
Si Si5 0.891882 0.147687 0.426408
Si Si6 0.259840 0.352313 0.573592
O O1 0.776741 0.500000 0.244398
O O2 0.714260 0.681677 0.219535
O O3 0.807020 0.610282 0.322808
O O4 0.147176 0.605985 0.345291
O O5 0.153387 0.178036 0.117512
O O6 0.434175 0.178036 0.117513
O O7 0.289472 0.000000 0.115789
O O8 0.000000 0.110598 0.000000
O O9 0.383416 0.318324 0.219535
O O10 0.445248 0.500000 0.244398
O O11 0.579279 0.394014 0.345291
O O12 0.804125 0.250000 0.421650
O O13 0.000000 0.102479 0.500000
O O14 0.091591 0.152328 0.436636
O O15 0.000000 0.397521 0.500000
#
# Coordination Sequence:
#
# PCOD9220731 Si02
#       6
#     8   8   8   8   8   8
#     4  11  24  41  64  96 133 178 229 281 345 416
#     4  11  26  48  77 111 144 185 234 281 346 429
#     4  12  23  46  71 102 144 182 224 286 351 404
#     4  11  24  41  64  96 133 178 229 281 345 416
#     4  11  22  38  61  89 127 177 232 292 357 412
#     4  11  22  38  61  89 127 177 232 292 357 412
#
# _framework density 21.100466999999998
#
# number of rings (size 3 to 8) (size 9 to 14) (size 15 to 20)
#    0.000    0.833    3.333    5.500    2.333    1.333 
#    0.000    0.000    0.000    4.000    0.000    0.000 
#    0.000    0.000    0.000    0.000    0.000    0.000 
#
# Total GULP energy -133802.833350 kJ/mol
# GULP energy per Si atom -5575.118056 kJ/mol
# Density = 2.105244 g / cm^3
# Si number density = 21.100467 Si / 1000 Ang^3
#
#
#
# Elastic Constant Matrix: (Units=GPa)
#
#
# Indices 1 2 3 4 5 6 
#
# 1 184.9351 52.1627 49.9806 0.0000 -3.1451 0.0000
# 2 52.1627 181.7341 50.7583 0.0000 -0.0734 0.0000
# 3 49.9806 50.7583 90.9499 0.0000 -1.7670 0.0000
# 4 0.0000 0.0000 0.0000 -0.1602 0.0000 -0.8277
# 5 -3.1451 -0.0734 -1.7670 0.0000 37.4605 0.0000
# 6 0.0000 0.0000 0.0000 -0.8277 0.0000 15.6694
#
#
#
# Elastic Compliance Matrix: (Units=1/GPa)
#
#
# Indices 1 2 3 4 5 6 
#
# 1 0.006515 -0.001033 -0.002996 0.000000 0.000404 0.000000
# 2 -0.001033 0.006683 -0.003167 0.000000 -0.000223 0.000000
# 3 -0.002996 -0.003167 0.014417 -0.000001 0.000422 0.000000
# 4 0.000000 0.000000 -0.000001 -4.904283 0.000002 -0.259049
# 5 0.000404 -0.000223 0.000422 0.000002 0.026748 0.000000
# 6 0.000000 0.000000 0.000000 -0.259049 0.000000 0.050136
#
#
# Mechanical properties :
#
#
# Convention : Reuss Voigt Hill
#
# Bulk Modulus (GPa) = 75.61846 84.82471 80.22159
# Shear Modulus (GPa) = -1.04581 30.90843 14.93131
#
# Velocity S-wave (km/s) = -0.70478 3.83145 2.66302
# Velocity P-wave (km/s) = 5.93741 7.73699 6.89615
#
# Compressibility (1/GPa) = 0.01322428
#
# Stress axis : x y z
#
# Youngs Moduli (GPa) = 153.48576 149.62438 69.36306
#
# Poissons Ratio (x) = 0.15458 0.20781
# Poissons Ratio (y) = 0.15857 0.21964
# Poissons Ratio (z) = 0.45984 0.47379
#
# Static dielectric constant tensor:
#      x y z
#    x 1.807270 0.000000 -0.002980 
#    y 0.000000 1.829290 0.000000 
#    z -0.002980 0.000000 1.750270 
# 
# From -- ./inp_files/356350.got.cif
#   From: 2010.05.17/outbox.cif.g08.bks.cpg/sg12_179_cif.got.tgz:356350.got - 2010.06.03 13:09:07.
