data_PCOD9220331
_publ_section_title
;
Structure prediction by ZEFSAII (Michael W. Deem and Ramdas Pophale) SiO2 
 PCOD9220331
Probable space group: C 2/M
;
_chemical_formula_sum "Si O2"
_cell_formula_units_Z 42
_cell_length_a 14.870870
_cell_length_b 18.972007
_cell_length_c 14.619755
_cell_angle_alpha 90.000000
_cell_angle_beta 28.209764
_cell_angle_gamma 90.000000
_cell_volume 1949.737829
_symmetry_space_group_name_H-M "C 2/M"
_symmetry_group_IT_number 12
_symmetry_cell_setting 'monoclinic'
loop_
_space_group_symop_operation_xyz
x,y,z
-x,y,-z
-x,-y,-z
x,-y,z
1/2+x,1/2+y,z
1/2-x,1/2+y,-z
1/2-x,1/2-y,-z
1/2+x,1/2-y,z
loop_
_atom_site_type_symbol
_atom_site_label
_atom_site_fract_x
_atom_site_fract_y
_atom_site_fract_z
Si Si1 0.773752 0.181847 0.910971
Si Si2 0.282182 0.670462 0.505433
Si Si3 0.500000 0.500000 0.000000
Si Si4 0.568502 0.084352 0.225111
Si Si5 0.279231 0.120305 0.722497
Si Si6 0.269728 0.276691 0.709330
O O1 0.712469 0.201318 0.862528
O O2 0.994518 0.159166 0.707270
O O3 0.750000 0.250000 0.000000
O O4 0.656658 0.116361 0.054559
O O5 0.250000 0.750000 0.500000
O O6 0.224312 0.673806 0.664640
O O7 0.143871 0.616145 0.578713
O O8 0.630452 0.560804 0.833291
O O9 0.699420 0.118160 0.186610
O O10 0.574961 0.000000 0.227073
O O11 0.500000 0.105011 0.500000
O O12 0.212014 0.195610 0.746434
O O13 0.500000 0.272813 0.500000
#
# Coordination Sequence:
#
# PCOD9220331 Si02
#       6
#     8   8   2   8   8   8
#     4  11  21  42  67  97 130 171 229 279 321 398
#     4  11  22  42  69  97 128 179 227 273 341 394
#     4  12  26  36  60  90 128 186 216 254 354 416
#     4  12  26  43  63  98 143 176 218 280 341 401
#     4  11  23  44  61  93 137 169 219 283 334 408
#     4   9  20  40  69  94 125 168 224 286 325 388
#
# _framework density 21.541357999999999
#
# number of rings (size 3 to 8) (size 9 to 14) (size 15 to 20)
#    0.000    1.143    4.762    2.571    0.000    6.095 
#    0.000    1.905    0.000    3.429    0.000    0.000 
#    0.000    0.000    0.000    0.000    0.000    0.000 
#
# Total GULP energy -117117.577608 kJ/mol
# GULP energy per Si atom -5577.027505 kJ/mol
# Density = 2.149233 g / cm^3
# Si number density = 21.541358 Si / 1000 Ang^3
#
#
#
# Elastic Constant Matrix: (Units=GPa)
#
#
# Indices 1 2 3 4 5 6 
#
# 1 68.5594 2.3009 9.2100 0.0778 11.2318 -0.1766
# 2 2.3009 58.2176 14.0312 0.2195 -4.6515 -0.4821
# 3 9.2100 14.0312 101.9924 0.1980 1.3929 -0.4518
# 4 0.0778 0.2195 0.1980 365.6300 0.0281 -648.2063
# 5 11.2318 -4.6515 1.3929 0.0281 39.9871 -0.0259
# 6 -0.1766 -0.4821 -0.4518 -648.2063 -0.0259 1284.9821
#
#
#
# Elastic Compliance Matrix: (Units=1/GPa)
#
#
# Indices 1 2 3 4 5 6 
#
# 1 0.015494 -0.000662 -0.001248 0.000005 -0.004386 0.000004
# 2 -0.000662 0.017982 -0.002446 0.000008 0.002363 0.000010
# 3 -0.001248 -0.002446 0.010258 0.000006 -0.000291 0.000006
# 4 0.000005 0.000008 0.000006 0.025877 -0.000010 0.013054
# 5 -0.004386 0.002363 -0.000291 -0.000010 0.026525 -0.000005
# 6 0.000004 0.000010 0.000006 0.013054 -0.000005 0.007363
#
#
# Mechanical properties :
#
#
# Convention : Reuss Voigt Hill
#
# Bulk Modulus (GPa) = 28.55429 31.09485 29.82457
# Shear Modulus (GPa) = 40.35986 351.66834 196.01410
#
# Velocity S-wave (km/s) = 4.33320 12.79090 9.54944
# Velocity P-wave (km/s) = 6.19031 15.25153 11.63892
#
# Compressibility (1/GPa) = 0.03502101
#
# Stress axis : x y z
#
# Youngs Moduli (GPa) = 64.54001 55.61266 97.48604
#
# Poissons Ratio (x) = 0.03681 0.12168
# Poissons Ratio (y) = 0.04272 0.23847
# Poissons Ratio (z) = 0.08056 0.13604
#
# Static dielectric constant tensor:
#      x y z
#    x 1.876660 0.000000 0.005230 
#    y 0.000000 1.715420 0.000010 
#    z 0.005230 0.000010 1.866450 
# 
# From -- ./inp_files/217593.got.cif
#   From: 2010.05.17/outbox.cif.g08.bks.cpg/sg12_109_cif.got.tgz:217593.got - 2010.06.03 13:09:07.
