data_PCOD9220105
_publ_section_title
;
Structure prediction by ZEFSAII (Michael W. Deem and Ramdas Pophale) SiO2 
 PCOD9220105
Probable space group: C 2/M
;
_chemical_formula_sum "Si O2"
_cell_formula_units_Z 32
_cell_length_a 11.732319
_cell_length_b 15.164499
_cell_length_c 12.281905
_cell_angle_alpha 90.000000
_cell_angle_beta 144.620765
_cell_angle_gamma 90.000000
_cell_volume 1265.160180
_symmetry_space_group_name_H-M "C 2/M"
_symmetry_group_IT_number 12
_symmetry_cell_setting 'monoclinic'
loop_
_space_group_symop_operation_xyz
x,y,z
-x,y,-z
-x,-y,-z
x,-y,z
1/2+x,1/2+y,z
1/2-x,1/2+y,-z
1/2-x,1/2-y,-z
1/2+x,1/2-y,z
loop_
_atom_site_type_symbol
_atom_site_label
_atom_site_fract_x
_atom_site_fract_y
_atom_site_fract_z
Si Si1 0.737660 0.904842 0.198243
Si Si2 0.232618 0.399484 0.713160
Si Si3 0.280386 0.853643 0.047670
Si Si4 0.320483 0.775367 0.673878
O O1 0.797042 0.823729 0.320143
O O2 0.787927 0.000000 0.283886
O O3 0.500000 0.898948 0.000000
O O4 0.808565 0.898772 0.128628
O O5 0.281610 0.500000 0.719442
O O6 0.261504 0.389153 0.865527
O O7 0.358437 0.321102 0.756386
O O8 0.000000 0.385054 0.500000
O O9 0.518249 0.850908 0.225471
O O10 0.250000 0.750000 0.000000
O O11 0.250000 0.750000 0.500000
#
# Coordination Sequence:
#
# PCOD9220105 Si02
#       4
#     8   8   8   8
#     4   9  19  35  59  87 114 152 201 245 293 358
#     4  11  23  40  64  92 122 165 212 253 306 371
#     4  11  21  38  64  87 123 160 199 250 310 362
#     4  11  22  38  61  90 124 157 202 254 303 361
#
# _framework density 25.293240000000001
#
# number of rings (size 3 to 8) (size 9 to 14) (size 15 to 20)
#    0.000    1.500    5.000    0.750    0.000    2.000 
#    0.000    3.750    0.000    2.250    0.000    0.000 
#    0.000    0.000    0.000    0.000    0.000    0.000 
#
# Total GULP energy -89253.449854 kJ/mol
# GULP energy per Si atom -5578.340616 kJ/mol
# Density = 2.523567 g / cm^3
# Si number density = 25.293240 Si / 1000 Ang^3
#
#
#
# Elastic Constant Matrix: (Units=GPa)
#
#
# Indices 1 2 3 4 5 6 
#
# 1 72.5794 27.9130 39.0024 0.0000 -36.4000 0.0000
# 2 27.9130 176.2395 38.2752 0.0000 -33.2040 0.0000
# 3 39.0024 38.2752 129.3888 0.0000 -42.1855 0.0000
# 4 0.0000 0.0000 0.0000 -34.0597 0.0000 17.6860
# 5 -36.4000 -33.2040 -42.1855 0.0000 60.1815 0.0000
# 6 0.0000 0.0000 0.0000 17.6860 0.0000 15.9148
#
#
#
# Elastic Compliance Matrix: (Units=1/GPa)
#
#
# Indices 1 2 3 4 5 6 
#
# 1 0.020608 -0.000768 -0.002669 0.000000 0.010170 0.000000
# 2 -0.000768 0.006453 -0.000866 0.000000 0.002489 0.000000
# 3 -0.002669 -0.000866 0.010509 0.000000 0.005274 0.000000
# 4 0.000000 0.000000 0.000000 -0.018617 0.000000 0.020689
# 5 0.010170 0.002489 0.005274 0.000000 0.027838 0.000000
# 6 0.000000 0.000000 0.000000 0.020689 0.000000 0.039843
#
#
# Mechanical properties :
#
#
# Convention : Reuss Voigt Hill
#
# Bulk Modulus (GPa) = 34.52633 65.39877 49.96255
# Shear Modulus (GPa) = 47.66707 26.60844 37.13776
#
# Velocity S-wave (km/s) = 4.34588 3.24697 3.83598
# Velocity P-wave (km/s) = 6.23396 6.32214 6.27821
#
# Compressibility (1/GPa) = 0.02896340
#
# Stress axis : x y z
#
# Youngs Moduli (GPa) = 48.52463 154.97470 95.15664
#
# Poissons Ratio (x) = 0.11906 0.25398
# Poissons Ratio (y) = 0.03728 0.08239
# Poissons Ratio (z) = 0.12951 0.13419
#
# Static dielectric constant tensor:
#      x y z
#    x 4.448680 0.000000 1.213060 
#    y 0.000000 1.907350 0.000000 
#    z 1.213060 0.000000 2.559820 
# 
# From -- ./inp_files/45243.got.cif
#   From: 2010.05.17/outbox.cif.g08.bks.cpg/sg12_23_cif.got.tgz:45243.got - 2010.06.03 13:09:07.
