data_PCOD9220212
_publ_section_title
;
Structure prediction by ZEFSAII (Michael W. Deem and Ramdas Pophale) SiO2 
 PCOD9220212
Probable space group: C 2/M
;
_chemical_formula_sum "Si O2"
_cell_formula_units_Z 56
_cell_length_a 15.520423
_cell_length_b 17.545414
_cell_length_c 20.344484
_cell_angle_alpha 90.000000
_cell_angle_beta 150.545619
_cell_angle_gamma 90.000000
_cell_volume 2724.212201
_symmetry_space_group_name_H-M "C 2/M"
_symmetry_group_IT_number 12
_symmetry_cell_setting 'monoclinic'
loop_
_space_group_symop_operation_xyz
x,y,z
-x,y,-z
-x,-y,-z
x,-y,z
1/2+x,1/2+y,z
1/2-x,1/2+y,-z
1/2-x,1/2-y,-z
1/2+x,1/2-y,z
loop_
_atom_site_type_symbol
_atom_site_label
_atom_site_fract_x
_atom_site_fract_y
_atom_site_fract_z
Si Si1 0.043309 0.327280 0.625087
Si Si2 0.744232 0.089665 0.641085
Si Si3 0.386483 0.817334 0.174230
Si Si4 0.128263 0.850733 0.897412
Si Si5 0.719825 0.910880 0.347087
Si Si6 0.686940 0.909874 0.096585
Si Si7 0.439265 0.351096 0.369574
O O1 0.173971 0.368754 0.660668
O O2 0.103812 0.327489 0.740879
O O3 0.027205 0.238046 0.597321
O O4 0.859683 0.369495 0.487681
O O5 0.950687 0.102437 0.774033
O O6 0.703693 0.000000 0.615388
O O7 0.405593 0.731708 0.158187
O O8 0.549258 0.864901 0.254041
O O9 0.201945 0.842915 0.019953
O O10 0.283426 0.890429 0.959294
O O11 0.805999 0.881606 0.336556
O O12 0.877963 0.895227 0.503187
O O13 0.682677 0.000000 0.317193
O O14 0.842176 0.867567 0.237526
O O15 0.700985 0.000000 0.117579
O O16 0.500000 0.883839 0.000000
#
# Coordination Sequence:
#
# PCOD9220212 Si02
#       7
#     8   8   8   8   8   8   8
#     4  11  23  44  69  97 128 176 223 276 329 383
#     4  11  25  45  69  97 134 175 225 281 329 392
#     4  11  25  43  65  98 129 175 221 274 327 392
#     4  11  24  45  66  96 132 174 223 271 327 398
#     4  11  23  38  62  95 134 167 212 274 327 388
#     4  11  23  39  63  95 133 172 211 264 331 394
#     4  11  21  40  64  94 127 173 220 264 326 397
#
# _framework density 20.556401000000001
#
# number of rings (size 3 to 8) (size 9 to 14) (size 15 to 20)
#    0.000    1.000    1.429    7.286    2.000    6.286 
#    0.000    0.714    0.000    0.000    0.000    0.000 
#    0.000    0.000    0.000    0.000    0.000    0.000 
#
# Total GULP energy -156543.938057 kJ/mol
# GULP energy per Si atom -5590.854931 kJ/mol
# Density = 2.050961 g / cm^3
# Si number density = 20.556401 Si / 1000 Ang^3
#
#
#
# Elastic Constant Matrix: (Units=GPa)
#
#
# Indices 1 2 3 4 5 6 
#
# 1 72.5721 20.6736 54.9119 0.0048 -13.2132 -0.0003
# 2 20.6736 107.4437 28.2312 0.0157 2.8994 -0.0023
# 3 54.9119 28.2312 95.6289 0.0161 -23.7979 -0.0045
# 4 0.0048 0.0157 0.0161 12.1894 0.0025 20.9046
# 5 -13.2132 2.8994 -23.7979 0.0025 43.1841 -0.0020
# 6 -0.0003 -0.0023 -0.0045 20.9046 -0.0020 16.2140
#
#
#
# Elastic Compliance Matrix: (Units=1/GPa)
#
#
# Indices 1 2 3 4 5 6 
#
# 1 0.024486 -0.001102 -0.013736 -0.000013 -0.000003 0.000013
# 2 -0.001102 0.010416 -0.003129 0.000007 -0.002761 -0.000009
# 3 -0.013736 -0.003129 0.021179 0.000025 0.007679 -0.000026
# 4 -0.000013 0.000007 0.000025 -0.067738 0.000017 0.087334
# 5 -0.000003 -0.002761 0.007679 0.000017 0.027573 -0.000017
# 6 0.000013 -0.000009 -0.000026 0.087334 -0.000017 -0.050924
#
#
# Mechanical properties :
#
#
# Convention : Reuss Voigt Hill
#
# Bulk Modulus (GPa) = 49.63570 53.69755 51.66663
# Shear Modulus (GPa) = 654.32506 25.77271 340.04889
#
# Velocity S-wave (km/s) = 17.86052 3.54468 12.87562
# Velocity P-wave (km/s) = 21.20211 6.55224 15.69174
#
# Compressibility (1/GPa) = 0.02014679
#
# Stress axis : x y z
#
# Youngs Moduli (GPa) = 40.83974 96.00636 47.21639
#
# Poissons Ratio (x) = 0.10582 0.64855
# Poissons Ratio (y) = 0.04501 0.14775
# Poissons Ratio (z) = 0.56096 0.30042
#
# Static dielectric constant tensor:
#      x y z
#    x 1.753850 0.000000 -0.037440 
#    y 0.000000 1.702910 0.000000 
#    z -0.037440 0.000000 1.740550 
# 
# From -- ./inp_files/311765.got.cif
#   From: 2010.05.17/outbox.cif.g08.bks.cpg/sg12_156_cif.got.tgz:311765.got - 2010.06.03 13:09:07.
