data_PCOD9220020
_publ_section_title
;
Structure prediction by ZEFSAII (Michael W. Deem and Ramdas Pophale) SiO2 
 PCOD9220020
Probable space group: C 2/M
;
_chemical_formula_sum "Si O2"
_cell_formula_units_Z 48
_cell_length_a 18.883821
_cell_length_b 18.670654
_cell_length_c 9.785245
_cell_angle_alpha 90.000000
_cell_angle_beta 44.207907
_cell_angle_gamma 90.000000
_cell_volume 2405.572070
_symmetry_space_group_name_H-M "C 2/M"
_symmetry_group_IT_number 12
_symmetry_cell_setting 'monoclinic'
loop_
_space_group_symop_operation_xyz
x,y,z
-x,y,-z
-x,-y,-z
x,-y,z
1/2+x,1/2+y,z
1/2-x,1/2+y,-z
1/2-x,1/2-y,-z
1/2+x,1/2-y,z
loop_
_atom_site_type_symbol
_atom_site_label
_atom_site_fract_x
_atom_site_fract_y
_atom_site_fract_z
Si Si1 0.545029 0.077593 0.786032
Si Si2 0.069943 0.801003 0.273907
Si Si3 0.419729 0.714074 0.227096
Si Si4 0.776276 0.649151 0.359313
Si Si5 0.230086 0.083874 0.120966
Si Si6 0.422628 0.142725 0.729318
O O1 0.663733 0.088402 0.641191
O O2 0.492652 0.136248 0.766269
O O3 0.521029 0.000000 0.759359
O O4 0.500000 0.080388 0.000000
O O5 0.146126 0.867253 0.162285
O O6 0.120510 0.723103 0.230159
O O7 0.000000 0.816400 0.500000
O O8 0.994953 0.786514 0.252733
O O9 0.324770 0.668745 0.417981
O O10 0.358284 0.784556 0.254072
O O11 0.500000 0.690165 0.000000
O O12 0.753614 0.622036 0.236217
O O13 0.204204 0.000000 0.176896
O O14 0.329996 0.090730 0.889000
O O15 0.500000 0.126498 0.500000
#
# Coordination Sequence:
#
# PCOD9220020 Si02
#       6
#     8   8   8   8   8   8
#     4  11  21  37  63  94 129 170 219 276 337 403
#     4  11  23  44  66  99 133 179 228 277 334 400
#     4  11  23  41  68  98 135 170 232 288 331 386
#     4  11  22  40  67  97 129 175 230 277 327 401
#     4  12  25  43  69 100 137 184 230 272 337 417
#     4  11  24  40  65  97 136 168 221 287 341 393
#
# _framework density 19.953673999999999
#
# number of rings (size 3 to 8) (size 9 to 14) (size 15 to 20)
#    0.000    0.833    5.000    3.000    0.000    3.000 
#    0.000    0.000    0.000    3.500    0.000    0.000 
#    0.000    0.000    0.000    0.000    0.000    0.000 
#
# Total GULP energy -133722.382970 kJ/mol
# GULP energy per Si atom -5571.765957 kJ/mol
# Density = 1.990826 g / cm^3
# Si number density = 19.953674 Si / 1000 Ang^3
#
#
#
# Elastic Constant Matrix: (Units=GPa)
#
#
# Indices 1 2 3 4 5 6 
#
# 1 92.0376 57.5528 32.1949 0.0000 -10.4157 0.0000
# 2 57.5528 120.5613 58.0646 0.0000 -10.6217 0.0000
# 3 32.1949 58.0646 120.0016 0.0000 -4.4805 0.0000
# 4 0.0000 0.0000 0.0000 -72.4796 0.0000 -19.4755
# 5 -10.4157 -10.6217 -4.4805 0.0000 21.7274 0.0000
# 6 0.0000 0.0000 0.0000 -19.4755 0.0000 32.3202
#
#
#
# Elastic Compliance Matrix: (Units=1/GPa)
#
#
# Indices 1 2 3 4 5 6 
#
# 1 0.015884 -0.006835 -0.000801 0.000000 0.004108 0.000000
# 2 -0.006835 0.014158 -0.004919 0.000000 0.002630 0.000000
# 3 -0.000801 -0.004919 0.010908 0.000000 -0.000539 0.000000
# 4 0.000000 0.000000 0.000000 -0.011874 0.000000 -0.007155
# 5 0.004108 0.002630 -0.000539 0.000000 0.049169 0.000000
# 6 0.000000 0.000000 0.000000 -0.007155 0.000000 0.026629
#
#
# Mechanical properties :
#
#
# Convention : Reuss Voigt Hill
#
# Bulk Modulus (GPa) = 63.12711 69.80278 66.46494
# Shear Modulus (GPa) = 36.96500 8.63283 22.79891
#
# Velocity S-wave (km/s) = 4.30878 2.08227 3.38389
# Velocity P-wave (km/s) = 7.51397 6.39058 6.97492
#
# Compressibility (1/GPa) = 0.01584106
#
# Stress axis : x y z
#
# Youngs Moduli (GPa) = 62.95529 70.63113 91.67653
#
# Poissons Ratio (x) = 0.48277 0.07342
# Poissons Ratio (y) = 0.43030 0.45092
# Poissons Ratio (z) = 0.05042 0.34741
#
# Static dielectric constant tensor:
#      x y z
#    x 1.708190 0.000000 -0.065830 
#    y 0.000000 1.766580 0.000000 
#    z -0.065830 0.000000 1.599470 
# 
# From -- ./inp_files/77257.got.cif
#   From: 2010.05.17/outbox.cif.g08.bks.cpg/sg12_39_cif.got.tgz:77257.got - 2010.06.03 13:09:07.
