data_PCOD9220581
_publ_section_title
;
Structure prediction by ZEFSAII (Michael W. Deem and Ramdas Pophale) SiO2 
 PCOD9220581
Probable space group: C 2/M
;
_chemical_formula_sum "Si O2"
_cell_formula_units_Z 58
_cell_length_a 15.788661
_cell_length_b 9.662876
_cell_length_c 22.700471
_cell_angle_alpha 90.000000
_cell_angle_beta 43.600771
_cell_angle_gamma 90.000000
_cell_volume 2388.373657
_symmetry_space_group_name_H-M "C 2/M"
_symmetry_group_IT_number 12
_symmetry_cell_setting 'monoclinic'
loop_
_space_group_symop_operation_xyz
x,y,z
-x,y,-z
-x,-y,-z
x,-y,z
1/2+x,1/2+y,z
1/2-x,1/2+y,-z
1/2-x,1/2-y,-z
1/2+x,1/2-y,z
loop_
_atom_site_type_symbol
_atom_site_label
_atom_site_fract_x
_atom_site_fract_y
_atom_site_fract_z
Si Si1 0.146073 0.341340 0.910319
Si Si2 0.373424 0.664336 0.453135
Si Si3 0.449660 0.153464 0.317644
Si Si4 0.681223 0.659106 0.390829
Si Si5 0.732384 0.339397 0.754102
Si Si6 0.000000 0.000000 0.000000
Si Si7 0.964551 0.143753 0.895341
Si Si8 0.831330 0.658274 0.885803
O O1 0.188341 0.500000 0.886237
O O2 0.200100 0.266000 0.823612
O O3 0.000000 0.354061 0.000000
O O4 0.003193 0.113927 0.052344
O O5 0.357674 0.500000 0.452976
O O6 0.250000 0.750000 0.500000
O O7 0.463752 0.729622 0.359846
O O8 0.397369 0.687046 0.510339
O O9 0.321447 0.162111 0.346464
O O10 0.562278 0.160389 0.216424
O O11 0.448441 0.000000 0.346424
O O12 0.657913 0.500000 0.382699
O O13 0.681528 0.769130 0.337950
O O14 0.765272 0.500000 0.755272
O O15 0.594971 0.351682 0.796806
O O16 0.892306 0.278537 0.913024
O O17 0.901654 0.000000 0.906624
O O18 0.778518 0.253621 0.079857
O O19 0.788434 0.500000 0.911860
#
# Coordination Sequence:
#
# PCOD9220581 Si02
#       8
#     8   8   8   8   8   2   8   8
#     4  11  27  48  70  95 132 179 233 295 372 441
#     4   9  17  28  47  82 130 181 224 276 341 410
#     4   9  18  32  55  90 134 174 219 281 349 416
#     4   9  17  32  53  85 132 177 225 276 338 417
#     4  11  22  36  65  95 125 172 224 284 348 418
#     4   8  20  40  66  96 138 180 218 280 360 412
#     4   9  20  38  67  97 132 175 220 279 348 421
#     4  11  22  41  70 105 138 177 235 299 360 426
#
# _framework density 24.284306000000001
#
# number of rings (size 3 to 8) (size 9 to 14) (size 15 to 20)
#    0.414    1.793    1.379    2.483    0.966    5.517 
#    0.000    1.034    0.000    0.828    0.000    5.793 
#    0.000    0.000    0.000    0.000    0.000    0.000 
#
# Total GULP energy -161558.938962 kJ/mol
# GULP energy per Si atom -5570.997895 kJ/mol
# Density = 2.422903 g / cm^3
# Si number density = 24.284306 Si / 1000 Ang^3
#
#
#
# Elastic Constant Matrix: (Units=GPa)
#
#
# Indices 1 2 3 4 5 6 
#
# 1 73.0877 54.9689 16.4493 0.0000 10.0886 0.0000
# 2 54.9689 226.5725 74.7570 0.0000 40.2281 0.0000
# 3 16.4493 74.7570 131.6410 0.0000 29.7605 0.0000
# 4 0.0000 0.0000 0.0000 31.6038 0.0000 16.2990
# 5 10.0886 40.2281 29.7605 0.0000 31.0948 0.0000
# 6 0.0000 0.0000 0.0000 16.2990 0.0000 32.7194
#
#
#
# Elastic Compliance Matrix: (Units=1/GPa)
#
#
# Indices 1 2 3 4 5 6 
#
# 1 0.016748 -0.004092 0.000335 0.000000 -0.000461 0.000000
# 2 -0.004092 0.007181 -0.002254 0.000000 -0.005805 0.000000
# 3 0.000335 -0.002254 0.010464 0.000000 -0.007207 0.000000
# 4 0.000000 0.000000 0.000000 0.042581 0.000000 -0.021212
# 5 -0.000461 -0.005805 -0.007207 0.000000 0.046717 0.000000
# 6 0.000000 0.000000 0.000000 -0.021212 0.000000 0.041129
#
#
# Mechanical properties :
#
#
# Convention : Reuss Voigt Hill
#
# Bulk Modulus (GPa) = 44.70131 80.40574 62.55353
# Shear Modulus (GPa) = 27.12974 38.09200 32.61087
#
# Velocity S-wave (km/s) = 3.34604 3.96483 3.66851
# Velocity P-wave (km/s) = 5.77715 7.35812 6.61503
#
# Compressibility (1/GPa) = 0.02237071
#
# Stress axis : x y z
#
# Youngs Moduli (GPa) = 59.70888 139.26023 95.56485
#
# Poissons Ratio (x) = 0.56986 -0.03203
# Poissons Ratio (y) = 0.24433 0.21543
# Poissons Ratio (z) = -0.02001 0.31392
#
# Static dielectric constant tensor:
#      x y z
#    x 2.027860 0.000000 -0.050710 
#    y 0.000000 1.933200 0.000000 
#    z -0.050710 0.000000 2.003780 
# 
# From -- ./inp_files/383561.got.cif
#   From: 2010.05.17/outbox.cif.g08.bks.cpg/sg12_192_cif.got.tgz:383561.got - 2010.06.03 13:09:07.
