data_PCOD9220539
_publ_section_title
;
Structure prediction by ZEFSAII (Michael W. Deem and Ramdas Pophale) SiO2 
 PCOD9220539
Probable space group: C 2/M
;
_chemical_formula_sum "Si O2"
_cell_formula_units_Z 40
_cell_length_a 5.042480
_cell_length_b 31.774138
_cell_length_c 12.432437
_cell_angle_alpha 90.000000
_cell_angle_beta 105.558059
_cell_angle_gamma 90.000000
_cell_volume 1918.944704
_symmetry_space_group_name_H-M "C 2/M"
_symmetry_group_IT_number 12
_symmetry_cell_setting 'monoclinic'
loop_
_space_group_symop_operation_xyz
x,y,z
-x,y,-z
-x,-y,-z
x,-y,z
1/2+x,1/2+y,z
1/2-x,1/2+y,-z
1/2-x,1/2-y,-z
1/2+x,1/2-y,z
loop_
_atom_site_type_symbol
_atom_site_label
_atom_site_fract_x
_atom_site_fract_y
_atom_site_fract_z
Si Si1 0.984319 0.899942 0.808076
Si Si2 0.310206 0.311402 0.075555
Si Si3 0.810623 0.139900 0.572688
Si Si4 0.106232 0.224708 0.680688
Si Si5 0.018975 0.451184 0.872861
O O1 0.077712 0.857727 0.880302
O O2 0.255444 0.925421 0.803910
O O3 0.820771 0.886050 0.684135
O O4 0.792435 0.928535 0.861401
O O5 0.331674 0.284958 0.187347
O O6 0.500000 0.294233 0.000000
O O7 0.000000 0.314624 0.000000
O O8 0.500000 0.145504 0.500000
O O9 0.960662 0.183963 0.616621
O O10 0.000000 0.120009 0.500000
O O11 0.888571 0.262782 0.654068
O O12 0.015509 0.500000 0.840019
O O13 0.000000 0.449396 0.000000
#
# Coordination Sequence:
#
# PCOD9220539 Si02
#       5
#     8   8   8   8   8
#     4  11  22  39  61  87 121 155 199 245 283 346
#     4  11  22  36  57  83 116 159 195 230 285 352
#     4  11  24  42  64  86 111 154 204 251 301 342
#     4  11  24  39  57  86 117 148 194 246 297 352
#     4  11  22  37  62  95 127 157 187 228 288 350
#
# _framework density 20.844788999999999
#
# number of rings (size 3 to 8) (size 9 to 14) (size 15 to 20)
#    0.000    1.000    0.000    7.800    0.000   12.800 
#    0.000    0.000    0.000   12.000    0.000    0.000 
#    0.000    0.000    0.000    0.000    0.000    0.000 
#
# Total GULP energy -112045.018351 kJ/mol
# GULP energy per Si atom -5602.250918 kJ/mol
# Density = 2.079735 g / cm^3
# Si number density = 20.844789 Si / 1000 Ang^3
#
#
#
# Elastic Constant Matrix: (Units=GPa)
#
#
# Indices 1 2 3 4 5 6 
#
# 1 90.5089 -6.7801 21.2455 0.0000 10.3826 0.0000
# 2 -6.7801 57.8699 5.2904 0.0000 8.5623 0.0000
# 3 21.2455 5.2904 101.7301 0.0000 17.9855 0.0000
# 4 0.0000 0.0000 0.0000 12.2053 0.0000 1.4905
# 5 10.3826 8.5623 17.9855 0.0000 41.3057 0.0000
# 6 0.0000 0.0000 0.0000 1.4905 0.0000 39.8773
#
#
#
# Elastic Compliance Matrix: (Units=1/GPa)
#
#
# Indices 1 2 3 4 5 6 
#
# 1 0.011989 0.001970 -0.002168 0.000000 -0.002478 0.000000
# 2 0.001970 0.018159 -0.000653 0.000000 -0.003975 0.000000
# 3 -0.002168 -0.000653 0.011047 0.000000 -0.004130 0.000000
# 4 0.000000 0.000000 0.000000 0.082307 0.000000 -0.003076
# 5 -0.002478 -0.003975 -0.004130 0.000000 0.027455 0.000000
# 6 0.000000 0.000000 0.000000 -0.003076 0.000000 0.025192
#
#
# Mechanical properties :
#
#
# Convention : Reuss Voigt Hill
#
# Bulk Modulus (GPa) = 25.32183 32.18005 28.75094
# Shear Modulus (GPa) = 26.17582 34.03454 30.10518
#
# Velocity S-wave (km/s) = 3.54750 4.04513 3.80446
# Velocity P-wave (km/s) = 5.38088 6.10646 5.75511
#
# Compressibility (1/GPa) = 0.03949161
#
# Stress axis : x y z
#
# Youngs Moduli (GPa) = 83.40724 55.07010 90.52379
#
# Poissons Ratio (x) = -0.10846 0.19628
# Poissons Ratio (y) = -0.16427 0.05910
# Poissons Ratio (z) = 0.18085 0.03595
#
# Static dielectric constant tensor:
#      x y z
#    x 1.718700 0.000000 -0.000610 
#    y 0.000000 1.730860 0.000000 
#    z -0.000610 0.000000 1.758470 
# 
# From -- ./inp_files/116173.got.cif
#   From: 2010.05.17/outbox.cif.g08.bks.cpg/sg12_59_cif.got.tgz:116173.got - 2010.06.03 13:09:07.
