data_PCOD9220254
_publ_section_title
;
Structure prediction by ZEFSAII (Michael W. Deem and Ramdas Pophale) SiO2 
 PCOD9220254
Probable space group: C 2/M
;
_chemical_formula_sum "Si O2"
_cell_formula_units_Z 32
_cell_length_a 12.656815
_cell_length_b 16.929919
_cell_length_c 14.995241
_cell_angle_alpha 90.000000
_cell_angle_beta 152.002000
_cell_angle_gamma 90.000000
_cell_volume 1508.389640
_symmetry_space_group_name_H-M "C 2/M"
_symmetry_group_IT_number 12
_symmetry_cell_setting 'monoclinic'
loop_
_space_group_symop_operation_xyz
x,y,z
-x,y,-z
-x,-y,-z
x,-y,z
1/2+x,1/2+y,z
1/2-x,1/2+y,-z
1/2-x,1/2-y,-z
1/2+x,1/2-y,z
loop_
_atom_site_type_symbol
_atom_site_label
_atom_site_fract_x
_atom_site_fract_y
_atom_site_fract_z
Si Si1 0.259260 0.500000 0.274884
Si Si2 0.000000 0.283034 0.500000
Si Si3 0.126733 0.000000 0.002211
Si Si4 0.755262 0.829369 0.180733
Si Si5 0.593526 0.375038 0.293282
Si Si6 0.852618 0.500000 0.609031
O O1 0.500000 0.500000 0.500000
O O2 0.242003 0.421008 0.203771
O O3 0.117033 0.500000 0.260312
O O4 0.103035 0.224881 0.649044
O O5 0.202092 0.332364 0.605377
O O6 0.041554 0.927444 0.878586
O O7 0.387667 0.000000 0.224269
O O8 0.000000 0.000000 0.000000
O O9 0.894458 0.826253 0.192768
O O10 0.500000 0.800428 0.000000
O O11 0.715910 0.426439 0.463653
#
# Coordination Sequence:
#
# PCOD9220254 Si02
#       6
#     4   4   4   8   8   4
#     4  12  19  41  69  93 121 155 206 262 315 362
#     4  12  26  42  62  90 132 174 208 250 308 374
#     4  11  23  40  67  97 123 163 210 259 313 367
#     4  12  25  42  66  95 126 164 210 260 313 370
#     4  11  24  43  64  94 128 165 211 257 309 373
#     4  11  21  40  69  95 126 163 206 262 315 364
#
# _framework density 21.214676999999998
#
# number of rings (size 3 to 8) (size 9 to 14) (size 15 to 20)
#    0.000    0.500    3.750    4.875    0.000    6.000 
#    0.000    0.000    0.000    0.000    0.000    0.000 
#    0.000    0.000    0.000    0.000    0.000    0.000 
#
# Total GULP energy -89328.860770 kJ/mol
# GULP energy per Si atom -5583.053798 kJ/mol
# Density = 2.116639 g / cm^3
# Si number density = 21.214677 Si / 1000 Ang^3
#
#
#
# Elastic Constant Matrix: (Units=GPa)
#
#
# Indices 1 2 3 4 5 6 
#
# 1 163.3687 14.8223 28.5984 -0.0017 26.5388 0.0053
# 2 14.8223 45.4266 -0.0004 -0.0206 -2.6767 0.0023
# 3 28.5984 -0.0004 118.8336 0.0054 20.9305 0.0274
# 4 -0.0017 -0.0206 0.0054 -56.9966 0.0062 -16.2130
# 5 26.5388 -2.6767 20.9305 0.0062 45.2981 0.0110
# 6 0.0053 0.0023 0.0274 -16.2130 0.0110 11.3096
#
#
#
# Elastic Compliance Matrix: (Units=1/GPa)
#
#
# Indices 1 2 3 4 5 6 
#
# 1 0.007165 -0.002566 -0.001043 -0.000001 -0.003867 0.000003
# 2 -0.002566 0.023016 0.000123 -0.000004 0.002806 -0.000013
# 3 -0.001043 0.000123 0.009315 0.000004 -0.003686 -0.000013
# 4 -0.000001 -0.000004 0.000004 -0.012463 0.000004 -0.017866
# 5 -0.003867 0.002806 -0.003686 0.000004 0.026211 -0.000009
# 6 0.000003 -0.000013 -0.000013 -0.017866 -0.000009 0.062808
#
#
# Mechanical properties :
#
#
# Convention : Reuss Voigt Hill
#
# Bulk Modulus (GPa) = 30.74550 46.05217 38.39883
# Shear Modulus (GPa) = 37.35112 18.86946 28.11029
#
# Velocity S-wave (km/s) = 4.20053 2.98561 3.64406
# Velocity P-wave (km/s) = 6.16847 5.79999 5.98707
#
# Compressibility (1/GPa) = 0.03252509
#
# Stress axis : x y z
#
# Youngs Moduli (GPa) = 139.57259 43.44795 107.34952
#
# Poissons Ratio (x) = 0.11147 0.11198
# Poissons Ratio (y) = 0.35810 -0.01323
# Poissons Ratio (z) = 0.14559 -0.00536
#
# Static dielectric constant tensor:
#      x y z
#    x 1.796460 0.000020 0.002290 
#    y 0.000020 1.789500 -0.000010 
#    z 0.002290 -0.000010 1.738390 
# 
# From -- ./inp_files/205893.got.cif
#   From: 2010.05.17/outbox.cif.g08.bks.cpg/sg12_103_cif.got.tgz:205893.got - 2010.06.03 13:09:07.
