data_PCOD9220623
_publ_section_title
;
Structure prediction by ZEFSAII (Michael W. Deem and Ramdas Pophale) SiO2 
 PCOD9220623
Probable space group: C 2/M
;
_chemical_formula_sum "Si O2"
_cell_formula_units_Z 64
_cell_length_a 19.330408
_cell_length_b 8.866143
_cell_length_c 31.743974
_cell_angle_alpha 90.000000
_cell_angle_beta 139.264030
_cell_angle_gamma 90.000000
_cell_volume 3550.315639
_symmetry_space_group_name_H-M "C 2/M"
_symmetry_group_IT_number 12
_symmetry_cell_setting 'monoclinic'
loop_
_space_group_symop_operation_xyz
x,y,z
-x,y,-z
-x,-y,-z
x,-y,z
1/2+x,1/2+y,z
1/2-x,1/2+y,-z
1/2-x,1/2-y,-z
1/2+x,1/2-y,z
loop_
_atom_site_type_symbol
_atom_site_label
_atom_site_fract_x
_atom_site_fract_y
_atom_site_fract_z
Si Si1 0.635295 0.820669 0.442915
Si Si2 0.825810 0.680389 0.926122
Si Si3 0.480658 0.819425 0.921984
Si Si4 0.936147 0.179593 0.811804
Si Si5 0.203701 0.179897 0.699952
Si Si6 0.054049 0.682159 0.701938
Si Si7 0.903295 0.680149 0.181238
Si Si8 0.533193 0.180728 0.562332
O O1 0.750000 0.750000 0.500000
O O2 0.561078 0.772168 0.369510
O O3 0.564126 0.787951 0.451094
O O4 0.648085 0.000000 0.445754
O O5 0.806676 0.500000 0.917095
O O6 0.883369 0.718929 0.908458
O O7 0.716905 0.767077 0.881891
O O8 0.912110 0.711226 0.002341
O O9 0.474097 0.732093 0.875495
O O10 0.475955 0.000000 0.912139
O O11 0.820459 0.251348 0.751697
O O12 0.017413 0.240786 0.814482
O O13 0.929450 0.000000 0.806725
O O14 0.142221 0.242673 0.712797
O O15 0.133924 0.234312 0.627991
O O16 0.208702 0.000000 0.704136
O O17 0.063301 0.500000 0.701309
O O18 0.068692 0.719797 0.757442
O O19 0.911927 0.500000 0.180610
O O20 0.500000 0.222899 0.500000
O O21 0.553554 0.000000 0.572981
#
# Coordination Sequence:
#
# PCOD9220623 Si02
#       8
#     8   8   8   8   8   8   8   8
#     4   9  18  33  53  78 108 139 175 220 269 321
#     4   9  19  37  61  87 114 145 180 224 277 330
#     4   9  19  38  62  86 113 145 184 226 270 327
#     4  12  25  39  56  80 113 150 187 229 279 331
#     4  11  22  37  59  84 111 145 187 232 276 329
#     4   9  20  39  59  80 109 146 186 229 277 329
#     4  11  23  38  57  82 112 146 186 232 279 329
#     4   9  19  37  58  80 109 146 186 228 275 325
#
# _framework density 18.026565000000002
#
# number of rings (size 3 to 8) (size 9 to 14) (size 15 to 20)
#    0.000    2.125    0.000    4.875    0.000    7.750 
#    0.000    3.750    0.000    0.000    0.000    0.000 
#    0.000    0.000    0.000    0.000    0.000    0.000 
#
# Total GULP energy -178716.734449 kJ/mol
# GULP energy per Si atom -5584.897952 kJ/mol
# Density = 1.798554 g / cm^3
# Si number density = 18.026565 Si / 1000 Ang^3
#
#
#
# Elastic Constant Matrix: (Units=GPa)
#
#
# Indices 1 2 3 4 5 6 
#
# 1 121.8019 72.1812 100.8939 0.0000 3.1744 0.0000
# 2 72.1812 74.9651 70.5931 0.0000 -2.3038 0.0001
# 3 100.8939 70.5931 124.8459 0.0000 3.9332 0.0000
# 4 0.0000 0.0000 0.0000 31.9359 0.0000 10.4071
# 5 3.1744 -2.3038 3.9332 0.0000 33.9766 0.0000
# 6 0.0000 0.0001 0.0000 10.4071 0.0000 14.4252
#
#
#
# Elastic Compliance Matrix: (Units=1/GPa)
#
#
# Indices 1 2 3 4 5 6 
#
# 1 0.029746 -0.013068 -0.016595 0.000000 -0.001744 0.000000
# 2 -0.013068 0.034774 -0.009249 0.000000 0.004649 0.000000
# 3 -0.016595 -0.009249 0.026719 0.000000 -0.002170 0.000000
# 4 0.000000 0.000000 0.000000 0.040937 0.000000 -0.029534
# 5 -0.001744 0.004649 -0.002170 0.000000 0.030161 0.000000
# 6 0.000000 0.000000 0.000000 -0.029534 0.000000 0.090631
#
#
# Mechanical properties :
#
#
# Convention : Reuss Voigt Hill
#
# Bulk Modulus (GPa) = 74.53627 89.88326 82.20977
# Shear Modulus (GPa) = 14.91361 21.26386 18.08873
#
# Velocity S-wave (km/s) = 2.87942 3.43823 3.17116
# Velocity P-wave (km/s) = 7.24518 8.10751 7.68844
#
# Compressibility (1/GPa) = 0.01341629
#
# Stress axis : x y z
#
# Youngs Moduli (GPa) = 33.61761 28.75715 37.42607
#
# Poissons Ratio (x) = 0.37579 0.62110
# Poissons Ratio (y) = 0.43930 0.34614
# Poissons Ratio (z) = 0.55790 0.26596
#
# Static dielectric constant tensor:
#      x y z
#    x 1.587380 0.000000 -0.009410 
#    y 0.000000 1.604370 0.000000 
#    z -0.009410 0.000000 1.612110 
# 
# From -- ./inp_files/378363.got.cif
#   From: 2010.05.17/outbox.cif.g08.bks.cpg/sg12_190_cif.got.tgz:378363.got - 2010.06.03 13:09:07.
