data_PCOD9220936
_publ_section_title
;
Structure prediction by ZEFSAII (Michael W. Deem and Ramdas Pophale) SiO2 
 PCOD9220936
Probable space group: C 2/M
;
_chemical_formula_sum "Si O2"
_cell_formula_units_Z 48
_cell_length_a 8.969943
_cell_length_b 23.615480
_cell_length_c 11.926148
_cell_angle_alpha 90.000000
_cell_angle_beta 107.898714
_cell_angle_gamma 90.000000
_cell_volume 2404.039963
_symmetry_space_group_name_H-M "C 2/M"
_symmetry_group_IT_number 12
_symmetry_cell_setting 'monoclinic'
loop_
_space_group_symop_operation_xyz
x,y,z
-x,y,-z
-x,-y,-z
x,-y,z
1/2+x,1/2+y,z
1/2-x,1/2+y,-z
1/2-x,1/2-y,-z
1/2+x,1/2-y,z
loop_
_atom_site_type_symbol
_atom_site_label
_atom_site_fract_x
_atom_site_fract_y
_atom_site_fract_z
Si Si1 0.452454 0.606574 0.615785
Si Si2 0.752175 0.000000 0.954267
Si Si3 0.224771 0.213506 0.170406
Si Si4 0.985488 0.000000 0.794835
Si Si5 0.113706 0.174913 0.834961
Si Si6 0.183889 0.697608 0.557817
Si Si7 0.652974 0.879781 0.964706
O O1 0.500000 0.590501 0.500000
O O2 0.458331 0.554397 0.705884
O O3 0.568242 0.652902 0.701110
O O4 0.288293 0.640759 0.568164
O O5 0.648064 0.056091 0.923267
O O6 0.863411 0.000000 0.870371
O O7 0.851597 0.000000 0.095086
O O8 0.260575 0.274829 0.129626
O O9 0.292921 0.216181 0.309712
O O10 0.316626 0.165084 0.125562
O O11 0.044069 0.196693 0.142312
O O12 0.192001 0.125146 0.922893
O O13 0.250000 0.750000 0.500000
O O14 0.000000 0.687862 0.500000
O O15 0.500000 0.866251 0.000000
#
# Coordination Sequence:
#
# PCOD9220936 Si02
#       7
#     8   4   8   4   8   8   8
#     4  11  23  41  68  97 130 169 216 262 321 382
#     4  11  23  44  70  88 125 165 224 265 326 380
#     4  11  23  38  63  93 131 171 213 261 321 380
#     4  11  23  44  71  94 121 169 219 272 315 387
#     4  11  22  40  61  94 130 174 210 261 321 377
#     4  11  22  40  64  95 131 172 215 259 317 381
#     4  12  25  41  63  94 128 166 215 270 322 385
#
# _framework density 19.966390000000001
#
# number of rings (size 3 to 8) (size 9 to 14) (size 15 to 20)
#    0.000    0.833    1.667    8.000    2.333    1.333 
#    0.000    0.417    0.000    0.000    0.000    0.000 
#    0.000    0.000    0.000    0.000    0.000    0.000 
#
# Total GULP energy -134024.654614 kJ/mol
# GULP energy per Si atom -5584.360609 kJ/mol
# Density = 1.992095 g / cm^3
# Si number density = 19.966390 Si / 1000 Ang^3
#
#
#
# Elastic Constant Matrix: (Units=GPa)
#
#
# Indices 1 2 3 4 5 6 
#
# 1 64.3365 47.6759 37.7589 0.0000 -4.5025 0.0000
# 2 47.6759 133.7625 45.8681 0.0000 -8.8224 0.0000
# 3 37.7589 45.8681 123.2482 0.0000 -18.4196 0.0000
# 4 0.0000 0.0000 0.0000 26.3214 0.0000 -6.2039
# 5 -4.5025 -8.8224 -18.4196 0.0000 33.1229 0.0000
# 6 0.0000 0.0000 0.0000 -6.2039 0.0000 23.5804
#
#
#
# Elastic Compliance Matrix: (Units=1/GPa)
#
#
# Indices 1 2 3 4 5 6 
#
# 1 0.023264 -0.006725 -0.004820 0.000000 -0.001309 0.000000
# 2 -0.006725 0.010523 -0.001716 0.000000 0.000934 0.000000
# 3 -0.004820 -0.001716 0.010975 0.000000 0.004991 0.000000
# 4 0.000000 0.000000 0.000000 0.040504 0.000000 0.010656
# 5 -0.001309 0.000934 0.004991 0.000000 0.033037 0.000000
# 6 0.000000 0.000000 0.000000 0.010656 0.000000 0.045212
#
#
# Mechanical properties :
#
#
# Convention : Reuss Voigt Hill
#
# Bulk Modulus (GPa) = 54.82772 64.88366 59.85569
# Shear Modulus (GPa) = 25.49485 29.27456 27.38470
#
# Velocity S-wave (km/s) = 3.57723 3.83324 3.70745
# Velocity P-wave (km/s) = 6.67696 7.22209 6.95487
#
# Compressibility (1/GPa) = 0.01823895
#
# Stress axis : x y z
#
# Youngs Moduli (GPa) = 42.98415 95.02847 91.11589
#
# Poissons Ratio (x) = 0.63911 0.43919
# Poissons Ratio (y) = 0.28909 0.15638
# Poissons Ratio (z) = 0.20719 0.16309
#
# Static dielectric constant tensor:
#      x y z
#    x 1.677540 0.000000 0.002680 
#    y 0.000000 1.733670 0.000000 
#    z 0.002680 0.000000 1.726310 
# 
# From -- ./inp_files/122461.got.cif
#   From: 2010.05.17/outbox.cif.g08.bks.cpg/sg12_62_cif.got.tgz:122461.got - 2010.06.03 13:09:07.
