data_PCOD9220021
_publ_section_title
;
Structure prediction by ZEFSAII (Michael W. Deem and Ramdas Pophale) SiO2 
 PCOD9220021
Probable space group: C 2/M
;
_chemical_formula_sum "Si O2"
_cell_formula_units_Z 48
_cell_length_a 15.049470
_cell_length_b 31.686533
_cell_length_c 5.158293
_cell_angle_alpha 90.000000
_cell_angle_beta 122.018311
_cell_angle_gamma 90.000000
_cell_volume 2085.622291
_symmetry_space_group_name_H-M "C 2/M"
_symmetry_group_IT_number 12
_symmetry_cell_setting 'monoclinic'
loop_
_space_group_symop_operation_xyz
x,y,z
-x,y,-z
-x,-y,-z
x,-y,z
1/2+x,1/2+y,z
1/2-x,1/2+y,-z
1/2-x,1/2-y,-z
1/2+x,1/2-y,z
loop_
_atom_site_type_symbol
_atom_site_label
_atom_site_fract_x
_atom_site_fract_y
_atom_site_fract_z
Si Si1 0.279672 0.321994 0.143105
Si Si2 0.700027 0.548963 0.429739
Si Si3 0.384007 0.836817 0.717338
Si Si4 0.071573 0.422817 0.370471
Si Si5 0.615901 0.405612 0.802291
Si Si6 0.617286 0.762214 0.580439
O O1 0.211471 0.347281 0.245953
O O2 0.344815 0.357392 0.095987
O O3 0.355311 0.286499 0.380058
O O4 0.198173 0.292685 0.859024
O O5 0.671823 0.500000 0.407452
O O6 0.820762 0.553255 0.521646
O O7 0.683263 0.570522 0.683984
O O8 0.630486 0.570990 0.098120
O O9 0.389565 0.874016 0.512355
O O10 0.372686 0.786192 0.673467
O O11 0.500000 0.840300 0.000000
O O12 0.000000 0.436755 0.500000
O O13 0.000000 0.424890 0.000000
O O14 0.500000 0.404890 0.500000
O O15 0.500000 0.768935 0.500000
#
# Coordination Sequence:
#
# PCOD9220021 Si02
#       6
#     8   8   8   8   8   8
#     4  11  24  41  64  95 133 184 224 288 342 404
#     4  12  27  48  76 106 141 182 232 292 355 423
#     4  11  21  37  63  94 131 182 228 276 337 411
#     4  11  24  41  72 108 146 187 226 279 350 423
#     4  12  27  50  73 103 139 184 239 294 355 416
#     4  11  22  39  62  94 135 176 235 276 340 402
#
# _framework density 23.014711999999999
#
# number of rings (size 3 to 8) (size 9 to 14) (size 15 to 20)
#    0.000    0.667    3.333    4.500    4.667    2.667 
#    0.000    0.000    0.000    0.000    0.000    0.000 
#    0.000    0.000    0.000    0.000    0.000    0.000 
#
# Total GULP energy -133955.313024 kJ/mol
# GULP energy per Si atom -5581.471376 kJ/mol
# Density = 2.296233 g / cm^3
# Si number density = 23.014712 Si / 1000 Ang^3
#
#
#
# Elastic Constant Matrix: (Units=GPa)
#
#
# Indices 1 2 3 4 5 6 
#
# 1 65.4329 7.8166 3.3090 0.0000 1.4463 0.0000
# 2 7.8166 129.3403 6.3154 0.0000 2.4771 0.0000
# 3 3.3090 6.3154 66.1019 0.0000 3.4796 0.0000
# 4 0.0000 0.0000 0.0000 34.6345 0.0000 -1.2517
# 5 1.4463 2.4771 3.4796 0.0000 38.2446 0.0000
# 6 0.0000 0.0000 0.0000 -1.2517 0.0000 3.9065
#
#
#
# Elastic Compliance Matrix: (Units=1/GPa)
#
#
# Indices 1 2 3 4 5 6 
#
# 1 0.015433 -0.000891 -0.000663 0.000000 -0.000466 0.000000
# 2 -0.000891 0.007827 -0.000681 0.000000 -0.000411 0.000000
# 3 -0.000663 -0.000681 0.015296 0.000000 -0.001322 0.000000
# 4 0.000000 0.000000 0.000000 0.029211 0.000000 0.009360
# 5 -0.000466 -0.000411 -0.001322 0.000000 0.026312 0.000000
# 6 0.000000 0.000000 0.000000 0.009360 0.000000 0.258980
#
#
# Mechanical properties :
#
#
# Convention : Reuss Voigt Hill
#
# Bulk Modulus (GPa) = 29.33911 32.86190 31.10050
# Shear Modulus (GPa) = 13.55411 31.58609 22.57010
#
# Velocity S-wave (km/s) = 2.42943 3.70865 3.13498
# Velocity P-wave (km/s) = 4.54369 5.71388 5.16205
#
# Compressibility (1/GPa) = 0.03408420
#
# Stress axis : x y z
#
# Youngs Moduli (GPa) = 64.79567 127.77003 65.37631
#
# Poissons Ratio (x) = 0.11389 0.04334
# Poissons Ratio (y) = 0.05776 0.04455
# Poissons Ratio (z) = 0.04295 0.08707
#
# Static dielectric constant tensor:
#      x y z
#    x 1.902910 0.000000 -0.033730 
#    y 0.000000 1.890000 0.000000 
#    z -0.033730 0.000000 2.033600 
# 
# From -- ./inp_files/13226.got.cif
#   From: 2010.05.17/outbox.cif.g08.bks.cpg/sg12_7_cif.got.tgz:13226.got - 2010.06.03 13:09:07.
