data_PCOD9220531
_publ_section_title
;
Structure prediction by ZEFSAII (Michael W. Deem and Ramdas Pophale) SiO2 
 PCOD9220531
Probable space group: C 2/M
;
_chemical_formula_sum "Si O2"
_cell_formula_units_Z 48
_cell_length_a 20.419152
_cell_length_b 8.411145
_cell_length_c 16.387142
_cell_angle_alpha 90.000000
_cell_angle_beta 62.464972
_cell_angle_gamma 90.000000
_cell_volume 2495.667050
_symmetry_space_group_name_H-M "C 2/M"
_symmetry_group_IT_number 12
_symmetry_cell_setting 'monoclinic'
loop_
_space_group_symop_operation_xyz
x,y,z
-x,y,-z
-x,-y,-z
x,-y,z
1/2+x,1/2+y,z
1/2-x,1/2+y,-z
1/2-x,1/2-y,-z
1/2+x,1/2-y,z
loop_
_atom_site_type_symbol
_atom_site_label
_atom_site_fract_x
_atom_site_fract_y
_atom_site_fract_z
Si Si1 0.022235 0.809700 0.578561
Si Si2 0.103734 0.806150 0.876385
Si Si3 0.814490 0.309297 0.521720
Si Si4 0.764434 0.694158 0.730658
Si Si5 0.943443 0.191732 0.916310
Si Si6 0.394943 0.189802 0.771450
O O1 0.105371 0.755390 0.548517
O O2 0.000000 0.753883 0.500000
O O3 0.964090 0.745455 0.677296
O O4 0.019153 0.000000 0.581409
O O5 0.180871 0.751310 0.794561
O O6 0.029381 0.755977 0.872238
O O7 0.103985 0.000000 0.874806
O O8 0.094131 0.759118 0.976667
O O9 0.816616 0.500000 0.519334
O O10 0.750000 0.250000 0.500000
O O11 0.795619 0.256122 0.624940
O O12 0.763425 0.500000 0.731420
O O13 0.820564 0.746640 0.769004
O O14 0.904368 0.251987 0.858019
O O15 0.943240 0.000000 0.914849
O O16 0.393570 0.000000 0.772185
#
# Coordination Sequence:
#
# PCOD9220531 Si02
#       6
#     8   8   8   8   8   8
#     4  11  23  40  61  83 112 151 194 242 288 342
#     4   8  16  34  57  81 110 147 190 233 281 339
#     4  11  23  39  59  86 119 155 194 236 284 342
#     4   9  19  35  55  79 113 153 189 227 280 341
#     4   9  18  34  59  85 109 143 191 239 280 336
#     4  11  22  36  56  83 115 151 188 232 289 348
#
# _framework density 19.233335
#
# number of rings (size 3 to 8) (size 9 to 14) (size 15 to 20)
#    0.000    2.167    1.667    2.500    2.333    1.333 
#    0.000    1.667    0.000    5.000    0.000    0.000 
#    0.000    0.000    0.000    0.000    0.000    0.000 
#
# Total GULP energy -134014.997201 kJ/mol
# GULP energy per Si atom -5583.958217 kJ/mol
# Density = 1.918956 g / cm^3
# Si number density = 19.233335 Si / 1000 Ang^3
#
#
#
# Elastic Constant Matrix: (Units=GPa)
#
#
# Indices 1 2 3 4 5 6 
#
# 1 77.5831 -1.4139 3.8518 0.0000 5.8874 0.0000
# 2 -1.4139 16.1113 0.6898 0.0000 4.9720 -0.0001
# 3 3.8518 0.6898 27.2377 0.0000 6.0221 0.0000
# 4 0.0000 0.0000 0.0000 16.8530 0.0000 9.8584
# 5 5.8874 4.9720 6.0221 0.0000 43.8928 0.0000
# 6 0.0000 -0.0001 0.0000 9.8584 0.0000 22.5611
#
#
#
# Elastic Compliance Matrix: (Units=1/GPa)
#
#
# Indices 1 2 3 4 5 6 
#
# 1 0.013130 0.001758 -0.001514 0.000000 -0.001753 0.000000
# 2 0.001758 0.064552 -0.000221 0.000000 -0.007518 0.000000
# 3 -0.001514 -0.000221 0.038037 0.000000 -0.004991 0.000000
# 4 0.000000 0.000000 0.000000 0.079712 0.000000 -0.034831
# 5 -0.001753 -0.007518 -0.004991 0.000000 0.024554 0.000000
# 6 0.000000 0.000000 0.000000 -0.034831 0.000000 0.059544
#
#
# Mechanical properties :
#
#
# Convention : Reuss Voigt Hill
#
# Bulk Modulus (GPa) = 8.63828 14.13195 11.38512
# Shear Modulus (GPa) = 15.71976 24.51499 20.11738
#
# Velocity S-wave (km/s) = 2.86198 3.57404 3.23765
# Velocity P-wave (km/s) = 3.92712 4.93916 4.46193
#
# Compressibility (1/GPa) = 0.11576375
#
# Stress axis : x y z
#
# Youngs Moduli (GPa) = 76.16385 15.49144 26.29026
#
# Poissons Ratio (x) = -0.02723 0.03980
# Poissons Ratio (y) = -0.13388 0.00582
# Poissons Ratio (z) = 0.11529 0.00343
#
# Static dielectric constant tensor:
#      x y z
#    x 1.656650 0.000000 0.007360 
#    y 0.000000 1.662350 0.000000 
#    z 0.007360 0.000000 1.656970 
# 
# From -- ./inp_files/229938.got.cif
#   From: 2010.05.17/outbox.cif.g08.bks.cpg/sg12_115_cif.got.tgz:229938.got - 2010.06.03 13:09:07.
