data_PCOD9220282
_publ_section_title
;
Structure prediction by ZEFSAII (Michael W. Deem and Ramdas Pophale) SiO2 
 PCOD9220282
Probable space group: C 2/M
;
_chemical_formula_sum "Si O2"
_cell_formula_units_Z 48
_cell_length_a 17.852498
_cell_length_b 13.971032
_cell_length_c 8.964627
_cell_angle_alpha 90.000000
_cell_angle_beta 83.598984
_cell_angle_gamma 90.000000
_cell_volume 2221.998766
_symmetry_space_group_name_H-M "C 2/M"
_symmetry_group_IT_number 12
_symmetry_cell_setting 'monoclinic'
loop_
_space_group_symop_operation_xyz
x,y,z
-x,y,-z
-x,-y,-z
x,-y,z
1/2+x,1/2+y,z
1/2-x,1/2+y,-z
1/2-x,1/2-y,-z
1/2+x,1/2-y,z
loop_
_atom_site_type_symbol
_atom_site_label
_atom_site_fract_x
_atom_site_fract_y
_atom_site_fract_z
Si Si1 0.331098 0.306328 0.220852
Si Si2 0.898043 0.000000 0.361624
Si Si3 0.918762 0.000000 0.697358
Si Si4 0.174971 0.606160 0.286232
Si Si5 0.476121 0.138382 0.838094
Si Si6 0.932434 0.843819 0.920549
Si Si7 0.623765 0.892822 0.635780
O O1 0.366181 0.400251 0.299065
O O2 0.241746 0.321856 0.237344
O O3 0.346174 0.202473 0.289491
O O4 0.369720 0.309794 0.050538
O O5 0.883488 0.000000 0.542303
O O6 0.989419 0.000000 0.329872
O O7 0.898216 0.091202 0.800781
O O8 0.209185 0.500000 0.278661
O O9 0.107543 0.608170 0.184008
O O10 0.138810 0.621630 0.457257
O O11 0.473559 0.253374 0.838231
O O12 0.536392 0.104925 0.704021
O O13 0.500000 0.109922 0.000000
O O14 0.000000 0.892951 0.000000
O O15 0.654570 0.000000 0.667595
#
# Coordination Sequence:
#
# PCOD9220282 Si02
#       7
#     8   4   4   8   8   8   8
#     4  12  23  47  71 101 146 187 227 291 361 420
#     4  11  23  38  71 102 143 183 236 291 342 417
#     4  11  22  37  66 111 134 184 242 284 339 425
#     4  11  26  44  71 101 138 189 230 290 361 415
#     4  11  23  46  71 100 135 179 242 292 344 413
#     4  11  21  41  67 100 138 190 230 286 357 411
#     4  11  24  45  72 103 140 185 238 292 346 414
#
# _framework density 21.602170999999998
#
# number of rings (size 3 to 8) (size 9 to 14) (size 15 to 20)
#    0.000    0.833    5.833    2.250    2.333    3.333 
#    0.000    0.000    0.000    0.000    0.000    0.000 
#    0.000    0.000    0.000    0.000    0.000    0.000 
#
# Total GULP energy -134097.627048 kJ/mol
# GULP energy per Si atom -5587.401127 kJ/mol
# Density = 2.155300 g / cm^3
# Si number density = 21.602171 Si / 1000 Ang^3
#
#
#
# Elastic Constant Matrix: (Units=GPa)
#
#
# Indices 1 2 3 4 5 6 
#
# 1 114.5471 33.6665 33.4058 0.0000 -7.5418 0.0000
# 2 33.6665 152.5069 47.9583 0.0000 5.5302 0.0000
# 3 33.4058 47.9583 102.4635 0.0000 -8.5313 0.0000
# 4 0.0000 0.0000 0.0000 29.2252 0.0000 -10.6690
# 5 -7.5418 5.5302 -8.5313 0.0000 17.1589 0.0000
# 6 0.0000 0.0000 0.0000 -10.6690 0.0000 37.7764
#
#
#
# Elastic Compliance Matrix: (Units=1/GPa)
#
#
# Indices 1 2 3 4 5 6 
#
# 1 0.010121 -0.001689 -0.002184 0.000000 0.003907 0.000000
# 2 -0.001689 0.008311 -0.003781 0.000000 -0.005301 0.000000
# 3 -0.002184 -0.003781 0.012792 0.000000 0.006619 0.000000
# 4 0.000000 0.000000 0.000000 0.038150 0.000000 0.010775
# 5 0.003907 -0.005301 0.006619 0.000000 0.064995 0.000000
# 6 0.000000 0.000000 0.000000 0.010775 0.000000 0.029515
#
#
# Mechanical properties :
#
#
# Convention : Reuss Voigt Hill
#
# Bulk Modulus (GPa) = 62.82652 66.61985 64.72318
# Shear Modulus (GPa) = 27.10079 33.79790 30.44934
#
# Velocity S-wave (km/s) = 3.54579 3.95974 3.75847
# Velocity P-wave (km/s) = 6.77570 7.19809 6.99008
#
# Compressibility (1/GPa) = 0.01591685
#
# Stress axis : x y z
#
# Youngs Moduli (GPa) = 98.80886 120.32150 78.17296
#
# Poissons Ratio (x) = 0.20324 0.17070
# Poissons Ratio (y) = 0.16690 0.29555
# Poissons Ratio (z) = 0.21577 0.45489
#
# Static dielectric constant tensor:
#      x y z
#    x 1.782780 0.000000 0.014150 
#    y 0.000000 1.838210 0.000000 
#    z 0.014150 0.000000 1.759130 
# 
# From -- ./inp_files/73660.got.cif
#   From: 2010.05.17/outbox.cif.g08.bks.cpg/sg12_37_cif.got.tgz:73660.got - 2010.06.03 13:09:07.
