data_PCOD9220657
_publ_section_title
;
Structure prediction by ZEFSAII (Michael W. Deem and Ramdas Pophale) SiO2 
 PCOD9220657
Probable space group: C 2/M
;
_chemical_formula_sum "Si O2"
_cell_formula_units_Z 28
_cell_length_a 16.174845
_cell_length_b 15.567138
_cell_length_c 10.348087
_cell_angle_alpha 90.000000
_cell_angle_beta 149.586297
_cell_angle_gamma 90.000000
_cell_volume 1319.062756
_symmetry_space_group_name_H-M "C 2/M"
_symmetry_group_IT_number 12
_symmetry_cell_setting 'monoclinic'
loop_
_space_group_symop_operation_xyz
x,y,z
-x,y,-z
-x,-y,-z
x,-y,z
1/2+x,1/2+y,z
1/2-x,1/2+y,-z
1/2-x,1/2-y,-z
1/2+x,1/2-y,z
loop_
_atom_site_type_symbol
_atom_site_label
_atom_site_fract_x
_atom_site_fract_y
_atom_site_fract_z
Si Si1 0.557894 0.767476 0.717317
Si Si2 0.460632 0.595160 0.701465
Si Si3 0.500000 0.317345 0.000000
Si Si4 0.607529 0.152064 0.259453
O O1 0.500000 0.800586 0.500000
O O2 0.481193 0.672026 0.629312
O O3 0.491735 0.828122 0.743975
O O4 0.750000 0.750000 0.000000
O O5 0.502845 0.500000 0.714886
O O6 0.273160 0.600533 0.496004
O O7 0.559423 0.625281 0.962131
O O8 0.367358 0.248923 0.767688
O O9 0.500000 0.110580 0.000000
#
# Coordination Sequence:
#
# PCOD9220657 Si02
#       4
#     8   8   4   8
#     4  11  23  38  63  90 124 165 200 246 305 378
#     4  11  22  37  62  91 119 151 203 260 298 343
#     4   8  17  34  59  82 106 154 200 234 275 352
#     4   9  20  38  65  86 111 161 215 235 286 367
#
# _framework density 21.227193
#
# number of rings (size 3 to 8) (size 9 to 14) (size 15 to 20)
#    0.857    1.143    0.000    5.571    8.000    1.143 
#    0.000    1.429    0.000    1.714    0.000    0.000 
#    0.000    0.000    0.000    0.000    0.000    0.000 
#
# Total GULP energy -77977.140562 kJ/mol
# GULP energy per Si atom -5569.795754 kJ/mol
# Density = 2.117888 g / cm^3
# Si number density = 21.227193 Si / 1000 Ang^3
#
#
#
# Elastic Constant Matrix: (Units=GPa)
#
#
# Indices 1 2 3 4 5 6 
#
# 1 115.8696 6.5794 52.7781 0.0000 -18.5904 0.0000
# 2 6.5794 67.2104 -0.7553 0.0000 1.1154 0.0000
# 3 52.7781 -0.7553 97.3060 0.0000 -6.9984 0.0000
# 4 0.0000 0.0000 0.0000 6.6357 0.0000 7.0805
# 5 -18.5904 1.1154 -6.9984 0.0000 42.2384 0.0000
# 6 0.0000 0.0000 0.0000 7.0805 0.0000 9.3914
#
#
#
# Elastic Compliance Matrix: (Units=1/GPa)
#
#
# Indices 1 2 3 4 5 6 
#
# 1 0.012317 -0.001350 -0.006374 0.000000 0.004400 0.000000
# 2 -0.001350 0.015034 0.000787 0.000000 -0.000861 0.000000
# 3 -0.006374 0.000787 0.013700 0.000000 -0.000556 0.000000
# 4 0.000000 0.000000 0.000000 0.770715 0.000000 -0.581066
# 5 0.004400 -0.000861 -0.000556 0.000000 0.025542 0.000000
# 6 0.000000 0.000000 0.000000 -0.581066 0.000000 0.544565
#
#
# Mechanical properties :
#
#
# Convention : Reuss Voigt Hill
#
# Bulk Modulus (GPa) = 36.79746 44.17672 40.48709
# Shear Modulus (GPa) = 3.55921 26.43868 14.99894
#
# Velocity S-wave (km/s) = 1.29629 3.53301 2.66106
# Velocity P-wave (km/s) = 4.42868 6.12368 5.34381
#
# Compressibility (1/GPa) = 0.02717579
#
# Stress axis : x y z
#
# Youngs Moduli (GPa) = 81.19110 66.51597 72.99045
#
# Poissons Ratio (x) = 0.08982 0.46527
# Poissons Ratio (y) = 0.10964 -0.05746
# Poissons Ratio (z) = 0.51755 -0.05236
#
# Static dielectric constant tensor:
#      x y z
#    x 1.803400 0.000000 -0.035730 
#    y 0.000000 1.764880 0.000000 
#    z -0.035730 0.000000 1.931560 
# 
# From -- ./inp_files/157527.got.cif
#   From: 2010.05.17/outbox.cif.g08.bks.cpg/sg12_79_cif.got.tgz:157527.got - 2010.06.03 13:09:07.
