data_PCOD9220917
_publ_section_title
;
Structure prediction by ZEFSAII (Michael W. Deem and Ramdas Pophale) SiO2 
 PCOD9220917
Probable space group: C 2/M
;
_chemical_formula_sum "Si O2"
_cell_formula_units_Z 48
_cell_length_a 13.461245
_cell_length_b 14.217477
_cell_length_c 14.339998
_cell_angle_alpha 90.000000
_cell_angle_beta 46.514138
_cell_angle_gamma 90.000000
_cell_volume 1991.226808
_symmetry_space_group_name_H-M "C 2/M"
_symmetry_group_IT_number 12
_symmetry_cell_setting 'monoclinic'
loop_
_space_group_symop_operation_xyz
x,y,z
-x,y,-z
-x,-y,-z
x,-y,z
1/2+x,1/2+y,z
1/2-x,1/2+y,-z
1/2-x,1/2-y,-z
1/2+x,1/2-y,z
loop_
_atom_site_type_symbol
_atom_site_label
_atom_site_fract_x
_atom_site_fract_y
_atom_site_fract_z
Si Si1 0.872294 0.898991 0.301689
Si Si2 0.900703 0.313914 0.474368
Si Si3 0.150956 0.395733 0.947309
Si Si4 0.892338 0.611136 0.806892
Si Si5 0.651237 0.290272 0.861418
Si Si6 0.893905 0.103078 0.484536
O O1 0.718192 0.890403 0.440903
O O2 0.876189 0.815386 0.227211
O O3 0.961161 0.896177 0.337698
O O4 0.894924 0.000000 0.240287
O O5 0.835208 0.209112 0.523981
O O6 0.000000 0.324154 0.500000
O O7 0.989576 0.332643 0.324415
O O8 0.214629 0.500000 0.902299
O O9 0.214764 0.311284 0.846090
O O10 0.132175 0.366672 0.067866
O O11 0.000000 0.404385 0.000000
O O12 0.922938 0.500000 0.782131
O O13 0.753360 0.634907 0.841089
O O14 0.500000 0.294602 0.000000
O O15 0.000000 0.103060 0.500000
O O16 0.821457 0.000000 0.539474
#
# Coordination Sequence:
#
# PCOD9220917 Si02
#       6
#     8   8   8   8   8   8
#     4  11  23  41  67  99 132 167 214 265 321 386
#     4  11  22  39  68  98 131 165 206 267 330 383
#     4   9  21  43  66  92 124 168 222 268 314 377
#     4  11  23  41  68  97 130 168 215 269 324 382
#     4  11  24  41  67  93 130 172 214 268 320 377
#     4   9  21  42  63  92 134 173 212 254 310 391
#
# _framework density 24.105743
#
# number of rings (size 3 to 8) (size 9 to 14) (size 15 to 20)
#    0.000    1.667    1.667    2.000    4.667    2.000 
#    0.000    1.667    0.000    0.000    0.000    0.000 
#    0.000    0.000    0.000    0.000    0.000    0.000 
#
# Total GULP energy -133928.417865 kJ/mol
# GULP energy per Si atom -5580.350744 kJ/mol
# Density = 2.405088 g / cm^3
# Si number density = 24.105743 Si / 1000 Ang^3
#
#
#
# Elastic Constant Matrix: (Units=GPa)
#
#
# Indices 1 2 3 4 5 6 
#
# 1 79.1896 15.8454 41.4602 0.0000 23.7042 0.0000
# 2 15.8454 149.3071 59.2634 0.0000 14.6487 0.0000
# 3 41.4602 59.2634 98.5019 0.0000 33.6340 0.0000
# 4 0.0000 0.0000 0.0000 25.2409 0.0000 9.3198
# 5 23.7042 14.6487 33.6340 0.0000 49.7758 0.0000
# 6 0.0000 0.0000 0.0000 9.3198 0.0000 35.1930
#
#
#
# Elastic Compliance Matrix: (Units=1/GPa)
#
#
# Indices 1 2 3 4 5 6 
#
# 1 0.016998 0.001161 -0.006464 0.000000 -0.004069 0.000000
# 2 0.001161 0.008942 -0.006215 0.000000 0.001015 0.000000
# 3 -0.006464 -0.006215 0.019416 0.000000 -0.008213 0.000000
# 4 0.000000 0.000000 0.000000 0.043912 0.000000 -0.011629
# 5 -0.004069 0.001015 -0.008213 0.000000 0.027278 0.000000
# 6 0.000000 0.000000 0.000000 -0.011629 0.000000 0.031494
#
#
# Mechanical properties :
#
#
# Convention : Reuss Voigt Hill
#
# Bulk Modulus (GPa) = 44.80301 62.23740 53.52020
# Shear Modulus (GPa) = 28.00883 36.07058 32.03971
#
# Velocity S-wave (km/s) = 3.41239 3.87246 3.64968
# Velocity P-wave (km/s) = 5.84399 6.77268 6.32540
#
# Compressibility (1/GPa) = 0.02231993
#
# Stress axis : x y z
#
# Youngs Moduli (GPa) = 58.83196 111.83580 51.50365
#
# Poissons Ratio (x) = -0.12982 0.33289
# Poissons Ratio (y) = -0.06829 0.32010
# Poissons Ratio (z) = 0.38026 0.69506
#
# Static dielectric constant tensor:
#      x y z
#    x 1.925550 0.000000 0.058280 
#    y 0.000000 1.996470 0.000000 
#    z 0.058280 0.000000 1.988220 
# 
# From -- ./inp_files/143539.got.cif
#   From: 2010.05.17/outbox.cif.g08.bks.cpg/sg12_72_cif.got.tgz:143539.got - 2010.06.03 13:09:07.
