data_PCOD9220127
_publ_section_title
;
Structure prediction by ZEFSAII (Michael W. Deem and Ramdas Pophale) SiO2 
 PCOD9220127
Probable space group: C 2/M
;
_chemical_formula_sum "Si O2"
_cell_formula_units_Z 56
_cell_length_a 20.983169
_cell_length_b 24.460071
_cell_length_c 12.538149
_cell_angle_alpha 90.000000
_cell_angle_beta 22.203850
_cell_angle_gamma 90.000000
_cell_volume 2431.882335
_symmetry_space_group_name_H-M "C 2/M"
_symmetry_group_IT_number 12
_symmetry_cell_setting 'monoclinic'
loop_
_space_group_symop_operation_xyz
x,y,z
-x,y,-z
-x,-y,-z
x,-y,z
1/2+x,1/2+y,z
1/2-x,1/2+y,-z
1/2-x,1/2-y,-z
1/2+x,1/2-y,z
loop_
_atom_site_type_symbol
_atom_site_label
_atom_site_fract_x
_atom_site_fract_y
_atom_site_fract_z
Si Si1 0.188030 0.060183 0.254136
Si Si2 0.221752 0.738873 0.758151
Si Si3 0.619641 0.939408 0.713423
Si Si4 0.843002 0.865644 0.494268
Si Si5 0.006851 0.392859 0.677465
Si Si6 0.372522 0.360896 0.102428
Si Si7 0.583931 0.772305 0.202316
O O1 0.176434 0.108452 0.358897
O O2 0.000000 0.058055 0.500000
O O3 0.224591 0.000000 0.247173
O O4 0.337321 0.069979 0.935911
O O5 0.224020 0.688008 0.673902
O O6 0.187752 0.799816 0.768031
O O7 0.417054 0.739675 0.493560
O O8 0.106618 0.729488 0.039169
O O9 0.785403 0.913037 0.503464
O O10 0.538510 0.898410 0.755202
O O11 0.641691 0.000000 0.632109
O O12 0.500000 0.943130 0.000000
O O13 0.027535 0.852588 0.163208
O O14 0.205732 0.397604 0.337113
O O15 0.948826 0.335412 0.720629
O O16 0.500000 0.379003 0.000000
O O17 0.750000 0.750000 0.000000
#
# Coordination Sequence:
#
# PCOD9220127 Si02
#       7
#     8   8   8   8   8   8   8
#     4  11  25  45  72 101 131 176 234 290 345 407
#     4  11  23  39  62  92 132 178 222 271 334 405
#     4  11  21  38  68 101 131 170 229 289 343 405
#     4  12  23  42  68  97 139 179 225 288 342 407
#     4  11  23  41  67  95 138 176 222 283 342 399
#     4  11  25  43  62  99 142 180 224 271 347 419
#     4  11  23  38  61  95 129 173 226 272 335 406
#
# _framework density 23.027429999999999
#
# number of rings (size 3 to 8) (size 9 to 14) (size 15 to 20)
#    0.000    0.857    5.714    1.286    2.000    2.286 
#    0.000    4.286    0.000    1.714    0.000    0.000 
#    0.000    0.000    0.000    0.000    0.000    0.000 
#
# Total GULP energy -156086.186765 kJ/mol
# GULP energy per Si atom -5574.506670 kJ/mol
# Density = 2.297502 g / cm^3
# Si number density = 23.027430 Si / 1000 Ang^3
#
#
#
# Elastic Constant Matrix: (Units=GPa)
#
#
# Indices 1 2 3 4 5 6 
#
# 1 21.0051 10.0672 5.7385 -0.0056 -5.3833 0.0081
# 2 10.0672 83.2850 31.6808 -0.0172 1.9588 0.0093
# 3 5.7385 31.6808 138.2943 -0.0161 4.4445 0.0023
# 4 -0.0056 -0.0172 -0.0161 15.6942 0.0116 -0.0339
# 5 -5.3833 1.9588 4.4445 0.0116 42.7976 -0.0042
# 6 0.0081 0.0093 0.0023 -0.0339 -0.0042 27.2914
#
#
#
# Elastic Compliance Matrix: (Units=1/GPa)
#
#
# Indices 1 2 3 4 5 6 
#
# 1 0.052621 -0.006145 -0.001001 0.000006 0.007004 -0.000012
# 2 -0.006145 0.013874 -0.002888 0.000011 -0.001108 -0.000003
# 3 -0.001001 -0.002888 0.007960 0.000005 -0.000820 0.000001
# 4 0.000006 0.000011 0.000005 0.063718 -0.000018 0.000079
# 5 0.007004 -0.001108 -0.000820 -0.000018 0.024383 0.000002
# 6 -0.000012 -0.000003 0.000001 0.000079 0.000002 0.036642
#
#
# Mechanical properties :
#
#
# Convention : Reuss Voigt Hill
#
# Bulk Modulus (GPa) = 18.38609 37.50638 27.94624
# Shear Modulus (GPa) = 21.06198 30.16316 25.61257
#
# Velocity S-wave (km/s) = 3.02759 3.62315 3.33868
# Velocity P-wave (km/s) = 4.49706 5.81602 5.19854
#
# Compressibility (1/GPa) = 0.05438893
#
# Stress axis : x y z
#
# Youngs Moduli (GPa) = 19.00381 72.07603 125.62188
#
# Poissons Ratio (x) = 0.44288 0.12575
# Poissons Ratio (y) = 0.11677 0.36277
# Poissons Ratio (z) = 0.01902 0.20814
#
# Static dielectric constant tensor:
#      x y z
#    x 1.867390 -0.000010 -0.037920 
#    y -0.000010 1.944460 0.000020 
#    z -0.037920 0.000020 1.966130 
# 
# From -- ./inp_files/242115.got.cif
#   From: 2010.05.17/outbox.cif.g08.bks.cpg/sg12_122_cif.got.tgz:242115.got - 2010.06.03 13:09:07.
