data_PCOD9220642
_publ_section_title
;
Structure prediction by ZEFSAII (Michael W. Deem and Ramdas Pophale) SiO2 
 PCOD9220642
Probable space group: C 2/M
;
_chemical_formula_sum "Si O2"
_cell_formula_units_Z 40
_cell_length_a 11.469734
_cell_length_b 17.457524
_cell_length_c 11.737403
_cell_angle_alpha 90.000000
_cell_angle_beta 107.354036
_cell_angle_gamma 90.000000
_cell_volume 2243.235173
_symmetry_space_group_name_H-M "C 2/M"
_symmetry_group_IT_number 12
_symmetry_cell_setting 'monoclinic'
loop_
_space_group_symop_operation_xyz
x,y,z
-x,y,-z
-x,-y,-z
x,-y,z
1/2+x,1/2+y,z
1/2-x,1/2+y,-z
1/2-x,1/2-y,-z
1/2+x,1/2-y,z
loop_
_atom_site_type_symbol
_atom_site_label
_atom_site_fract_x
_atom_site_fract_y
_atom_site_fract_z
Si Si1 0.191658 0.908143 0.610150
Si Si2 0.113568 0.351232 0.165489
Si Si3 0.659583 0.089882 0.934866
Si Si4 0.064772 0.091805 0.341906
Si Si5 0.112859 0.171142 0.116004
O O1 0.306657 0.867740 0.700248
O O2 0.158273 0.887076 0.470760
O O3 0.070722 0.891146 0.649777
O O4 0.209518 0.000000 0.618621
O O5 0.118885 0.262485 0.132829
O O6 0.973850 0.378221 0.137748
O O7 0.167450 0.398128 0.073621
O O8 0.764854 0.137374 0.903853
O O9 0.668895 0.000000 0.911003
O O10 0.090915 0.133849 0.232508
O O11 0.072038 0.000000 0.328277
O O12 0.000000 0.152697 0.000000
#
# Coordination Sequence:
#
# PCOD9220642 Si02
#       5
#     8   8   8   8   8
#     4   9  18  37  63  84 112 154 198 237 286 349
#     4  11  22  37  61  83 118 157 195 238 295 349
#     4  11  23  39  59  88 118 156 201 239 284 354
#     4   9  20  37  59  88 115 149 197 243 285 348
#     4  12  24  37  59  87 123 152 191 245 301 340
#
# _framework density 17.831389000000001
#
# number of rings (size 3 to 8) (size 9 to 14) (size 15 to 20)
#    0.000    1.600    2.000    6.000    2.800    4.000 
#    0.000    1.000    0.000    3.600    0.000    0.000 
#    0.000    0.000    0.000    0.000    0.000    0.000 
#
# Total GULP energy -111730.364950 kJ/mol
# GULP energy per Si atom -5586.518248 kJ/mol
# Density = 1.779080 g / cm^3
# Si number density = 17.831389 Si / 1000 Ang^3
#
#
#
# Elastic Constant Matrix: (Units=GPa)
#
#
# Indices 1 2 3 4 5 6 
#
# 1 81.6272 46.5358 64.5143 0.0000 2.3338 0.0000
# 2 46.5358 79.8618 35.9444 0.0000 8.4689 0.0000
# 3 64.5143 35.9444 134.5276 0.0000 13.8179 0.0000
# 4 0.0000 0.0000 0.0000 44.4265 0.0000 -9.6689
# 5 2.3338 8.4689 13.8179 0.0000 24.3465 0.0000
# 6 0.0000 0.0000 0.0000 -9.6689 0.0000 33.1872
#
#
#
# Elastic Compliance Matrix: (Units=1/GPa)
#
#
# Indices 1 2 3 4 5 6 
#
# 1 0.027231 -0.011870 -0.010665 0.000000 0.007572 0.000000
# 2 -0.011870 0.019612 0.001100 0.000000 -0.006309 0.000000
# 3 -0.010665 0.001100 0.012943 0.000000 -0.006706 0.000000
# 4 0.000000 0.000000 0.000000 0.024033 0.000000 0.007002
# 5 0.007572 -0.006309 -0.006706 0.000000 0.046348 0.000000
# 6 0.000000 0.000000 0.000000 0.007002 0.000000 0.032172
#
#
# Mechanical properties :
#
#
# Convention : Reuss Voigt Hill
#
# Bulk Modulus (GPa) = 59.11575 65.55619 62.33597
# Shear Modulus (GPa) = 23.71386 30.32685 27.02036
#
# Velocity S-wave (km/s) = 3.65073 4.12850 3.89694
# Velocity P-wave (km/s) = 7.14108 7.71818 7.43523
#
# Compressibility (1/GPa) = 0.01691597
#
# Stress axis : x y z
#
# Youngs Moduli (GPa) = 36.72345 50.98852 77.26372
#
# Poissons Ratio (x) = 0.60525 0.82401
# Poissons Ratio (y) = 0.43592 -0.08501
# Poissons Ratio (z) = 0.39165 -0.05610
#
# Static dielectric constant tensor:
#      x y z
#    x 1.587820 0.000000 0.011450 
#    y 0.000000 1.597760 0.000000 
#    z 0.011450 0.000000 1.597070 
# 
# From -- ./inp_files/47131.got.cif
#   From: 2010.05.17/outbox.cif.g08.bks.cpg/sg12_24_cif.got.tgz:47131.got - 2010.06.03 13:09:07.
