data_PCOD9220966
_publ_section_title
;
Structure prediction by ZEFSAII (Michael W. Deem and Ramdas Pophale) SiO2 
 PCOD9220966
Probable space group: C 2/M
;
_chemical_formula_sum "Si O2"
_cell_formula_units_Z 48
_cell_length_a 14.576411
_cell_length_b 12.162488
_cell_length_c 21.529978
_cell_angle_alpha 90.000000
_cell_angle_beta 38.823101
_cell_angle_gamma 90.000000
_cell_volume 2392.915386
_symmetry_space_group_name_H-M "C 2/M"
_symmetry_group_IT_number 12
_symmetry_cell_setting 'monoclinic'
loop_
_space_group_symop_operation_xyz
x,y,z
-x,y,-z
-x,-y,-z
x,-y,z
1/2+x,1/2+y,z
1/2-x,1/2+y,-z
1/2-x,1/2-y,-z
1/2+x,1/2-y,z
loop_
_atom_site_type_symbol
_atom_site_label
_atom_site_fract_x
_atom_site_fract_y
_atom_site_fract_z
Si Si1 0.895646 0.000000 0.453809
Si Si2 0.739256 0.128026 0.863156
Si Si3 0.148656 0.730883 0.729011
Si Si4 0.292899 0.500000 0.641082
Si Si5 0.929089 0.369031 0.604377
Si Si6 0.457425 0.129524 0.921111
Si Si7 0.960775 0.781727 0.347286
O O1 0.049650 0.000000 0.409626
O O2 0.893140 0.891060 0.413780
O O3 0.787433 0.000000 0.569146
O O4 0.599502 0.135013 0.891418
O O5 0.875606 0.192378 0.763755
O O6 0.783548 0.000000 0.842219
O O7 0.679290 0.158986 0.962857
O O8 0.220049 0.611692 0.701107
O O9 0.264039 0.820714 0.692225
O O10 0.996336 0.714740 0.846028
O O11 0.126945 0.749181 0.667588
O O12 0.929373 0.500000 0.611255
O O13 0.021857 0.310002 0.609110
O O14 0.000000 0.340578 0.500000
O O15 0.441099 0.000000 0.910666
#
# Coordination Sequence:
#
# PCOD9220966 Si02
#       7
#     4   8   8   4   8   8   8
#     4  11  22  40  65  90 118 159 211 262 302 352
#     4   9  17  34  63  93 119 152 199 252 305 359
#     4  12  24  39  64  92 125 159 201 255 308 359
#     4  11  22  40  65  90 118 159 211 262 302 352
#     4  11  26  45  60  83 124 169 205 244 302 366
#     4   9  17  34  63  93 119 152 199 252 305 359
#     4  12  24  39  64  92 125 159 201 255 308 359
#
# _framework density 20.059211999999999
#
# number of rings (size 3 to 8) (size 9 to 14) (size 15 to 20)
#    0.000    1.333    5.000    2.000    2.333    3.333 
#    0.000    0.000    0.000    2.000    0.000    0.000 
#    0.000    0.000    0.000    0.000    0.000    0.000 
#
# Total GULP energy -134082.172956 kJ/mol
# GULP energy per Si atom -5586.757206 kJ/mol
# Density = 2.001356 g / cm^3
# Si number density = 20.059212 Si / 1000 Ang^3
#
#
#
# Elastic Constant Matrix: (Units=GPa)
#
#
# Indices 1 2 3 4 5 6 
#
# 1 67.7109 24.5141 -0.4700 0.0000 23.9639 0.0000
# 2 24.5141 77.4518 32.1717 0.0000 16.0318 0.0000
# 3 -0.4700 32.1717 95.6257 0.0000 22.8231 0.0000
# 4 0.0000 0.0000 0.0000 29.6751 0.0000 10.1166
# 5 23.9639 16.0318 22.8231 0.0000 35.9507 0.0000
# 6 0.0000 0.0000 0.0000 10.1166 0.0000 12.6325
#
#
#
# Elastic Compliance Matrix: (Units=1/GPa)
#
#
# Indices 1 2 3 4 5 6 
#
# 1 0.022922 -0.006441 0.006177 0.000000 -0.016329 0.000000
# 2 -0.006441 0.017352 -0.005949 0.000000 0.000332 0.000000
# 3 0.006177 -0.005949 0.015131 0.000000 -0.011071 0.000000
# 4 0.000000 0.000000 0.000000 0.046354 0.000000 -0.037122
# 5 -0.016329 0.000332 -0.011071 0.000000 0.045580 0.000000
# 6 0.000000 0.000000 0.000000 -0.037122 0.000000 0.108890
#
#
# Mechanical properties :
#
#
# Convention : Reuss Voigt Hill
#
# Bulk Modulus (GPa) = 23.26658 39.24666 31.25662
# Shear Modulus (GPa) = 17.66897 27.95650 22.81274
#
# Velocity S-wave (km/s) = 2.97112 3.73728 3.37600
# Velocity P-wave (km/s) = 4.83675 6.18311 5.55090
#
# Compressibility (1/GPa) = 0.04298011
#
# Stress axis : x y z
#
# Youngs Moduli (GPa) = 43.62557 57.62986 66.08781
#
# Poissons Ratio (x) = 0.37119 -0.40821
# Poissons Ratio (y) = 0.28099 0.39314
# Poissons Ratio (z) = -0.26947 0.34282
#
# Static dielectric constant tensor:
#      x y z
#    x 1.702170 0.000000 0.017930 
#    y 0.000000 1.678030 0.000000 
#    z 0.017930 0.000000 1.799970 
# 
# From -- ./inp_files/204475.got.cif
#   From: 2010.05.17/outbox.cif.g08.bks.cpg/sg12_103_cif.got.tgz:204475.got - 2010.06.03 13:09:07.
