data_PCOD9220317
_publ_section_title
;
Structure prediction by ZEFSAII (Michael W. Deem and Ramdas Pophale) SiO2 
 PCOD9220317
Probable space group: C 2/M
;
_chemical_formula_sum "Si O2"
_cell_formula_units_Z 40
_cell_length_a 15.025496
_cell_length_b 25.227202
_cell_length_c 8.510159
_cell_angle_alpha 90.000000
_cell_angle_beta 38.649625
_cell_angle_gamma 90.000000
_cell_volume 2014.684926
_symmetry_space_group_name_H-M "C 2/M"
_symmetry_group_IT_number 12
_symmetry_cell_setting 'monoclinic'
loop_
_space_group_symop_operation_xyz
x,y,z
-x,y,-z
-x,-y,-z
x,-y,z
1/2+x,1/2+y,z
1/2-x,1/2+y,-z
1/2-x,1/2-y,-z
1/2+x,1/2-y,z
loop_
_atom_site_type_symbol
_atom_site_label
_atom_site_fract_x
_atom_site_fract_y
_atom_site_fract_z
Si Si1 0.672198 0.349536 0.072015
Si Si2 0.361647 0.224863 0.596978
Si Si3 0.842398 0.162361 0.532579
Si Si4 0.572779 0.136668 0.743696
Si Si5 0.390156 0.059754 0.795268
O O1 0.681550 0.346272 0.248518
O O2 0.505286 0.349374 0.263251
O O3 0.749237 0.301561 0.872093
O O4 0.760576 0.402985 0.918101
O O5 0.500000 0.245549 0.500000
O O6 0.310308 0.274719 0.566247
O O7 0.420626 0.178255 0.406175
O O8 0.735004 0.128394 0.575080
O O9 0.477769 0.087814 0.815508
O O10 0.500000 0.159843 0.000000
O O11 0.500000 0.057886 0.500000
O O12 0.345524 0.000000 0.897183
#
# Coordination Sequence:
#
# PCOD9220317 Si02
#       5
#     8   8   8   8   8
#     4  11  21  42  62  88 127 166 212 255 302 377
#     4  12  21  39  63  89 127 179 202 246 302 378
#     4  11  25  36  62  95 130 165 204 251 315 366
#     4  12  23  40  61  95 130 158 213 261 301 371
#     4  11  23  45  72  89 113 165 217 262 316 369
#
# _framework density 19.854222
#
# number of rings (size 3 to 8) (size 9 to 14) (size 15 to 20)
#    0.000    0.600    8.000    1.200    2.800    1.200 
#    0.000    3.000    0.000    2.400    0.000    0.000 
#    0.000    0.000    0.000    0.000    0.000    0.000 
#
# Total GULP energy -111665.664125 kJ/mol
# GULP energy per Si atom -5583.283206 kJ/mol
# Density = 1.980903 g / cm^3
# Si number density = 19.854222 Si / 1000 Ang^3
#
#
#
# Elastic Constant Matrix: (Units=GPa)
#
#
# Indices 1 2 3 4 5 6 
#
# 1 79.8664 17.4359 23.2717 0.0000 -23.2346 0.0000
# 2 17.4359 103.5991 37.8790 0.0000 -21.2216 0.0000
# 3 23.2717 37.8790 100.7298 0.0000 -17.0729 0.0000
# 4 0.0000 0.0000 0.0000 14.5693 0.0000 6.9886
# 5 -23.2346 -21.2216 -17.0729 0.0000 34.5112 0.0000
# 6 0.0000 0.0000 0.0000 6.9886 0.0000 6.3408
#
#
#
# Elastic Compliance Matrix: (Units=1/GPa)
#
#
# Indices 1 2 3 4 5 6 
#
# 1 0.015944 0.000067 -0.002055 0.000000 0.009759 0.000000
# 2 0.000067 0.012132 -0.003608 0.000000 0.005720 0.000000
# 3 -0.002055 -0.003608 0.012169 0.000000 0.002418 0.000000
# 4 0.000000 0.000000 0.000000 0.145631 0.000000 -0.160509
# 5 0.009759 0.005720 0.002418 0.000000 0.040260 0.000000
# 6 0.000000 0.000000 0.000000 -0.160509 0.000000 0.334616
#
#
# Mechanical properties :
#
#
# Convention : Reuss Voigt Hill
#
# Bulk Modulus (GPa) = 34.41931 49.04094 41.73013
# Shear Modulus (GPa) = 8.59655 24.79153 16.69404
#
# Velocity S-wave (km/s) = 2.08308 3.53750 2.90285
# Velocity P-wave (km/s) = 4.81241 6.43734 5.68325
#
# Compressibility (1/GPa) = 0.02905346
#
# Stress axis : x y z
#
# Youngs Moduli (GPa) = 62.71929 82.42384 82.17657
#
# Poissons Ratio (x) = -0.00551 0.16885
# Poissons Ratio (y) = -0.00420 0.29651
# Poissons Ratio (z) = 0.12887 0.29740
#
# Static dielectric constant tensor:
#      x y z
#    x 1.744370 0.000000 -0.009910 
#    y 0.000000 1.717820 0.000000 
#    z -0.009910 0.000000 1.724470 
# 
# From -- ./inp_files/50123.got.cif
#   From: 2010.05.17/outbox.cif.g08.bks.cpg/sg12_26_cif.got.tgz:50123.got - 2010.06.03 13:09:07.
