data_PCOD9220740
_publ_section_title
;
Structure prediction by ZEFSAII (Michael W. Deem and Ramdas Pophale) SiO2 
 PCOD9220740
Probable space group: C 2/M
;
_chemical_formula_sum "Si O2"
_cell_formula_units_Z 48
_cell_length_a 14.919166
_cell_length_b 8.595427
_cell_length_c 27.685634
_cell_angle_alpha 90.000000
_cell_angle_beta 42.747724
_cell_angle_gamma 90.000000
_cell_volume 2409.850620
_symmetry_space_group_name_H-M "C 2/M"
_symmetry_group_IT_number 12
_symmetry_cell_setting 'monoclinic'
loop_
_space_group_symop_operation_xyz
x,y,z
-x,y,-z
-x,-y,-z
x,-y,z
1/2+x,1/2+y,z
1/2-x,1/2+y,-z
1/2-x,1/2-y,-z
1/2+x,1/2-y,z
loop_
_atom_site_type_symbol
_atom_site_label
_atom_site_fract_x
_atom_site_fract_y
_atom_site_fract_z
Si Si1 0.153530 0.189079 0.888581
Si Si2 0.089133 0.816128 0.367283
Si Si3 0.077679 0.685701 0.267807
Si Si4 0.322816 0.314555 0.328606
Si Si5 0.642943 0.312038 0.004674
Si Si6 0.167151 0.686458 0.487640
O O1 0.279458 0.238082 0.807835
O O2 0.169899 0.235415 0.938282
O O3 0.152574 0.000000 0.888881
O O4 0.009552 0.238104 0.926149
O O5 0.045495 0.769666 0.330790
O O6 0.229528 0.737262 0.322029
O O7 0.979813 0.751050 0.447388
O O8 0.098116 0.000000 0.368603
O O9 0.078205 0.500000 0.275036
O O10 0.963303 0.731459 0.275692
O O11 0.340344 0.500000 0.321719
O O12 0.240785 0.268417 0.409290
O O13 0.646433 0.500000 0.005035
O O14 0.750000 0.250000 0.000000
O O15 0.162024 0.500000 0.491451
O O16 0.250000 0.750000 0.500000
#
# Coordination Sequence:
#
# PCOD9220740 Si02
#       6
#     8   8   8   8   8   8
#     4   8  18  36  58  83 115 154 187 226 281 343
#     4  12  25  40  59  85 116 154 198 243 294 348
#     4  11  22  39  61  85 117 155 195 239 292 346
#     4  11  24  41  60  85 115 151 195 243 296 350
#     4   9  17  35  60  86 116 148 188 230 277 334
#     4  11  22  38  62  86 114 149 194 246 298 348
#
# _framework density 19.918247000000001
#
# number of rings (size 3 to 8) (size 9 to 14) (size 15 to 20)
#    0.000    1.667    1.667    4.500    0.000    5.333 
#    0.000    8.333    0.000    0.000    0.000    0.000 
#    0.000    0.000    0.000    0.000    0.000    0.000 
#
# Total GULP energy -134103.976992 kJ/mol
# GULP energy per Si atom -5587.665708 kJ/mol
# Density = 1.987291 g / cm^3
# Si number density = 19.918247 Si / 1000 Ang^3
#
#
#
# Elastic Constant Matrix: (Units=GPa)
#
#
# Indices 1 2 3 4 5 6 
#
# 1 101.1838 -1.1329 16.2911 0.0000 -25.3457 0.0002
# 2 -1.1329 34.1654 17.3056 0.0001 -3.6706 0.0005
# 3 16.2911 17.3056 92.8026 0.0000 -25.6365 0.0000
# 4 0.0000 0.0001 0.0000 16.0386 0.0000 -6.0711
# 5 -25.3457 -3.6706 -25.6365 0.0000 22.7361 0.0000
# 6 0.0002 0.0005 0.0000 -6.0711 0.0000 34.7654
#
#
#
# Elastic Compliance Matrix: (Units=1/GPa)
#
#
# Indices 1 2 3 4 5 6 
#
# 1 0.014218 0.001241 0.002479 0.000000 0.018846 0.000000
# 2 0.001241 0.032513 -0.006461 0.000000 -0.000653 0.000000
# 3 0.002479 -0.006461 0.017459 0.000000 0.021406 0.000000
# 4 0.000000 0.000000 0.000000 0.066763 0.000000 0.011659
# 5 0.018846 -0.000653 0.021406 0.000000 0.089023 0.000000
# 6 0.000000 0.000000 0.000000 0.011659 0.000000 0.030800
#
#
# Mechanical properties :
#
#
# Convention : Reuss Voigt Hill
#
# Bulk Modulus (GPa) = 17.03391 32.56439 24.79915
# Shear Modulus (GPa) = 18.12721 27.75388 22.94054
#
# Velocity S-wave (km/s) = 3.02003 3.73686 3.39740
# Velocity P-wave (km/s) = 4.55316 5.91637 5.27895
#
# Compressibility (1/GPa) = 0.05870644
#
# Stress axis : x y z
#
# Youngs Moduli (GPa) = 70.33108 30.75679 57.27822
#
# Poissons Ratio (x) = -0.03816 -0.14198
# Poissons Ratio (y) = -0.08726 0.37009
# Poissons Ratio (z) = -0.17433 0.19873
#
# Static dielectric constant tensor:
#      x y z
#    x 1.693750 0.000000 -0.009700 
#    y 0.000000 1.667140 0.000000 
#    z -0.009700 0.000000 1.707580 
# 
# From -- ./inp_files/374911.got.cif
#   From: 2010.05.17/outbox.cif.g08.bks.cpg/sg12_188_cif.got.tgz:374911.got - 2010.06.03 13:09:07.
