data_PCOD9220320
_publ_section_title
;
Structure prediction by ZEFSAII (Michael W. Deem and Ramdas Pophale) SiO2 
 PCOD9220320
Probable space group: C 2/M
;
_chemical_formula_sum "Si O2"
_cell_formula_units_Z 64
_cell_length_a 9.288320
_cell_length_b 17.501620
_cell_length_c 30.342501
_cell_angle_alpha 90.000000
_cell_angle_beta 139.908383
_cell_angle_gamma 90.000000
_cell_volume 3176.585550
_symmetry_space_group_name_H-M "C 2/M"
_symmetry_group_IT_number 12
_symmetry_cell_setting 'monoclinic'
loop_
_space_group_symop_operation_xyz
x,y,z
-x,y,-z
-x,-y,-z
x,-y,z
1/2+x,1/2+y,z
1/2-x,1/2+y,-z
1/2-x,1/2-y,-z
1/2+x,1/2-y,z
loop_
_atom_site_type_symbol
_atom_site_label
_atom_site_fract_x
_atom_site_fract_y
_atom_site_fract_z
Si Si1 0.275084 0.589257 0.138613
Si Si2 0.798820 0.908059 0.893679
Si Si3 0.716628 0.637944 0.203157
Si Si4 0.128247 0.409896 0.357756
Si Si5 0.875387 0.199712 0.242776
Si Si6 0.241697 0.712999 0.450216
Si Si7 0.793594 0.592478 0.029219
Si Si8 0.313518 0.305431 0.325857
O O1 0.260186 0.500000 0.147265
O O2 0.476600 0.599647 0.151922
O O3 0.338760 0.640503 0.195313
O O4 0.030767 0.613695 0.064099
O O5 0.687717 0.880776 0.822715
O O6 0.693413 0.886295 0.915823
O O7 0.799373 0.000000 0.892686
O O8 0.056577 0.879105 0.955775
O O9 0.705139 0.728846 0.202642
O O10 0.881114 0.607889 0.279993
O O11 0.163842 0.500000 0.367427
O O12 0.169963 0.370763 0.415102
O O13 0.284240 0.367439 0.357843
O O14 0.824654 0.163129 0.278609
O O15 0.115777 0.243110 0.290430
O O16 0.500000 0.719438 0.500000
O O17 0.250000 0.750000 0.500000
O O18 0.052099 0.763730 0.382935
O O19 0.775952 0.500000 0.022692
#
# Coordination Sequence:
#
# PCOD9220320 Si02
#       8
#     8   8   8   8   8   8   8   8
#     4  11  22  36  57  89 120 155 204 261 312 353
#     4   9  17  34  56  82 117 162 207 251 310 377
#     4  11  22  37  62  88 121 161 202 252 317 368
#     4  11  24  40  65  99 128 156 209 263 297 353
#     4  11  22  39  60  87 126 163 200 250 308 372
#     4  12  22  41  68  93 122 169 205 239 297 373
#     4   8  18  33  52  81 120 159 204 257 310 371
#     4  11  21  42  64  91 123 165 205 241 302 372
#
# _framework density 20.147417000000001
#
# number of rings (size 3 to 8) (size 9 to 14) (size 15 to 20)
#    0.000    1.500    5.000    1.875    3.500    1.250 
#    0.000    2.500    0.000    3.000    0.000    0.000 
#    0.000    0.000    0.000    0.000    0.000    0.000 
#
# Total GULP energy -178269.086473 kJ/mol
# GULP energy per Si atom -5570.908952 kJ/mol
# Density = 2.010156 g / cm^3
# Si number density = 20.147417 Si / 1000 Ang^3
#
#
#
# Elastic Constant Matrix: (Units=GPa)
#
#
# Indices 1 2 3 4 5 6 
#
# 1 56.4824 13.3480 39.4584 0.0000 1.0237 -0.0001
# 2 13.3480 88.2850 13.6782 0.0000 -8.5513 0.0000
# 3 39.4584 13.6782 57.3402 0.0001 4.0672 -0.0002
# 4 0.0000 0.0000 0.0001 0.8275 0.0000 12.1691
# 5 1.0237 -8.5513 4.0672 0.0000 48.1002 -0.0001
# 6 -0.0001 0.0000 -0.0002 12.1691 -0.0001 4.6575
#
#
#
# Elastic Compliance Matrix: (Units=1/GPa)
#
#
# Indices 1 2 3 4 5 6 
#
# 1 0.034354 -0.001480 -0.023357 0.000000 0.000981 0.000000
# 2 -0.001480 0.012094 -0.002033 0.000000 0.002353 0.000000
# 3 -0.023357 -0.002033 0.034193 0.000000 -0.002756 0.000000
# 4 0.000000 0.000000 0.000000 -0.032291 0.000000 0.084371
# 5 0.000981 0.002353 -0.002756 0.000000 0.021420 0.000000
# 6 0.000000 0.000000 0.000000 0.084371 0.000000 -0.005737
#
#
# Mechanical properties :
#
#
# Convention : Reuss Voigt Hill
#
# Bulk Modulus (GPa) = 37.17470 37.23075 37.20272
# Shear Modulus (GPa) = 39.45107 19.75858 29.60483
#
# Velocity S-wave (km/s) = 4.42987 3.13501 3.83745
# Velocity P-wave (km/s) = 6.68254 5.62349 6.17576
#
# Compressibility (1/GPa) = 0.02690002
#
# Stress axis : x y z
#
# Youngs Moduli (GPa) = 29.10909 82.68755 29.24578
#
# Poissons Ratio (x) = 0.12240 0.68308
# Poissons Ratio (y) = 0.04309 0.05946
# Poissons Ratio (z) = 0.67989 0.16812
#
# Static dielectric constant tensor:
#      x y z
#    x 1.757360 0.000000 -0.026840 
#    y 0.000000 1.681270 0.000000 
#    z -0.026840 0.000000 1.826550 
# 
# From -- ./inp_files/373001.got.cif
#   From: 2010.05.17/outbox.cif.g08.bks.cpg/sg12_187_cif.got.tgz:373001.got - 2010.06.03 13:09:07.
