data_PCOD9220101
_publ_section_title
;
Structure prediction by ZEFSAII (Michael W. Deem and Ramdas Pophale) SiO2 
 PCOD9220101
Probable space group: C 2/M
;
_chemical_formula_sum "Si O2"
_cell_formula_units_Z 48
_cell_length_a 25.612460
_cell_length_b 8.576468
_cell_length_c 20.906385
_cell_angle_alpha 90.000000
_cell_angle_beta 35.287795
_cell_angle_gamma 90.000000
_cell_volume 2652.948791
_symmetry_space_group_name_H-M "C 2/M"
_symmetry_group_IT_number 12
_symmetry_cell_setting 'monoclinic'
loop_
_space_group_symop_operation_xyz
x,y,z
-x,y,-z
-x,-y,-z
x,-y,z
1/2+x,1/2+y,z
1/2-x,1/2+y,-z
1/2-x,1/2-y,-z
1/2+x,1/2-y,z
loop_
_atom_site_type_symbol
_atom_site_label
_atom_site_fract_x
_atom_site_fract_y
_atom_site_fract_z
Si Si1 0.058361 0.312953 0.504037
Si Si2 0.056229 0.687226 0.124024
Si Si3 0.250000 0.189391 0.122141
Si Si4 0.750005 0.187335 0.728942
Si Si5 0.443764 0.687226 0.736495
Si Si6 0.941631 0.187047 0.120763
O O1 0.059314 0.500000 0.505556
O O2 0.159347 0.250226 0.394117
O O3 0.000000 0.264514 0.500000
O O4 0.010250 0.247329 0.615029
O O5 0.055345 0.500000 0.125207
O O6 0.032085 0.749993 0.217913
O O7 0.989742 0.747349 0.135536
O O8 0.158047 0.741307 0.003936
O O9 0.249994 0.238024 0.196393
O O10 0.158053 0.241310 0.179957
O O11 0.249999 0.000000 0.121537
O O12 0.659351 0.250208 0.787188
O O13 0.750012 0.000000 0.727445
O O14 0.444645 0.500000 0.735920
O O15 0.940666 0.000000 0.124194
O O16 0.000000 0.235488 0.000000
#
# Coordination Sequence:
#
# PCOD9220101 Si02
#       6
#     8   8   8   8   8   8
#     4  11  23  39  60  89 122 158 200 248 297 352
#     4  11  22  39  60  88 123 162 202 246 299 357
#     4   9  19  34  58  89 122 156 195 242 298 355
#     4  11  21  38  63  91 119 155 202 249 296 351
#     4  11  22  39  60  88 123 162 202 246 299 357
#     4  11  23  39  60  89 122 158 200 248 297 352
#
# _framework density 18.093074999999999
#
# number of rings (size 3 to 8) (size 9 to 14) (size 15 to 20)
#    0.000    1.333    3.333    3.000    0.000    1.333 
#    0.000    3.333    0.000    0.000    0.000    0.000 
#    0.000    0.000    0.000    0.000    0.000    0.000 
#
# Total GULP energy -134167.401599 kJ/mol
# GULP energy per Si atom -5590.308400 kJ/mol
# Density = 1.805189 g / cm^3
# Si number density = 18.093075 Si / 1000 Ang^3
#
#
#
# Elastic Constant Matrix: (Units=GPa)
#
#
# Indices 1 2 3 4 5 6 
#
# 1 222.6119 49.4448 51.1984 0.0083 -11.2224 -0.0079
# 2 49.4448 62.4415 48.5883 0.0002 1.7915 -0.0011
# 3 51.1984 48.5883 215.8035 -0.0081 22.0048 0.0071
# 4 0.0083 0.0002 -0.0081 21.5783 -0.0036 0.6678
# 5 -11.2224 1.7915 22.0048 -0.0036 45.4961 0.0036
# 6 -0.0079 -0.0011 0.0071 0.6678 0.0036 22.0733
#
#
#
# Elastic Compliance Matrix: (Units=1/GPa)
#
#
# Indices 1 2 3 4 5 6 
#
# 1 0.005620 -0.004025 -0.000615 -0.000002 0.001842 0.000002
# 2 -0.004025 0.022387 -0.004096 0.000000 0.000107 0.000001
# 3 -0.000615 -0.004096 0.005997 0.000002 -0.002891 -0.000002
# 4 -0.000002 0.000000 0.000002 0.046386 0.000002 -0.001403
# 5 0.001842 0.000107 -0.002891 0.000002 0.023828 -0.000002
# 6 0.000002 0.000001 -0.000002 -0.001403 -0.000002 0.045346
#
#
# Mechanical properties :
#
#
# Convention : Reuss Voigt Hill
#
# Bulk Modulus (GPa) = 60.49143 88.81332 74.65237
# Shear Modulus (GPa) = 28.97751 41.27123 35.12437
#
# Velocity S-wave (km/s) = 4.00632 4.78122 4.41082
# Velocity P-wave (km/s) = 7.40991 8.92600 8.20306
#
# Compressibility (1/GPa) = 0.01653127
#
# Stress axis : x y z
#
# Youngs Moduli (GPa) = 177.92256 44.66960 166.75406
#
# Poissons Ratio (x) = 0.17979 0.10257
# Poissons Ratio (y) = 0.71610 0.68309
# Poissons Ratio (z) = 0.10944 0.18298
#
# Static dielectric constant tensor:
#      x y z
#    x 1.592270 0.000000 -0.001680 
#    y 0.000000 1.603260 0.000000 
#    z -0.001680 0.000000 1.593520 
# 
# From -- ./inp_files/327191.got.cif
#   From: 2010.05.17/outbox.cif.g08.bks.cpg/sg12_164_cif.got.tgz:327191.got - 2010.06.03 13:09:07.
