data_PCOD9220683
_publ_section_title
;
Structure prediction by ZEFSAII (Michael W. Deem and Ramdas Pophale) SiO2 
 PCOD9220683
Probable space group: C 2/M
;
_chemical_formula_sum "Si O2"
_cell_formula_units_Z 44
_cell_length_a 12.321244
_cell_length_b 28.787106
_cell_length_c 17.733246
_cell_angle_alpha 90.000000
_cell_angle_beta 158.815086
_cell_angle_gamma 90.000000
_cell_volume 2273.022880
_symmetry_space_group_name_H-M "C 2/M"
_symmetry_group_IT_number 12
_symmetry_cell_setting 'monoclinic'
loop_
_space_group_symop_operation_xyz
x,y,z
-x,y,-z
-x,-y,-z
x,-y,z
1/2+x,1/2+y,z
1/2-x,1/2+y,-z
1/2-x,1/2-y,-z
1/2+x,1/2-y,z
loop_
_atom_site_type_symbol
_atom_site_label
_atom_site_fract_x
_atom_site_fract_y
_atom_site_fract_z
Si Si1 0.311435 0.667390 0.730921
Si Si2 0.571331 0.379447 0.689822
Si Si3 0.000000 0.213963 0.000000
Si Si4 0.791167 0.449292 0.634211
Si Si5 0.833566 0.398211 0.011362
Si Si6 0.971871 0.222044 0.697039
O O1 0.344558 0.711731 0.697143
O O2 0.000000 0.644762 0.500000
O O3 0.320616 0.683098 0.823197
O O4 0.603489 0.636223 0.903450
O O5 0.288189 0.405716 0.470458
O O6 0.519150 0.328317 0.688992
O O7 0.846608 0.376353 0.808566
O O8 0.680353 0.410041 0.832153
O O9 0.227332 0.247892 0.103951
O O10 0.500000 0.451859 0.500000
O O11 0.821519 0.500000 0.616941
O O12 0.071260 0.438136 0.869456
O O13 0.750000 0.250000 0.500000
#
# Coordination Sequence:
#
# PCOD9220683 Si02
#       6
#     8   8   4   8   8   8
#     4  11  23  39  55  82 110 154 195 234 280 335
#     4   9  19  36  54  82 114 150 180 230 285 334
#     4  12  24  40  56  78 114 156 192 244 276 322
#     4   9  18  33  56  87 113 144 186 228 289 350
#     4   9  19  35  57  79 114 145 185 230 284 335
#     4  11  22  38  56  81 114 150 198 231 278 336
#
# _framework density 19.357482000000001
#
# number of rings (size 3 to 8) (size 9 to 14) (size 15 to 20)
#    0.000    2.000    1.818    2.727    2.545    0.727 
#    6.545    3.636    0.000    0.545    0.000    8.273 
#    0.000    0.000    0.000    0.000    0.000    0.000 
#
# Total GULP energy -122593.595814 kJ/mol
# GULP energy per Si atom -5572.436173 kJ/mol
# Density = 1.931342 g / cm^3
# Si number density = 19.357482 Si / 1000 Ang^3
#
#
#
# Elastic Constant Matrix: (Units=GPa)
#
#
# Indices 1 2 3 4 5 6 
#
# 1 57.0202 18.6399 17.1607 -0.0092 -7.0129 0.0060
# 2 18.6399 64.5174 35.0766 -0.0100 -11.5237 0.0041
# 3 17.1607 35.0766 85.2955 -0.0423 -13.8863 0.0429
# 4 -0.0092 -0.0100 -0.0423 12.1661 -0.0107 -7.1746
# 5 -7.0129 -11.5237 -13.8863 -0.0107 29.4868 0.0089
# 6 0.0060 0.0041 0.0429 -7.1746 0.0089 3.9342
#
#
#
# Elastic Compliance Matrix: (Units=1/GPa)
#
#
# Indices 1 2 3 4 5 6 
#
# 1 0.019771 -0.004323 -0.001851 -0.000008 0.002141 -0.000025
# 2 -0.004323 0.021415 -0.007302 -0.000329 0.003903 -0.000546
# 3 -0.001851 -0.007302 0.015772 0.000660 0.004134 0.001032
# 4 -0.000008 -0.000329 0.000660 -1.089407 0.000385 -1.986716
# 5 0.002141 0.003903 0.004134 0.000385 0.037894 0.000564
# 6 -0.000025 -0.000546 0.001032 -1.986716 0.000564 -3.368926
#
#
# Mechanical properties :
#
#
# Convention : Reuss Voigt Hill
#
# Bulk Modulus (GPa) = 33.32634 38.73195 36.02914
# Shear Modulus (GPa) = -1.15566 18.18115 8.51275
#
# Velocity S-wave (km/s) = -0.77350 3.06801 2.09933
# Velocity P-wave (km/s) = 4.05659 5.70986 4.95269
#
# Compressibility (1/GPa) = 0.03000630
#
# Stress axis : x y z
#
# Youngs Moduli (GPa) = 50.57804 46.69528 63.40411
#
# Poissons Ratio (x) = 0.20188 0.11739
# Poissons Ratio (y) = 0.21866 0.46295
# Poissons Ratio (z) = 0.09364 0.34095
#
# Static dielectric constant tensor:
#      x y z
#    x 1.700350 -0.000010 0.007320 
#    y -0.000010 1.667300 -0.000010 
#    z 0.007320 -0.000010 1.729380 
# 
# From -- ./inp_files/266344.got.cif
#   From: 2010.05.17/outbox.cif.g08.bks.cpg/sg12_134_cif.got.tgz:266344.got - 2010.06.03 13:09:07.
