data_PCOD9220318
_publ_section_title
;
Structure prediction by ZEFSAII (Michael W. Deem and Ramdas Pophale) SiO2 
 PCOD9220318
Probable space group: C 2/M
;
_chemical_formula_sum "Si O2"
_cell_formula_units_Z 50
_cell_length_a 16.664894
_cell_length_b 22.160149
_cell_length_c 8.322250
_cell_angle_alpha 90.000000
_cell_angle_beta 125.136025
_cell_angle_gamma 90.000000
_cell_volume 2513.371771
_symmetry_space_group_name_H-M "C 2/M"
_symmetry_group_IT_number 12
_symmetry_cell_setting 'monoclinic'
loop_
_space_group_symop_operation_xyz
x,y,z
-x,y,-z
-x,-y,-z
x,-y,z
1/2+x,1/2+y,z
1/2-x,1/2+y,-z
1/2-x,1/2-y,-z
1/2+x,1/2-y,z
loop_
_atom_site_type_symbol
_atom_site_label
_atom_site_fract_x
_atom_site_fract_y
_atom_site_fract_z
Si Si1 0.398837 0.598646 0.653194
Si Si2 0.692950 0.699050 0.243906
Si Si3 0.753021 0.067913 0.208210
Si Si4 0.892859 0.850752 0.180917
Si Si5 0.500000 0.500000 0.000000
Si Si6 0.611188 0.176947 0.068356
Si Si7 0.892722 0.720022 0.307527
O O1 0.339380 0.656285 0.650254
O O2 0.330015 0.567859 0.442988
O O3 0.498883 0.622618 0.688627
O O4 0.434220 0.552895 0.831986
O O5 0.664195 0.769112 0.227358
O O6 0.805396 0.695162 0.317137
O O7 0.627989 0.674645 0.019879
O O8 0.814289 0.098287 0.134027
O O9 0.665626 0.113500 0.148781
O O10 0.721380 0.000000 0.135185
O O11 0.879866 0.792577 0.279665
O O12 0.500000 0.174505 0.000000
O O13 0.616631 0.195033 0.885218
O O14 0.000000 0.706769 0.500000
#
# Coordination Sequence:
#
# PCOD9220318 Si02
#       7
#     8   8   8   8   2   8   8
#     4  12  25  40  66  95 130 173 207 259 319 391
#     4  11  21  42  67  94 130 166 208 265 326 380
#     4  12  26  41  63  93 128 174 216 260 320 378
#     4  11  21  42  62  96 131 161 207 260 326 382
#     4  12  24  44  58 100 136 164 208 256 312 382
#     4  11  24  43  65  94 128 167 216 268 317 374
#     4  11  22  40  66  99 126 160 208 272 325 380
#
# _framework density 19.893594
#
# number of rings (size 3 to 8) (size 9 to 14) (size 15 to 20)
#    0.000    0.640    5.600    4.320    3.360    1.600 
#    0.000    0.000    0.000    0.480    0.000    0.000 
#    0.000    0.000    0.000    0.000    0.000    0.000 
#
# Total GULP energy -139592.108146 kJ/mol
# GULP energy per Si atom -5583.684326 kJ/mol
# Density = 1.984831 g / cm^3
# Si number density = 19.893594 Si / 1000 Ang^3
#
#
#
# Elastic Constant Matrix: (Units=GPa)
#
#
# Indices 1 2 3 4 5 6 
#
# 1 127.3652 52.2895 -14.1998 0.0000 16.7260 0.0000
# 2 52.2895 149.2465 16.4185 0.0000 7.5850 0.0000
# 3 -14.1998 16.4185 32.8577 0.0000 11.2513 0.0000
# 4 0.0000 0.0000 0.0000-1470.5045 0.0000-1540.3139
# 5 16.7260 7.5850 11.2513 0.0000 26.2162 0.0000
# 6 0.0000 0.0000 0.0000-1540.3139 0.0000-1585.5714
#
#
#
# Elastic Compliance Matrix: (Units=1/GPa)
#
#
# Indices 1 2 3 4 5 6 
#
# 1 0.012999 -0.005305 0.012406 0.000000 -0.012083 0.000000
# 2 -0.005305 0.009264 -0.008397 0.000000 0.004308 0.000000
# 3 0.012406 -0.008397 0.049083 0.000000 -0.026551 0.000000
# 4 0.000000 0.000000 0.000000 0.038694 0.000000 -0.037590
# 5 -0.012083 0.004308 -0.026551 0.000000 0.056002 0.000000
# 6 0.000000 0.000000 0.000000 -0.037590 0.000000 0.035886
#
#
# Mechanical properties :
#
#
# Convention : Reuss Voigt Hill
#
# Bulk Modulus (GPa) = 14.54437 46.49843 30.52140
# Shear Modulus (GPa) = 21.98395 -588.97455 -283.49530
#
# Velocity S-wave (km/s) = 3.32788 -17.22513 -11.95053
# Velocity P-wave (km/s) = 4.70035 19.29203 13.23044
#
# Compressibility (1/GPa) = 0.06875511
#
# Stress axis : x y z
#
# Youngs Moduli (GPa) = 76.92639 107.94708 20.37355
#
# Poissons Ratio (x) = 0.57268 -0.25276
# Poissons Ratio (y) = 0.40811 0.17107
# Poissons Ratio (z) = -0.95437 0.90642
#
# Static dielectric constant tensor:
#      x y z
#    x 1.679090 0.000000 -0.024600 
#    y 0.000000 1.695420 0.000000 
#    z -0.024600 0.000000 1.735580 
# 
# From -- ./inp_files/76074.got.cif
#   From: 2010.05.17/outbox.cif.g08.bks.cpg/sg12_39_cif.got.tgz:76074.got - 2010.06.03 13:09:07.
