data_PCOD9220243
_publ_section_title
;
Structure prediction by ZEFSAII (Michael W. Deem and Ramdas Pophale) SiO2 
 PCOD9220243
Probable space group: C 2/M
;
_chemical_formula_sum "Si O2"
_cell_formula_units_Z 56
_cell_length_a 11.886683
_cell_length_b 15.183488
_cell_length_c 13.334507
_cell_angle_alpha 90.000000
_cell_angle_beta 90.000126
_cell_angle_gamma 90.000000
_cell_volume 2406.629274
_symmetry_space_group_name_H-M "C 2/M"
_symmetry_group_IT_number 12
_symmetry_cell_setting 'monoclinic'
loop_
_space_group_symop_operation_xyz
x,y,z
-x,y,-z
-x,-y,-z
x,-y,z
1/2+x,1/2+y,z
1/2-x,1/2+y,-z
1/2-x,1/2-y,-z
1/2+x,1/2-y,z
loop_
_atom_site_type_symbol
_atom_site_label
_atom_site_fract_x
_atom_site_fract_y
_atom_site_fract_z
Si Si1 0.022616 0.097362 0.771594
Si Si2 0.151289 0.750000 0.250000
Si Si3 0.022614 0.597362 0.728404
Si Si4 0.806403 0.661441 0.420854
Si Si5 0.887981 0.851936 0.443819
Si Si6 0.112018 0.648064 0.943817
Si Si7 0.806401 0.838559 0.079146
O O1 0.093069 0.124312 0.671814
O O2 0.107701 0.099601 0.863988
O O3 0.929096 0.171681 0.787506
O O4 0.974520 0.000000 0.756684
O O5 0.225325 0.793748 0.336926
O O6 0.225322 0.706253 0.163073
O O7 0.070907 0.671681 0.287509
O O8 0.974517 0.500000 0.743313
O O9 0.107698 0.599601 0.636010
O O10 0.093067 0.624311 0.828185
O O11 0.875410 0.746499 0.458540
O O12 0.726995 0.616905 0.503718
O O13 0.000000 0.883213 0.500000
O O14 0.124589 0.753502 0.958538
O O15 0.226994 0.616905 0.996281
O O16 0.000000 0.616787 0.000000
#
# Coordination Sequence:
#
# PCOD9220243 Si02
#       7
#     8   8   8   8   8   8   8
#     4  12  25  41  66  99 132 169 215 269 325 382
#     4  12  20  46  64  92 132 170 214 260 322 386
#     4  12  25  41  66  99 132 169 215 269 325 382
#     4  11  22  41  70  92 130 178 214 261 327 389
#     4  11  21  40  68  97 126 170 221 267 323 380
#     4  11  21  40  68  97 126 170 221 267 323 380
#     4  11  22  41  70  92 130 178 214 261 327 389
#
# _framework density 23.26906
#
# number of rings (size 3 to 8) (size 9 to 14) (size 15 to 20)
#    0.000    0.571    8.571    0.000    0.000    2.857 
#    0.000    0.000    0.000    7.714    0.000    0.000 
#    0.000    0.000    0.000    0.000    0.000    0.000 
#
# Total GULP energy -156653.471132 kJ/mol
# GULP energy per Si atom -5594.766826 kJ/mol
# Density = 2.321610 g / cm^3
# Si number density = 23.269060 Si / 1000 Ang^3
#
#
#
# Elastic Constant Matrix: (Units=GPa)
#
#
# Indices 1 2 3 4 5 6 
#
# 1 78.3619 23.4973 -1.3244 0.0000 -0.0025 0.0000
# 2 23.4973 104.7508 -20.0429 0.0000 -0.0005 0.0000
# 3 -1.3244 -20.0429 25.6636 0.0000 -0.0013 0.0000
# 4 0.0000 0.0000 0.0000 3.8172 0.0000 0.0006
# 5 -0.0025 -0.0005 -0.0013 0.0000 19.9377 0.0000
# 6 0.0000 0.0000 0.0000 0.0006 0.0000 -9.3466
#
#
#
# Elastic Compliance Matrix: (Units=1/GPa)
#
#
# Indices 1 2 3 4 5 6 
#
# 1 0.013768 -0.003471 -0.002000 0.000000 0.000002 0.000000
# 2 -0.003471 0.012099 0.009270 0.000000 0.000000 0.000000
# 3 -0.002000 0.009270 0.046102 0.000000 0.000003 0.000000
# 4 0.000000 0.000000 0.000000 0.261969 0.000000 0.000018
# 5 0.000002 0.000000 0.000003 0.000000 0.050156 0.000000
# 6 0.000000 0.000000 0.000000 0.000018 0.000000 -0.106991
#
#
# Mechanical properties :
#
#
# Convention : Reuss Voigt Hill
#
# Bulk Modulus (GPa) = 12.56820 23.67068 18.11944
# Shear Modulus (GPa) = 16.89025 16.65810 16.77417
#
# Velocity S-wave (km/s) = 2.69712 2.67852 2.68783
# Velocity P-wave (km/s) = 3.88744 4.44529 4.17569
#
# Compressibility (1/GPa) = 0.07956586
#
# Stress axis : x y z
#
# Youngs Moduli (GPa) = 72.63029 82.65266 21.69093
#
# Poissons Ratio (x) = 0.28691 0.04339
# Poissons Ratio (y) = 0.25212 -0.20107
# Poissons Ratio (z) = 0.14529 -0.76618
#
# Static dielectric constant tensor:
#      x y z
#    x 1.882180 0.000000 0.000000 
#    y 0.000000 1.879460 0.000000 
#    z 0.000000 0.000000 1.916290 
# 
# From -- ./inp_files/205038.got.cif
#   From: 2010.05.17/outbox.cif.g08.bks.cpg/sg12_103_cif.got.tgz:205038.got - 2010.06.03 13:09:07.
