data_PCOD9220296
_publ_section_title
;
Structure prediction by ZEFSAII (Michael W. Deem and Ramdas Pophale) SiO2 
 PCOD9220296
Probable space group: C 2/M
;
_chemical_formula_sum "Si O2"
_cell_formula_units_Z 44
_cell_length_a 13.970647
_cell_length_b 24.343203
_cell_length_c 16.801941
_cell_angle_alpha 90.000000
_cell_angle_beta 158.035963
_cell_angle_gamma 90.000000
_cell_volume 2137.242523
_symmetry_space_group_name_H-M "C 2/M"
_symmetry_group_IT_number 12
_symmetry_cell_setting 'monoclinic'
loop_
_space_group_symop_operation_xyz
x,y,z
-x,y,-z
-x,-y,-z
x,-y,z
1/2+x,1/2+y,z
1/2-x,1/2+y,-z
1/2-x,1/2-y,-z
1/2+x,1/2-y,z
loop_
_atom_site_type_symbol
_atom_site_label
_atom_site_fract_x
_atom_site_fract_y
_atom_site_fract_z
Si Si1 0.795138 0.860839 0.547644
Si Si2 0.500000 0.826974 0.000000
Si Si3 0.123907 0.243133 0.817085
Si Si4 0.257898 0.865677 0.147557
Si Si5 0.729355 0.900241 0.317029
Si Si6 0.812654 0.062187 0.063107
O O1 0.539819 0.884623 0.395125
O O2 0.759833 0.867792 0.424766
O O3 0.881315 0.798421 0.636603
O O4 0.026437 0.900831 0.751761
O O5 0.300299 0.789822 0.892393
O O6 0.353113 0.861190 0.819329
O O7 0.141038 0.305603 0.800589
O O8 0.250000 0.250000 0.000000
O O9 0.183565 0.904645 0.016828
O O10 0.000000 0.860948 0.000000
O O11 0.000000 0.925559 0.500000
O O12 0.484628 0.938396 0.140769
O O13 0.908219 0.000000 0.130720
#
# Coordination Sequence:
#
# PCOD9220296 Si02
#       6
#     8   4   8   8   8   8
#     4  11  23  43  69  97 136 182 219 276 347 401
#     4  12  22  40  67 106 143 174 214 278 338 416
#     4  12  21  42  69 100 143 177 215 272 340 411
#     4  11  25  43  67 103 132 175 231 283 341 409
#     4  11  21  41  69 102 136 173 222 272 343 411
#     4  11  25  46  67  94 136 179 232 292 336 397
#
# _framework density 20.587275999999999
#
# number of rings (size 3 to 8) (size 9 to 14) (size 15 to 20)
#    0.000    0.727    6.364    1.636    0.000    4.364 
#    0.000    5.909    0.000    0.000    0.000    0.000 
#    0.000    0.000    0.000    0.000    0.000    0.000 
#
# Total GULP energy -122601.100755 kJ/mol
# GULP energy per Si atom -5572.777307 kJ/mol
# Density = 2.054042 g / cm^3
# Si number density = 20.587276 Si / 1000 Ang^3
#
#
#
# Elastic Constant Matrix: (Units=GPa)
#
#
# Indices 1 2 3 4 5 6 
#
# 1 77.0915 31.9869 34.2493 -0.0009 13.5561 0.0014
# 2 31.9869 127.4774 35.8639 -0.0011 -19.6204 0.0012
# 3 34.2493 35.8639 96.5310 0.0003 7.3572 -0.0003
# 4 -0.0009 -0.0011 0.0003 4.9760 0.0011 13.8443
# 5 13.5561 -19.6204 7.3572 0.0011 46.6564 -0.0014
# 6 0.0014 0.0012 -0.0003 13.8443 -0.0014 -1.7741
#
#
#
# Elastic Compliance Matrix: (Units=1/GPa)
#
#
# Indices 1 2 3 4 5 6 
#
# 1 0.017700 -0.004210 -0.004240 -0.000002 -0.006244 0.000002
# 2 -0.004210 0.010681 -0.002946 0.000000 0.006179 0.000000
# 3 -0.004240 -0.002946 0.013116 0.000001 -0.002075 -0.000001
# 4 -0.000002 0.000000 0.000001 0.008849 0.000002 0.069051
# 5 -0.006244 0.006179 -0.002075 0.000002 0.026173 -0.000003
# 6 0.000002 0.000000 -0.000001 0.069051 -0.000003 -0.024819
#
#
# Mechanical properties :
#
#
# Convention : Reuss Voigt Hill
#
# Bulk Modulus (GPa) = 53.45737 56.14446 54.80091
# Shear Modulus (GPa) = 61.93781 23.23829 42.58805
#
# Velocity S-wave (km/s) = 5.49097 3.36336 4.55319
# Velocity P-wave (km/s) = 8.13779 6.51257 7.37012
#
# Compressibility (1/GPa) = 0.01870650
#
# Stress axis : x y z
#
# Youngs Moduli (GPa) = 56.49718 93.62857 76.24137
#
# Poissons Ratio (x) = 0.39413 0.32327
# Poissons Ratio (y) = 0.23783 0.22457
# Poissons Ratio (z) = 0.23955 0.27578
#
# Static dielectric constant tensor:
#      x y z
#    x 1.714100 0.000000 0.058220 
#    y 0.000000 1.739270 -0.000010 
#    z 0.058220 -0.000010 1.865600 
# 
# From -- ./inp_files/272896.got.cif
#   From: 2010.05.17/outbox.cif.g08.bks.cpg/sg12_137_cif.got.tgz:272896.got - 2010.06.03 13:09:07.
