data_PCOD9220448
_publ_section_title
;
Structure prediction by ZEFSAII (Michael W. Deem and Ramdas Pophale) SiO2 
 PCOD9220448
Probable space group: C 2/M
;
_chemical_formula_sum "Si O2"
_cell_formula_units_Z 56
_cell_length_a 17.069561
_cell_length_b 14.445600
_cell_length_c 16.046052
_cell_angle_alpha 90.000000
_cell_angle_beta 47.374983
_cell_angle_gamma 90.000000
_cell_volume 2911.298827
_symmetry_space_group_name_H-M "C 2/M"
_symmetry_group_IT_number 12
_symmetry_cell_setting 'monoclinic'
loop_
_space_group_symop_operation_xyz
x,y,z
-x,y,-z
-x,-y,-z
x,-y,z
1/2+x,1/2+y,z
1/2-x,1/2+y,-z
1/2-x,1/2-y,-z
1/2+x,1/2-y,z
loop_
_atom_site_type_symbol
_atom_site_label
_atom_site_fract_x
_atom_site_fract_y
_atom_site_fract_z
Si Si1 0.804104 0.721222 0.702859
Si Si2 0.672078 0.109671 0.841332
Si Si3 0.299243 0.166103 0.516681
Si Si4 0.984824 0.700717 0.705373
Si Si5 0.089494 0.108373 0.873403
Si Si6 0.931664 0.100895 0.305037
Si Si7 0.951986 0.610550 0.902401
O O1 0.769357 0.827317 0.742374
O O2 0.826618 0.699267 0.590244
O O3 0.899522 0.692946 0.693903
O O4 0.698202 0.663876 0.801980
O O5 0.569433 0.128869 0.856454
O O6 0.693490 0.000000 0.821706
O O7 0.632946 0.131938 0.963558
O O8 0.250000 0.250000 0.500000
O O9 0.409133 0.141290 0.392390
O O10 0.197242 0.099882 0.594420
O O11 0.020737 0.808566 0.685613
O O12 0.940268 0.666989 0.826058
O O13 0.049135 0.113706 0.807544
O O14 0.108516 0.000000 0.878540
O O15 0.000000 0.144831 0.000000
O O16 0.973179 0.000000 0.301892
O O17 0.945378 0.500000 0.891600
#
# Coordination Sequence:
#
# PCOD9220448 Si02
#       7
#     8   8   8   8   8   8   8
#     4  11  22  34  58  84 116 147 179 233 293 336
#     4   9  19  36  57  80 109 148 196 234 271 329
#     4   9  19  38  58  78 105 148 194 232 264 330
#     4  11  22  35  55  85 120 144 182 229 295 336
#     4   9  19  36  56  78 104 144 192 230 265 325
#     4   9  19  36  57  80 108 146 189 225 266 330
#     4   9  19  36  57  80 108 148 194 236 273 328
#
# _framework density 19.235402000000001
#
# number of rings (size 3 to 8) (size 9 to 14) (size 15 to 20)
#    0.000    2.429    0.000    3.857    4.000    2.286 
#    0.000    4.286    0.000    8.571    0.000    0.000 
#    0.000    0.000    0.000    0.000    0.000    0.000 
#
# Total GULP energy -156207.511852 kJ/mol
# GULP energy per Si atom -5578.839709 kJ/mol
# Density = 1.919162 g / cm^3
# Si number density = 19.235402 Si / 1000 Ang^3
#
#
#
# Elastic Constant Matrix: (Units=GPa)
#
#
# Indices 1 2 3 4 5 6 
#
# 1 80.7037 16.3892 4.9708 0.0000 16.7624 0.0000
# 2 16.3892 45.0753 10.7188 0.0000 12.4595 0.0000
# 3 4.9708 10.7188 32.3019 0.0000 9.1722 0.0000
# 4 0.0000 0.0000 0.0000 -62.5329 0.0000 -4.6072
# 5 16.7624 12.4595 9.1722 0.0000 17.5818 0.0000
# 6 0.0000 0.0000 0.0000 -4.6072 0.0000 14.0716
#
#
#
# Elastic Compliance Matrix: (Units=1/GPa)
#
#
# Indices 1 2 3 4 5 6 
#
# 1 0.015754 -0.002252 0.002506 0.000000 -0.014731 0.000000
# 2 -0.002252 0.028413 -0.004665 0.000000 -0.015554 0.000000
# 3 0.002506 -0.004665 0.037400 0.000000 -0.018594 0.000000
# 4 0.000000 0.000000 0.000000 -0.015615 0.000000 -0.005113
# 5 -0.014731 -0.015554 -0.018594 0.000000 0.091644 0.000000
# 6 0.000000 0.000000 0.000000 -0.005113 0.000000 0.069391
#
#
# Mechanical properties :
#
#
# Convention : Reuss Voigt Hill
#
# Bulk Modulus (GPa) = 13.74687 24.69318 19.22003
# Shear Modulus (GPa) = 19.22653 2.22425 10.72539
#
# Velocity S-wave (km/s) = 3.16498 1.07649 2.36389
# Velocity P-wave (km/s) = 4.52971 3.79610 4.17903
#
# Compressibility (1/GPa) = 0.07274384
#
# Stress axis : x y z
#
# Youngs Moduli (GPa) = 63.47749 35.19556 26.73787
#
# Poissons Ratio (x) = 0.07926 -0.06700
# Poissons Ratio (y) = 0.14295 0.12473
# Poissons Ratio (z) = -0.15906 0.16419
#
# Static dielectric constant tensor:
#      x y z
#    x 1.630130 0.000000 -0.003330 
#    y 0.000000 1.667870 0.000000 
#    z -0.003330 0.000000 1.670950 
# 
# From -- ./inp_files/277822.got.cif
#   From: 2010.05.17/outbox.cif.g08.bks.cpg/sg12_139_cif.got.tgz:277822.got - 2010.06.03 13:09:07.
