data_PCOD9220756
_publ_section_title
;
Structure prediction by ZEFSAII (Michael W. Deem and Ramdas Pophale) SiO2 
 PCOD9220756
Probable space group: C 2/M
;
_chemical_formula_sum "Si O2"
_cell_formula_units_Z 48
_cell_length_a 25.489079
_cell_length_b 8.683060
_cell_length_c 12.475148
_cell_angle_alpha 90.000000
_cell_angle_beta 70.797974
_cell_angle_gamma 90.000000
_cell_volume 2607.428545
_symmetry_space_group_name_H-M "C 2/M"
_symmetry_group_IT_number 12
_symmetry_cell_setting 'monoclinic'
loop_
_space_group_symop_operation_xyz
x,y,z
-x,y,-z
-x,-y,-z
x,-y,z
1/2+x,1/2+y,z
1/2-x,1/2+y,-z
1/2-x,1/2-y,-z
1/2+x,1/2-y,z
loop_
_atom_site_type_symbol
_atom_site_label
_atom_site_fract_x
_atom_site_fract_y
_atom_site_fract_z
Si Si1 0.869953 0.315958 0.215361
Si Si2 0.443003 0.183579 0.740523
Si Si3 0.941570 0.815884 0.980136
Si Si4 0.937874 0.816281 0.369688
Si Si5 0.640692 0.683453 0.372295
Si Si6 0.745401 0.683764 0.623444
O O1 0.870160 0.500000 0.210520
O O2 0.910322 0.259612 0.283864
O O3 0.809009 0.254145 0.284862
O O4 0.893445 0.245587 0.089936
O O5 0.440399 0.236719 0.865520
O O6 0.500934 0.248891 0.655219
O O7 0.392469 0.254506 0.707435
O O8 0.442507 0.000000 0.733311
O O9 0.937698 0.000000 0.969843
O O10 0.000000 0.781701 0.000000
O O11 0.898203 0.787705 0.497659
O O12 0.941857 0.000000 0.350112
O O13 0.649319 0.500000 0.358792
O O14 0.699021 0.766738 0.352169
O O15 0.740241 0.500000 0.621377
O O16 0.750000 0.750000 0.500000
#
# Coordination Sequence:
#
# PCOD9220756 Si02
#       6
#     8   8   8   8   8   8
#     4  12  24  39  64  96 128 161 208 261 313 368
#     4  12  25  40  62  93 130 167 210 259 316 376
#     4  11  23  41  66  91 124 166 211 257 312 372
#     4  11  22  38  62  92 128 167 208 257 314 372
#     4  11  24  42  64  91 128 169 212 258 314 375
#     4  12  24  41  65  93 127 166 211 258 310 368
#
# _framework density 18.408943000000001
#
# number of rings (size 3 to 8) (size 9 to 14) (size 15 to 20)
#    0.000    0.500    3.333    6.500    0.000    4.667 
#    0.000    0.833    0.000    0.000    0.000    0.000 
#    0.000    0.000    0.000    0.000    0.000    0.000 
#
# Total GULP energy -134362.917628 kJ/mol
# GULP energy per Si atom -5598.454901 kJ/mol
# Density = 1.836704 g / cm^3
# Si number density = 18.408943 Si / 1000 Ang^3
#
#
#
# Elastic Constant Matrix: (Units=GPa)
#
#
# Indices 1 2 3 4 5 6 
#
# 1 97.3423 2.3940 9.4866 0.0000 -5.7918 0.0000
# 2 2.3940 59.3786 12.9765 0.0000 -4.8014 0.0000
# 3 9.4866 12.9765 47.7328 0.0000 -16.5413 0.0000
# 4 0.0000 0.0000 0.0000 28.8086 0.0000 -2.5372
# 5 -5.7918 -4.8014 -16.5413 0.0000 34.1691 0.0000
# 6 0.0000 0.0000 0.0000 -2.5372 0.0000 35.1362
#
#
#
# Elastic Compliance Matrix: (Units=1/GPa)
#
#
# Indices 1 2 3 4 5 6 
#
# 1 0.010500 0.000040 -0.001777 0.000000 0.000925 0.000000
# 2 0.000040 0.017906 -0.004808 0.000000 0.000195 0.000000
# 3 -0.001777 -0.004808 0.026761 0.000000 0.011978 0.000000
# 4 0.000000 0.000000 0.000000 0.034934 0.000000 0.002523
# 5 0.000925 0.000195 0.011978 0.000000 0.035249 0.000000
# 6 0.000000 0.000000 0.000000 0.002523 0.000000 0.028643
#
#
# Mechanical properties :
#
#
# Convention : Reuss Voigt Hill
#
# Bulk Modulus (GPa) = 23.76613 28.24090 26.00351
# Shear Modulus (GPa) = 27.60752 31.59587 29.60170
#
# Velocity S-wave (km/s) = 3.87677 4.14736 4.01435
# Velocity P-wave (km/s) = 5.74258 6.18937 5.97016
#
# Compressibility (1/GPa) = 0.04207669
#
# Stress axis : x y z
#
# Youngs Moduli (GPa) = 95.23551 55.84708 37.36750
#
# Poissons Ratio (x) = -0.00222 0.06641
# Poissons Ratio (y) = -0.00379 0.17967
# Poissons Ratio (z) = 0.16924 0.26852
#
# Static dielectric constant tensor:
#      x y z
#    x 1.611140 0.000000 -0.002860 
#    y 0.000000 1.609460 0.000000 
#    z -0.002860 0.000000 1.611870 
# 
# From -- ./inp_files/172852.got.cif
#   From: 2010.05.17/outbox.cif.g08.bks.cpg/sg12_87_cif.got.tgz:172852.got - 2010.06.03 13:09:07.
