data_PCOD9220450
_publ_section_title
;
Structure prediction by ZEFSAII (Michael W. Deem and Ramdas Pophale) SiO2 
 PCOD9220450
Probable space group: C 2/M
;
_chemical_formula_sum "Si O2"
_cell_formula_units_Z 56
_cell_length_a 19.346037
_cell_length_b 15.588834
_cell_length_c 9.357294
_cell_angle_alpha 90.000000
_cell_angle_beta 101.435273
_cell_angle_gamma 90.000000
_cell_volume 2765.974409
_symmetry_space_group_name_H-M "C 2/M"
_symmetry_group_IT_number 12
_symmetry_cell_setting 'monoclinic'
loop_
_space_group_symop_operation_xyz
x,y,z
-x,y,-z
-x,-y,-z
x,-y,z
1/2+x,1/2+y,z
1/2-x,1/2+y,-z
1/2-x,1/2-y,-z
1/2+x,1/2-y,z
loop_
_atom_site_type_symbol
_atom_site_label
_atom_site_fract_x
_atom_site_fract_y
_atom_site_fract_z
Si Si1 0.196807 0.409289 0.285311
Si Si2 0.900363 0.902042 0.099225
Si Si3 0.699258 0.819882 0.556814
Si Si4 0.069173 0.903744 0.215526
Si Si5 0.551017 0.245259 0.395626
Si Si6 0.028866 0.598640 0.172093
Si Si7 0.212029 0.229514 0.837743
O O1 0.222825 0.500000 0.242060
O O2 0.209768 0.402140 0.460983
O O3 0.114128 0.402066 0.213191
O O4 0.237510 0.334860 0.225171
O O5 0.858869 0.825435 0.159732
O O6 0.984043 0.899577 0.164290
O O7 0.876906 0.000000 0.125071
O O8 0.896019 0.891722 0.925573
O O9 0.750000 0.750000 0.500000
O O10 0.617622 0.799155 0.495303
O O11 0.707119 0.811161 0.729924
O O12 0.084424 0.824381 0.322843
O O13 0.086958 0.000000 0.274290
O O14 0.500000 0.276232 0.500000
O O15 0.512298 0.176200 0.275269
O O16 0.006407 0.500000 0.201402
O O17 0.000000 0.615886 0.000000
O O18 0.250000 0.250000 0.000000
#
# Coordination Sequence:
#
# PCOD9220450 Si02
#       7
#     8   8   8   8   8   8   8
#     4   9  19  38  58  78 112 154 188 228 287 349
#     4   9  19  36  56  83 118 151 185 237 288 333
#     4   9  21  39  54  79 114 148 189 228 289 346
#     4   9  20  36  57  85 118 153 192 231 283 348
#     4  11  22  35  59  86 115 150 191 239 290 344
#     4   9  20  37  59  84 112 148 192 238 288 344
#     4  11  22  34  60  85 115 144 193 245 285 338
#
# _framework density 20.246030999999999
#
# number of rings (size 3 to 8) (size 9 to 14) (size 15 to 20)
#    0.000    2.429    0.000    2.143    8.000    1.714 
#    0.000    5.000    0.000    0.000    0.000    0.000 
#    0.000    0.000    0.000    0.000    0.000    0.000 
#
# Total GULP energy -155967.287798 kJ/mol
# GULP energy per Si atom -5570.260279 kJ/mol
# Density = 2.019995 g / cm^3
# Si number density = 20.246031 Si / 1000 Ang^3
#
#
#
# Elastic Constant Matrix: (Units=GPa)
#
#
# Indices 1 2 3 4 5 6 
#
# 1 31.2088 -2.2757 9.8964 0.0000 -4.9239 0.0000
# 2 -2.2757 61.3498 37.8718 0.0000 1.1677 0.0000
# 3 9.8964 37.8718 120.1947 0.0000 9.7448 0.0000
# 4 0.0000 0.0000 0.0000 10.6601 0.0000 -13.6372
# 5 -4.9239 1.1677 9.7448 0.0000 23.3255 0.0000
# 6 0.0000 0.0000 0.0000 -13.6372 0.0000 11.3919
#
#
#
# Elastic Compliance Matrix: (Units=1/GPa)
#
#
# Indices 1 2 3 4 5 6 
#
# 1 0.035414 0.004226 -0.005006 0.000000 0.009355 0.000000
# 2 0.004226 0.020806 -0.007133 0.000000 0.002831 0.000000
# 3 -0.005006 -0.007133 0.011423 0.000000 -0.005472 0.000000
# 4 0.000000 0.000000 0.000000 -0.176522 0.000000 -0.211315
# 5 0.009355 0.002831 -0.005472 0.000000 0.046991 0.000000
# 6 0.000000 0.000000 0.000000 -0.211315 0.000000 -0.165183
#
#
# Mechanical properties :
#
#
# Convention : Reuss Voigt Hill
#
# Bulk Modulus (GPa) = 19.29881 33.74868 26.52374
# Shear Modulus (GPa) = -25.77678 20.22623 -2.77527
#
# Velocity S-wave (km/s) = -3.57203 3.16416 -1.17207
# Velocity P-wave (km/s) = 2.73125 5.48221 3.36117
#
# Compressibility (1/GPa) = 0.05181667
#
# Stress axis : x y z
#
# Youngs Moduli (GPa) = 28.23759 48.06252 87.54109
#
# Poissons Ratio (x) = -0.20310 0.43821
# Poissons Ratio (y) = -0.11932 0.62445
# Poissons Ratio (z) = 0.14135 0.34284
#
# Static dielectric constant tensor:
#      x y z
#    x 1.716930 0.000000 0.015210 
#    y 0.000000 1.781790 0.000000 
#    z 0.015210 0.000000 1.747050 
# 
# From -- ./inp_files/86399.got.cif
#   From: 2010.05.17/outbox.cif.g08.bks.cpg/sg12_44_cif.got.tgz:86399.got - 2010.06.03 13:09:07.
