data_PCOD9220108
_publ_section_title
;
Structure prediction by ZEFSAII (Michael W. Deem and Ramdas Pophale) SiO2 
 PCOD9220108
Probable space group: C 2/M
;
_chemical_formula_sum "Si O2"
_cell_formula_units_Z 48
_cell_length_a 10.199533
_cell_length_b 16.761128
_cell_length_c 15.489804
_cell_angle_alpha 90.000000
_cell_angle_beta 120.733941
_cell_angle_gamma 90.000000
_cell_volume 2276.147687
_symmetry_space_group_name_H-M "C 2/M"
_symmetry_group_IT_number 12
_symmetry_cell_setting 'monoclinic'
loop_
_space_group_symop_operation_xyz
x,y,z
-x,y,-z
-x,-y,-z
x,-y,z
1/2+x,1/2+y,z
1/2-x,1/2+y,-z
1/2-x,1/2-y,-z
1/2+x,1/2-y,z
loop_
_atom_site_type_symbol
_atom_site_label
_atom_site_fract_x
_atom_site_fract_y
_atom_site_fract_z
Si Si1 0.286596 0.836281 0.560464
Si Si2 0.829766 0.657319 0.927344
Si Si3 0.326240 0.648611 0.950954
Si Si4 0.660965 0.671482 0.705278
Si Si5 0.642695 0.413136 0.355068
Si Si6 0.355850 0.143411 0.277207
O O1 0.250000 0.750000 0.500000
O O2 0.187758 0.847233 0.614168
O O3 0.239697 0.900358 0.473836
O O4 0.462424 0.852029 0.646328
O O5 0.827729 0.754496 0.938154
O O6 0.773989 0.634251 0.813657
O O7 0.724968 0.628267 0.969944
O O8 0.000000 0.629903 0.000000
O O9 0.205965 0.619829 0.838124
O O10 0.500000 0.620805 0.000000
O O11 0.492865 0.651062 0.683790
O O12 0.691452 0.765251 0.721609
O O13 0.569384 0.500000 0.328327
O O14 0.758674 0.403883 0.315167
#
# Coordination Sequence:
#
# PCOD9220108 Si02
#       6
#     8   8   8   8   8   8
#     4  12  23  38  62  92 123 166 216 260 305 375
#     4   9  17  30  53  88 121 152 203 262 309 360
#     4   9  17  30  53  87 124 157 196 257 316 363
#     4  11  21  38  64  91 125 167 212 260 315 374
#     4  12  27  42  62  94 132 168 208 264 318 371
#     4  11  21  38  64  92 125 168 212 257 313 377
#
# _framework density 21.088262
#
# number of rings (size 3 to 8) (size 9 to 14) (size 15 to 20)
#    0.000    1.333    3.333    3.000    0.000    8.000 
#    0.000    0.000    0.000    5.000    0.000    0.000 
#    0.000    0.000    0.000    0.000    0.000    0.000 
#
# Total GULP energy -133891.121566 kJ/mol
# GULP energy per Si atom -5578.796732 kJ/mol
# Density = 2.104026 g / cm^3
# Si number density = 21.088262 Si / 1000 Ang^3
#
#
#
# Elastic Constant Matrix: (Units=GPa)
#
#
# Indices 1 2 3 4 5 6 
#
# 1 99.3628 1.9611 29.1437 0.0000 5.7014 0.0000
# 2 1.9611 33.5399 6.0899 0.0000 -9.5034 0.0000
# 3 29.1437 6.0899 119.2269 0.0000 10.9955 0.0000
# 4 0.0000 0.0000 0.0000 -10.0698 0.0000 -4.1920
# 5 5.7014 -9.5034 10.9955 0.0000 43.0796 0.0000
# 6 0.0000 0.0000 0.0000 -4.1920 0.0000 4.4654
#
#
#
# Elastic Compliance Matrix: (Units=1/GPa)
#
#
# Indices 1 2 3 4 5 6 
#
# 1 0.010872 -0.000421 -0.002555 0.000000 -0.000880 0.000000
# 2 -0.000421 0.032462 -0.002274 0.000000 0.007797 0.000000
# 3 -0.002555 -0.002274 0.009364 0.000000 -0.002553 0.000000
# 4 0.000000 0.000000 0.000000 -0.071402 0.000000 -0.067031
# 5 -0.000880 0.007797 -0.002553 0.000000 0.025701 0.000000
# 6 0.000000 0.000000 0.000000 -0.067031 0.000000 0.161017
#
#
# Mechanical properties :
#
#
# Convention : Reuss Voigt Hill
#
# Bulk Modulus (GPa) = 23.69815 36.27989 29.98902
# Shear Modulus (GPa) = 25.96322 21.82404 23.89363
#
# Velocity S-wave (km/s) = 3.51261 3.22046 3.36970
# Velocity P-wave (km/s) = 5.26434 5.57402 5.42139
#
# Compressibility (1/GPa) = 0.04219738
#
# Stress axis : x y z
#
# Youngs Moduli (GPa) = 91.97681 30.80509 106.79691
#
# Poissons Ratio (x) = 0.01297 0.27286
# Poissons Ratio (y) = 0.03873 0.24289
# Poissons Ratio (z) = 0.23500 0.07006
#
# Static dielectric constant tensor:
#      x y z
#    x 1.678710 0.000000 0.028880 
#    y 0.000000 1.770130 0.000000 
#    z 0.028880 0.000000 1.774180 
# 
# From -- ./inp_files/197167.got.cif
#   From: 2010.05.17/outbox.cif.g08.bks.cpg/sg12_99_cif.got.tgz:197167.got - 2010.06.03 13:09:07.
