data_PCOD9220472
_publ_section_title
;
Structure prediction by ZEFSAII (Michael W. Deem and Ramdas Pophale) SiO2 
 PCOD9220472
Probable space group: C 2/M
;
_chemical_formula_sum "Si O2"
_cell_formula_units_Z 56
_cell_length_a 29.793217
_cell_length_b 8.810543
_cell_length_c 11.469346
_cell_angle_alpha 90.000000
_cell_angle_beta 105.048367
_cell_angle_gamma 90.000000
_cell_volume 2907.395456
_symmetry_space_group_name_H-M "C 2/M"
_symmetry_group_IT_number 12
_symmetry_cell_setting 'monoclinic'
loop_
_space_group_symop_operation_xyz
x,y,z
-x,y,-z
-x,-y,-z
x,-y,z
1/2+x,1/2+y,z
1/2-x,1/2+y,-z
1/2-x,1/2-y,-z
1/2+x,1/2-y,z
loop_
_atom_site_type_symbol
_atom_site_label
_atom_site_fract_x
_atom_site_fract_y
_atom_site_fract_z
Si Si1 0.386496 0.681752 0.183460
Si Si2 0.692467 0.180817 0.720847
Si Si3 0.480406 0.315167 0.363020
Si Si4 0.342706 0.319846 0.541476
Si Si5 0.798426 0.817919 0.756555
Si Si6 0.936497 0.817615 0.744757
Si Si7 0.110739 0.319850 0.066812
O O1 0.385217 0.500000 0.179552
O O2 0.338045 0.743800 0.199135
O O3 0.428051 0.730581 0.298369
O O4 0.397594 0.744230 0.063387
O O5 0.670945 0.230148 0.582450
O O6 0.746608 0.226519 0.757295
O O7 0.690478 0.000000 0.730983
O O8 0.500000 0.261168 0.500000
O O9 0.480899 0.500000 0.367041
O O10 0.515723 0.271054 0.284043
O O11 0.341346 0.500000 0.514259
O O12 0.307961 0.288682 0.625889
O O13 0.393934 0.285419 0.626827
O O14 0.838460 0.733544 0.854502
O O15 0.804355 0.000000 0.776892
O O16 0.924718 0.738694 0.858312
O O17 0.936512 0.000000 0.762656
O O18 0.108897 0.500000 0.056568
#
# Coordination Sequence:
#
# PCOD9220472 Si02
#       7
#     8   8   8   8   8   8   8
#     4  11  23  39  59  81 110 148 188 230 274 326
#     4  11  22  35  54  82 115 148 184 231 283 330
#     4   9  18  35  61  89 112 141 185 228 265 317
#     4   9  17  32  56  84 113 145 182 227 276 329
#     4   9  20  38  58  80 109 148 191 230 271 327
#     4   9  18  36  61  85 112 147 188 231 272 320
#     4  11  23  39  58  82 112 144 184 232 281 332
#
# _framework density 19.261227000000002
#
# number of rings (size 3 to 8) (size 9 to 14) (size 15 to 20)
#    0.000    2.143    0.000    4.286    0.000    6.857 
#    0.000    4.286    0.000    3.000    0.000    0.000 
#    0.000    0.000    0.000    0.000    0.000    0.000 
#
# Total GULP energy -156419.155948 kJ/mol
# GULP energy per Si atom -5586.398427 kJ/mol
# Density = 1.921739 g / cm^3
# Si number density = 19.261227 Si / 1000 Ang^3
#
#
#
# Elastic Constant Matrix: (Units=GPa)
#
#
# Indices 1 2 3 4 5 6 
#
# 1 84.1409 15.3287 -7.4307 0.0000 -12.8992 0.0000
# 2 15.3287 33.9714 15.1708 0.0000 -4.0993 0.0000
# 3 -7.4307 15.1708 53.1388 0.0000 -10.5780 0.0000
# 4 0.0000 0.0000 0.0000 25.6481 0.0000 -5.8730
# 5 -12.8992 -4.0993 -10.5780 0.0000 13.0485 0.0000
# 6 0.0000 0.0000 0.0000 -5.8730 0.0000 24.7824
#
#
#
# Elastic Compliance Matrix: (Units=1/GPa)
#
#
# Indices 1 2 3 4 5 6 
#
# 1 0.018016 -0.009780 0.009831 0.000000 0.022707 0.000000
# 2 -0.009780 0.039168 -0.014339 0.000000 -0.008986 0.000000
# 3 0.009831 -0.014339 0.030198 0.000000 0.029695 0.000000
# 4 0.000000 0.000000 0.000000 0.041226 0.000000 0.009770
# 5 0.022707 -0.008986 0.029695 0.000000 0.120334 0.000000
# 6 0.000000 0.000000 0.000000 0.009770 0.000000 0.042666
#
#
# Mechanical properties :
#
#
# Convention : Reuss Voigt Hill
#
# Bulk Modulus (GPa) = 17.00430 24.15431 20.57931
# Shear Modulus (GPa) = 14.71516 22.57463 18.64489
#
# Velocity S-wave (km/s) = 2.76701 3.42720 3.11465
# Velocity P-wave (km/s) = 4.36531 5.31305 4.86233
#
# Compressibility (1/GPa) = 0.05880864
#
# Stress axis : x y z
#
# Youngs Moduli (GPa) = 55.50675 25.53088 33.11459
#
# Poissons Ratio (x) = 0.24968 -0.32556
# Poissons Ratio (y) = 0.54283 0.47482
# Poissons Ratio (z) = -0.54571 0.36608
#
# Static dielectric constant tensor:
#      x y z
#    x 1.670890 0.000000 0.001950 
#    y 0.000000 1.645200 0.000000 
#    z 0.001950 0.000000 1.651090 
# 
# From -- ./inp_files/186855.got.cif
#   From: 2010.05.17/outbox.cif.g08.bks.cpg/sg12_94_cif.got.tgz:186855.got - 2010.06.03 13:09:07.
