data_PCOD9220086
_publ_section_title
;
Structure prediction by ZEFSAII (Michael W. Deem and Ramdas Pophale) SiO2 
 PCOD9220086
Probable space group: C 2/M
;
_chemical_formula_sum "Si O2"
_cell_formula_units_Z 48
_cell_length_a 8.551066
_cell_length_b 25.811926
_cell_length_c 12.847069
_cell_angle_alpha 90.000000
_cell_angle_beta 109.438952
_cell_angle_gamma 90.000000
_cell_volume 2673.959740
_symmetry_space_group_name_H-M "C 2/M"
_symmetry_group_IT_number 12
_symmetry_cell_setting 'monoclinic'
loop_
_space_group_symop_operation_xyz
x,y,z
-x,y,-z
-x,-y,-z
x,-y,z
1/2+x,1/2+y,z
1/2-x,1/2+y,-z
1/2-x,1/2-y,-z
1/2+x,1/2-y,z
loop_
_atom_site_type_symbol
_atom_site_label
_atom_site_fract_x
_atom_site_fract_y
_atom_site_fract_z
Si Si1 0.809750 0.059970 0.500000
Si Si2 0.691985 0.098224 0.260782
Si Si3 0.002435 0.307654 0.878434
Si Si4 0.624001 0.307654 0.121566
Si Si5 0.375031 0.500000 0.875520
Si Si6 0.999511 0.500000 0.124480
Si Si7 0.068796 0.901776 0.260782
O O1 0.705377 0.087869 0.387157
O O2 0.818220 0.087869 0.612843
O O3 0.000000 0.058820 0.500000
O O4 0.757119 0.000000 0.500000
O O5 0.601445 0.151000 0.209796
O O6 0.878155 0.098696 0.256310
O O7 0.593855 0.050481 0.187946
O O8 0.190927 0.306761 0.881854
O O9 0.927703 0.250000 0.855405
O O10 0.000000 0.322637 0.000000
O O11 0.608351 0.349000 0.209796
O O12 0.500000 0.322637 0.000000
O O13 0.405909 0.449519 0.812054
O O14 0.187980 0.500000 0.875961
O O15 0.500000 0.500000 0.000000
O O16 0.000000 0.500000 0.000000
#
# Coordination Sequence:
#
# PCOD9220086 Si02
#       7
#     8   8   8   8   4   4   8
#     4   9  18  36  61  86 113 154 197 235 286 344
#     4  11  21  38  61  86 116 152 194 239 288 345
#     4  11  22  39  61  88 118 153 194 238 292 347
#     4  11  22  39  61  88 118 153 194 238 292 347
#     4  12  24  37  54  83 117 152 190 238 291 346
#     4  12  24  37  54  83 117 152 190 238 291 346
#     4  11  21  38  61  86 116 152 194 239 288 345
#
# _framework density 17.950904999999999
#
# number of rings (size 3 to 8) (size 9 to 14) (size 15 to 20)
#    0.000    1.167    1.667    7.500    0.000    0.000 
#    0.000    5.000    0.000    0.000    0.000    0.000 
#    0.000    0.000    0.000    0.000    0.000    0.000 
#
# Total GULP energy -134193.479775 kJ/mol
# GULP energy per Si atom -5591.394991 kJ/mol
# Density = 1.791005 g / cm^3
# Si number density = 17.950905 Si / 1000 Ang^3
#
#
#
# Elastic Constant Matrix: (Units=GPa)
#
#
# Indices 1 2 3 4 5 6 
#
# 1 135.2282 49.1369 62.9877 0.0000 -0.5901 0.0000
# 2 49.1369 122.3653 111.4710 0.0000 1.0269 0.0000
# 3 62.9877 111.4710 200.1383 0.0000 1.6594 0.0000
# 4 0.0000 0.0000 0.0000 -38.9401 0.0000 -1.2027
# 5 -0.5901 1.0269 1.6594 0.0000 18.2497 0.0000
# 6 0.0000 0.0000 0.0000 -1.2027 0.0000 34.1256
#
#
#
# Elastic Compliance Matrix: (Units=1/GPa)
#
#
# Indices 1 2 3 4 5 6 
#
# 1 0.008924 -0.002082 -0.001654 0.000000 0.000556 0.000000
# 2 -0.002082 0.017075 -0.008853 0.000000 -0.000223 0.000000
# 3 -0.001654 -0.008853 0.010452 0.000000 -0.000506 0.000000
# 4 0.000000 0.000000 0.000000 -0.025653 0.000000 -0.000904
# 5 0.000556 -0.000223 -0.000506 0.000000 0.054872 0.000000
# 6 0.000000 0.000000 0.000000 -0.000904 0.000000 0.029272
#
#
# Mechanical properties :
#
#
# Convention : Reuss Voigt Hill
#
# Bulk Modulus (GPa) = 88.70053 100.54701 94.62377
# Shear Modulus (GPa) = 40.36222 18.29612 29.32917
#
# Velocity S-wave (km/s) = 4.74696 3.19600 4.04648
# Velocity P-wave (km/s) = 8.91992 8.35183 8.64054
#
# Compressibility (1/GPa) = 0.01127389
#
# Stress axis : x y z
#
# Youngs Moduli (GPa) = 112.05691 58.56449 95.67290
#
# Poissons Ratio (x) = 0.12191 0.15822
# Poissons Ratio (y) = 0.23327 0.84703
# Poissons Ratio (z) = 0.18532 0.51849
#
# Static dielectric constant tensor:
#      x y z
#    x 1.602760 0.000000 0.000140 
#    y 0.000000 1.585180 0.000000 
#    z 0.000140 0.000000 1.611130 
# 
# From -- ./inp_files/122467.got.cif
#   From: 2010.05.17/outbox.cif.g08.bks.cpg/sg12_62_cif.got.tgz:122467.got - 2010.06.03 13:09:07.
