data_PCOD9220783
_publ_section_title
;
Structure prediction by ZEFSAII (Michael W. Deem and Ramdas Pophale) SiO2 
 PCOD9220783
Probable space group: C 2/M
;
_chemical_formula_sum "Si O2"
_cell_formula_units_Z 56
_cell_length_a 14.741554
_cell_length_b 15.482082
_cell_length_c 11.144966
_cell_angle_alpha 90.000000
_cell_angle_beta 94.500000
_cell_angle_gamma 90.000000
_cell_volume 2535.773893
_symmetry_space_group_name_H-M "C 2/M"
_symmetry_group_IT_number 12
_symmetry_cell_setting 'monoclinic'
loop_
_space_group_symop_operation_xyz
x,y,z
-x,y,-z
-x,-y,-z
x,-y,z
1/2+x,1/2+y,z
1/2-x,1/2+y,-z
1/2-x,1/2-y,-z
1/2+x,1/2-y,z
loop_
_atom_site_type_symbol
_atom_site_label
_atom_site_fract_x
_atom_site_fract_y
_atom_site_fract_z
Si Si1 0.211192 0.592548 0.531322
Si Si2 0.417250 0.234923 0.566994
Si Si3 0.621564 0.694684 0.819283
Si Si4 0.574236 0.757901 0.151880
Si Si5 0.248340 0.144466 0.201031
Si Si6 0.795537 0.597517 0.946351
Si Si7 0.892240 0.902392 0.423526
O O1 0.159749 0.500000 0.521180
O O2 0.164574 0.682819 0.498649
O O3 0.251759 0.598907 0.670215
O O4 0.285071 0.588908 0.433703
O O5 0.500000 0.198252 0.500000
O O6 0.425551 0.216495 0.707285
O O7 0.414713 0.336709 0.534899
O O8 0.530828 0.727320 0.879948
O O9 0.681799 0.775257 0.781699
O O10 0.697829 0.636346 0.893200
O O11 0.587394 0.643753 0.699115
O O12 0.648230 0.680352 0.156576
O O13 0.623812 0.836620 0.085783
O O14 0.287246 0.095568 0.089590
O O15 0.808995 0.500000 0.902013
O O16 0.926770 0.000000 0.426401
#
# Coordination Sequence:
#
# PCOD9220783 Si02
#       7
#     8   8   8   8   8   8   8
#     4  11  22  38  64  95 131 176 221 270 333 403
#     4  12  22  40  62  95 135 171 215 270 337 410
#     4  11  22  43  67  98 132 177 225 276 339 408
#     4  11  23  41  72  95 132 183 228 271 348 416
#     4  11  22  42  67  92 135 181 225 279 336 401
#     4  11  26  46  68  99 135 176 236 292 339 399
#     4  11  22  38  64  94 129 169 213 266 333 402
#
# _framework density 22.083988999999999
#
# number of rings (size 3 to 8) (size 9 to 14) (size 15 to 20)
#    0.000    0.857    4.286    4.714    0.000    4.571 
#    0.000    7.143    0.000    0.000    0.000    0.000 
#    0.000    0.000    0.000    0.000    0.000    0.000 
#
# Total GULP energy -156159.414083 kJ/mol
# GULP energy per Si atom -5577.121932 kJ/mol
# Density = 2.203372 g / cm^3
# Si number density = 22.083989 Si / 1000 Ang^3
#
#
#
# Elastic Constant Matrix: (Units=GPa)
#
#
# Indices 1 2 3 4 5 6 
#
# 1 116.3446 54.4731 18.7106 0.0000 -13.7432 0.0000
# 2 54.4731 130.4829 29.1617 0.0000 3.3003 0.0000
# 3 18.7106 29.1617 98.2993 0.0000 -22.7049 0.0000
# 4 0.0000 0.0000 0.0000 167.9677 0.0000 -198.7838
# 5 -13.7432 3.3003 -22.7049 0.0000 37.4399 0.0000
# 6 0.0000 0.0000 0.0000 -198.7838 0.0000 185.5453
#
#
#
# Elastic Compliance Matrix: (Units=1/GPa)
#
#
# Indices 1 2 3 4 5 6 
#
# 1 0.011446 -0.005000 0.000438 0.000000 0.004908 0.000000
# 2 -0.005000 0.010609 -0.003297 0.000000 -0.004770 0.000000
# 3 0.000438 -0.003297 0.012992 0.000000 0.008330 0.000000
# 4 0.000000 0.000000 0.000000 -0.022223 0.000000 -0.023808
# 5 0.004908 -0.004770 0.008330 0.000000 0.033983 0.000000
# 6 0.000000 0.000000 0.000000 -0.023808 0.000000 -0.020117
#
#
# Mechanical properties :
#
#
# Convention : Reuss Voigt Hill
#
# Bulk Modulus (GPa) = 51.73844 61.09084 56.41464
# Shear Modulus (GPa) = 102.35228 94.37601 98.36414
#
# Velocity S-wave (km/s) = 6.81524 6.54430 6.68114
# Velocity P-wave (km/s) = 9.24169 9.21014 9.22593
#
# Compressibility (1/GPa) = 0.01932799
#
# Stress axis : x y z
#
# Youngs Moduli (GPa) = 87.36985 94.26026 76.97134
#
# Poissons Ratio (x) = 0.47134 -0.03375
# Poissons Ratio (y) = 0.43688 0.25380
# Poissons Ratio (z) = -0.03831 0.31080
#
# Static dielectric constant tensor:
#      x y z
#    x 1.961460 0.000000 -0.006810 
#    y 0.000000 1.818940 0.000000 
#    z -0.006810 0.000000 1.843520 
# 
# From -- ./inp_files/143711.got.cif
#   From: 2010.05.17/outbox.cif.g08.bks.cpg/sg12_72_cif.got.tgz:143711.got - 2010.06.03 13:09:07.
