data_PCOD9220512
_publ_section_title
;
Structure prediction by ZEFSAII (Michael W. Deem and Ramdas Pophale) SiO2 
 PCOD9220512
Probable space group: C 2/M
;
_chemical_formula_sum "Si O2"
_cell_formula_units_Z 56
_cell_length_a 16.166582
_cell_length_b 7.840940
_cell_length_c 21.450385
_cell_angle_alpha 90.000000
_cell_angle_beta 52.617554
_cell_angle_gamma 90.000000
_cell_volume 2160.580029
_symmetry_space_group_name_H-M "C 2/M"
_symmetry_group_IT_number 12
_symmetry_cell_setting 'monoclinic'
loop_
_space_group_symop_operation_xyz
x,y,z
-x,y,-z
-x,-y,-z
x,-y,z
1/2+x,1/2+y,z
1/2-x,1/2+y,-z
1/2-x,1/2-y,-z
1/2+x,1/2-y,z
loop_
_atom_site_type_symbol
_atom_site_label
_atom_site_fract_x
_atom_site_fract_y
_atom_site_fract_z
Si Si1 0.892459 0.201690 0.476461
Si Si2 0.583659 0.802831 0.663312
Si Si3 0.628076 0.202342 0.046190
Si Si4 0.345204 0.302224 0.235233
Si Si5 0.116981 0.290406 0.186945
Si Si6 0.354199 0.703679 0.097491
Si Si7 0.633819 0.292652 0.374948
O O1 0.854473 0.230274 0.423546
O O2 0.844942 0.266781 0.562978
O O3 0.013950 0.256995 0.419016
O O4 0.892663 0.000000 0.485940
O O5 0.628899 0.790045 0.712113
O O6 0.468121 0.725784 0.725625
O O7 0.574094 0.000000 0.652307
O O8 0.594470 0.266546 0.993567
O O9 0.619504 0.000000 0.048105
O O10 0.750000 0.250000 0.000000
O O11 0.581681 0.263606 0.133237
O O12 0.373996 0.500000 0.228836
O O13 0.387805 0.228746 0.150066
O O14 0.219033 0.289284 0.291069
O O15 0.116923 0.500000 0.187777
O O16 0.234888 0.233981 0.143327
O O17 0.351990 0.500000 0.106183
O O18 0.642143 0.500000 0.366159
#
# Coordination Sequence:
#
# PCOD9220512 Si02
#       7
#     8   8   8   8   8   8   8
#     4   9  19  37  59  83 109 134 168 217 266 311
#     4  11  22  36  54  76 106 144 182 217 259 314
#     4   9  16  29  51  78 105 132 168 215 263 310
#     4  11  23  37  53  76 109 144 178 220 264 309
#     4   8  16  32  53  76 101 131 170 215 259 306
#     4   9  18  34  54  76 103 134 172 218 265 312
#     4   9  19  37  60  83 107 136 171 214 263 317
#
# _framework density 25.918966000000001
#
# number of rings (size 3 to 8) (size 9 to 14) (size 15 to 20)
#    0.000    2.571    0.000    3.857    0.000    4.000 
#    0.000   10.714    0.000    4.286    0.000    0.000 
#    0.000    0.000    0.000    0.000    0.000    0.000 
#
# Total GULP energy -156441.146844 kJ/mol
# GULP energy per Si atom -5587.183816 kJ/mol
# Density = 2.585997 g / cm^3
# Si number density = 25.918966 Si / 1000 Ang^3
#
#
#
# Elastic Constant Matrix: (Units=GPa)
#
#
# Indices 1 2 3 4 5 6 
#
# 1 72.1062 -3.3832 28.1474 0.0001 31.1370 0.0003
# 2 -3.3832 49.5794 -1.8900 0.0002 3.1843 0.0007
# 3 28.1474 -1.8900 204.8503 0.0000 30.9535 0.0001
# 4 0.0001 0.0002 0.0000 19.7282 0.0000 3.3705
# 5 31.1370 3.1843 30.9535 0.0000 53.6325 0.0001
# 6 0.0003 0.0007 0.0001 3.3705 0.0001 20.5136
#
#
#
# Elastic Compliance Matrix: (Units=1/GPa)
#
#
# Indices 1 2 3 4 5 6 
#
# 1 0.018881 0.001925 -0.000989 0.000000 -0.010505 0.000000
# 2 0.001925 0.020474 0.000303 0.000000 -0.002509 -0.000001
# 3 -0.000989 0.000303 0.005408 0.000000 -0.002565 0.000000
# 4 0.000000 0.000000 0.000000 0.052153 0.000000 -0.008569
# 5 -0.010505 -0.002509 -0.002565 0.000000 0.026374 0.000000
# 6 0.000000 -0.000001 0.000000 -0.008569 0.000000 0.050156
#
#
# Mechanical properties :
#
#
# Convention : Reuss Voigt Hill
#
# Bulk Modulus (GPa) = 21.16758 41.36491 31.26624
# Shear Modulus (GPa) = 26.77894 39.01896 32.89895
#
# Velocity S-wave (km/s) = 3.21780 3.88418 3.56659
# Velocity P-wave (km/s) = 4.68937 6.00914 5.38981
#
# Compressibility (1/GPa) = 0.04724206
#
# Stress axis : x y z
#
# Youngs Moduli (GPa) = 52.96242 48.84306 184.91501
#
# Poissons Ratio (x) = -0.09404 0.18293
# Poissons Ratio (y) = -0.10198 -0.05610
# Poissons Ratio (z) = 0.05239 -0.01482
#
# Static dielectric constant tensor:
#      x y z
#    x 2.169480 0.000000 0.029030 
#    y 0.000000 1.905050 0.000000 
#    z 0.029030 0.000000 2.042860 
# 
# From -- ./inp_files/313764.got.cif
#   From: 2010.05.17/outbox.cif.g08.bks.cpg/sg12_157_cif.got.tgz:313764.got - 2010.06.03 13:09:07.
