data_PCOD9220465
_publ_section_title
;
Structure prediction by ZEFSAII (Michael W. Deem and Ramdas Pophale) SiO2 
 PCOD9220465
Probable space group: C 2/M
;
_chemical_formula_sum "Si O2"
_cell_formula_units_Z 56
_cell_length_a 14.094875
_cell_length_b 22.891323
_cell_length_c 14.936821
_cell_angle_alpha 90.000000
_cell_angle_beta 139.759203
_cell_angle_gamma 90.000000
_cell_volume 3113.319871
_symmetry_space_group_name_H-M "C 2/M"
_symmetry_group_IT_number 12
_symmetry_cell_setting 'monoclinic'
loop_
_space_group_symop_operation_xyz
x,y,z
-x,y,-z
-x,-y,-z
x,-y,z
1/2+x,1/2+y,z
1/2-x,1/2+y,-z
1/2-x,1/2-y,-z
1/2+x,1/2-y,z
loop_
_atom_site_type_symbol
_atom_site_label
_atom_site_fract_x
_atom_site_fract_y
_atom_site_fract_z
Si Si1 0.635022 0.735359 0.755693
Si Si2 0.032862 0.565718 0.917104
Si Si3 0.418838 0.196495 0.039183
Si Si4 0.924869 0.142952 0.542876
Si Si5 0.078079 0.334828 0.459879
Si Si6 0.708457 0.240995 0.324972
Si Si7 0.822077 0.566206 0.598794
O O1 0.541709 0.675620 0.689032
O O2 0.523595 0.789116 0.667613
O O3 0.715659 0.737885 0.717455
O O4 0.768525 0.731563 0.919824
O O5 0.095774 0.500000 0.942594
O O6 0.111265 0.628430 0.957644
O O7 0.892228 0.571401 0.749387
O O8 0.000000 0.564896 0.000000
O O9 0.537365 0.228381 0.187921
O O10 0.500000 0.194400 0.000000
O O11 0.788607 0.188050 0.433531
O O12 0.848301 0.084424 0.519636
O O13 0.000000 0.135667 0.500000
O O14 0.231889 0.301129 0.590512
O O15 0.100172 0.391505 0.416086
O O16 0.000000 0.345324 0.500000
O O17 0.841117 0.500000 0.584335
#
# Coordination Sequence:
#
# PCOD9220465 Si02
#       7
#     8   8   8   8   8   8   8
#     4   8  16  28  50  80 108 132 170 217 267 318
#     4   9  18  31  48  71 104 144 177 208 253 308
#     4   9  14  26  50  77 104 136 172 211 252 317
#     4   9  17  31  49  75 108 136 164 212 265 313
#     4   9  19  36  55  77 107 137 173 228 275 300
#     4   8  14  28  50  77 105 138 169 208 269 318
#     4  11  22  35  54  77 102 143 190 215 253 324
#
# _framework density 17.987228999999999
#
# number of rings (size 3 to 8) (size 9 to 14) (size 15 to 20)
#    0.000    3.000    1.429    1.714    2.000    2.857 
#    0.000    1.429    0.000    0.000    0.000    0.000 
#    0.000    5.714    0.000    0.000    0.000    0.000 
#
# Total GULP energy -155930.650588 kJ/mol
# GULP energy per Si atom -5568.951807 kJ/mol
# Density = 1.794629 g / cm^3
# Si number density = 17.987229 Si / 1000 Ang^3
#
#
#
# Elastic Constant Matrix: (Units=GPa)
#
#
# Indices 1 2 3 4 5 6 
#
# 1 68.6367 33.8906 45.5577 0.0000 -11.3684 0.0000
# 2 33.8906 110.9577 54.4543 0.0000 -2.1622 0.0000
# 3 45.5577 54.4543 118.3605 0.0000 12.7600 0.0000
# 4 0.0000 0.0000 0.0000 16.5427 0.0000 -7.1445
# 5 -11.3684 -2.1622 12.7600 0.0000 26.3761 0.0000
# 6 0.0000 0.0000 0.0000 -7.1445 0.0000 19.1873
#
#
#
# Elastic Compliance Matrix: (Units=1/GPa)
#
#
# Indices 1 2 3 4 5 6 
#
# 1 0.025133 -0.002323 -0.010289 0.000000 0.015620 0.000000
# 2 -0.002323 0.012216 -0.004986 0.000000 0.002413 0.000000
# 3 -0.010289 -0.004986 0.016063 0.000000 -0.012614 0.000000
# 4 0.000000 0.000000 0.000000 0.072033 0.000000 0.026822
# 5 0.015620 0.002413 -0.012614 0.000000 0.050946 0.000000
# 6 0.000000 0.000000 0.000000 0.026822 0.000000 0.062105
#
#
# Mechanical properties :
#
#
# Convention : Reuss Voigt Hill
#
# Bulk Modulus (GPa) = 54.89736 62.86222 58.87979
# Shear Modulus (GPa) = 17.87221 23.35805 20.61513
#
# Velocity S-wave (km/s) = 3.15557 3.60751 3.38908
# Velocity P-wave (km/s) = 6.62294 7.23714 6.93684
#
# Compressibility (1/GPa) = 0.01821581
#
# Stress axis : x y z
#
# Youngs Moduli (GPa) = 39.78860 81.85999 62.25449
#
# Poissons Ratio (x) = 0.19012 0.64055
# Poissons Ratio (y) = 0.09241 0.31042
# Poissons Ratio (z) = 0.40939 0.40818
#
# Static dielectric constant tensor:
#      x y z
#    x 1.652370 0.000000 -0.013530 
#    y 0.000000 1.627000 0.000000 
#    z -0.013530 0.000000 1.638780 
# 
# From -- ./inp_files/217748.got.cif
#   From: 2010.05.17/outbox.cif.g08.bks.cpg/sg12_109_cif.got.tgz:217748.got - 2010.06.03 13:09:07.
