data_PCOD9220177
_publ_section_title
;
Structure prediction by ZEFSAII (Michael W. Deem and Ramdas Pophale) SiO2 
 PCOD9220177
Probable space group: C 2/M
;
_chemical_formula_sum "Si O2"
_cell_formula_units_Z 58
_cell_length_a 10.647156
_cell_length_b 16.373312
_cell_length_c 16.343388
_cell_angle_alpha 90.000000
_cell_angle_beta 105.034441
_cell_angle_gamma 90.000000
_cell_volume 2751.604365
_symmetry_space_group_name_H-M "C 2/M"
_symmetry_group_IT_number 12
_symmetry_cell_setting 'monoclinic'
loop_
_space_group_symop_operation_xyz
x,y,z
-x,y,-z
-x,-y,-z
x,-y,z
1/2+x,1/2+y,z
1/2-x,1/2+y,-z
1/2-x,1/2-y,-z
1/2+x,1/2-y,z
loop_
_atom_site_type_symbol
_atom_site_label
_atom_site_fract_x
_atom_site_fract_y
_atom_site_fract_z
Si Si1 0.124064 0.847529 0.423247
Si Si2 0.000000 0.000000 0.500000
Si Si3 0.963631 0.589889 0.271835
Si Si4 0.198756 0.815753 0.247133
Si Si5 0.896710 0.906004 0.919001
Si Si6 0.597013 0.844470 0.145261
Si Si7 0.095514 0.661459 0.446903
Si Si8 0.823595 0.335229 0.016371
O O1 0.162393 0.839751 0.333613
O O2 0.063726 0.757679 0.429458
O O3 0.257682 0.848930 0.498189
O O4 0.042976 0.925862 0.440505
O O5 0.906371 0.500000 0.275675
O O6 0.846889 0.655536 0.256019
O O7 0.043688 0.591823 0.201543
O O8 0.064308 0.613573 0.359515
O O9 0.107649 0.864104 0.168808
O O10 0.173418 0.723099 0.212113
O O11 0.756851 0.893980 0.937745
O O12 0.927223 0.000000 0.912793
O O13 0.000000 0.869760 0.000000
O O14 0.462247 0.815563 0.080261
O O15 0.672278 0.869830 0.075599
O O16 0.000000 0.628450 0.500000
O O17 0.750000 0.250000 0.000000
#
# Coordination Sequence:
#
# PCOD9220177 Si02
#       8
#     8   2   8   8   8   8   8   8
#     4  11  26  44  74 102 144 181 231 288 364 414
#     4  12  28  48  70 112 140 180 228 294 358 432
#     4  12  26  43  68 106 139 177 237 293 344 414
#     4  12  23  42  69 100 134 183 231 286 339 427
#     4  11  24  41  63  94 136 181 233 283 343 413
#     4  11  23  40  67  99 134 180 234 282 351 409
#     4  11  23  47  71 102 136 186 228 288 351 429
#     4  11  21  39  66  96 134 183 227 288 337 418
#
# _framework density 21.078610999999999
#
# number of rings (size 3 to 8) (size 9 to 14) (size 15 to 20)
#    0.000    0.690    6.207    1.241    2.897    0.828 
#    0.000    1.379    0.000    0.000    0.000    0.000 
#    0.000    0.000    0.000    0.000    0.000    0.000 
#
# Total GULP energy -161569.948594 kJ/mol
# GULP energy per Si atom -5571.377538 kJ/mol
# Density = 2.103064 g / cm^3
# Si number density = 21.078611 Si / 1000 Ang^3
#
#
#
# Elastic Constant Matrix: (Units=GPa)
#
#
# Indices 1 2 3 4 5 6 
#
# 1 32.3516 6.0179 25.8482 0.0000 -5.4265 0.0000
# 2 6.0179 71.0013 24.1288 0.0000 0.2649 0.0000
# 3 25.8482 24.1288 152.4332 0.0000 -15.5407 0.0000
# 4 0.0000 0.0000 0.0000 7.3746 0.0000 -11.4669
# 5 -5.4265 0.2649 -15.5407 0.0000 43.4181 0.0000
# 6 0.0000 0.0000 0.0000 -11.4669 0.0000 18.2222
#
#
#
# Elastic Compliance Matrix: (Units=1/GPa)
#
#
# Indices 1 2 3 4 5 6 
#
# 1 0.036080 -0.001135 -0.005685 0.000000 0.002481 0.000000
# 2 -0.001135 0.014960 -0.002283 0.000000 -0.001050 0.000000
# 3 -0.005685 -0.002283 0.008111 0.000000 0.002206 0.000000
# 4 0.000000 0.000000 0.000000 6.302566 0.000000 3.966098
# 5 0.002481 -0.001050 0.002206 0.000000 0.024138 0.000000
# 6 0.000000 0.000000 0.000000 3.966098 0.000000 2.550677
#
#
# Mechanical properties :
#
#
# Convention : Reuss Voigt Hill
#
# Bulk Modulus (GPa) = 24.42335 40.86398 32.64366
# Shear Modulus (GPa) = 0.55751 27.12239 13.83995
#
# Velocity S-wave (km/s) = 0.51485 3.59099 2.56518
# Velocity P-wave (km/s) = 3.45910 6.05162 4.92887
#
# Compressibility (1/GPa) = 0.04094443
#
# Stress axis : x y z
#
# Youngs Moduli (GPa) = 27.71594 66.84452 123.29538
#
# Poissons Ratio (x) = 0.07588 0.70100
# Poissons Ratio (y) = 0.03146 0.28144
# Poissons Ratio (z) = 0.15758 0.15258
#
# Static dielectric constant tensor:
#      x y z
#    x 1.786220 0.000000 -0.014260 
#    y 0.000000 1.771480 0.000000 
#    z -0.014260 0.000000 1.807690 
# 
# From -- ./inp_files/206206.got.cif
#   From: 2010.05.17/outbox.cif.g08.bks.cpg/sg12_104_cif.got.tgz:206206.got - 2010.06.03 13:09:07.
