data_PCOD9220630
_publ_section_title
;
Structure prediction by ZEFSAII (Michael W. Deem and Ramdas Pophale) SiO2 
 PCOD9220630
Probable space group: C 2/M
;
_chemical_formula_sum "Si O2"
_cell_formula_units_Z 64
_cell_length_a 8.384276
_cell_length_b 33.373916
_cell_length_c 18.657859
_cell_angle_alpha 90.000000
_cell_angle_beta 143.896674
_cell_angle_gamma 90.000000
_cell_volume 3076.303397
_symmetry_space_group_name_H-M "C 2/M"
_symmetry_group_IT_number 12
_symmetry_cell_setting 'monoclinic'
loop_
_space_group_symop_operation_xyz
x,y,z
-x,y,-z
-x,-y,-z
x,-y,z
1/2+x,1/2+y,z
1/2-x,1/2+y,-z
1/2-x,1/2-y,-z
1/2+x,1/2-y,z
loop_
_atom_site_type_symbol
_atom_site_label
_atom_site_fract_x
_atom_site_fract_y
_atom_site_fract_z
Si Si1 0.320624 0.370036 0.105816
Si Si2 0.680590 0.343667 0.373378
Si Si3 0.574720 0.543830 0.913184
Si Si4 0.316090 0.196099 0.628385
Si Si5 0.723592 0.229377 0.681657
Si Si6 0.925869 0.790771 0.055878
Si Si7 0.814476 0.118317 0.365508
Si Si8 0.531918 0.956075 0.811945
O O1 0.512433 0.358289 0.242289
O O2 0.416703 0.414739 0.124338
O O3 0.333399 0.334420 0.050688
O O4 0.000000 0.372619 0.000000
O O5 0.685202 0.296591 0.353800
O O6 0.506137 0.359688 0.376629
O O7 0.000000 0.355413 0.500000
O O8 0.589857 0.500000 0.881707
O O9 0.293304 0.544381 0.854817
O O10 0.828800 0.546093 0.059773
O O11 0.425200 0.214380 0.593774
O O12 0.318352 0.226680 0.695491
O O13 0.401710 0.151518 0.683276
O O14 0.000000 0.190847 0.500000
O O15 0.840447 0.218193 0.801899
O O16 0.750000 0.750000 0.000000
O O17 0.000000 0.793763 0.000000
O O18 0.661707 0.080837 0.275464
O O19 0.000000 0.105148 0.500000
O O20 0.399185 0.000000 0.756151
#
# Coordination Sequence:
#
# PCOD9220630 Si02
#       8
#     8   8   8   8   8   8   8   8
#     4  11  25  41  67  98 130 174 215 264 326 381
#     4  11  24  43  62  91 133 173 212 267 318 381
#     4   9  20  39  67  98 127 162 210 266 321 379
#     4  11  22  37  59  90 117 159 215 261 310 371
#     4  11  23  39  62  85 127 171 209 262 320 371
#     4  11  25  41  60  90 129 170 216 266 316 377
#     4  11  24  38  65  93 124 165 216 262 315 384
#     4   9  20  39  65  96 128 161 207 267 318 379
#
# _framework density 20.804189999999998
#
# number of rings (size 3 to 8) (size 9 to 14) (size 15 to 20)
#    0.000    1.500    0.000    5.625    7.000    5.500 
#    0.000    0.625    0.000    0.750    0.000    0.000 
#    0.000    0.000    0.000    0.000    0.000    0.000 
#
# Total GULP energy -178293.381560 kJ/mol
# GULP energy per Si atom -5571.668174 kJ/mol
# Density = 2.075684 g / cm^3
# Si number density = 20.804190 Si / 1000 Ang^3
#
#
#
# Elastic Constant Matrix: (Units=GPa)
#
#
# Indices 1 2 3 4 5 6 
#
# 1 62.0495 28.7355 21.3669 0.0000 -16.4838 0.0000
# 2 28.7355 114.5941 18.3244 0.0000 -2.6453 0.0000
# 3 21.3669 18.3244 75.2803 0.0000 -11.1866 0.0000
# 4 0.0000 0.0000 0.0000 24.6334 0.0000 7.2176
# 5 -16.4838 -2.6453 -11.1866 0.0000 27.0613 0.0000
# 6 0.0000 0.0000 0.0000 7.2176 0.0000 20.9157
#
#
#
# Elastic Compliance Matrix: (Units=1/GPa)
#
#
# Indices 1 2 3 4 5 6 
#
# 1 0.022745 -0.004869 -0.003497 0.000000 0.011933 0.000000
# 2 -0.004869 0.010122 -0.001466 0.000000 -0.002582 0.000000
# 3 -0.003497 -0.001466 0.015231 0.000000 0.004022 0.000000
# 4 0.000000 0.000000 0.000000 0.045162 0.000000 -0.015584
# 5 0.011933 -0.002582 0.004022 0.000000 0.045632 0.000000
# 6 0.000000 0.000000 0.000000 -0.015584 0.000000 0.053189
#
#
# Mechanical properties :
#
#
# Convention : Reuss Voigt Hill
#
# Bulk Modulus (GPa) = 35.16856 43.19751 39.18303
# Shear Modulus (GPa) = 22.60157 26.75520 24.67838
#
# Velocity S-wave (km/s) = 3.29963 3.59004 3.44789
# Velocity P-wave (km/s) = 5.60874 6.16388 5.89285
#
# Compressibility (1/GPa) = 0.02843449
#
# Stress axis : x y z
#
# Youngs Moduli (GPa) = 43.96476 98.79338 65.65606
#
# Poissons Ratio (x) = 0.48102 0.22963
# Poissons Ratio (y) = 0.21406 0.09623
# Poissons Ratio (z) = 0.15376 0.14480
#
# Static dielectric constant tensor:
#      x y z
#    x 3.751390 0.000000 1.020750 
#    y 0.000000 1.506260 0.000000 
#    z 1.020750 0.000000 2.298130 
# 
# From -- ./inp_files/260393.got.cif
#   From: 2010.05.17/outbox.cif.g08.bks.cpg/sg12_131_cif.got.tgz:260393.got - 2010.06.03 13:09:07.
