data_PCOD9220217
_publ_section_title
;
Structure prediction by ZEFSAII (Michael W. Deem and Ramdas Pophale) SiO2 
 PCOD9220217
Probable space group: C 2/M
;
_chemical_formula_sum "Si O2"
_cell_formula_units_Z 40
_cell_length_a 19.770631
_cell_length_b 11.815173
_cell_length_c 16.854024
_cell_angle_alpha 90.000000
_cell_angle_beta 151.603902
_cell_angle_gamma 90.000000
_cell_volume 1872.291519
_symmetry_space_group_name_H-M "C 2/M"
_symmetry_group_IT_number 12
_symmetry_cell_setting 'monoclinic'
loop_
_space_group_symop_operation_xyz
x,y,z
-x,y,-z
-x,-y,-z
x,-y,z
1/2+x,1/2+y,z
1/2-x,1/2+y,-z
1/2-x,1/2-y,-z
1/2+x,1/2-y,z
loop_
_atom_site_type_symbol
_atom_site_label
_atom_site_fract_x
_atom_site_fract_y
_atom_site_fract_z
Si Si1 0.250526 0.252443 0.695718
Si Si2 0.032454 0.629255 0.180228
Si Si3 0.004255 0.265786 0.311087
Si Si4 0.069611 0.500000 0.696779
Si Si5 0.765761 0.500000 0.290394
Si Si6 0.698343 0.628359 0.798588
O O1 0.374854 0.167934 0.798811
O O2 0.304957 0.381045 0.761347
O O3 0.178234 0.211616 0.702933
O O4 0.133995 0.250819 0.505827
O O5 0.072694 0.500000 0.244048
O O6 0.057355 0.719193 0.276522
O O7 0.865524 0.631362 0.989771
O O8 0.929089 0.386238 0.251483
O O9 0.891510 0.170538 0.218794
O O10 0.192757 0.500000 0.758983
O O11 0.917814 0.500000 0.493826
O O12 0.658094 0.500000 0.736012
#
# Coordination Sequence:
#
# PCOD9220217 Si02
#       6
#     8   8   8   4   4   8
#     4  11  22  39  64  92 120 156 205 250 295 356
#     4  11  24  42  61  87 127 165 194 241 311 366
#     4  11  21  40  65  90 118 154 208 253 291 355
#     4   9  16  34  63  88 112 151 198 248 299 345
#     4   9  18  34  60  91 116 148 198 252 295 343
#     4  11  24  41  62  89 123 162 201 245 300 361
#
# _framework density 21.364196
#
# number of rings (size 3 to 8) (size 9 to 14) (size 15 to 20)
#    0.000    1.400    3.000    3.000    0.000    4.000 
#    1.800    3.000    0.000    0.000    0.000    0.000 
#    0.000    0.000    0.000    0.000    0.000    0.000 
#
# Total GULP energy -111783.179932 kJ/mol
# GULP energy per Si atom -5589.158997 kJ/mol
# Density = 2.131557 g / cm^3
# Si number density = 21.364196 Si / 1000 Ang^3
#
#
#
# Elastic Constant Matrix: (Units=GPa)
#
#
# Indices 1 2 3 4 5 6 
#
# 1 71.2097 14.2573 1.4939 0.0000 2.7916 0.0000
# 2 14.2573 106.0003 12.6222 0.0000 8.6504 0.0000
# 3 1.4939 12.6222 38.0535 0.0001 1.2211 0.0000
# 4 0.0000 0.0000 0.0001 20.1733 0.0000 0.4193
# 5 2.7916 8.6504 1.2211 0.0000 30.4825 0.0000
# 6 0.0000 0.0000 0.0000 0.4193 0.0000 24.4953
#
#
#
# Elastic Compliance Matrix: (Units=1/GPa)
#
#
# Indices 1 2 3 4 5 6 
#
# 1 0.014450 -0.001889 0.000085 0.000000 -0.000791 0.000000
# 2 -0.001889 0.010289 -0.003255 0.000000 -0.002616 0.000000
# 3 0.000085 -0.003255 0.027361 0.000000 -0.000180 0.000000
# 4 0.000000 0.000000 0.000000 0.049588 0.000000 -0.000849
# 5 -0.000791 -0.002616 -0.000180 0.000000 0.033628 0.000000
# 6 0.000000 0.000000 0.000000 -0.000849 0.000000 0.040839
#
#
# Mechanical properties :
#
#
# Convention : Reuss Voigt Hill
#
# Bulk Modulus (GPa) = 23.81971 30.22336 27.02154
# Shear Modulus (GPa) = 24.96661 27.48957 26.22809
#
# Velocity S-wave (km/s) = 3.42222 3.59097 3.50761
# Velocity P-wave (km/s) = 5.17581 5.60097 5.39258
#
# Compressibility (1/GPa) = 0.04198203
#
# Stress axis : x y z
#
# Youngs Moduli (GPa) = 69.20177 97.19003 36.54864
#
# Poissons Ratio (x) = 0.18361 -0.00310
# Poissons Ratio (y) = 0.13074 0.11896
# Poissons Ratio (z) = -0.00586 0.31633
#
# Static dielectric constant tensor:
#      x y z
#    x 1.750940 0.000000 -0.022640 
#    y 0.000000 1.751730 0.000000 
#    z -0.022640 0.000000 1.773370 
# 
# From -- ./inp_files/83747.got.cif
#   From: 2010.05.17/outbox.cif.g08.bks.cpg/sg12_42_cif.got.tgz:83747.got - 2010.06.03 13:09:07.
