data_PCOD9220272
_publ_section_title
;
Structure prediction by ZEFSAII (Michael W. Deem and Ramdas Pophale) SiO2 
 PCOD9220272
Probable space group: C 2/M
;
_chemical_formula_sum "Si O2"
_cell_formula_units_Z 40
_cell_length_a 18.293545
_cell_length_b 9.846787
_cell_length_c 24.716490
_cell_angle_alpha 90.000000
_cell_angle_beta 28.028944
_cell_angle_gamma 90.000000
_cell_volume 2092.188779
_symmetry_space_group_name_H-M "C 2/M"
_symmetry_group_IT_number 12
_symmetry_cell_setting 'monoclinic'
loop_
_space_group_symop_operation_xyz
x,y,z
-x,y,-z
-x,-y,-z
x,-y,z
1/2+x,1/2+y,z
1/2-x,1/2+y,-z
1/2-x,1/2-y,-z
1/2+x,1/2-y,z
loop_
_atom_site_type_symbol
_atom_site_label
_atom_site_fract_x
_atom_site_fract_y
_atom_site_fract_z
Si Si1 0.504357 0.000000 0.931784
Si Si2 0.858061 0.000000 0.697000
Si Si3 0.264985 0.226945 0.054126
Si Si4 0.401654 0.500000 0.007691
Si Si5 0.290287 0.500000 0.261135
Si Si6 0.217003 0.500000 0.437566
Si Si7 0.440627 0.500000 0.763935
Si Si8 0.965175 0.715452 0.586603
O O1 0.679193 0.000000 0.795603
O O2 0.500000 0.000000 0.000000
O O3 0.412053 0.869037 0.970970
O O4 0.852963 0.000000 0.764686
O O5 0.943851 0.865193 0.621963
O O6 0.116961 0.136095 0.168421
O O7 0.250000 0.250000 0.000000
O O8 0.296500 0.366110 0.066334
O O9 0.534750 0.500000 0.874074
O O10 0.500000 0.500000 0.000000
O O11 0.270349 0.500000 0.339221
O O12 0.193864 0.629832 0.302477
O O13 0.376369 0.500000 0.365386
O O14 0.106728 0.629534 0.519068
O O15 0.000000 0.718160 0.500000
#
# Coordination Sequence:
#
# PCOD9220272 Si02
#       8
#     4   4   8   4   4   4   4   8
#     4  11  21  41  65  89 130 171 202 242 327 381
#     4  12  22  36  62  89 122 156 202 261 314 367
#     4  11  23  41  60  89 127 167 210 246 297 379
#     4  12  24  34  63  97 126 151 211 257 298 362
#     4   9  18  37  63  84 114 157 194 251 313 358
#     4   9  19  42  61  81 115 162 206 250 308 373
#     4  11  25  39  61  81 125 174 201 243 330 373
#     4   9  20  37  62  89 114 148 209 259 306 368
#
# _framework density 19.118735000000001
#
# number of rings (size 3 to 8) (size 9 to 14) (size 15 to 20)
#    0.000    1.600    2.000    5.700    2.800    2.400 
#    0.000    1.000    0.000    0.000    0.000    0.000 
#    0.000    0.000    0.000    0.000    0.000    0.000 
#
# Total GULP energy -111672.540001 kJ/mol
# GULP energy per Si atom -5583.627000 kJ/mol
# Density = 1.907522 g / cm^3
# Si number density = 19.118735 Si / 1000 Ang^3
#
#
#
# Elastic Constant Matrix: (Units=GPa)
#
#
# Indices 1 2 3 4 5 6 
#
# 1 75.2682 30.7408 -8.9847 0.0001 -10.9887 0.0000
# 2 30.7408 166.2333 30.8470 0.0001 -8.7090 -0.0001
# 3 -8.9847 30.8470 74.5889 -0.0002 -19.1841 -0.0003
# 4 0.0001 0.0001 -0.0002 44.3977 -0.0001 19.7172
# 5 -10.9887 -8.7090 -19.1841 -0.0001 25.5919 0.0000
# 6 0.0000 -0.0001 -0.0003 19.7172 0.0000 34.4525
#
#
#
# Elastic Compliance Matrix: (Units=1/GPa)
#
#
# Indices 1 2 3 4 5 6 
#
# 1 0.017209 -0.003808 0.006461 0.000000 0.010936 0.000000
# 2 -0.003808 0.007360 -0.004062 0.000000 -0.002176 0.000000
# 3 0.006461 -0.004062 0.020098 0.000000 0.016457 0.000000
# 4 0.000000 0.000000 0.000000 0.030199 0.000000 -0.017283
# 5 0.010936 -0.002176 0.016457 0.000000 0.055367 0.000000
# 6 0.000000 0.000000 0.000000 -0.017283 0.000000 0.038916
#
#
# Mechanical properties :
#
#
# Convention : Reuss Voigt Hill
#
# Bulk Modulus (GPa) = 23.89642 46.81072 35.35357
# Shear Modulus (GPa) = 26.89369 38.45425 32.67397
#
# Velocity S-wave (km/s) = 3.75462 4.48966 4.13849
# Velocity P-wave (km/s) = 5.59664 7.17032 6.43179
#
# Compressibility (1/GPa) = 0.04184728
#
# Stress axis : x y z
#
# Youngs Moduli (GPa) = 58.10900 135.87566 49.75690
#
# Poissons Ratio (x) = 0.51746 -0.32146
# Poissons Ratio (y) = 0.22130 0.20211
# Poissons Ratio (z) = -0.37542 0.55192
#
# Static dielectric constant tensor:
#      x y z
#    x 1.664390 0.000000 -0.003210 
#    y 0.000000 1.596060 0.000000 
#    z -0.003210 0.000000 1.657540 
# 
# From -- ./inp_files/362626.got.cif
#   From: 2010.05.17/outbox.cif.g08.bks.cpg/sg12_182_cif.got.tgz:362626.got - 2010.06.03 13:09:07.
