data_PCOD9220284
_publ_section_title
;
Structure prediction by ZEFSAII (Michael W. Deem and Ramdas Pophale) SiO2 
 PCOD9220284
Probable space group: C 2/M
;
_chemical_formula_sum "Si O2"
_cell_formula_units_Z 44
_cell_length_a 8.867588
_cell_length_b 24.429684
_cell_length_c 11.854999
_cell_angle_alpha 90.000000
_cell_angle_beta 54.725643
_cell_angle_gamma 90.000000
_cell_volume 2096.649409
_symmetry_space_group_name_H-M "C 2/M"
_symmetry_group_IT_number 12
_symmetry_cell_setting 'monoclinic'
loop_
_space_group_symop_operation_xyz
x,y,z
-x,y,-z
-x,-y,-z
x,-y,z
1/2+x,1/2+y,z
1/2-x,1/2+y,-z
1/2-x,1/2-y,-z
1/2+x,1/2-y,z
loop_
_atom_site_type_symbol
_atom_site_label
_atom_site_fract_x
_atom_site_fract_y
_atom_site_fract_z
Si Si1 0.074704 0.711849 0.592104
Si Si2 0.843926 0.785956 0.859295
Si Si3 0.500000 0.146559 0.000000
Si Si4 0.992675 0.387485 0.758918
Si Si5 0.680662 0.500000 0.687930
Si Si6 0.588587 0.000000 0.630744
Si Si7 0.914249 0.888909 0.159411
O O1 0.250000 0.750000 0.500000
O O2 0.118854 0.658805 0.647856
O O3 0.000000 0.697534 0.500000
O O4 0.931458 0.746189 0.729986
O O5 0.987660 0.833182 0.838296
O O6 0.750000 0.750000 0.000000
O O7 0.669581 0.817395 0.884398
O O8 0.438593 0.116660 0.913391
O O9 0.089831 0.445008 0.700480
O O10 0.803207 0.380409 0.769767
O O11 0.748070 0.500000 0.530401
O O12 0.576178 0.443919 0.768332
O O13 0.881579 0.500000 0.664451
O O14 0.000000 0.901362 0.000000
#
# Coordination Sequence:
#
# PCOD9220284 Si02
#       7
#     8   8   4   8   4   4   8
#     4  12  26  42  66  99 134 175 220 277 335 396
#     4  12  26  43  68  97 139 177 225 274 333 395
#     4  12  24  43  66  96 132 179 220 270 332 400
#     4  11  24  42  68  97 133 173 218 271 334 396
#     4   9  21  38  69  94 132 165 218 279 324 395
#     4   9  22  41  63  99 129 172 213 268 340 395
#     4  11  21  41  67 101 125 168 225 276 324 385
#
# _framework density 20.985863999999999
#
# number of rings (size 3 to 8) (size 9 to 14) (size 15 to 20)
#    0.000    0.909    3.636    2.455   11.455    0.364 
#    0.000    0.909    0.000    1.091    0.000    0.000 
#    0.000    0.000    0.000    0.000    0.000    0.000 
#
# Total GULP energy -122869.404798 kJ/mol
# GULP energy per Si atom -5584.972945 kJ/mol
# Density = 2.093810 g / cm^3
# Si number density = 20.985864 Si / 1000 Ang^3
#
#
#
# Elastic Constant Matrix: (Units=GPa)
#
#
# Indices 1 2 3 4 5 6 
#
# 1 44.7695 25.0022 10.0438 0.0000 13.7235 0.0000
# 2 25.0022 166.5255 75.4124 0.0000 10.7634 0.0000
# 3 10.0438 75.4124 135.7338 0.0000 15.1709 0.0000
# 4 0.0000 0.0000 0.0000 33.5636 0.0000 -2.9632
# 5 13.7235 10.7634 15.1709 0.0000 27.9237 0.0000
# 6 0.0000 0.0000 0.0000 -2.9632 0.0000 12.1083
#
#
#
# Elastic Compliance Matrix: (Units=1/GPa)
#
#
# Indices 1 2 3 4 5 6 
#
# 1 0.028344 -0.004169 0.001699 0.000000 -0.013246 0.000000
# 2 -0.004169 0.008651 -0.004635 0.000000 0.001233 0.000000
# 3 0.001699 -0.004635 0.010338 0.000000 -0.004665 0.000000
# 4 0.000000 0.000000 0.000000 0.030452 0.000000 0.007452
# 5 -0.013246 0.001233 -0.004665 0.000000 0.044381 0.000000
# 6 0.000000 0.000000 0.000000 0.007452 0.000000 0.084412
#
#
# Mechanical properties :
#
#
# Convention : Reuss Voigt Hill
#
# Bulk Modulus (GPa) = 30.19042 63.10507 46.64774
# Shear Modulus (GPa) = 21.56756 30.49048 26.02902
#
# Velocity S-wave (km/s) = 3.20928 3.81584 3.52563
# Velocity P-wave (km/s) = 5.30565 7.03915 6.23296
#
# Compressibility (1/GPa) = 0.03312309
#
# Stress axis : x y z
#
# Youngs Moduli (GPa) = 35.28066 115.59972 96.72603
#
# Poissons Ratio (x) = 0.48194 -0.16438
# Poissons Ratio (y) = 0.14709 0.44837
# Poissons Ratio (z) = -0.05996 0.53586
#
# Static dielectric constant tensor:
#      x y z
#    x 1.828720 0.000000 0.015750 
#    y 0.000000 1.787460 0.000000 
#    z 0.015750 0.000000 1.740190 
# 
# From -- ./inp_files/124112.got.cif
#   From: 2010.05.17/outbox.cif.g08.bks.cpg/sg12_63_cif.got.tgz:124112.got - 2010.06.03 13:09:07.
