data_PCOD9220467
_publ_section_title
;
Structure prediction by ZEFSAII (Michael W. Deem and Ramdas Pophale) SiO2 
 PCOD9220467
Probable space group: C 2/M
;
_chemical_formula_sum "Si O2"
_cell_formula_units_Z 56
_cell_length_a 14.815466
_cell_length_b 9.118342
_cell_length_c 25.155716
_cell_angle_alpha 90.000000
_cell_angle_beta 63.251416
_cell_angle_gamma 90.000000
_cell_volume 3034.691194
_symmetry_space_group_name_H-M "C 2/M"
_symmetry_group_IT_number 12
_symmetry_cell_setting 'monoclinic'
loop_
_space_group_symop_operation_xyz
x,y,z
-x,y,-z
-x,-y,-z
x,-y,z
1/2+x,1/2+y,z
1/2-x,1/2+y,-z
1/2-x,1/2-y,-z
1/2+x,1/2-y,z
loop_
_atom_site_type_symbol
_atom_site_label
_atom_site_fract_x
_atom_site_fract_y
_atom_site_fract_z
Si Si1 0.904744 0.325980 0.818630
Si Si2 0.678063 0.329682 0.061067
Si Si3 0.128600 0.669483 0.806440
Si Si4 0.002897 0.333143 0.936023
Si Si5 0.927248 0.176469 0.595334
Si Si6 0.152007 0.823356 0.499821
Si Si7 0.669643 0.825241 0.276680
O O1 0.884715 0.500000 0.827758
O O2 0.830301 0.242939 0.878771
O O3 0.887779 0.280997 0.762459
O O4 0.020244 0.302617 0.807121
O O5 0.702650 0.500000 0.058117
O O6 0.568304 0.295324 0.065728
O O7 0.750000 0.250000 0.000000
O O8 0.156684 0.500000 0.788522
O O9 0.215427 0.773745 0.762537
O O10 0.106216 0.683474 0.875691
O O11 0.966348 0.500000 0.930507
O O12 0.000000 0.329246 0.000000
O O13 0.867288 0.216149 0.557004
O O14 0.878804 0.250293 0.659284
O O15 0.045672 0.215967 0.556524
O O16 0.922683 0.000000 0.601026
O O17 0.250000 0.750000 0.500000
O O18 0.162390 0.000000 0.499750
O O19 0.664049 0.000000 0.283547
#
# Coordination Sequence:
#
# PCOD9220467 Si02
#       7
#     8   8   8   8   8   8   8
#     4   9  21  41  57  76 109 148 187 234 289 345
#     4  11  22  35  54  79 106 138 181 231 286 346
#     4   9  19  37  57  77 109 149 186 227 287 352
#     4   9  19  36  56  79 106 137 178 228 287 352
#     4   9  20  39  58  83 120 157 193 227 277 343
#     4   9  19  37  62  89 119 155 192 234 277 328
#     4  11  23  37  58  86 116 149 193 243 285 329
#
# _framework density 18.453278999999998
#
# number of rings (size 3 to 8) (size 9 to 14) (size 15 to 20)
#    0.000    2.429    0.000    3.429    2.000    6.000 
#    0.000    5.714    0.000    0.000    0.000    0.000 
#    0.000    0.000    0.000    0.000    0.000    0.000 
#
# Total GULP energy -156145.298881 kJ/mol
# GULP energy per Si atom -5576.617817 kJ/mol
# Density = 1.841128 g / cm^3
# Si number density = 18.453279 Si / 1000 Ang^3
#
#
#
# Elastic Constant Matrix: (Units=GPa)
#
#
# Indices 1 2 3 4 5 6 
#
# 1 97.9583 41.6128 68.5351 0.0000 5.5281 0.0000
# 2 41.6128 53.4505 67.3739 0.0000 2.5472 0.0000
# 3 68.5351 67.3739 187.7885 0.0000 9.1242 0.0000
# 4 0.0000 0.0000 0.0000 33.1988 0.0000 -1.6242
# 5 5.5281 2.5472 9.1242 0.0000 17.3329 0.0000
# 6 0.0000 0.0000 0.0000 -1.6242 0.0000 30.4785
#
#
#
# Elastic Compliance Matrix: (Units=1/GPa)
#
#
# Indices 1 2 3 4 5 6 
#
# 1 0.015964 -0.009344 -0.002353 0.000000 -0.002480 0.000000
# 2 -0.009344 0.039661 -0.010961 0.000000 0.002922 0.000000
# 3 -0.002353 -0.010961 0.010264 0.000000 -0.003042 0.000000
# 4 0.000000 0.000000 0.000000 0.030200 0.000000 0.001609
# 5 -0.002480 0.002922 -0.003042 0.000000 0.059656 0.000000
# 6 0.000000 0.000000 0.000000 0.001609 0.000000 0.032896
#
#
# Mechanical properties :
#
#
# Convention : Reuss Voigt Hill
#
# Bulk Modulus (GPa) = 48.60909 77.13786 62.87347
# Shear Modulus (GPa) = 20.76276 26.98043 23.87160
#
# Velocity S-wave (km/s) = 3.35797 3.82788 3.60060
# Velocity P-wave (km/s) = 6.43689 7.83769 7.17157
#
# Compressibility (1/GPa) = 0.02057228
#
# Stress axis : x y z
#
# Youngs Moduli (GPa) = 62.64002 25.21400 97.42441
#
# Poissons Ratio (x) = 0.23560 0.22928
# Poissons Ratio (y) = 0.58531 1.06787
# Poissons Ratio (z) = 0.14742 0.27637
#
# Static dielectric constant tensor:
#      x y z
#    x 1.664480 0.000000 0.005830 
#    y 0.000000 1.623980 0.000000 
#    z 0.005830 0.000000 1.635850 
# 
# From -- ./inp_files/338516.got.cif
#   From: 2010.05.17/outbox.cif.g08.bks.cpg/sg12_170_cif.got.tgz:338516.got - 2010.06.03 13:09:07.
