data_PCOD9220145
_publ_section_title
;
Structure prediction by ZEFSAII (Michael W. Deem and Ramdas Pophale) SiO2 
 PCOD9220145
Probable space group: C 2/M
;
_chemical_formula_sum "Si O2"
_cell_formula_units_Z 20
_cell_length_a 10.261167
_cell_length_b 10.363601
_cell_length_c 6.963641
_cell_angle_alpha 90.000000
_cell_angle_beta 91.744217
_cell_angle_gamma 90.000000
_cell_volume 740.188860
_symmetry_space_group_name_H-M "C 2/M"
_symmetry_group_IT_number 12
_symmetry_cell_setting 'monoclinic'
loop_
_space_group_symop_operation_xyz
x,y,z
-x,y,-z
-x,-y,-z
x,-y,z
1/2+x,1/2+y,z
1/2-x,1/2+y,-z
1/2-x,1/2-y,-z
1/2+x,1/2-y,z
loop_
_atom_site_type_symbol
_atom_site_label
_atom_site_fract_x
_atom_site_fract_y
_atom_site_fract_z
Si Si1 0.032100 0.000000 0.276015
Si Si2 0.255928 0.286145 0.727019
Si Si3 0.038923 0.500000 0.775273
Si Si4 0.232456 0.500000 0.191865
O O1 0.119878 0.877008 0.236356
O O2 0.000000 0.000000 0.500000
O O3 0.889719 0.000000 0.186592
O O4 0.250000 0.250000 0.500000
O O5 0.127867 0.374492 0.750011
O O6 0.275366 0.155038 0.846997
O O7 0.896680 0.500000 0.669931
O O8 0.000000 0.500000 0.000000
#
# Coordination Sequence:
#
# PCOD9220145 Si02
#       4
#     4   8   4   4
#     4  11  21  39  62 106 139 169 224 295 344 397
#     4  11  23  43  70 101 139 175 232 287 343 403
#     4  11  28  48  66  99 145 187 226 277 350 418
#     4  12  23  39  72  96 135 183 231 283 340 402
#
# _framework density 27.020129000000001
#
# number of rings (size 3 to 8) (size 9 to 14) (size 15 to 20)
#    0.000    0.800    4.000    3.600    0.000    3.200 
#    0.000    5.000    0.000    0.000    0.000    0.000 
#    0.000    0.000    0.000    0.000    0.000    0.000 
#
# Total GULP energy -55779.147748 kJ/mol
# GULP energy per Si atom -5577.914775 kJ/mol
# Density = 2.695863 g / cm^3
# Si number density = 27.020129 Si / 1000 Ang^3
#
#
#
# Elastic Constant Matrix: (Units=GPa)
#
#
# Indices 1 2 3 4 5 6 
#
# 1 291.0428 138.5668 15.5218 0.0000 -8.2885 0.0000
# 2 138.5668 315.4933 40.7315 0.0000 -7.9240 0.0000
# 3 15.5218 40.7315 108.6999 0.0000 -11.1536 0.0000
# 4 0.0000 0.0000 0.0000 30.5565 0.0000 -7.7182
# 5 -8.2885 -7.9240 -11.1536 0.0000 38.6694 0.0000
# 6 0.0000 0.0000 0.0000 -7.7182 0.0000 46.6307
#
#
#
# Elastic Compliance Matrix: (Units=1/GPa)
#
#
# Indices 1 2 3 4 5 6 
#
# 1 0.004358 -0.001920 0.000157 0.000000 0.000586 0.000000
# 2 -0.001920 0.004181 -0.001285 0.000000 0.000075 0.000000
# 3 0.000157 -0.001285 0.009929 0.000000 0.002634 0.000000
# 4 0.000000 0.000000 0.000000 0.034154 0.000000 0.005653
# 5 0.000586 0.000075 0.002634 0.000000 0.026761 0.000000
# 6 0.000000 0.000000 0.000000 0.005653 0.000000 0.022381
#
#
# Mechanical properties :
#
#
# Convention : Reuss Voigt Hill
#
# Bulk Modulus (GPa) = 80.82071 122.76402 101.79236
# Shear Modulus (GPa) = 44.64982 57.86571 51.25776
#
# Velocity S-wave (km/s) = 4.06946 4.63274 4.36021
# Velocity P-wave (km/s) = 7.21505 8.61100 7.94375
#
# Compressibility (1/GPa) = 0.01237307
#
# Stress axis : x y z
#
# Youngs Moduli (GPa) = 229.45132 239.20386 100.71607
#
# Poissons Ratio (x) = 0.45921 -0.01583
# Poissons Ratio (y) = 0.44048 0.12939
# Poissons Ratio (z) = -0.03606 0.30731
#
# Static dielectric constant tensor:
#      x y z
#    x 2.232940 0.000000 0.271480 
#    y 0.000000 1.993900 0.000000 
#    z 0.271480 0.000000 2.660680 
# 
# From -- ./inp_files/35251.got.cif
#   From: 2010.05.17/outbox.cif.g08.bks.cpg/sg12_18_cif.got.tgz:35251.got - 2010.06.03 13:09:07.
