data_PCOD9220774
_publ_section_title
;
Structure prediction by ZEFSAII (Michael W. Deem and Ramdas Pophale) SiO2 
 PCOD9220774
Probable space group: C 2/M
;
_chemical_formula_sum "Si O2"
_cell_formula_units_Z 48
_cell_length_a 14.150137
_cell_length_b 13.914835
_cell_length_c 12.966935
_cell_angle_alpha 90.000000
_cell_angle_beta 121.575450
_cell_angle_gamma 90.000000
_cell_volume 2175.158188
_symmetry_space_group_name_H-M "C 2/M"
_symmetry_group_IT_number 12
_symmetry_cell_setting 'monoclinic'
loop_
_space_group_symop_operation_xyz
x,y,z
-x,y,-z
-x,-y,-z
x,-y,z
1/2+x,1/2+y,z
1/2-x,1/2+y,-z
1/2-x,1/2-y,-z
1/2+x,1/2-y,z
loop_
_atom_site_type_symbol
_atom_site_label
_atom_site_fract_x
_atom_site_fract_y
_atom_site_fract_z
Si Si1 0.367241 0.890984 0.304744
Si Si2 0.411258 0.241849 0.726433
Si Si3 0.135798 0.390553 0.464725
Si Si4 0.420882 0.889870 0.055754
Si Si5 0.965263 0.115217 0.361438
Si Si6 0.255387 0.777710 0.826243
O O1 0.500883 0.887530 0.386097
O O2 0.331095 0.863893 0.400938
O O3 0.310621 0.820346 0.192743
O O4 0.333952 0.000000 0.269383
O O5 0.330907 0.180745 0.605696
O O6 0.506644 0.169557 0.821839
O O7 0.462381 0.326772 0.684077
O O8 0.346643 0.257929 0.795658
O O9 0.170653 0.500000 0.464200
O O10 0.397993 0.000000 0.075928
O O11 0.500000 0.897464 0.000000
O O12 0.315293 0.831366 0.953642
O O13 0.838655 0.150911 0.273112
O O14 0.000000 0.139371 0.500000
O O15 0.975494 0.000000 0.354170
#
# Coordination Sequence:
#
# PCOD9220774 Si02
#       6
#     8   8   8   8   8   8
#     4   9  18  33  54  82 117 149 185 243 303 351
#     4  11  22  38  64  89 117 162 211 255 304 368
#     4   9  17  32  55  83 113 145 189 248 301 344
#     4   9  20  39  62  90 121 156 207 265 311 358
#     4  11  25  43  61  90 134 170 199 249 317 383
#     4  11  22  39  62  88 121 164 209 251 304 374
#
# _framework density 22.067360999999998
#
# number of rings (size 3 to 8) (size 9 to 14) (size 15 to 20)
#    0.000    2.000    1.667    3.000    0.000    6.000 
#    0.000    4.167    0.000    3.000    0.000    0.000 
#    0.000    0.000    0.000    0.000    0.000    0.000 
#
# Total GULP energy -133945.841894 kJ/mol
# GULP energy per Si atom -5581.076746 kJ/mol
# Density = 2.201714 g / cm^3
# Si number density = 22.067361 Si / 1000 Ang^3
#
#
#
# Elastic Constant Matrix: (Units=GPa)
#
#
# Indices 1 2 3 4 5 6 
#
# 1 79.4873 18.3724 18.4215 0.0000 -20.4072 0.0000
# 2 18.3724 138.9215 61.0087 0.0000 4.4716 0.0000
# 3 18.4215 61.0087 140.9848 0.0000 -2.3636 0.0000
# 4 0.0000 0.0000 0.0000 23.9098 0.0000 -1.5167
# 5 -20.4072 4.4716 -2.3636 0.0000 34.1631 0.0000
# 6 0.0000 0.0000 0.0000 -1.5167 0.0000 17.9852
#
#
#
# Elastic Compliance Matrix: (Units=1/GPa)
#
#
# Indices 1 2 3 4 5 6 
#
# 1 0.015729 -0.001921 -0.001063 0.000000 0.009574 0.000000
# 2 -0.001921 0.009192 -0.003771 0.000000 -0.002612 0.000000
# 3 -0.001063 -0.003771 0.008871 0.000000 0.000472 0.000000
# 4 0.000000 0.000000 0.000000 0.042049 0.000000 0.003546
# 5 0.009574 -0.002612 0.000472 0.000000 0.035365 0.000000
# 6 0.000000 0.000000 0.000000 0.003546 0.000000 0.055900
#
#
# Mechanical properties :
#
#
# Convention : Reuss Voigt Hill
#
# Bulk Modulus (GPa) = 49.30374 61.66652 55.48513
# Shear Modulus (GPa) = 26.68406 32.65101 29.66753
#
# Velocity S-wave (km/s) = 3.48114 3.85074 3.67059
# Velocity P-wave (km/s) = 6.20876 6.91204 6.56981
#
# Compressibility (1/GPa) = 0.02028244
#
# Stress axis : x y z
#
# Youngs Moduli (GPa) = 63.57672 108.78604 112.72112
#
# Poissons Ratio (x) = 0.20902 0.11985
# Poissons Ratio (y) = 0.12216 0.42502
# Poissons Ratio (z) = 0.06760 0.41018
#
# Static dielectric constant tensor:
#      x y z
#    x 1.897700 0.000000 -0.031530 
#    y 0.000000 1.812510 0.000000 
#    z -0.031530 0.000000 1.812630 
# 
# From -- ./inp_files/215021.got.cif
#   From: 2010.05.17/outbox.cif.g08.bks.cpg/sg12_108_cif.got.tgz:215021.got - 2010.06.03 13:09:07.
