data_PCOD9220283
_publ_section_title
;
Structure prediction by ZEFSAII (Michael W. Deem and Ramdas Pophale) SiO2 
 PCOD9220283
Probable space group: C 2/M
;
_chemical_formula_sum "Si O2"
_cell_formula_units_Z 40
_cell_length_a 10.882723
_cell_length_b 24.156624
_cell_length_c 6.819788
_cell_angle_alpha 90.000000
_cell_angle_beta 92.382695
_cell_angle_gamma 90.000000
_cell_volume 1791.302985
_symmetry_space_group_name_H-M "C 2/M"
_symmetry_group_IT_number 12
_symmetry_cell_setting 'monoclinic'
loop_
_space_group_symop_operation_xyz
x,y,z
-x,y,-z
-x,-y,-z
x,-y,z
1/2+x,1/2+y,z
1/2-x,1/2+y,-z
1/2-x,1/2-y,-z
1/2+x,1/2-y,z
loop_
_atom_site_type_symbol
_atom_site_label
_atom_site_fract_x
_atom_site_fract_y
_atom_site_fract_z
Si Si1 0.120689 0.174243 0.876712
Si Si2 0.631056 0.588338 0.540557
Si Si3 0.411471 0.000000 0.204416
Si Si4 0.369633 0.227676 0.384093
Si Si5 0.207689 0.617212 0.810596
Si Si6 0.678764 0.000000 0.347837
O O1 0.108848 0.142223 0.670074
O O2 0.134003 0.237663 0.816952
O O3 0.234806 0.148936 0.001762
O O4 0.000000 0.166356 0.000000
O O5 0.500000 0.560410 0.500000
O O6 0.683334 0.600238 0.329777
O O7 0.731608 0.552165 0.660973
O O8 0.359983 0.939792 0.137238
O O9 0.371620 0.000000 0.432761
O O10 0.440783 0.000000 0.794467
O O11 0.500000 0.238165 0.500000
O O12 0.250000 0.250000 0.500000
O O13 0.364149 0.162844 0.325095
#
# Coordination Sequence:
#
# PCOD9220283 Si02
#       6
#     8   8   4   8   8   4
#     4  12  24  44  70 103 142 183 238 301 357 425
#     4  11  21  41  67 100 139 184 236 290 352 418
#     4   9  22  43  67 104 139 184 238 287 353 429
#     4  12  26  46  75 104 144 193 243 296 362 427
#     4  11  24  43  72 102 143 186 234 293 355 424
#     4   9  21  39  69  95 144 187 234 288 349 420
#
# _framework density 22.330113000000001
#
# number of rings (size 3 to 8) (size 9 to 14) (size 15 to 20)
#    0.000    1.000    4.000    2.700    5.600    0.800 
#    0.000    5.000    0.000    0.000    0.000    0.000 
#    0.000    0.000    0.000    0.000    0.000    0.000 
#
# Total GULP energy -111748.168084 kJ/mol
# GULP energy per Si atom -5587.408404 kJ/mol
# Density = 2.227929 g / cm^3
# Si number density = 22.330113 Si / 1000 Ang^3
#
#
#
# Elastic Constant Matrix: (Units=GPa)
#
#
# Indices 1 2 3 4 5 6 
#
# 1 153.7749 69.9413 47.1526 0.0000 21.9629 0.0000
# 2 69.9413 155.3450 35.9683 0.0000 11.5913 0.0000
# 3 47.1526 35.9683 76.6815 0.0000 14.3503 0.0000
# 4 0.0000 0.0000 0.0000 39.7806 0.0000 4.7211
# 5 21.9629 11.5913 14.3503 0.0000 41.3961 0.0000
# 6 0.0000 0.0000 0.0000 4.7211 0.0000 16.4402
#
#
#
# Elastic Compliance Matrix: (Units=1/GPa)
#
#
# Indices 1 2 3 4 5 6 
#
# 1 0.009537 -0.003194 -0.003835 0.000000 -0.002836 0.000000
# 2 -0.003194 0.008323 -0.001947 0.000000 0.000039 0.000000
# 3 -0.003835 -0.001947 0.016928 0.000000 -0.003288 0.000000
# 4 0.000000 0.000000 0.000000 0.026025 0.000000 -0.007473
# 5 -0.002836 0.000039 -0.003288 0.000000 0.026790 0.000000
# 6 0.000000 0.000000 0.000000 -0.007473 0.000000 0.062972
#
#
# Mechanical properties :
#
#
# Convention : Reuss Voigt Hill
#
# Bulk Modulus (GPa) = 59.40150 76.88063 68.14106
# Shear Modulus (GPa) = 28.71228 35.03934 31.87581
#
# Velocity S-wave (km/s) = 3.58971 3.96555 3.78230
# Velocity P-wave (km/s) = 6.62123 7.44791 7.04670
#
# Compressibility (1/GPa) = 0.01683459
#
# Stress axis : x y z
#
# Youngs Moduli (GPa) = 104.85562 120.14363 59.07310
#
# Poissons Ratio (x) = 0.38376 0.22657
# Poissons Ratio (y) = 0.33493 0.11504
# Poissons Ratio (z) = 0.40217 0.23396
#
# Static dielectric constant tensor:
#      x y z
#    x 1.817410 0.000000 0.006120 
#    y 0.000000 1.855440 0.000000 
#    z 0.006120 0.000000 1.824980 
# 
# From -- ./inp_files/7736.got.cif
#   From: 2010.05.17/outbox.cif.g08.bks.cpg/sg12_4_cif.got.tgz:7736.got - 2010.06.03 13:09:07.
