data_PCOD9220552
_publ_section_title
;
Structure prediction by ZEFSAII (Michael W. Deem and Ramdas Pophale) SiO2 
 PCOD9220552
Probable space group: C 2/M
;
_chemical_formula_sum "Si O2"
_cell_formula_units_Z 34
_cell_length_a 9.774839
_cell_length_b 24.192087
_cell_length_c 7.010093
_cell_angle_alpha 90.000000
_cell_angle_beta 132.068001
_cell_angle_gamma 90.000000
_cell_volume 1230.596085
_symmetry_space_group_name_H-M "C 2/M"
_symmetry_group_IT_number 12
_symmetry_cell_setting 'monoclinic'
loop_
_space_group_symop_operation_xyz
x,y,z
-x,y,-z
-x,-y,-z
x,-y,z
1/2+x,1/2+y,z
1/2-x,1/2+y,-z
1/2-x,1/2-y,-z
1/2+x,1/2-y,z
loop_
_atom_site_type_symbol
_atom_site_label
_atom_site_fract_x
_atom_site_fract_y
_atom_site_fract_z
Si Si1 0.500000 0.000000 0.000000
Si Si2 0.780934 0.817667 0.755765
Si Si3 0.778955 0.062209 0.749145
Si Si4 0.782564 0.300113 0.755407
Si Si5 0.795603 0.918707 0.316354
O O1 0.355182 0.047734 0.936415
O O2 0.708349 0.877467 0.753881
O O3 0.706166 0.758478 0.758853
O O4 0.751132 0.809288 0.501473
O O5 0.000000 0.817919 0.000000
O O6 0.745021 0.069584 0.490020
O O7 0.712102 0.000000 0.732794
O O8 0.000000 0.061961 0.000000
O O9 0.696392 0.356281 0.752603
O O10 0.000000 0.301854 0.000000
O O11 0.000000 0.940873 0.500000
#
# Coordination Sequence:
#
# PCOD9220552 Si02
#       5
#     2   8   8   8   8
#     4  12  22  36  54  88 118 154 174 230 288 354
#     4   8  15  27  49  75 105 146 191 222 275 338
#     4   9  17  31  54  82 109 152 193 217 282 346
#     4   9  16  30  51  79 103 145 190 228 277 338
#     4  11  22  36  58  87 115 144 188 238 281 336
#
# _framework density 27.628886000000001
#
# number of rings (size 3 to 8) (size 9 to 14) (size 15 to 20)
#    0.000    2.588    2.353    0.353    0.000    0.000 
#    0.000    0.000    0.000   53.647    0.000    0.000 
#    0.000    0.000    0.000    0.000    0.000    0.000 
#
# Total GULP energy -94726.025682 kJ/mol
# GULP energy per Si atom -5572.119158 kJ/mol
# Density = 2.756600 g / cm^3
# Si number density = 27.628886 Si / 1000 Ang^3
#
#
#
# Elastic Constant Matrix: (Units=GPa)
#
#
# Indices 1 2 3 4 5 6 
#
# 1 45.9708 37.3304 46.2089 0.0000 -5.1492 0.0000
# 2 37.3304 387.8273 25.7032 0.0000 14.6982 0.0000
# 3 46.2089 25.7032 163.9624 0.0000 -1.7761 0.0000
# 4 0.0000 0.0000 0.0000 34.0129 0.0000 7.8999
# 5 -5.1492 14.6982 -1.7761 0.0000 79.8950 0.0000
# 6 0.0000 0.0000 0.0000 7.8999 0.0000 12.4875
#
#
#
# Elastic Compliance Matrix: (Units=1/GPa)
#
#
# Indices 1 2 3 4 5 6 
#
# 1 0.033155 -0.002694 -0.008895 0.000000 0.002435 0.000000
# 2 -0.002694 0.002844 0.000306 0.000000 -0.000690 0.000000
# 3 -0.008895 0.000306 0.008553 0.000000 -0.000439 0.000000
# 4 0.000000 0.000000 0.000000 0.034465 0.000000 -0.021803
# 5 0.002435 -0.000690 -0.000439 0.000000 0.012791 0.000000
# 6 0.000000 0.000000 0.000000 -0.021803 0.000000 0.093874
#
#
# Mechanical properties :
#
#
# Convention : Reuss Voigt Hill
#
# Bulk Modulus (GPa) = 45.48565 90.69396 68.08981
# Shear Modulus (GPa) = 23.19382 57.84696 40.52039
#
# Velocity S-wave (km/s) = 2.90052 4.58067 3.83377
# Velocity P-wave (km/s) = 5.26461 7.80217 6.65545
#
# Compressibility (1/GPa) = 0.02198496
#
# Stress axis : x y z
#
# Youngs Moduli (GPa) = 30.16181 351.66044 116.91662
#
# Poissons Ratio (x) = 0.94739 1.03999
# Poissons Ratio (y) = 0.08126 -0.03578
# Poissons Ratio (z) = 0.26829 -0.10761
#
# Static dielectric constant tensor:
#      x y z
#    x 5.279510 0.000000 -3.236880 
#    y 0.000000 2.257940 0.000000 
#    z -3.236880 0.000000 5.264820 
# 
# From -- ./inp_files/6945.got.cif
#   From: 2010.05.17/outbox.cif.g08.bks.cpg/sg12_4_cif.got.tgz:6945.got - 2010.06.03 13:09:07.
