data_PCOD9220015
_publ_section_title
;
Structure prediction by ZEFSAII (Michael W. Deem and Ramdas Pophale) SiO2 
 PCOD9220015
Probable space group: C 2/M
;
_chemical_formula_sum "Si O2"
_cell_formula_units_Z 48
_cell_length_a 24.716140
_cell_length_b 15.334119
_cell_length_c 10.600705
_cell_angle_alpha 90.000000
_cell_angle_beta 143.928098
_cell_angle_gamma 90.000000
_cell_volume 2365.604078
_symmetry_space_group_name_H-M "C 2/M"
_symmetry_group_IT_number 12
_symmetry_cell_setting 'monoclinic'
loop_
_space_group_symop_operation_xyz
x,y,z
-x,y,-z
-x,-y,-z
x,-y,z
1/2+x,1/2+y,z
1/2-x,1/2+y,-z
1/2-x,1/2-y,-z
1/2+x,1/2-y,z
loop_
_atom_site_type_symbol
_atom_site_label
_atom_site_fract_x
_atom_site_fract_y
_atom_site_fract_z
Si Si1 0.854823 0.500000 0.663450
Si Si2 0.349811 0.500000 0.186543
Si Si3 0.889760 0.681261 0.019296
Si Si4 0.551293 0.000000 0.897581
Si Si5 0.014858 0.000000 0.314983
Si Si6 0.340315 0.805595 0.642388
Si Si7 0.211358 0.177178 0.836681
Si Si8 0.045659 0.805639 0.345414
O O1 0.813929 0.405086 0.553926
O O2 0.953925 0.500000 0.783243
O O3 0.871245 0.500000 0.845715
O O4 0.412695 0.500000 0.181108
O O5 0.417780 0.500000 0.436330
O O6 0.291116 0.586601 0.093272
O O7 0.894925 0.687180 0.877429
O O8 0.783785 0.675290 0.858447
O O9 0.935860 0.590605 0.149392
O O10 0.946351 0.762399 0.180637
O O11 0.034216 0.907373 0.284589
O O12 0.250000 0.750000 0.500000
O O13 0.402480 0.755006 0.658501
O O14 0.110626 0.194967 0.590718
O O15 0.250000 0.250000 0.000000
#
# Coordination Sequence:
#
# PCOD9220015 Si02
#       8
#     4   4   8   4   4   8   8   8
#     4   9  18  33  56  87 120 156 190 240 287 364
#     4   9  19  40  61  86 116 154 206 256 294 361
#     4  11  21  37  63  88 121 157 200 246 299 358
#     4   9  17  32  58  86 112 154 194 234 291 352
#     4   9  20  37  62  85 117 162 203 245 304 357
#     4  11  21  38  60  91 126 160 201 245 299 359
#     4  11  23  39  62  88 117 155 204 250 302 354
#     4  11  22  39  62  88 121 159 200 249 298 366
#
# _framework density 20.290801999999999
#
# number of rings (size 3 to 8) (size 9 to 14) (size 15 to 20)
#    0.000    1.667    3.333    2.000    0.000    2.667 
#    0.000    4.167    0.000    2.000    0.000    0.000 
#    0.000    0.000    0.000    0.000    0.000    0.000 
#
# Total GULP energy -133900.501038 kJ/mol
# GULP energy per Si atom -5579.187543 kJ/mol
# Density = 2.024462 g / cm^3
# Si number density = 20.290802 Si / 1000 Ang^3
#
#
#
# Elastic Constant Matrix: (Units=GPa)
#
#
# Indices 1 2 3 4 5 6 
#
# 1 43.1651 26.4414 -4.5670 0.0000 1.5762 0.0000
# 2 26.4414 201.2179 40.1691 0.0000 3.4977 0.0000
# 3 -4.5670 40.1691 47.8450 0.0000 9.5020 0.0000
# 4 0.0000 0.0000 0.0000 33.1057 0.0000 6.6226
# 5 1.5762 3.4977 9.5020 0.0000 22.2316 0.0000
# 6 0.0000 0.0000 0.0000 6.6226 0.0000 30.4308
#
#
#
# Elastic Compliance Matrix: (Units=1/GPa)
#
#
# Indices 1 2 3 4 5 6 
#
# 1 0.027233 -0.005041 0.007712 0.000000 -0.004434 0.000000
# 2 -0.005041 0.006939 -0.006733 0.000000 0.002143 0.000000
# 3 0.007712 -0.006733 0.029710 0.000000 -0.012186 0.000000
# 4 0.000000 0.000000 0.000000 0.031581 0.000000 -0.006873
# 5 -0.004434 0.002143 -0.012186 0.000000 0.050166 0.000000
# 6 0.000000 0.000000 0.000000 -0.006873 0.000000 0.034357
#
#
# Mechanical properties :
#
#
# Convention : Reuss Voigt Hill
#
# Bulk Modulus (GPa) = 17.93439 46.25725 32.09582
# Shear Modulus (GPa) = 24.19026 32.49926 28.34476
#
# Velocity S-wave (km/s) = 3.45654 4.00643 3.74160
# Velocity P-wave (km/s) = 4.97876 6.65197 5.87523
#
# Compressibility (1/GPa) = 0.05575879
#
# Stress axis : x y z
#
# Youngs Moduli (GPa) = 36.72043 144.11415 33.65923
#
# Poissons Ratio (x) = 0.72650 -0.25960
# Poissons Ratio (y) = 0.18511 0.22661
# Poissons Ratio (z) = -0.28321 0.97026
#
# Static dielectric constant tensor:
#      x y z
#    x 1.746770 0.000000 0.011720 
#    y 0.000000 1.761020 0.000000 
#    z 0.011720 0.000000 1.726690 
# 
# From -- ./inp_files/142943.got.cif
#   From: 2010.05.17/outbox.cif.g08.bks.cpg/sg12_72_cif.got.tgz:142943.got - 2010.06.03 13:09:07.
