data_PCOD9220258
_publ_section_title
;
Structure prediction by ZEFSAII (Michael W. Deem and Ramdas Pophale) SiO2 
 PCOD9220258
Probable space group: C 2/M
;
_chemical_formula_sum "Si O2"
_cell_formula_units_Z 40
_cell_length_a 12.097617
_cell_length_b 20.953365
_cell_length_c 11.572349
_cell_angle_alpha 90.000000
_cell_angle_beta 35.106619
_cell_angle_gamma 90.000000
_cell_volume 1687.012580
_symmetry_space_group_name_H-M "C 2/M"
_symmetry_group_IT_number 12
_symmetry_cell_setting 'monoclinic'
loop_
_space_group_symop_operation_xyz
x,y,z
-x,y,-z
-x,-y,-z
x,-y,z
1/2+x,1/2+y,z
1/2-x,1/2+y,-z
1/2-x,1/2-y,-z
1/2+x,1/2-y,z
loop_
_atom_site_type_symbol
_atom_site_label
_atom_site_fract_x
_atom_site_fract_y
_atom_site_fract_z
Si Si1 0.379182 0.637851 0.282686
Si Si2 0.288738 0.429756 0.740668
Si Si3 0.083449 0.798241 0.298935
Si Si4 0.779017 0.339871 0.826103
Si Si5 0.092159 0.429481 0.668030
O O1 0.414537 0.691751 0.349948
O O2 0.237893 0.652407 0.297560
O O3 0.293492 0.579234 0.427583
O O4 0.585887 0.631540 0.046421
O O5 0.500000 0.431867 0.500000
O O6 0.259875 0.500000 0.820306
O O7 0.295941 0.364554 0.806528
O O8 0.139227 0.422792 0.763046
O O9 0.204595 0.735721 0.167864
O O10 0.000000 0.792034 0.500000
O O11 0.955089 0.375997 0.733850
O O12 0.014610 0.500000 0.711825
#
# Coordination Sequence:
#
# PCOD9220258 Si02
#       5
#     8   8   8   8   8
#     4  11  24  45  64  97 139 181 221 278 344 396
#     4   9  18  37  67 100 128 171 226 273 338 400
#     4  11  21  40  71  98 130 182 224 281 335 400
#     4  11  27  41  64 104 140 175 231 276 336 408
#     4  11  23  44  72  98 136 183 230 278 333 410
#
# _framework density 23.710550999999999
#
# number of rings (size 3 to 8) (size 9 to 14) (size 15 to 20)
#    0.000    1.400    4.000    2.400    2.800    4.000 
#    0.000    2.000    0.000    2.400    0.000    0.000 
#    0.000    0.000    0.000    0.000    0.000    0.000 
#
# Total GULP energy -111840.888944 kJ/mol
# GULP energy per Si atom -5592.044447 kJ/mol
# Density = 2.365659 g / cm^3
# Si number density = 23.710551 Si / 1000 Ang^3
#
#
#
# Elastic Constant Matrix: (Units=GPa)
#
#
# Indices 1 2 3 4 5 6 
#
# 1 139.4707 42.7612 23.0260 0.0002 11.3377 -0.0005
# 2 42.7612 172.6723 25.0840 -0.0013 -10.0188 0.0006
# 3 23.0260 25.0840 86.1687 0.0039 6.1639 -0.0024
# 4 0.0002 -0.0013 0.0039 -23.8208 -0.0025 2.2680
# 5 11.3377 -10.0188 6.1639 -0.0025 39.0555 0.0013
# 6 -0.0005 0.0006 -0.0024 2.2680 0.0013 7.1891
#
#
#
# Elastic Compliance Matrix: (Units=1/GPa)
#
#
# Indices 1 2 3 4 5 6 
#
# 1 0.008232 -0.001986 -0.001430 0.000000 -0.002674 0.000001
# 2 -0.001986 0.006661 -0.001590 -0.000001 0.002536 -0.000001
# 3 -0.001430 -0.001590 0.012592 0.000003 -0.001980 0.000004
# 4 0.000000 -0.000001 0.000003 -0.040756 -0.000004 0.012858
# 5 -0.002674 0.002536 -0.001980 -0.000004 0.027344 -0.000005
# 6 0.000001 -0.000001 0.000004 0.012858 -0.000005 0.135043
#
#
# Mechanical properties :
#
#
# Convention : Reuss Voigt Hill
#
# Bulk Modulus (GPa) = 57.23179 64.45044 60.84112
# Shear Modulus (GPa) = 30.31166 24.98080 27.64623
#
# Velocity S-wave (km/s) = 3.57936 3.24940 3.41836
# Velocity P-wave (km/s) = 6.42437 6.42801 6.42619
#
# Compressibility (1/GPa) = 0.01747281
#
# Stress axis : x y z
#
# Youngs Moduli (GPa) = 121.47177 150.12192 79.41661
#
# Poissons Ratio (x) = 0.29814 0.11360
# Poissons Ratio (y) = 0.24124 0.12626
# Poissons Ratio (z) = 0.17376 0.23867
#
# Static dielectric constant tensor:
#      x y z
#    x 1.902470 0.000000 0.004400 
#    y 0.000000 1.853290 0.000000 
#    z 0.004400 0.000000 1.947310 
# 
# From -- ./inp_files/48805.got.cif
#   From: 2010.05.17/outbox.cif.g08.bks.cpg/sg12_25_cif.got.tgz:48805.got - 2010.06.03 13:09:07.
