data_PCOD9220494
_publ_section_title
;
Structure prediction by ZEFSAII (Michael W. Deem and Ramdas Pophale) SiO2 
 PCOD9220494
Probable space group: C 2/M
;
_chemical_formula_sum "Si O2"
_cell_formula_units_Z 48
_cell_length_a 25.938712
_cell_length_b 7.858021
_cell_length_c 14.662977
_cell_angle_alpha 90.000000
_cell_angle_beta 40.462295
_cell_angle_gamma 90.000000
_cell_volume 1939.515751
_symmetry_space_group_name_H-M "C 2/M"
_symmetry_group_IT_number 12
_symmetry_cell_setting 'monoclinic'
loop_
_space_group_symop_operation_xyz
x,y,z
-x,y,-z
-x,-y,-z
x,-y,z
1/2+x,1/2+y,z
1/2-x,1/2+y,-z
1/2-x,1/2-y,-z
1/2+x,1/2-y,z
loop_
_atom_site_type_symbol
_atom_site_label
_atom_site_fract_x
_atom_site_fract_y
_atom_site_fract_z
Si Si1 0.993739 0.302755 0.903237
Si Si2 0.159522 0.196433 0.996793
Si Si3 0.836491 0.809501 0.349341
Si Si4 0.259695 0.803573 0.285051
Si Si5 0.914416 0.792062 0.725865
Si Si6 0.590482 0.292627 0.477871
O O1 0.968197 0.500000 0.941351
O O2 0.082333 0.290056 0.742727
O O3 0.927504 0.207641 0.933624
O O4 0.000000 0.241715 0.000000
O O5 0.146926 0.267163 0.115374
O O6 0.184227 0.000000 0.967539
O O7 0.218933 0.292291 0.849848
O O8 0.750000 0.750000 0.500000
O O9 0.821756 0.801208 0.260252
O O10 0.850570 0.000000 0.362657
O O11 0.170315 0.738861 0.420610
O O12 0.266701 0.000000 0.304347
O O13 0.902212 0.740064 0.637973
O O14 0.004673 0.738325 0.628548
O O15 0.912969 0.000000 0.729714
O O16 0.591471 0.500000 0.477150
#
# Coordination Sequence:
#
# PCOD9220494 Si02
#       6
#     8   8   8   8   8   8
#     4  11  23  41  63  86 118 157 197 243 292 351
#     4  11  22  35  58  88 118 155 198 244 294 352
#     4  12  26  43  63  88 120 156 196 242 293 351
#     4  11  22  37  58  86 119 156 196 242 294 348
#     4   8  16  33  56  85 113 147 196 244 292 349
#     4   8  16  33  57  82 114 151 193 244 293 345
#
# _framework density 24.748446000000001
#
# number of rings (size 3 to 8) (size 9 to 14) (size 15 to 20)
#    0.000    1.833    1.667    4.000    2.333    1.333 
#    0.000    0.000    0.000    3.000    0.000    9.333 
#    0.000    0.000    0.000    0.000    0.000    0.000 
#
# Total GULP energy -134236.118370 kJ/mol
# GULP energy per Si atom -5593.171599 kJ/mol
# Density = 2.469212 g / cm^3
# Si number density = 24.748446 Si / 1000 Ang^3
#
#
#
# Elastic Constant Matrix: (Units=GPa)
#
#
# Indices 1 2 3 4 5 6 
#
# 1 45.5276 -4.6992 4.4082 -0.0002 -16.0784 -0.0009
# 2 -4.6992 48.4340 -5.8679 0.0083 2.2125 -0.0038
# 3 4.4082 -5.8679 105.4367 0.0065 2.4723 -0.0033
# 4 -0.0002 0.0083 0.0065 20.5880 -0.0030 1.8554
# 5 -16.0784 2.2125 2.4723 -0.0030 49.5355 0.0013
# 6 -0.0009 -0.0038 -0.0033 1.8554 0.0013 11.0686
#
#
#
# Elastic Compliance Matrix: (Units=1/GPa)
#
#
# Indices 1 2 3 4 5 6 
#
# 1 0.025146 0.001931 -0.001135 0.000001 0.008132 0.000001
# 2 0.001931 0.020983 0.001096 -0.000010 -0.000365 0.000009
# 3 -0.001135 0.001096 0.009614 -0.000004 -0.000897 0.000004
# 4 0.000001 -0.000010 -0.000004 0.049317 0.000004 -0.008267
# 5 0.008132 -0.000365 -0.000897 0.000004 0.022888 -0.000003
# 6 0.000001 0.000009 0.000004 -0.008267 -0.000003 0.091732
#
#
# Mechanical properties :
#
#
# Convention : Reuss Voigt Hill
#
# Bulk Modulus (GPa) = 16.79919 20.78674 18.79297
# Shear Modulus (GPa) = 21.20995 29.94223 25.57609
#
# Velocity S-wave (km/s) = 2.93067 3.48208 3.21821
# Velocity P-wave (km/s) = 4.27253 4.95822 4.62809
#
# Compressibility (1/GPa) = 0.05952668
#
# Stress axis : x y z
#
# Youngs Moduli (GPa) = 39.76804 47.65675 104.01705
#
# Poissons Ratio (x) = -0.09201 0.11801
# Poissons Ratio (y) = -0.07678 -0.11396
# Poissons Ratio (z) = 0.04512 -0.05221
#
# Static dielectric constant tensor:
#      x y z
#    x 1.975010 0.000000 0.050700 
#    y 0.000000 1.884790 0.000000 
#    z 0.050700 0.000000 2.002120 
# 
# From -- ./inp_files/244698.got.cif
#   From: 2010.05.17/outbox.cif.g08.bks.cpg/sg12_123_cif.got.tgz:244698.got - 2010.06.03 13:09:07.
