data_PCOD9220469
_publ_section_title
;
Structure prediction by ZEFSAII (Michael W. Deem and Ramdas Pophale) SiO2 
 PCOD9220469
Probable space group: C 2/M
;
_chemical_formula_sum "Si O2"
_cell_formula_units_Z 34
_cell_length_a 13.765059
_cell_length_b 11.864295
_cell_length_c 16.950552
_cell_angle_alpha 90.000000
_cell_angle_beta 25.498232
_cell_angle_gamma 90.000000
_cell_volume 1191.681267
_symmetry_space_group_name_H-M "C 2/M"
_symmetry_group_IT_number 12
_symmetry_cell_setting 'monoclinic'
loop_
_space_group_symop_operation_xyz
x,y,z
-x,y,-z
-x,-y,-z
x,-y,z
1/2+x,1/2+y,z
1/2-x,1/2+y,-z
1/2-x,1/2-y,-z
1/2+x,1/2-y,z
loop_
_atom_site_type_symbol
_atom_site_label
_atom_site_fract_x
_atom_site_fract_y
_atom_site_fract_z
Si Si1 0.766544 0.378511 0.799937
Si Si2 0.030183 0.627504 0.173924
Si Si3 0.000000 0.500000 0.000000
Si Si4 0.923036 0.150649 0.642278
Si Si5 0.021921 0.127080 0.744901
O O1 0.809714 0.500000 0.733650
O O2 0.859649 0.375554 0.820308
O O3 0.892831 0.282964 0.662512
O O4 0.500000 0.360798 0.000000
O O5 0.930609 0.500000 0.236799
O O6 0.913534 0.752828 0.260719
O O7 0.247320 0.629082 0.956607
O O8 0.819214 0.596221 0.162981
O O9 0.066634 0.127987 0.617538
O O10 0.000000 0.114731 0.500000
O O11 0.089442 0.000000 0.723646
#
# Coordination Sequence:
#
# PCOD9220469 Si02
#       5
#     8   8   2   8   8
#     4   9  17  32  54  81 105 137 178 217 266 315
#     4   8  15  27  46  73 100 131 176 211 251 317
#     4  12  22  36  50  78 108 144 172 220 262 320
#     4  11  22  35  54  80 108 139 179 220 264 316
#     4   9  16  28  47  73  99 132 174 212 255 311
#
# _framework density 28.531117999999999
#
# number of rings (size 3 to 8) (size 9 to 14) (size 15 to 20)
#    0.000    2.588    2.353    0.353    0.000    0.471 
#    0.000    0.000    0.000    1.412    0.000    0.000 
#    0.000    0.000    0.000    0.000    0.000    0.000 
#
# Total GULP energy -94906.468280 kJ/mol
# GULP energy per Si atom -5582.733428 kJ/mol
# Density = 2.846618 g / cm^3
# Si number density = 28.531118 Si / 1000 Ang^3
#
#
#
# Elastic Constant Matrix: (Units=GPa)
#
#
# Indices 1 2 3 4 5 6 
#
# 1 104.3432 17.7191 35.4801 0.0023 19.2638 -0.0051
# 2 17.7191 312.1765 54.5631 0.0067 10.1589 -0.0061
# 3 35.4801 54.5631 178.1437 0.0088 22.1106 -0.0188
# 4 0.0023 0.0067 0.0088 -29.5741 -0.0053 -25.0970
# 5 19.2638 10.1589 22.1106 -0.0053 49.7366 0.0117
# 6 -0.0051 -0.0061 -0.0188 -25.0970 0.0117 45.1387
#
#
#
# Elastic Compliance Matrix: (Units=1/GPa)
#
#
# Indices 1 2 3 4 5 6 
#
# 1 0.010815 -0.000212 -0.001667 0.000000 -0.003405 0.000001
# 2 -0.000212 0.003391 -0.000975 0.000000 -0.000177 0.000000
# 3 -0.001667 -0.000975 0.006498 0.000000 -0.002044 0.000003
# 4 0.000000 0.000000 0.000000 -0.022974 0.000001 -0.012773
# 5 -0.003405 -0.000177 -0.002044 0.000001 0.022370 -0.000007
# 6 0.000001 0.000000 0.000003 -0.012773 -0.000007 0.015052
#
#
# Mechanical properties :
#
#
# Convention : Reuss Voigt Hill
#
# Bulk Modulus (GPa) = 66.67448 90.02087 78.34768
# Shear Modulus (GPa) = 109.03500 45.52033 77.27766
#
# Velocity S-wave (km/s) = 6.18863 3.99866 5.21001
# Velocity P-wave (km/s) = 8.63049 7.27594 7.98200
#
# Compressibility (1/GPa) = 0.01499824
#
# Stress axis : x y z
#
# Youngs Moduli (GPa) = 92.46449 294.85946 153.90433
#
# Poissons Ratio (x) = 0.06245 0.25649
# Poissons Ratio (y) = 0.01958 0.14999
# Poissons Ratio (z) = 0.15409 0.28736
#
# Static dielectric constant tensor:
#      x y z
#    x 2.311560 -0.000010 0.014090 
#    y -0.000010 2.224980 0.000000 
#    z 0.014090 0.000000 2.180970 
# 
# From -- ./inp_files/23686.got.cif
#   From: 2010.05.17/outbox.cif.g08.bks.cpg/sg12_12_cif.got.tgz:23686.got - 2010.06.03 13:09:07.
