data_PCOD9220181
_publ_section_title
;
Structure prediction by ZEFSAII (Michael W. Deem and Ramdas Pophale) SiO2 
 PCOD9220181
Probable space group: C 2/M
;
_chemical_formula_sum "Si O2"
_cell_formula_units_Z 32
_cell_length_a 18.001887
_cell_length_b 10.155607
_cell_length_c 9.070300
_cell_angle_alpha 90.000000
_cell_angle_beta 131.488099
_cell_angle_gamma 90.000000
_cell_volume 1242.171338
_symmetry_space_group_name_H-M "C 2/M"
_symmetry_group_IT_number 12
_symmetry_cell_setting 'monoclinic'
loop_
_space_group_symop_operation_xyz
x,y,z
-x,y,-z
-x,-y,-z
x,-y,z
1/2+x,1/2+y,z
1/2-x,1/2+y,-z
1/2-x,1/2-y,-z
1/2+x,1/2-y,z
loop_
_atom_site_type_symbol
_atom_site_label
_atom_site_fract_x
_atom_site_fract_y
_atom_site_fract_z
Si Si1 0.111125 0.224430 0.200795
Si Si2 0.848094 0.500000 0.760523
Si Si3 0.243535 0.349918 0.853754
Si Si4 0.053897 0.759660 0.438565
Si Si5 0.039575 0.500000 0.803323
O O1 0.184360 0.351963 0.316236
O O2 0.161417 0.150619 0.130718
O O3 0.085308 0.169194 0.328564
O O4 0.000000 0.263144 0.000000
O O5 0.944194 0.500000 0.783750
O O6 0.870450 0.500000 0.963710
O O7 0.226984 0.500000 0.881927
O O8 0.152751 0.305634 0.632236
O O9 0.250000 0.250000 0.000000
O O10 0.000000 0.836902 0.500000
O O11 0.978018 0.637599 0.303270
#
# Coordination Sequence:
#
# PCOD9220181 Si02
#       5
#     8   4   8   8   4
#     4  11  21  41  70 100 138 175 216 275 341 403
#     4   9  16  32  66 106 123 164 219 276 330 386
#     4  12  29  45  66 100 137 180 228 277 333 399
#     4  11  21  39  67 102 132 171 224 282 330 392
#     4   9  15  30  62  98 129 154 221 276 324 374
#
# _framework density 25.761341000000002
#
# number of rings (size 3 to 8) (size 9 to 14) (size 15 to 20)
#    0.000    1.250    6.250    2.625    1.750    0.500 
#    0.000    1.250    0.000    3.000    0.000    0.000 
#    0.000    0.000    0.000    0.000    0.000    0.000 
#
# Total GULP energy -89254.241657 kJ/mol
# GULP energy per Si atom -5578.390104 kJ/mol
# Density = 2.570271 g / cm^3
# Si number density = 25.761341 Si / 1000 Ang^3
#
#
#
# Elastic Constant Matrix: (Units=GPa)
#
#
# Indices 1 2 3 4 5 6 
#
# 1 167.6072 28.6936 54.5868 0.0000 -45.3575 0.0000
# 2 28.6936 95.9095 29.2587 0.0000 -19.8663 0.0000
# 3 54.5868 29.2587 107.4227 0.0000 -37.2960 0.0000
# 4 0.0000 0.0000 0.0000 10.3759 0.0000 -2.7113
# 5 -45.3575 -19.8663 -37.2960 0.0000 57.5706 0.0000
# 6 0.0000 0.0000 0.0000 -2.7113 0.0000 26.5685
#
#
#
# Elastic Compliance Matrix: (Units=1/GPa)
#
#
# Indices 1 2 3 4 5 6 
#
# 1 0.008098 -0.000762 -0.002301 0.000000 0.004626 0.000000
# 2 -0.000762 0.011723 -0.002077 0.000000 0.002099 0.000000
# 3 -0.002301 -0.002077 0.013116 0.000000 0.005967 0.000000
# 4 0.000000 0.000000 0.000000 0.099018 0.000000 0.010105
# 5 0.004626 0.002099 0.005967 0.000000 0.025605 0.000000
# 6 0.000000 0.000000 0.000000 0.010105 0.000000 0.038670
#
#
# Mechanical properties :
#
#
# Convention : Reuss Voigt Hill
#
# Bulk Modulus (GPa) = 44.13805 66.22419 55.18112
# Shear Modulus (GPa) = 23.35763 36.12968 29.74365
#
# Velocity S-wave (km/s) = 3.01440 3.74903 3.40160
# Velocity P-wave (km/s) = 5.41167 6.67105 6.07409
#
# Compressibility (1/GPa) = 0.02265619
#
# Stress axis : x y z
#
# Youngs Moduli (GPa) = 123.48233 85.30266 76.24423
#
# Poissons Ratio (x) = 0.06504 0.17546
# Poissons Ratio (y) = 0.09415 0.15834
# Poissons Ratio (z) = 0.28416 0.17715
#
# Static dielectric constant tensor:
#      x y z
#    x 2.110700 0.000000 -0.009170 
#    y 0.000000 2.230130 0.000000 
#    z -0.009170 0.000000 2.045380 
# 
# From -- ./inp_files/71026.got.cif
#   From: 2010.05.17/outbox.cif.g08.bks.cpg/sg12_36_cif.got.tgz:71026.got - 2010.06.03 13:09:07.
