data_PCOD9220985
_publ_section_title
;
Structure prediction by ZEFSAII (Michael W. Deem and Ramdas Pophale) SiO2 
 PCOD9220985
Probable space group: C 2/M
;
_chemical_formula_sum "Si O2"
_cell_formula_units_Z 56
_cell_length_a 20.140969
_cell_length_b 17.236637
_cell_length_c 19.943663
_cell_angle_alpha 90.000000
_cell_angle_beta 157.661417
_cell_angle_gamma 90.000000
_cell_volume 2631.551200
_symmetry_space_group_name_H-M "C 2/M"
_symmetry_group_IT_number 12
_symmetry_cell_setting 'monoclinic'
loop_
_space_group_symop_operation_xyz
x,y,z
-x,y,-z
-x,-y,-z
x,-y,z
1/2+x,1/2+y,z
1/2-x,1/2+y,-z
1/2-x,1/2-y,-z
1/2+x,1/2-y,z
loop_
_atom_site_type_symbol
_atom_site_label
_atom_site_fract_x
_atom_site_fract_y
_atom_site_fract_z
Si Si1 0.494044 0.865405 0.069367
Si Si2 0.058604 0.836748 0.358840
Si Si3 0.876455 0.090927 0.445453
Si Si4 0.537415 0.686613 0.958841
Si Si5 0.872079 0.410270 0.225893
Si Si6 0.288011 0.827292 0.447404
Si Si7 0.273671 0.086791 0.987044
O O1 0.695880 0.863363 0.277980
O O2 0.419900 0.778389 0.997625
O O3 0.500000 0.899293 0.000000
O O4 0.386745 0.909711 0.025343
O O5 0.041842 0.894598 0.405889
O O6 0.196883 0.857953 0.430504
O O7 0.120699 0.754433 0.446540
O O8 0.869279 0.844959 0.148208
O O9 0.000000 0.116994 0.500000
O O10 0.839948 0.000000 0.401325
O O11 0.367120 0.678788 0.751986
O O12 0.500000 0.661239 0.000000
O O13 0.703390 0.639728 0.087459
O O14 0.841361 0.500000 0.213181
O O15 0.051498 0.380391 0.425356
O O16 0.890417 0.402757 0.162195
O O17 0.193381 0.000000 0.918310
#
# Coordination Sequence:
#
# PCOD9220985 Si02
#       7
#     8   8   8   8   8   8   8
#     4  11  23  40  62  93 130 176 226 267 319 391
#     4  11  22  40  66  96 134 175 224 272 322 387
#     4  11  23  38  59  93 138 180 217 260 318 387
#     4  11  25  48  71  97 131 174 221 282 344 400
#     4  11  26  45  69 101 131 170 223 280 345 410
#     4  11  24  43  70 100 129 173 225 278 338 393
#     4  11  23  39  64  96 137 181 219 271 330 390
#
# _framework density 21.280224
#
# number of rings (size 3 to 8) (size 9 to 14) (size 15 to 20)
#    0.000    1.000    2.857    3.429    2.000    8.286 
#    0.000    0.714    0.000    0.000    0.000    0.000 
#    0.000    0.000    0.000    0.000    0.000    0.000 
#
# Total GULP energy -156448.673034 kJ/mol
# GULP energy per Si atom -5587.452608 kJ/mol
# Density = 2.123179 g / cm^3
# Si number density = 21.280224 Si / 1000 Ang^3
#
#
#
# Elastic Constant Matrix: (Units=GPa)
#
#
# Indices 1 2 3 4 5 6 
#
# 1 104.6754 38.3161 24.7773 -0.0013 4.0427 -0.0024
# 2 38.3161 63.9676 20.6979 0.0072 18.3908 0.0011
# 3 24.7773 20.6979 67.1767 0.0078 13.2364 -0.0004
# 4 -0.0013 0.0072 0.0078 21.4950 0.0028 -4.6482
# 5 4.0427 18.3908 13.2364 0.0028 34.7310 -0.0006
# 6 -0.0024 0.0011 -0.0004 -4.6482 -0.0006 4.1815
#
#
#
# Elastic Compliance Matrix: (Units=1/GPa)
#
#
# Indices 1 2 3 4 5 6 
#
# 1 0.013041 -0.007908 -0.003135 0.000008 0.003864 0.000019
# 2 -0.007908 0.024322 -0.002401 -0.000012 -0.011043 -0.000026
# 3 -0.003135 -0.002401 0.017796 -0.000007 -0.005146 -0.000008
# 4 0.000008 -0.000012 -0.000007 0.061245 0.000004 0.068081
# 5 0.003864 -0.011043 -0.005146 0.000004 0.036152 0.000015
# 6 0.000019 -0.000026 -0.000008 0.068081 0.000015 0.314830
#
#
# Mechanical properties :
#
#
# Convention : Reuss Voigt Hill
#
# Bulk Modulus (GPa) = 35.37212 44.82247 40.09729
# Shear Modulus (GPa) = 9.92662 22.21673 16.07167
#
# Velocity S-wave (km/s) = 2.16214 3.23462 2.75114
# Velocity P-wave (km/s) = 4.78448 5.92107 5.38286
#
# Compressibility (1/GPa) = 0.02827086
#
# Stress axis : x y z
#
# Youngs Moduli (GPa) = 76.68224 41.11573 56.19214
#
# Poissons Ratio (x) = 0.32514 0.17615
# Poissons Ratio (y) = 0.60640 0.13492
# Poissons Ratio (z) = 0.24038 0.09872
#
# Static dielectric constant tensor:
#      x y z
#    x 1.827000 0.000000 -0.132430 
#    y 0.000000 1.757670 0.000000 
#    z -0.132430 0.000000 1.949320 
# 
# From -- ./inp_files/322713.got.cif
#   From: 2010.05.17/outbox.cif.g08.bks.cpg/sg12_162_cif.got.tgz:322713.got - 2010.06.03 13:09:07.
