data_PCOD9220656
_publ_section_title
;
Structure prediction by ZEFSAII (Michael W. Deem and Ramdas Pophale) SiO2 
 PCOD9220656
Probable space group: C 2/M
;
_chemical_formula_sum "Si O2"
_cell_formula_units_Z 56
_cell_length_a 9.429189
_cell_length_b 25.347677
_cell_length_c 12.332946
_cell_angle_alpha 90.000000
_cell_angle_beta 107.871637
_cell_angle_gamma 90.000000
_cell_volume 2805.437481
_symmetry_space_group_name_H-M "C 2/M"
_symmetry_group_IT_number 12
_symmetry_cell_setting 'monoclinic'
loop_
_space_group_symop_operation_xyz
x,y,z
-x,y,-z
-x,-y,-z
x,-y,z
1/2+x,1/2+y,z
1/2-x,1/2+y,-z
1/2-x,1/2-y,-z
1/2+x,1/2-y,z
loop_
_atom_site_type_symbol
_atom_site_label
_atom_site_fract_x
_atom_site_fract_y
_atom_site_fract_z
Si Si1 0.371181 0.129577 0.392996
Si Si2 0.189421 0.063195 0.170164
Si Si3 0.096259 0.771527 0.922184
Si Si4 0.563808 0.206453 0.289671
Si Si5 0.330488 0.437679 0.078556
Si Si6 0.321953 0.356325 0.240085
Si Si7 0.908208 0.816807 0.584570
O O1 0.500000 0.104784 0.500000
O O2 0.282345 0.093298 0.284966
O O3 0.450278 0.175166 0.339831
O O4 0.251998 0.156246 0.446505
O O5 0.009727 0.071083 0.132710
O O6 0.214468 0.000000 0.184855
O O7 0.224546 0.080187 0.053670
O O8 0.134937 0.816004 0.845170
O O9 0.011475 0.724631 0.840474
O O10 0.250000 0.750000 0.000000
O O11 0.000000 0.791898 0.000000
O O12 0.703244 0.170508 0.290862
O O13 0.608443 0.262192 0.353577
O O14 0.305781 0.500000 0.078056
O O15 0.262346 0.407378 0.164587
O O16 0.478324 0.360215 0.338641
O O17 0.000000 0.801024 0.500000
#
# Coordination Sequence:
#
# PCOD9220656 Si02
#       7
#     8   8   8   8   8   8   8
#     4  12  25  40  63  92 124 166 209 251 315 377
#     4   9  20  40  66  95 121 156 205 262 318 372
#     4  11  23  36  55  88 128 165 205 249 316 376
#     4  11  25  39  57  90 126 167 208 254 308 368
#     4   9  19  38  68  96 120 157 210 260 314 375
#     4  11  22  37  62  90 122 161 206 261 305 363
#     4  11  23  42  64  86 122 166 212 255 301 366
#
# _framework density 19.961236
#
# number of rings (size 3 to 8) (size 9 to 14) (size 15 to 20)
#    0.000    1.429    2.857    3.857    6.000    2.000 
#    0.000    0.714    0.000    5.143    0.000    0.000 
#    0.000    0.000    0.000    0.000    0.000    0.000 
#
# Total GULP energy -156250.404881 kJ/mol
# GULP energy per Si atom -5580.371603 kJ/mol
# Density = 1.991580 g / cm^3
# Si number density = 19.961236 Si / 1000 Ang^3
#
#
#
# Elastic Constant Matrix: (Units=GPa)
#
#
# Indices 1 2 3 4 5 6 
#
# 1 113.4170 24.7369 47.9762 0.0000 -9.1347 0.0000
# 2 24.7369 56.1268 36.7096 0.0000 3.1447 0.0000
# 3 47.9762 36.7096 110.9232 0.0000 5.9033 0.0000
# 4 0.0000 0.0000 0.0000 9.4062 0.0000 -4.2717
# 5 -9.1347 3.1447 5.9033 0.0000 37.7283 0.0000
# 6 0.0000 0.0000 0.0000 -4.2717 0.0000 18.2487
#
#
#
# Elastic Compliance Matrix: (Units=1/GPa)
#
#
# Indices 1 2 3 4 5 6 
#
# 1 0.011484 -0.002413 -0.004364 0.000000 0.003664 0.000000
# 2 -0.002413 0.023265 -0.006576 0.000000 -0.001494 0.000000
# 3 -0.004364 -0.006576 0.013216 0.000000 -0.002576 0.000000
# 4 0.000000 0.000000 0.000000 0.118958 0.000000 0.027846
# 5 0.003664 -0.001494 -0.002576 0.000000 0.027920 0.000000
# 6 0.000000 0.000000 0.000000 0.027846 0.000000 0.061317
#
#
# Mechanical properties :
#
#
# Convention : Reuss Voigt Hill
#
# Bulk Modulus (GPa) = 47.03689 55.47915 51.25802
# Shear Modulus (GPa) = 17.24416 24.47960 20.86188
#
# Velocity S-wave (km/s) = 2.94238 3.50574 3.23634
# Velocity P-wave (km/s) = 5.92948 6.65137 6.30077
#
# Compressibility (1/GPa) = 0.02125991
#
# Stress axis : x y z
#
# Youngs Moduli (GPa) = 87.07570 42.98259 75.66487
#
# Poissons Ratio (x) = 0.10371 0.33018
# Poissons Ratio (y) = 0.21009 0.49761
# Poissons Ratio (z) = 0.37997 0.28267
#
# Static dielectric constant tensor:
#      x y z
#    x 1.704380 0.000000 0.024280 
#    y 0.000000 1.700440 0.000000 
#    z 0.024280 0.000000 1.753860 
# 
# From -- ./inp_files/124345.got.cif
#   From: 2010.05.17/outbox.cif.g08.bks.cpg/sg12_63_cif.got.tgz:124345.got - 2010.06.03 13:09:07.
