data_PCOD9220962
_publ_section_title
;
Structure prediction by ZEFSAII (Michael W. Deem and Ramdas Pophale) SiO2 
 PCOD9220962
Probable space group: C 2/M
;
_chemical_formula_sum "Si O2"
_cell_formula_units_Z 56
_cell_length_a 23.883643
_cell_length_b 22.435243
_cell_length_c 14.333176
_cell_angle_alpha 90.000000
_cell_angle_beta 162.073687
_cell_angle_gamma 90.000000
_cell_volume 2363.923254
_symmetry_space_group_name_H-M "C 2/M"
_symmetry_group_IT_number 12
_symmetry_cell_setting 'monoclinic'
loop_
_space_group_symop_operation_xyz
x,y,z
-x,y,-z
-x,-y,-z
x,-y,z
1/2+x,1/2+y,z
1/2-x,1/2+y,-z
1/2-x,1/2-y,-z
1/2+x,1/2-y,z
loop_
_atom_site_type_symbol
_atom_site_label
_atom_site_fract_x
_atom_site_fract_y
_atom_site_fract_z
Si Si1 0.175041 0.069963 0.387854
Si Si2 0.061798 0.226499 0.742489
Si Si3 0.795804 0.877278 0.748062
Si Si4 0.196256 0.435943 0.765134
Si Si5 0.663461 0.877834 0.190017
Si Si6 0.666135 0.744883 0.115616
Si Si7 0.483074 0.410533 0.580473
O O1 0.288800 0.099597 0.482750
O O2 0.184530 0.115159 0.489438
O O3 0.217187 0.000000 0.471250
O O4 0.964388 0.078035 0.029599
O O5 0.033485 0.159095 0.665475
O O6 0.876555 0.257125 0.417112
O O7 0.250000 0.250000 0.000000
O O8 0.057845 0.233876 0.848641
O O9 0.691866 0.886372 0.678935
O O10 0.856037 0.808589 0.845660
O O11 0.208340 0.500000 0.735500
O O12 0.000000 0.432871 0.500000
O O13 0.363147 0.434674 0.103781
O O14 0.629264 0.810763 0.100019
O O15 0.771320 0.914529 0.280101
O O16 0.500000 0.900589 0.000000
O O17 0.500000 0.430936 0.500000
#
# Coordination Sequence:
#
# PCOD9220962 Si02
#       7
#     8   8   8   8   8   8   8
#     4  11  24  44  70  96 134 185 236 286 349 425
#     4  11  22  40  64  96 135 187 229 281 347 437
#     4  11  22  41  70 101 129 179 232 291 355 420
#     4  11  24  43  70 104 139 181 242 308 360 417
#     4  11  26  44  67 102 143 188 230 296 356 432
#     4  11  24  40  65 103 142 177 230 295 363 420
#     4  11  24  46  68 100 143 188 239 286 360 435
#
# _framework density 23.689432
#
# number of rings (size 3 to 8) (size 9 to 14) (size 15 to 20)
#    0.000    1.000    2.857    4.714    6.000    2.286 
#    0.000    0.000    0.000    0.000    0.000    0.000 
#    0.000    0.000    0.000    0.000    0.000    0.000 
#
# Total GULP energy -155992.659116 kJ/mol
# GULP energy per Si atom -5571.166397 kJ/mol
# Density = 2.363551 g / cm^3
# Si number density = 23.689432 Si / 1000 Ang^3
#
#
#
# Elastic Constant Matrix: (Units=GPa)
#
#
# Indices 1 2 3 4 5 6 
#
# 1 123.4371 22.8529 13.5995 0.0000 2.1992 0.0000
# 2 22.8529 108.6692 -1.3917 0.0000 -6.9294 0.0000
# 3 13.5995 -1.3917 44.4123 -0.0005 25.7465 0.0003
# 4 0.0000 0.0000 -0.0005 93.6665 -0.0001 -53.8249
# 5 2.1992 -6.9294 25.7465 -0.0001 54.1974 0.0001
# 6 0.0000 0.0000 0.0003 -53.8249 0.0001 46.5009
#
#
#
# Elastic Compliance Matrix: (Units=1/GPa)
#
#
# Indices 1 2 3 4 5 6 
#
# 1 0.008788 -0.001828 -0.003320 0.000000 0.000987 0.000000
# 2 -0.001828 0.009668 0.000142 0.000000 0.001243 0.000000
# 3 -0.003320 0.000142 0.032361 0.000000 -0.015220 0.000000
# 4 0.000000 0.000000 0.000000 0.031884 0.000000 0.036905
# 5 0.000987 0.001243 -0.015220 0.000000 0.025800 0.000000
# 6 0.000000 0.000000 0.000000 0.036905 0.000000 0.064223
#
#
# Mechanical properties :
#
#
# Convention : Reuss Voigt Hill
#
# Bulk Modulus (GPa) = 24.50707 38.51557 31.51132
# Shear Modulus (GPa) = 25.46647 54.97015 40.21831
#
# Velocity S-wave (km/s) = 3.28230 4.82233 4.12482
# Velocity P-wave (km/s) = 4.97315 6.87752 6.00136
#
# Compressibility (1/GPa) = 0.04080456
#
# Stress axis : x y z
#
# Youngs Moduli (GPa) = 113.79278 103.43771 30.90152
#
# Poissons Ratio (x) = 0.18905 0.10261
# Poissons Ratio (y) = 0.20797 -0.00439
# Poissons Ratio (z) = 0.37785 -0.01471
#
# Static dielectric constant tensor:
#      x y z
#    x 2.431700 0.000000 -0.070490 
#    y 0.000000 1.926240 0.000000 
#    z -0.070490 0.000000 2.015230 
# 
# From -- ./inp_files/242195.got.cif
#   From: 2010.05.17/outbox.cif.g08.bks.cpg/sg12_122_cif.got.tgz:242195.got - 2010.06.03 13:09:07.
