data_PCOD9220173
_publ_section_title
;
Structure prediction by ZEFSAII (Michael W. Deem and Ramdas Pophale) SiO2 
 PCOD9220173
Probable space group: C 2/M
;
_chemical_formula_sum "Si O2"
_cell_formula_units_Z 56
_cell_length_a 17.759707
_cell_length_b 19.321310
_cell_length_c 14.491507
_cell_angle_alpha 90.000000
_cell_angle_beta 31.683864
_cell_angle_gamma 90.000000
_cell_volume 2611.783115
_symmetry_space_group_name_H-M "C 2/M"
_symmetry_group_IT_number 12
_symmetry_cell_setting 'monoclinic'
loop_
_space_group_symop_operation_xyz
x,y,z
-x,y,-z
-x,-y,-z
x,-y,z
1/2+x,1/2+y,z
1/2-x,1/2+y,-z
1/2-x,1/2-y,-z
1/2+x,1/2-y,z
loop_
_atom_site_type_symbol
_atom_site_label
_atom_site_fract_x
_atom_site_fract_y
_atom_site_fract_z
Si Si1 0.051383 0.210804 0.603943
Si Si2 0.579615 0.131848 0.512255
Si Si3 0.645453 0.176407 0.756451
Si Si4 0.338205 0.422813 0.135593
Si Si5 0.084682 0.213061 0.053593
Si Si6 0.222261 0.160188 0.181134
Si Si7 0.944929 0.419001 0.843158
O O1 0.970639 0.213093 0.784831
O O2 0.948048 0.164031 0.648802
O O3 0.074615 0.285876 0.534013
O O4 0.211653 0.184653 0.452232
O O5 0.500000 0.115498 0.500000
O O6 0.737808 0.102794 0.324918
O O7 0.499226 0.100162 0.684309
O O8 0.550389 0.247420 0.856627
O O9 0.705917 0.152011 0.792656
O O10 0.546428 0.121076 0.809521
O O11 0.289173 0.500000 0.154898
O O12 0.500000 0.430179 0.000000
O O13 0.356601 0.360230 0.043550
O O14 0.219744 0.263785 0.905461
O O15 0.289186 0.108663 0.036013
O O16 0.953552 0.500000 0.846475
#
# Coordination Sequence:
#
# PCOD9220173 Si02
#       7
#     8   8   8   8   8   8   8
#     4  12  23  40  69 104 136 168 222 293 341 396
#     4  12  25  44  69  99 138 177 224 279 342 410
#     4  11  23  42  69 100 131 174 226 284 345 395
#     4  11  25  41  63  96 139 183 223 272 337 409
#     4  11  21  39  66  94 135 179 226 276 333 409
#     4  11  23  42  69 100 131 172 225 289 343 397
#     4  11  26  46  68  96 134 183 233 274 334 418
#
# _framework density 21.441289999999999
#
# number of rings (size 3 to 8) (size 9 to 14) (size 15 to 20)
#    0.000    0.714    2.857    7.714    4.000    2.286 
#    0.000    0.714    0.000    1.714    0.000    0.000 
#    0.000    0.000    0.000    0.000    0.000    0.000 
#
# Total GULP energy -156433.569737 kJ/mol
# GULP energy per Si atom -5586.913205 kJ/mol
# Density = 2.139249 g / cm^3
# Si number density = 21.441290 Si / 1000 Ang^3
#
#
#
# Elastic Constant Matrix: (Units=GPa)
#
#
# Indices 1 2 3 4 5 6 
#
# 1 58.5111 19.5142 12.1141 0.0008 12.6469 -0.0001
# 2 19.5142 128.1283 30.5200 0.0006 -2.2761 0.0006
# 3 12.1141 30.5200 69.9340 0.0007 -4.7202 0.0005
# 4 0.0008 0.0006 0.0007 53.8907 0.0001 -0.9059
# 5 12.6469 -2.2761 -4.7202 0.0001 36.8024 -0.0003
# 6 -0.0001 0.0006 0.0005 -0.9059 -0.0003 11.1369
#
#
#
# Elastic Compliance Matrix: (Units=1/GPa)
#
#
# Indices 1 2 3 4 5 6 
#
# 1 0.020137 -0.002509 -0.002896 0.000000 -0.007446 0.000000
# 2 -0.002509 0.009023 -0.003437 0.000000 0.000980 0.000000
# 3 -0.002896 -0.003437 0.016496 0.000000 0.002898 -0.000001
# 4 0.000000 0.000000 0.000000 0.018581 0.000000 0.001511
# 5 -0.007446 0.000980 0.002898 0.000000 0.030163 0.000001
# 6 0.000000 0.000000 -0.000001 0.001511 0.000001 0.089915
#
#
# Mechanical properties :
#
#
# Convention : Reuss Voigt Hill
#
# Bulk Modulus (GPa) = 35.74990 42.31891 39.03440
# Shear Modulus (GPa) = 23.66043 33.32768 28.49405
#
# Velocity S-wave (km/s) = 3.32550 3.94683 3.64941
# Velocity P-wave (km/s) = 5.60846 6.36788 6.00020
#
# Compressibility (1/GPa) = 0.02797211
#
# Stress axis : x y z
#
# Youngs Moduli (GPa) = 49.66060 110.82868 60.61961
#
# Poissons Ratio (x) = 0.27812 0.17553
# Poissons Ratio (y) = 0.12462 0.20834
# Poissons Ratio (z) = 0.14380 0.38091
#
# Static dielectric constant tensor:
#      x y z
#    x 1.834670 0.000000 -0.053820 
#    y 0.000000 1.764900 0.000000 
#    z -0.053820 0.000000 1.701200 
# 
# From -- ./inp_files/227566.got.cif
#   From: 2010.05.17/outbox.cif.g08.bks.cpg/sg12_114_cif.got.tgz:227566.got - 2010.06.03 13:09:07.
