data_PCOD9220238
_publ_section_title
;
Structure prediction by ZEFSAII (Michael W. Deem and Ramdas Pophale) SiO2 
 PCOD9220238
Probable space group: C 2/M
;
_chemical_formula_sum "Si O2"
_cell_formula_units_Z 44
_cell_length_a 19.120593
_cell_length_b 22.719143
_cell_length_c 5.028807
_cell_angle_alpha 90.000000
_cell_angle_beta 66.999833
_cell_angle_gamma 90.000000
_cell_volume 2010.869171
_symmetry_space_group_name_H-M "C 2/M"
_symmetry_group_IT_number 12
_symmetry_cell_setting 'monoclinic'
loop_
_space_group_symop_operation_xyz
x,y,z
-x,y,-z
-x,-y,-z
x,-y,z
1/2+x,1/2+y,z
1/2-x,1/2+y,-z
1/2-x,1/2-y,-z
1/2+x,1/2-y,z
loop_
_atom_site_type_symbol
_atom_site_label
_atom_site_fract_x
_atom_site_fract_y
_atom_site_fract_z
Si Si1 0.321085 0.395262 0.493265
Si Si2 0.549546 0.189171 0.691112
Si Si3 0.427454 0.063542 0.412723
Si Si4 0.261439 0.933432 0.884475
Si Si5 0.556069 0.500000 0.667538
Si Si6 0.803493 0.236679 0.666667
O O1 0.287117 0.393589 0.246138
O O2 0.390461 0.441602 0.407468
O O3 0.334070 0.330142 0.589644
O O4 0.256418 0.420589 0.784693
O O5 0.500000 0.184338 0.500000
O O6 0.569930 0.123164 0.759092
O O7 0.624625 0.221532 0.482141
O O8 0.500000 0.218136 0.000000
O O9 0.500000 0.061835 0.500000
O O10 0.350236 0.069917 0.694848
O O11 0.423664 0.000000 0.275828
O O12 0.235818 0.000000 0.860973
O O13 0.500000 0.500000 0.500000
O O14 0.500000 0.500000 0.000000
O O15 0.750000 0.250000 0.500000
O O16 0.750000 0.250000 0.000000
#
# Coordination Sequence:
#
# PCOD9220238 Si02
#       6
#     8   8   8   8   4   8
#     4  12  24  44  69  98 135 175 224 283 347 412
#     4  11  24  42  63  90 131 171 217 271 326 394
#     4   9  20  37  61  94 129 171 215 263 318 383
#     4  11  21  40  67  97 136 171 216 273 337 397
#     4  12  26  44  70 104 137 174 231 300 366 426
#     4  12  26  45  70 100 136 183 235 280 337 417
#
# _framework density 21.881086
#
# number of rings (size 3 to 8) (size 9 to 14) (size 15 to 20)
#    0.000    0.909    1.818    5.455    0.000    6.182 
#    0.000    5.455    0.000    0.000    0.000    0.000 
#    0.000    0.000    0.000    0.000    0.000    0.000 
#
# Total GULP energy -122964.502328 kJ/mol
# GULP energy per Si atom -5589.295560 kJ/mol
# Density = 2.183128 g / cm^3
# Si number density = 21.881086 Si / 1000 Ang^3
#
#
#
# Elastic Constant Matrix: (Units=GPa)
#
#
# Indices 1 2 3 4 5 6 
#
# 1 103.1189 37.8458 32.9533 0.0000 -11.7989 0.0000
# 2 37.8458 159.4917 40.9153 0.0000 -29.3378 0.0000
# 3 32.9533 40.9153 154.9291 0.0000 -16.0047 0.0000
# 4 0.0000 0.0000 0.0000 151.1020 0.0000 -147.5688
# 5 -11.7989 -29.3378 -16.0047 0.0000 43.8914 0.0000
# 6 0.0000 0.0000 0.0000 -147.5688 0.0000 180.9589
#
#
#
# Elastic Compliance Matrix: (Units=1/GPa)
#
#
# Indices 1 2 3 4 5 6 
#
# 1 0.011101 -0.002005 -0.001727 0.000000 0.001015 0.000000
# 2 -0.002005 0.007838 -0.001203 0.000000 0.004262 0.000000
# 3 -0.001727 -0.001203 0.007283 0.000000 0.001387 0.000000
# 4 0.000000 0.000000 0.000000 0.032507 0.000000 0.026509
# 5 0.001015 0.004262 0.001387 0.000000 0.026410 0.000000
# 6 0.000000 0.000000 0.000000 0.026509 0.000000 0.027144
#
#
# Mechanical properties :
#
#
# Convention : Reuss Voigt Hill
#
# Bulk Modulus (GPa) = 61.15282 71.21872 66.18577
# Shear Modulus (GPa) = 39.18343 95.57884 67.38113
#
# Velocity S-wave (km/s) = 4.23631 6.61633 5.55528
# Velocity P-wave (km/s) = 7.20673 9.53869 8.45350
#
# Compressibility (1/GPa) = 0.01635248
#
# Stress axis : x y z
#
# Youngs Moduli (GPa) = 90.08016 127.58074 137.30612
#
# Poissons Ratio (x) = 0.25574 0.23713
# Poissons Ratio (y) = 0.18057 0.16523
# Poissons Ratio (z) = 0.15557 0.15353
#
# Static dielectric constant tensor:
#      x y z
#    x 1.751860 0.000000 -0.015650 
#    y 0.000000 1.894070 0.000000 
#    z -0.015650 0.000000 1.701360 
# 
# From -- ./inp_files/16822.got.cif
#   From: 2010.05.17/outbox.cif.g08.bks.cpg/sg12_9_cif.got.tgz:16822.got - 2010.06.03 13:09:07.
