data_PCOD9220354
_publ_section_title
;
Structure prediction by ZEFSAII (Michael W. Deem and Ramdas Pophale) SiO2 
 PCOD9220354
Probable space group: C 2/M
;
_chemical_formula_sum "Si O2"
_cell_formula_units_Z 26
_cell_length_a 7.655096
_cell_length_b 22.084520
_cell_length_c 7.691156
_cell_angle_alpha 90.000000
_cell_angle_beta 53.946238
_cell_angle_gamma 90.000000
_cell_volume 1051.214895
_symmetry_space_group_name_H-M "C 2/M"
_symmetry_group_IT_number 12
_symmetry_cell_setting 'monoclinic'
loop_
_space_group_symop_operation_xyz
x,y,z
-x,y,-z
-x,-y,-z
x,-y,z
1/2+x,1/2+y,z
1/2-x,1/2+y,-z
1/2-x,1/2-y,-z
1/2+x,1/2-y,z
loop_
_atom_site_type_symbol
_atom_site_label
_atom_site_fract_x
_atom_site_fract_y
_atom_site_fract_z
Si Si1 0.701003 0.657523 0.757686
Si Si2 0.262716 0.591330 0.604697
Si Si3 0.500000 0.000000 0.000000
Si Si4 0.090677 0.713466 0.755932
O O1 0.753831 0.603520 0.593114
O O2 0.649096 0.717526 0.672851
O O3 0.903981 0.682000 0.749779
O O4 0.500000 0.641475 0.000000
O O5 0.500000 0.565757 0.500000
O O6 0.085982 0.552374 0.809816
O O7 0.255921 0.658800 0.689765
O O8 0.000000 0.726016 0.000000
#
# Coordination Sequence:
#
# PCOD9220354 Si02
#       4
#     8   8   2   8
#     4  11  23  40  75 119 153 193 237 302 379 447
#     4  12  25  48  76 104 145 195 253 304 370 435
#     4  12  30  52  80  96 144 204 260 308 368 428
#     4  11  21  42  73 114 159 190 237 298 376 451
#
# _framework density 24.733288000000002
#
# number of rings (size 3 to 8) (size 9 to 14) (size 15 to 20)
#    0.000    0.615    1.538    9.692    0.000    0.000 
#    0.000    3.846    0.000    0.000    0.000    0.000 
#    0.000    0.000    0.000    0.000    0.000    0.000 
#
# Total GULP energy -72368.259694 kJ/mol
# GULP energy per Si atom -5566.789207 kJ/mol
# Density = 2.467699 g / cm^3
# Si number density = 24.733288 Si / 1000 Ang^3
#
#
#
# Elastic Constant Matrix: (Units=GPa)
#
#
# Indices 1 2 3 4 5 6 
#
# 1 130.9706 28.3505 28.9177 0.0000 2.6312 0.0000
# 2 28.3505 150.2325 78.6900 0.0000 8.3791 0.0000
# 3 28.9177 78.6900 151.1049 0.0000 12.9982 0.0000
# 4 0.0000 0.0000 0.0000 57.5303 0.0000 12.0671
# 5 2.6312 8.3791 12.9982 0.0000 35.4091 0.0000
# 6 0.0000 0.0000 0.0000 12.0671 0.0000 -20.1516
#
#
#
# Elastic Compliance Matrix: (Units=1/GPa)
#
#
# Indices 1 2 3 4 5 6 
#
# 1 0.008076 -0.000983 -0.001035 0.000000 0.000012 0.000000
# 2 -0.000983 0.009279 -0.004607 0.000000 -0.000432 0.000000
# 3 -0.001035 -0.004607 0.009412 0.000000 -0.002288 0.000000
# 4 0.000000 0.000000 0.000000 0.015443 0.000000 0.009247
# 5 0.000012 -0.000432 -0.002288 0.000000 0.029182 0.000000
# 6 0.000000 0.000000 0.000000 0.009247 0.000000 -0.044086
#
#
# Mechanical properties :
#
#
# Convention : Reuss Voigt Hill
#
# Bulk Modulus (GPa) = 73.97529 78.24716 76.11122
# Shear Modulus (GPa) = 110.96146 34.31421 72.63784
#
# Velocity S-wave (km/s) = 6.70527 3.72878 5.42515
# Velocity P-wave (km/s) = 9.48270 7.08826 8.37153
#
# Compressibility (1/GPa) = 0.01351803
#
# Stress axis : x y z
#
# Youngs Moduli (GPa) = 123.81944 107.77102 106.24831
#
# Poissons Ratio (x) = 0.10591 0.10996
# Poissons Ratio (y) = 0.12168 0.48948
# Poissons Ratio (z) = 0.12814 0.49650
#
# Static dielectric constant tensor:
#      x y z
#    x 2.054690 0.000000 -0.066160 
#    y 0.000000 1.996120 0.000000 
#    z -0.066160 0.000000 2.119090 
# 
# From -- ./inp_files/37921.got.cif
#   From: 2010.05.17/outbox.cif.g08.bks.cpg/sg12_19_cif.got.tgz:37921.got - 2010.06.03 13:09:07.
