data_PCOD9220026
_publ_section_title
;
Structure prediction by ZEFSAII (Michael W. Deem and Ramdas Pophale) SiO2 
 PCOD9220026
Probable space group: C 2/M
;
_chemical_formula_sum "Si O2"
_cell_formula_units_Z 56
_cell_length_a 13.066493
_cell_length_b 12.837085
_cell_length_c 16.493969
_cell_angle_alpha 90.000000
_cell_angle_beta 54.137270
_cell_angle_gamma 90.000000
_cell_volume 2242.137966
_symmetry_space_group_name_H-M "C 2/M"
_symmetry_group_IT_number 12
_symmetry_cell_setting 'monoclinic'
loop_
_space_group_symop_operation_xyz
x,y,z
-x,y,-z
-x,-y,-z
x,-y,z
1/2+x,1/2+y,z
1/2-x,1/2+y,-z
1/2-x,1/2-y,-z
1/2+x,1/2-y,z
loop_
_atom_site_type_symbol
_atom_site_label
_atom_site_fract_x
_atom_site_fract_y
_atom_site_fract_z
Si Si1 0.296673 0.327971 0.562088
Si Si2 0.175002 0.127277 0.997843
Si Si3 0.609514 0.623711 0.849354
Si Si4 0.956922 0.776125 0.633298
Si Si5 0.441535 0.123296 0.943683
Si Si6 0.188671 0.380709 0.385726
Si Si7 0.022051 0.381793 0.727174
O O1 0.163068 0.382701 0.624880
O O2 0.346241 0.334407 0.634394
O O3 0.421339 0.343671 0.449666
O O4 0.280436 0.202460 0.559870
O O5 0.176945 0.156848 0.901536
O O6 0.299559 0.158394 0.988982
O O7 0.176550 0.000000 0.999744
O O8 0.035097 0.160873 0.092271
O O9 0.596166 0.500000 0.864526
O O10 0.700594 0.637749 0.731408
O O11 0.962317 0.727179 0.720113
O O12 0.523559 0.131198 0.823543
O O13 0.428165 0.000000 0.962927
O O14 0.500000 0.163892 0.000000
O O15 0.183102 0.500000 0.411395
O O16 0.061999 0.338344 0.401165
O O17 0.964466 0.500000 0.739038
#
# Coordination Sequence:
#
# PCOD9220026 Si02
#       7
#     8   8   8   8   8   8   8
#     4   9  21  36  55  88 130 153 190 259 316 354
#     4   8  13  23  42  72 109 143 184 242 300 349
#     4   8  13  22  42  75 110 144 183 236 301 363
#     4   9  19  36  59  85 120 152 197 251 307 363
#     4   9  18  32  53  81 113 155 210 258 293 347
#     4   9  16  29  53  83 115 150 190 239 302 366
#     4  11  21  37  64  90 115 164 216 248 295 373
#
# _framework density 24.976161999999999
#
# number of rings (size 3 to 8) (size 9 to 14) (size 15 to 20)
#    0.857    2.143    0.000    2.571    0.000    4.000 
#    0.000    2.857    3.143    4.286    0.000    0.000 
#    0.000    0.000    0.000    0.000    0.000    0.000 
#
# Total GULP energy -155913.662701 kJ/mol
# GULP energy per Si atom -5568.345096 kJ/mol
# Density = 2.491931 g / cm^3
# Si number density = 24.976162 Si / 1000 Ang^3
#
#
#
# Elastic Constant Matrix: (Units=GPa)
#
#
# Indices 1 2 3 4 5 6 
#
# 1 143.9080 4.5933 52.2416 0.0000 -4.3839 0.0000
# 2 4.5933 66.1782 17.0410 0.0000 -0.0453 0.0000
# 3 52.2416 17.0410 97.9332 0.0000 5.9969 0.0000
# 4 0.0000 0.0000 0.0000 25.8418 0.0000 -9.1944
# 5 -4.3839 -0.0453 5.9969 0.0000 33.3221 0.0000
# 6 0.0000 0.0000 0.0000 -9.1944 0.0000 30.8134
#
#
#
# Elastic Compliance Matrix: (Units=1/GPa)
#
#
# Indices 1 2 3 4 5 6 
#
# 1 0.008777 0.000660 -0.004922 0.000000 0.002041 0.000000
# 2 0.000660 0.015878 -0.003156 0.000000 0.000676 0.000000
# 3 -0.004922 -0.003156 0.013575 0.000000 -0.003095 0.000000
# 4 0.000000 0.000000 0.000000 0.043293 0.000000 0.012918
# 5 0.002041 0.000676 -0.003095 0.000000 0.030837 0.000000
# 6 0.000000 0.000000 0.000000 0.012918 0.000000 0.036308
#
#
# Mechanical properties :
#
#
# Convention : Reuss Voigt Hill
#
# Bulk Modulus (GPa) = 42.74687 50.64124 46.69405
# Shear Modulus (GPa) = 29.18822 33.60503 31.39662
#
# Velocity S-wave (km/s) = 3.42225 3.67206 3.54936
# Velocity P-wave (km/s) = 5.72433 6.18858 5.96098
#
# Compressibility (1/GPa) = 0.02339353
#
# Stress axis : x y z
#
# Youngs Moduli (GPa) = 113.93851 62.97980 73.66416
#
# Poissons Ratio (x) = -0.04154 0.36255
# Poissons Ratio (y) = -0.07515 0.23249
# Poissons Ratio (z) = 0.56076 0.19877
#
# Static dielectric constant tensor:
#      x y z
#    x 2.110080 0.000000 0.055720 
#    y 0.000000 2.021200 0.000000 
#    z 0.055720 0.000000 2.045640 
# 
# From -- ./inp_files/207222.got.cif
#   From: 2010.05.17/outbox.cif.g08.bks.cpg/sg12_104_cif.got.tgz:207222.got - 2010.06.03 13:09:07.
