data_PCOD9220948
_publ_section_title
;
Structure prediction by ZEFSAII (Michael W. Deem and Ramdas Pophale) SiO2 
 PCOD9220948
Probable space group: C 2/M
;
_chemical_formula_sum "Si O2"
_cell_formula_units_Z 48
_cell_length_a 13.213134
_cell_length_b 21.595403
_cell_length_c 10.505843
_cell_angle_alpha 90.000000
_cell_angle_beta 131.244117
_cell_angle_gamma 90.000000
_cell_volume 2254.044458
_symmetry_space_group_name_H-M "C 2/M"
_symmetry_group_IT_number 12
_symmetry_cell_setting 'monoclinic'
loop_
_space_group_symop_operation_xyz
x,y,z
-x,y,-z
-x,-y,-z
x,-y,z
1/2+x,1/2+y,z
1/2-x,1/2+y,-z
1/2-x,1/2-y,-z
1/2+x,1/2-y,z
loop_
_atom_site_type_symbol
_atom_site_label
_atom_site_fract_x
_atom_site_fract_y
_atom_site_fract_z
Si Si1 0.161683 0.500000 0.011854
Si Si2 0.446618 0.791994 0.286584
Si Si3 0.657725 0.000000 0.308181
Si Si4 0.038851 0.182528 0.173868
Si Si5 0.651069 0.317766 0.637047
Si Si6 0.292011 0.868415 0.510797
Si Si7 0.271350 0.371465 0.039237
O O1 0.206300 0.500000 0.199411
O O2 0.218130 0.439857 0.991307
O O3 0.002035 0.500000 0.853416
O O4 0.514201 0.739564 0.251108
O O5 0.377756 0.752251 0.342322
O O6 0.561361 0.843103 0.405634
O O7 0.324959 0.825055 0.114593
O O8 0.698386 0.938200 0.422440
O O9 0.180913 0.147681 0.310966
O O10 0.922517 0.134499 0.116110
O O11 0.000000 0.203810 0.000000
O O12 0.500000 0.345615 0.500000
O O13 0.734718 0.327160 0.580179
O O14 0.729159 0.350243 0.814923
#
# Coordination Sequence:
#
# PCOD9220948 Si02
#       7
#     4   8   4   8   8   8   8
#     4  11  22  41  69 100 132 174 221 279 340 395
#     4  11  25  38  68  98 143 173 216 280 335 410
#     4  11  24  41  71 102 136 170 225 285 332 399
#     4  11  26  43  66  99 133 180 225 274 348 394
#     4  11  22  40  64 100 139 170 223 271 347 386
#     4  12  24  44  69 104 136 177 228 283 334 402
#     4  11  23  42  63 101 135 171 220 277 336 404
#
# _framework density 21.295055000000001
#
# number of rings (size 3 to 8) (size 9 to 14) (size 15 to 20)
#    0.000    0.833    6.667    2.500    4.667    0.667 
#    0.000    3.333    0.000    1.000    0.000    0.000 
#    0.000    0.000    0.000    0.000    0.000    0.000 
#
# Total GULP energy -134091.747012 kJ/mol
# GULP energy per Si atom -5587.156126 kJ/mol
# Density = 2.124659 g / cm^3
# Si number density = 21.295055 Si / 1000 Ang^3
#
#
#
# Elastic Constant Matrix: (Units=GPa)
#
#
# Indices 1 2 3 4 5 6 
#
# 1 54.4040 22.0351 6.6809 0.0000 2.4690 0.0000
# 2 22.0351 135.4641 40.5792 0.0000 0.8552 0.0000
# 3 6.6809 40.5792 115.4087 0.0000 16.0589 0.0000
# 4 0.0000 0.0000 0.0000 25.5609 0.0000 9.8779
# 5 2.4690 0.8552 16.0589 0.0000 33.5198 0.0000
# 6 0.0000 0.0000 0.0000 9.8779 0.0000 39.5571
#
#
#
# Elastic Compliance Matrix: (Units=1/GPa)
#
#
# Indices 1 2 3 4 5 6 
#
# 1 0.019745 -0.003265 0.000210 0.000000 -0.001472 0.000000
# 2 -0.003265 0.008841 -0.003130 0.000000 0.001515 0.000000
# 3 0.000210 -0.003130 0.010440 0.000000 -0.004938 0.000000
# 4 0.000000 0.000000 0.000000 0.043301 0.000000 -0.010813
# 5 -0.001472 0.001515 -0.004938 0.000000 0.032268 0.000000
# 6 0.000000 0.000000 0.000000 -0.010813 0.000000 0.027980
#
#
# Mechanical properties :
#
#
# Convention : Reuss Voigt Hill
#
# Bulk Modulus (GPa) = 37.51697 49.31856 43.41776
# Shear Modulus (GPa) = 30.51904 35.45967 32.98935
#
# Velocity S-wave (km/s) = 3.78981 4.08506 3.94020
# Velocity P-wave (km/s) = 6.06680 6.74242 6.41351
#
# Compressibility (1/GPa) = 0.02665461
#
# Stress axis : x y z
#
# Youngs Moduli (GPa) = 50.64691 113.10455 95.78109
#
# Poissons Ratio (x) = 0.36932 -0.02010
# Poissons Ratio (y) = 0.16538 0.29984
# Poissons Ratio (z) = -0.01063 0.35407
#
# Static dielectric constant tensor:
#      x y z
#    x 1.786100 0.000000 -0.028230 
#    y 0.000000 1.735450 0.000000 
#    z -0.028230 0.000000 1.840850 
# 
# From -- ./inp_files/148063.got.cif
#   From: 2010.05.17/outbox.cif.g08.bks.cpg/sg12_75_cif.got.tgz:148063.got - 2010.06.03 13:09:07.
