data_PCOD9220271
_publ_section_title
;
Structure prediction by ZEFSAII (Michael W. Deem and Ramdas Pophale) SiO2 
 PCOD9220271
Probable space group: C 2/M
;
_chemical_formula_sum "Si O2"
_cell_formula_units_Z 40
_cell_length_a 9.938861
_cell_length_b 16.122583
_cell_length_c 13.729766
_cell_angle_alpha 90.000000
_cell_angle_beta 112.205622
_cell_angle_gamma 90.000000
_cell_volume 2036.888553
_symmetry_space_group_name_H-M "C 2/M"
_symmetry_group_IT_number 12
_symmetry_cell_setting 'monoclinic'
loop_
_space_group_symop_operation_xyz
x,y,z
-x,y,-z
-x,-y,-z
x,-y,z
1/2+x,1/2+y,z
1/2-x,1/2+y,-z
1/2-x,1/2-y,-z
1/2+x,1/2-y,z
loop_
_atom_site_type_symbol
_atom_site_label
_atom_site_fract_x
_atom_site_fract_y
_atom_site_fract_z
Si Si1 0.138398 0.672546 0.971536
Si Si2 0.967145 0.699702 0.268859
Si Si3 0.139843 0.405519 0.466072
Si Si4 0.195256 0.836484 0.316043
Si Si5 0.207819 0.000000 0.972757
Si Si6 0.377596 0.500000 0.823083
O O1 0.208946 0.585999 0.026373
O O2 0.085250 0.660890 0.846350
O O3 0.250000 0.750000 0.000000
O O4 0.000000 0.693961 0.000000
O O5 0.083096 0.641940 0.356188
O O6 0.048789 0.784907 0.269639
O O7 0.828981 0.711052 0.301485
O O8 0.183325 0.500000 0.457376
O O9 0.261519 0.357913 0.561385
O O10 0.000000 0.408394 0.500000
O O11 0.178917 0.920695 0.250813
O O12 0.177477 0.000000 0.080936
O O13 0.052091 0.000000 0.877463
#
# Coordination Sequence:
#
# PCOD9220271 Si02
#       6
#     8   8   8   8   4   4
#     4  12  26  43  65  96 129 170 214 262 315 378
#     4  11  23  37  65  91 127 157 208 258 309 366
#     4   9  19  35  63  93 121 157 209 254 307 373
#     4  11  21  41  64  95 122 166 205 257 313 375
#     4  11  25  42  63  93 130 169 216 262 317 371
#     4  11  22  40  68  90 125 170 214 254 312 382
#
# _framework density 19.637794
#
# number of rings (size 3 to 8) (size 9 to 14) (size 15 to 20)
#    0.000    1.200    3.000    3.300    5.600    0.000 
#    0.000    0.000    2.200    1.200    0.000    0.000 
#    0.000    0.000    0.000    0.000    0.000    0.000 
#
# Total GULP energy -111779.181761 kJ/mol
# GULP energy per Si atom -5588.959088 kJ/mol
# Density = 1.959310 g / cm^3
# Si number density = 19.637794 Si / 1000 Ang^3
#
#
#
# Elastic Constant Matrix: (Units=GPa)
#
#
# Indices 1 2 3 4 5 6 
#
# 1 99.4866 52.1235 11.2198 0.0000 7.6522 0.0000
# 2 52.1235 82.9369 -15.7903 0.0000 0.9050 0.0000
# 3 11.2198 -15.7903 79.6559 0.0000 1.7686 0.0000
# 4 0.0000 0.0000 0.0000 19.5121 0.0000 4.0224
# 5 7.6522 0.9050 1.7686 0.0000 24.2246 0.0000
# 6 0.0000 0.0000 0.0000 4.0224 0.0000 22.3325
#
#
#
# Elastic Compliance Matrix: (Units=1/GPa)
#
#
# Indices 1 2 3 4 5 6 
#
# 1 0.016914 -0.011446 -0.004550 0.000000 -0.004583 0.000000
# 2 -0.011446 0.020287 0.005579 0.000000 0.002451 0.000000
# 3 -0.004550 0.005579 0.014297 0.000000 0.000185 0.000000
# 4 0.000000 0.000000 0.000000 0.053226 0.000000 -0.009587
# 5 -0.004583 0.002451 0.000185 0.000000 0.042623 0.000000
# 6 0.000000 0.000000 0.000000 -0.009587 0.000000 0.046505
#
#
# Mechanical properties :
#
#
# Convention : Reuss Voigt Hill
#
# Bulk Modulus (GPa) = 32.61151 39.68727 36.14939
# Shear Modulus (GPa) = 22.23146 27.51559 24.87353
#
# Velocity S-wave (km/s) = 3.36828 3.74726 3.56281
# Velocity P-wave (km/s) = 5.63646 6.24309 5.94751
#
# Compressibility (1/GPa) = 0.03066402
#
# Stress axis : x y z
#
# Youngs Moduli (GPa) = 59.12177 49.29380 69.94609
#
# Poissons Ratio (x) = 0.56423 0.31823
# Poissons Ratio (y) = 0.67673 -0.39025
# Poissons Ratio (z) = 0.26899 -0.27502
#
# Static dielectric constant tensor:
#      x y z
#    x 1.681590 0.000000 0.003990 
#    y 0.000000 1.692140 0.000000 
#    z 0.003990 0.000000 1.686730 
# 
# From -- ./inp_files/194684.got.cif
#   From: 2010.05.17/outbox.cif.g08.bks.cpg/sg12_98_cif.got.tgz:194684.got - 2010.06.03 13:09:07.
