data_PCOD9220222
_publ_section_title
;
Structure prediction by ZEFSAII (Michael W. Deem and Ramdas Pophale) SiO2 
 PCOD9220222
Probable space group: C 2/M
;
_chemical_formula_sum "Si O2"
_cell_formula_units_Z 64
_cell_length_a 14.664011
_cell_length_b 17.967211
_cell_length_c 11.686998
_cell_angle_alpha 90.000000
_cell_angle_beta 87.883675
_cell_angle_gamma 90.000000
_cell_volume 3077.089211
_symmetry_space_group_name_H-M "C 2/M"
_symmetry_group_IT_number 12
_symmetry_cell_setting 'monoclinic'
loop_
_space_group_symop_operation_xyz
x,y,z
-x,y,-z
-x,-y,-z
x,-y,z
1/2+x,1/2+y,z
1/2-x,1/2+y,-z
1/2-x,1/2-y,-z
1/2+x,1/2-y,z
loop_
_atom_site_type_symbol
_atom_site_label
_atom_site_fract_x
_atom_site_fract_y
_atom_site_fract_z
Si Si1 0.687734 0.585438 0.618060
Si Si2 0.982766 0.687899 0.140181
Si Si3 0.684065 0.913226 0.892158
Si Si4 0.347258 0.168653 0.704409
Si Si5 0.099967 0.808402 0.439934
Si Si6 0.616947 0.415010 0.223454
Si Si7 0.062464 0.859208 0.832139
Si Si8 0.259110 0.323090 0.074589
O O1 0.675450 0.500000 0.580836
O O2 0.791280 0.598819 0.657310
O O3 0.665262 0.647246 0.523856
O O4 0.615640 0.603054 0.723259
O O5 0.893977 0.636905 0.159427
O O6 0.963192 0.772191 0.181040
O O7 0.063992 0.659143 0.218826
O O8 0.000000 0.689627 0.000000
O O9 0.783649 0.899976 0.833118
O O10 0.662069 0.000000 0.886228
O O11 0.695623 0.885918 0.022274
O O12 0.368108 0.227577 0.604060
O O13 0.273026 0.200246 0.798216
O O14 0.097266 0.859403 0.327527
O O15 0.000000 0.803498 0.500000
O O16 0.616439 0.500000 0.263352
O O17 0.531129 0.402334 0.144005
O O18 0.139547 0.854861 0.925234
O O19 0.250000 0.250000 0.000000
#
# Coordination Sequence:
#
# PCOD9220222 Si02
#       8
#     8   8   8   8   8   8   8   8
#     4  11  25  44  68 100 136 175 218 282 353 404
#     4  12  23  43  69  97 133 183 230 279 333 399
#     4  11  26  43  65  99 138 184 230 276 338 404
#     4  11  24  42  67 101 130 174 230 281 327 400
#     4  12  23  43  71  99 132 178 229 284 341 405
#     4  11  24  41  64  97 138 176 220 280 348 409
#     4  11  23  37  67  96 132 173 222 275 338 407
#     4  11  21  40  65  94 134 178 220 276 334 402
#
# _framework density 20.798877000000001
#
# number of rings (size 3 to 8) (size 9 to 14) (size 15 to 20)
#    0.000    0.750    5.000    1.875    3.500    3.750 
#    2.250    1.250    0.000    0.375    0.000    0.000 
#    0.000    0.000    0.000    0.000    0.000    0.000 
#
# Total GULP energy -178698.986261 kJ/mol
# GULP energy per Si atom -5584.343321 kJ/mol
# Density = 2.075154 g / cm^3
# Si number density = 20.798877 Si / 1000 Ang^3
#
#
#
# Elastic Constant Matrix: (Units=GPa)
#
#
# Indices 1 2 3 4 5 6 
#
# 1 131.7763 49.0654 24.8024 0.0000 14.5519 0.0000
# 2 49.0654 92.1867 22.3489 0.0000 -13.0539 0.0000
# 3 24.8024 22.3489 62.3694 0.0000 0.6177 0.0000
# 4 0.0000 0.0000 0.0000 20.9562 0.0000 2.6554
# 5 14.5519 -13.0539 0.6177 0.0000 35.1775 0.0000
# 6 0.0000 0.0000 0.0000 2.6554 0.0000 35.9336
#
#
#
# Elastic Compliance Matrix: (Units=1/GPa)
#
#
# Indices 1 2 3 4 5 6 
#
# 1 0.011129 -0.006407 -0.002061 0.000000 -0.006945 0.000000
# 2 -0.006407 0.016320 -0.003387 0.000000 0.008766 0.000000
# 3 -0.002061 -0.003387 0.018074 0.000000 -0.000722 0.000000
# 4 0.000000 0.000000 0.000000 0.048170 0.000000 -0.003560
# 5 -0.006945 0.008766 -0.000722 0.000000 0.034566 0.000000
# 6 0.000000 0.000000 0.000000 -0.003560 0.000000 0.028092
#
#
# Mechanical properties :
#
#
# Convention : Reuss Voigt Hill
#
# Bulk Modulus (GPa) = 45.84438 53.19619 49.52029
# Shear Modulus (GPa) = 26.69057 31.08782 28.88920
#
# Velocity S-wave (km/s) = 3.58616 3.87031 3.73094
# Velocity P-wave (km/s) = 6.26395 6.75311 6.51312
#
# Compressibility (1/GPa) = 0.02181292
#
# Stress axis : x y z
#
# Youngs Moduli (GPa) = 89.85430 61.27415 55.32847
#
# Poissons Ratio (x) = 0.39259 0.11403
# Poissons Ratio (y) = 0.57571 0.18739
# Poissons Ratio (z) = 0.18519 0.20753
#
# Static dielectric constant tensor:
#      x y z
#    x 1.854340 0.000000 0.041310 
#    y 0.000000 1.714020 0.000000 
#    z 0.041310 0.000000 1.802180 
# 
# From -- ./inp_files/146178.got.cif
#   From: 2010.05.17/outbox.cif.g08.bks.cpg/sg12_74_cif.got.tgz:146178.got - 2010.06.03 13:09:07.
