data_PCOD9220650
_publ_section_title
;
Structure prediction by ZEFSAII (Michael W. Deem and Ramdas Pophale) SiO2 
 PCOD9220650
Probable space group: C 2/M
;
_chemical_formula_sum "Si O2"
_cell_formula_units_Z 32
_cell_length_a 8.474834
_cell_length_b 20.898868
_cell_length_c 14.443483
_cell_angle_alpha 90.000000
_cell_angle_beta 42.381271
_cell_angle_gamma 90.000000
_cell_volume 1724.348623
_symmetry_space_group_name_H-M "C 2/M"
_symmetry_group_IT_number 12
_symmetry_cell_setting 'monoclinic'
loop_
_space_group_symop_operation_xyz
x,y,z
-x,y,-z
-x,-y,-z
x,-y,z
1/2+x,1/2+y,z
1/2-x,1/2+y,-z
1/2-x,1/2-y,-z
1/2+x,1/2-y,z
loop_
_atom_site_type_symbol
_atom_site_label
_atom_site_fract_x
_atom_site_fract_y
_atom_site_fract_z
Si Si1 0.412912 0.687011 0.934913
Si Si2 0.732950 0.345103 0.353457
Si Si3 0.562601 0.927951 0.080647
Si Si4 0.092229 0.292793 0.357135
O O1 0.642291 0.684073 0.772026
O O2 0.500000 0.692069 0.000000
O O3 0.250000 0.750000 0.000000
O O4 0.273741 0.621639 0.989120
O O5 0.500000 0.374435 0.500000
O O6 0.629749 0.284220 0.341203
O O7 0.866299 0.393745 0.228832
O O8 0.915758 0.317783 0.352969
O O9 0.611241 0.000000 0.093380
O O10 0.500000 0.932039 0.000000
O O11 0.000000 0.309066 0.500000
#
# Coordination Sequence:
#
# PCOD9220650 Si02
#       4
#     8   8   8   8
#     4  12  22  39  66  96 122 161 208 262 312 370
#     4  11  23  39  63  93 128 161 205 259 312 374
#     4  11  26  43  63  89 125 171 213 257 313 373
#     4  11  22  37  62 100 124 159 200 258 319 362
#
# _framework density 18.557732000000001
#
# number of rings (size 3 to 8) (size 9 to 14) (size 15 to 20)
#    0.000    0.750    5.000    3.750    7.000    1.000 
#    0.000    0.000    0.000    1.500    0.000    0.000 
#    0.000    0.000    0.000    0.000    0.000    0.000 
#
# Total GULP energy -89252.270630 kJ/mol
# GULP energy per Si atom -5578.266914 kJ/mol
# Density = 1.851549 g / cm^3
# Si number density = 18.557732 Si / 1000 Ang^3
#
#
#
# Elastic Constant Matrix: (Units=GPa)
#
#
# Indices 1 2 3 4 5 6 
#
# 1 100.4522 64.1143 38.4396 0.0000 -3.6445 0.0000
# 2 64.1143 126.9732 83.3750 0.0000 0.5443 0.0000
# 3 38.4396 83.3750 205.3598 0.0000 -23.8699 0.0000
# 4 0.0000 0.0000 0.0000 22.2404 0.0000 10.4661
# 5 -3.6445 0.5443 -23.8699 0.0000 30.3472 0.0000
# 6 0.0000 0.0000 0.0000 10.4661 0.0000 24.6863
#
#
#
# Elastic Compliance Matrix: (Units=1/GPa)
#
#
# Indices 1 2 3 4 5 6 
#
# 1 0.014876 -0.008028 0.000769 0.000000 0.002536 0.000000
# 2 -0.008028 0.015527 -0.005443 0.000000 -0.005524 0.000000
# 3 0.000769 -0.005443 0.007658 0.000000 0.006213 0.000000
# 4 0.000000 0.000000 0.000000 0.056170 0.000000 -0.023814
# 5 0.002536 -0.005524 0.006213 0.000000 0.038243 0.000000
# 6 0.000000 0.000000 0.000000 -0.023814 0.000000 0.050605
#
#
# Mechanical properties :
#
#
# Convention : Reuss Voigt Hill
#
# Bulk Modulus (GPa) = 79.00356 89.40477 84.20416
# Shear Modulus (GPa) = 23.50714 31.91185 27.70949
#
# Velocity S-wave (km/s) = 3.56294 4.15130 3.86832
# Velocity P-wave (km/s) = 7.71947 8.44150 8.08855
#
# Compressibility (1/GPa) = 0.01265766
#
# Stress axis : x y z
#
# Youngs Moduli (GPa) = 67.22073 64.40274 130.58766
#
# Poissons Ratio (x) = 0.51701 -0.10047
# Poissons Ratio (y) = 0.53963 0.71085
# Poissons Ratio (z) = -0.05172 0.35057
#
# Static dielectric constant tensor:
#      x y z
#    x 1.660690 0.000000 0.002370 
#    y 0.000000 1.529020 0.000000 
#    z 0.002370 0.000000 1.707090 
# 
# From -- ./inp_files/37633.got.cif
#   From: 2010.05.17/outbox.cif.g08.bks.cpg/sg12_19_cif.got.tgz:37633.got - 2010.06.03 13:09:07.
