data_PCOD9220616
_publ_section_title
;
Structure prediction by ZEFSAII (Michael W. Deem and Ramdas Pophale) SiO2 
 PCOD9220616
Probable space group: C 2/M
;
_chemical_formula_sum "Si O2"
_cell_formula_units_Z 48
_cell_length_a 16.005012
_cell_length_b 29.245523
_cell_length_c 17.031487
_cell_angle_alpha 90.000000
_cell_angle_beta 163.161343
_cell_angle_gamma 90.000000
_cell_volume 2309.313624
_symmetry_space_group_name_H-M "C 2/M"
_symmetry_group_IT_number 12
_symmetry_cell_setting 'monoclinic'
loop_
_space_group_symop_operation_xyz
x,y,z
-x,y,-z
-x,-y,-z
x,-y,z
1/2+x,1/2+y,z
1/2-x,1/2+y,-z
1/2-x,1/2-y,-z
1/2+x,1/2-y,z
loop_
_atom_site_type_symbol
_atom_site_label
_atom_site_fract_x
_atom_site_fract_y
_atom_site_fract_z
Si Si1 0.236303 0.591710 0.145271
Si Si2 0.984876 0.736849 0.893454
Si Si3 0.536840 0.655106 0.124879
Si Si4 0.964437 0.186799 0.620991
Si Si5 0.834542 0.553273 0.650915
Si Si6 0.903290 0.628953 0.590221
O O1 0.355366 0.643302 0.248625
O O2 0.521462 0.560833 0.408955
O O3 0.000000 0.586055 0.000000
O O4 0.073134 0.578111 0.918791
O O5 0.744247 0.707587 0.632580
O O6 0.000000 0.726242 0.000000
O O7 0.920270 0.790410 0.828879
O O8 0.299128 0.724184 0.142344
O O9 0.238770 0.640343 0.897290
O O10 0.500000 0.644526 0.000000
O O11 0.794720 0.631418 0.403498
O O12 0.774105 0.167152 0.520593
O O13 0.896918 0.500000 0.699026
O O14 0.831431 0.580994 0.566769
#
# Coordination Sequence:
#
# PCOD9220616 Si02
#       6
#     8   8   8   8   8   8
#     4  11  23  39  60  90 129 169 207 244 286 342
#     4  11  23  37  57  87 124 166 207 243 283 337
#     4  11  24  42  63  87 117 156 199 248 307 363
#     4  11  22  37  58  87 125 165 203 243 286 338
#     4  11  24  42  65  91 120 158 201 251 310 364
#     4  11  23  41  62  87 118 153 198 249 307 365
#
# _framework density 20.785397
#
# number of rings (size 3 to 8) (size 9 to 14) (size 15 to 20)
#    0.000    1.000    0.000    8.500    0.000   11.333 
#    0.000    0.000    0.000    3.000    0.000    0.000 
#    0.000    0.000    0.000    0.000    0.000    0.000 
#
# Total GULP energy -134378.663532 kJ/mol
# GULP energy per Si atom -5599.110980 kJ/mol
# Density = 2.073809 g / cm^3
# Si number density = 20.785397 Si / 1000 Ang^3
#
#
#
# Elastic Constant Matrix: (Units=GPa)
#
#
# Indices 1 2 3 4 5 6 
#
# 1 67.6901 39.8783 17.6086 -0.0029 -5.6196 -0.0043
# 2 39.8783 60.4104 32.9344 0.0027 -21.0571 0.0076
# 3 17.6086 32.9344 134.4303 0.0643 -13.1710 -0.0069
# 4 -0.0029 0.0027 0.0643 -41.1055 0.0115 7.9253
# 5 -5.6196 -21.0571 -13.1710 0.0115 40.2609 -0.0067
# 6 -0.0043 0.0076 -0.0069 7.9253 -0.0067 8.1732
#
#
#
# Elastic Compliance Matrix: (Units=1/GPa)
#
#
# Indices 1 2 3 4 5 6 
#
# 1 0.025533 -0.019522 0.000813 0.000001 -0.006381 0.000026
# 2 -0.019522 0.037559 -0.005152 -0.000006 0.015234 -0.000031
# 3 0.000813 -0.005152 0.008618 0.000013 0.000238 0.000000
# 4 0.000001 -0.000006 0.000013 -0.020496 0.000011 0.019874
# 5 -0.006381 0.015234 0.000238 0.000011 0.031993 -0.000001
# 6 0.000026 -0.000031 0.000000 0.019874 -0.000001 0.103080
#
#
# Mechanical properties :
#
#
# Convention : Reuss Voigt Hill
#
# Bulk Modulus (GPa) = 41.68773 49.26369 45.47571
# Shear Modulus (GPa) = 20.66063 12.93968 16.80015
#
# Velocity S-wave (km/s) = 3.15619 2.49778 2.84609
# Velocity P-wave (km/s) = 5.77770 5.66313 5.72071
#
# Compressibility (1/GPa) = 0.02398788
#
# Stress axis : x y z
#
# Youngs Moduli (GPa) = 39.16465 26.62445 116.03862
#
# Poissons Ratio (x) = 0.51977 -0.09436
# Poissons Ratio (y) = 0.76459 0.59784
# Poissons Ratio (z) = -0.03185 0.13717
#
# Static dielectric constant tensor:
#      x y z
#    x 1.779140 0.000000 -0.001240 
#    y 0.000000 1.720350 0.000000 
#    z -0.001240 0.000000 1.741340 
# 
# From -- ./inp_files/219614.got.cif
#   From: 2010.05.17/outbox.cif.g08.bks.cpg/sg12_110_cif.got.tgz:219614.got - 2010.06.03 13:09:07.
