data_PCOD9220068
_publ_section_title
;
Structure prediction by ZEFSAII (Michael W. Deem and Ramdas Pophale) SiO2 
 PCOD9220068
Probable space group: C 2/M
;
_chemical_formula_sum "Si O2"
_cell_formula_units_Z 48
_cell_length_a 13.364756
_cell_length_b 29.092320
_cell_length_c 10.888112
_cell_angle_alpha 90.000000
_cell_angle_beta 147.308917
_cell_angle_gamma 90.000000
_cell_volume 2286.512944
_symmetry_space_group_name_H-M "C 2/M"
_symmetry_group_IT_number 12
_symmetry_cell_setting 'monoclinic'
loop_
_space_group_symop_operation_xyz
x,y,z
-x,y,-z
-x,-y,-z
x,-y,z
1/2+x,1/2+y,z
1/2-x,1/2+y,-z
1/2-x,1/2-y,-z
1/2+x,1/2-y,z
loop_
_atom_site_type_symbol
_atom_site_label
_atom_site_fract_x
_atom_site_fract_y
_atom_site_fract_z
Si Si1 0.702107 0.694882 0.646840
Si Si2 0.299923 0.945955 0.821133
Si Si3 0.307582 0.197557 0.024822
Si Si4 0.647038 0.201984 0.541286
Si Si5 0.555404 0.354523 0.261409
Si Si6 0.502461 0.446653 0.706789
O O1 0.500000 0.697354 0.500000
O O2 0.820139 0.687912 0.892023
O O3 0.727835 0.746334 0.621717
O O4 0.669438 0.658321 0.505227
O O5 0.165778 0.945244 0.565101
O O6 0.181016 0.928791 0.813728
O O7 0.329430 0.000000 0.880966
O O8 0.500000 0.924957 0.000000
O O9 0.145847 0.167900 0.922559
O O10 0.250000 0.250000 0.000000
O O11 0.510540 0.191418 0.288033
O O12 0.500000 0.198084 0.500000
O O13 0.821964 0.168424 0.717783
O O14 0.537591 0.409077 0.232313
O O15 0.526135 0.500000 0.767576
#
# Coordination Sequence:
#
# PCOD9220068 Si02
#       6
#     8   8   8   8   8   8
#     4   9  19  35  56  82 117 145 185 238 278 351
#     4   8  15  29  52  76 107 152 185 219 280 345
#     4  11  21  38  58  85 118 152 187 236 296 344
#     4  11  22  41  57  82 116 151 200 243 285 344
#     4  11  23  36  58  87 118 155 197 236 287 350
#     4   9  19  34  53  80 119 152 187 239 286 342
#
# _framework density 20.992664999999999
#
# number of rings (size 3 to 8) (size 9 to 14) (size 15 to 20)
#    0.000    2.167    5.000    1.500    7.000    2.667 
#    0.000    0.000    0.000    0.500    0.000    1.167 
#    0.000    0.000    0.000    0.000    0.000    0.000 
#
# Total GULP energy -133872.376065 kJ/mol
# GULP energy per Si atom -5578.015669 kJ/mol
# Density = 2.094488 g / cm^3
# Si number density = 20.992665 Si / 1000 Ang^3
#
#
#
# Elastic Constant Matrix: (Units=GPa)
#
#
# Indices 1 2 3 4 5 6 
#
# 1 74.1681 31.2141 21.0067 0.0000 26.8911 0.0000
# 2 31.2141 120.9210 6.5224 0.0000 17.2892 0.0000
# 3 21.0067 6.5224 83.2615 0.0000 12.9733 0.0000
# 4 0.0000 0.0000 0.0000 11.8903 0.0000 1.7938
# 5 26.8911 17.2892 12.9733 0.0000 32.1817 0.0000
# 6 0.0000 0.0000 0.0000 1.7938 0.0000 25.9534
#
#
#
# Elastic Compliance Matrix: (Units=1/GPa)
#
#
# Indices 1 2 3 4 5 6 
#
# 1 0.020904 -0.003151 -0.002742 0.000000 -0.014670 0.000000
# 2 -0.003151 0.009433 0.000465 0.000000 -0.002622 0.000000
# 3 -0.002742 0.000465 0.013175 0.000000 -0.003270 0.000000
# 4 0.000000 0.000000 0.000000 0.084988 0.000000 -0.005874
# 5 -0.014670 -0.002622 -0.003270 0.000000 0.046059 0.000000
# 6 0.000000 0.000000 0.000000 -0.005874 0.000000 0.038937
#
#
# Mechanical properties :
#
#
# Convention : Reuss Voigt Hill
#
# Bulk Modulus (GPa) = 30.62140 43.98188 37.30164
# Shear Modulus (GPa) = 21.25516 28.64558 24.95037
#
# Velocity S-wave (km/s) = 3.18544 3.69799 3.45124
# Velocity P-wave (km/s) = 5.30544 6.26339 5.80421
#
# Compressibility (1/GPa) = 0.03265690
#
# Stress axis : x y z
#
# Youngs Moduli (GPa) = 47.83737 106.01003 75.90044
#
# Poissons Ratio (x) = 0.33402 0.20808
# Poissons Ratio (y) = 0.15073 -0.03526
# Poissons Ratio (z) = 0.13115 -0.04925
#
# Static dielectric constant tensor:
#      x y z
#    x 1.902960 0.000000 -0.058080 
#    y 0.000000 1.757220 0.000000 
#    z -0.058080 0.000000 1.868170 
# 
# From -- ./inp_files/149854.got.cif
#   From: 2010.05.17/outbox.cif.g08.bks.cpg/sg12_75_cif.got.tgz:149854.got - 2010.06.03 13:09:07.
