data_PCOD9220429
_publ_section_title
;
Structure prediction by ZEFSAII (Michael W. Deem and Ramdas Pophale) SiO2 
 PCOD9220429
Probable space group: C 2/M
;
_chemical_formula_sum "Si O2"
_cell_formula_units_Z 48
_cell_length_a 19.111511
_cell_length_b 15.374143
_cell_length_c 8.245676
_cell_angle_alpha 90.000000
_cell_angle_beta 90.000000
_cell_angle_gamma 90.000000
_cell_volume 2422.770109
_symmetry_space_group_name_H-M "C 2/M"
_symmetry_group_IT_number 12
_symmetry_cell_setting 'monoclinic'
loop_
_space_group_symop_operation_xyz
x,y,z
-x,y,-z
-x,-y,-z
x,-y,z
1/2+x,1/2+y,z
1/2-x,1/2+y,-z
1/2-x,1/2-y,-z
1/2+x,1/2-y,z
loop_
_atom_site_type_symbol
_atom_site_label
_atom_site_fract_x
_atom_site_fract_y
_atom_site_fract_z
Si Si1 0.423470 0.271993 0.442914
Si Si2 0.302784 0.599714 0.447693
Si Si3 0.356707 0.098743 0.945745
Si Si4 0.302784 0.400286 0.052307
Si Si5 0.356707 0.098743 0.554255
Si Si6 0.576530 0.271993 0.942915
O O1 0.500000 0.299503 0.500000
O O2 0.361040 0.333386 0.507700
O O3 0.407551 0.173242 0.493367
O O4 0.421864 0.277206 0.250000
O O5 0.318466 0.500000 0.494240
O O6 0.302547 0.602203 0.250000
O O7 0.223169 0.619600 0.499256
O O8 0.276831 0.119600 0.999256
O O9 0.357426 0.099181 0.750000
O O10 0.373215 0.000000 0.998535
O O11 0.407551 0.173242 0.006633
O O12 0.318466 0.500000 0.005760
O O13 0.361040 0.333386 0.992300
O O14 0.373215 0.000000 0.501465
O O15 0.500000 0.299503 0.000000
#
# Coordination Sequence:
#
# PCOD9220429 Si02
#       6
#     8   8   8   8   8   8
#     4  11  22  34  51  76 107 140 171 207 251 301
#     4   8  16  33  56  79 102 131 168 210 257 305
#     4   9  18  35  58  79 100 130 169 213 259 305
#     4   8  16  33  56  79 102 131 168 210 257 305
#     4   9  18  35  58  79 100 130 169 213 259 305
#     4  11  22  34  51  76 107 140 171 207 251 301
#
# _framework density 19.812031999999999
#
# number of rings (size 3 to 8) (size 9 to 14) (size 15 to 20)
#    0.000    2.667    0.000    4.000    0.000    2.000 
#    0.000    1.667    0.000    7.000    0.000    0.000 
#    0.000    0.000    0.000    0.000    0.000    0.000 
#
# Total GULP energy -133935.326209 kJ/mol
# GULP energy per Si atom -5580.638592 kJ/mol
# Density = 1.976694 g / cm^3
# Si number density = 19.812032 Si / 1000 Ang^3
#
#
#
# Elastic Constant Matrix: (Units=GPa)
#
#
# Indices 1 2 3 4 5 6 
#
# 1 29.9006 10.6769 1.7453 0.0000 0.0000 0.0000
# 2 10.6769 38.0078 0.2366 0.0000 0.0000 0.0000
# 3 1.7453 0.2366 13.1975 0.0000 0.0000 0.0000
# 4 0.0000 0.0000 0.0000 17.1082 0.0000 0.0000
# 5 0.0000 0.0000 0.0000 0.0000 19.6463 0.0000
# 6 0.0000 0.0000 0.0000 0.0000 0.0000 0.5063
#
#
#
# Elastic Compliance Matrix: (Units=1/GPa)
#
#
# Indices 1 2 3 4 5 6 
#
# 1 0.037470 -0.010496 -0.004767 0.000000 0.000000 0.000000
# 2 -0.010496 0.029254 0.000864 0.000000 0.000000 0.000000
# 3 -0.004767 0.000864 0.076387 0.000000 0.000000 0.000000
# 4 0.000000 0.000000 0.000000 0.058451 0.000000 0.000001
# 5 0.000000 0.000000 0.000000 0.000000 0.050900 0.000000
# 6 0.000000 0.000000 0.000000 0.000001 0.000000 1.975159
#
#
# Mechanical properties :
#
#
# Convention : Reuss Voigt Hill
#
# Bulk Modulus (GPa) = 8.74802 11.82482 10.28642
# Shear Modulus (GPa) = 2.17910 12.01530 7.09720
#
# Velocity S-wave (km/s) = 1.04989 2.46532 1.89474
# Velocity P-wave (km/s) = 2.42792 3.75303 3.16070
#
# Compressibility (1/GPa) = 0.11431156
#
# Stress axis : x y z
#
# Youngs Moduli (GPa) = 26.68768 34.18384 13.09125
#
# Poissons Ratio (x) = 0.35880 0.06241
# Poissons Ratio (y) = 0.28012 -0.01131
# Poissons Ratio (z) = 0.12722 -0.02952
#
# Static dielectric constant tensor:
#      x y z
#    x 1.690670 0.000000 0.000000 
#    y 0.000000 1.691530 0.000000 
#    z 0.000000 0.000000 1.690880 
# 
# From -- ./inp_files/73621.got.cif
#   From: 2010.05.17/outbox.cif.g08.bks.cpg/sg12_37_cif.got.tgz:73621.got - 2010.06.03 13:09:07.
