data_PCOD9220770
_publ_section_title
;
Structure prediction by ZEFSAII (Michael W. Deem and Ramdas Pophale) SiO2 
 PCOD9220770
Probable space group: C 2/M
;
_chemical_formula_sum "Si O2"
_cell_formula_units_Z 44
_cell_length_a 18.944306
_cell_length_b 14.692545
_cell_length_c 9.577965
_cell_angle_alpha 90.000000
_cell_angle_beta 54.427067
_cell_angle_gamma 90.000000
_cell_volume 2168.403766
_symmetry_space_group_name_H-M "C 2/M"
_symmetry_group_IT_number 12
_symmetry_cell_setting 'monoclinic'
loop_
_space_group_symop_operation_xyz
x,y,z
-x,y,-z
-x,-y,-z
x,-y,z
1/2+x,1/2+y,z
1/2-x,1/2+y,-z
1/2-x,1/2-y,-z
1/2+x,1/2-y,z
loop_
_atom_site_type_symbol
_atom_site_label
_atom_site_fract_x
_atom_site_fract_y
_atom_site_fract_z
Si Si1 0.826021 0.105249 0.442843
Si Si2 0.465836 0.897783 0.882791
Si Si3 0.277346 0.500000 0.985696
Si Si4 0.268383 0.137816 0.171245
Si Si5 0.557518 0.236609 0.566126
Si Si6 0.265216 0.157019 0.740775
O O1 0.749529 0.114932 0.646125
O O2 0.898767 0.176052 0.411003
O O3 0.790137 0.135628 0.334316
O O4 0.854075 0.000000 0.405258
O O5 0.501684 0.821818 0.738894
O O6 0.492572 0.000000 0.808203
O O7 0.500000 0.881970 0.000000
O O8 0.361845 0.895617 0.011951
O O9 0.250123 0.579054 0.130496
O O10 0.298087 0.580153 0.844281
O O11 0.262290 0.245508 0.165569
O O12 0.500000 0.263748 0.500000
O O13 0.635660 0.172465 0.420869
#
# Coordination Sequence:
#
# PCOD9220770 Si02
#       6
#     8   8   4   8   8   8
#     4  11  22  46  72  92 125 177 229 265 310 392
#     4  11  22  38  63  94 133 170 207 263 331 394
#     4  12  22  36  62  96 126 164 204 274 326 364
#     4  11  22  41  64  97 128 162 222 270 322 376
#     4  11  25  40  64  99 136 172 208 272 330 388
#     4  11  24  42  68  95 129 174 222 266 319 388
#
# _framework density 20.291423000000002
#
# number of rings (size 3 to 8) (size 9 to 14) (size 15 to 20)
#    0.000    0.909    2.727    6.000    1.273    3.636 
#    0.000    0.000    2.000    1.636    0.000    0.000 
#    0.000    0.000    0.000    0.000    0.000    0.000 
#
# Total GULP energy -122493.822371 kJ/mol
# GULP energy per Si atom -5567.901017 kJ/mol
# Density = 2.024524 g / cm^3
# Si number density = 20.291423 Si / 1000 Ang^3
#
#
#
# Elastic Constant Matrix: (Units=GPa)
#
#
# Indices 1 2 3 4 5 6 
#
# 1 76.8234 19.8235 25.1417 0.0000 19.8556 0.0000
# 2 19.8235 192.2657 68.1773 0.0000 14.4230 0.0000
# 3 25.1417 68.1773 80.7739 0.0000 10.4645 0.0000
# 4 0.0000 0.0000 0.0000 42.3135 0.0000 18.7274
# 5 19.8556 14.4230 10.4645 0.0000 38.9079 0.0000
# 6 0.0000 0.0000 0.0000 18.7274 0.0000 69.6630
#
#
#
# Elastic Compliance Matrix: (Units=1/GPa)
#
#
# Indices 1 2 3 4 5 6 
#
# 1 0.016247 0.000469 -0.004514 0.000000 -0.007251 0.000000
# 2 0.000469 0.007482 -0.006291 0.000000 -0.001321 0.000000
# 3 -0.004514 -0.006291 0.019162 0.000000 -0.000518 0.000000
# 4 0.000000 0.000000 0.000000 0.026825 0.000000 -0.007211
# 5 -0.007251 -0.001321 -0.000518 0.000000 0.030031 0.000000
# 6 0.000000 0.000000 0.000000 -0.007211 0.000000 0.016293
#
#
# Mechanical properties :
#
#
# Convention : Reuss Voigt Hill
#
# Bulk Modulus (GPa) = 45.00135 64.01645 54.50890
# Shear Modulus (GPa) = 34.69373 45.95824 40.32598
#
# Velocity S-wave (km/s) = 4.13943 4.76427 4.46280
# Velocity P-wave (km/s) = 6.71358 7.86647 7.31278
#
# Compressibility (1/GPa) = 0.02222155
#
# Stress axis : x y z
#
# Youngs Moduli (GPa) = 61.54936 133.64559 52.18688
#
# Poissons Ratio (x) = -0.06274 0.23557
# Poissons Ratio (y) = -0.02889 0.32828
# Poissons Ratio (z) = 0.27783 0.84070
#
# Static dielectric constant tensor:
#      x y z
#    x 1.766430 0.000000 -0.006040 
#    y 0.000000 1.702450 0.000000 
#    z -0.006040 0.000000 1.696960 
# 
# From -- ./inp_files/73524.got.cif
#   From: 2010.05.17/outbox.cif.g08.bks.cpg/sg12_37_cif.got.tgz:73524.got - 2010.06.03 13:09:07.
