data_PCOD9220349
_publ_section_title
;
Structure prediction by ZEFSAII (Michael W. Deem and Ramdas Pophale) SiO2 
 PCOD9220349
Probable space group: C 2/M
;
_chemical_formula_sum "Si O2"
_cell_formula_units_Z 44
_cell_length_a 16.576481
_cell_length_b 17.084713
_cell_length_c 18.974318
_cell_angle_alpha 90.000000
_cell_angle_beta 155.240675
_cell_angle_gamma 90.000000
_cell_volume 2250.508660
_symmetry_space_group_name_H-M "C 2/M"
_symmetry_group_IT_number 12
_symmetry_cell_setting 'monoclinic'
loop_
_space_group_symop_operation_xyz
x,y,z
-x,y,-z
-x,-y,-z
x,-y,z
1/2+x,1/2+y,z
1/2-x,1/2+y,-z
1/2-x,1/2-y,-z
1/2+x,1/2-y,z
loop_
_atom_site_type_symbol
_atom_site_label
_atom_site_fract_x
_atom_site_fract_y
_atom_site_fract_z
Si Si1 0.943688 0.000000 0.609987
Si Si2 0.225314 0.836016 0.177079
Si Si3 0.567779 0.500000 0.869639
Si Si4 0.314000 0.000000 0.802676
Si Si5 0.500000 0.743751 0.500000
Si Si6 0.781683 0.500000 0.294666
Si Si7 0.220610 0.624758 0.349069
Si Si8 0.305533 0.834280 0.078507
O O1 0.817713 0.926285 0.487048
O O2 0.999455 0.000000 0.734877
O O3 0.129959 0.000000 0.707297
O O4 0.352908 0.791510 0.335406
O O5 0.302613 0.822832 0.160106
O O6 0.246282 0.925564 0.217301
O O7 0.000000 0.813210 0.000000
O O8 0.383009 0.500000 0.775258
O O9 0.683364 0.416531 0.970746
O O10 0.304835 0.073222 0.742179
O O11 0.500000 0.000000 0.000000
O O12 0.367312 0.692399 0.445573
O O13 0.000000 0.500000 0.500000
O O14 0.014183 0.649936 0.212045
O O15 0.250000 0.750000 0.000000
#
# Coordination Sequence:
#
# PCOD9220349 Si02
#       8
#     4   8   4   4   4   4   8   8
#     4  11  23  43  70 102 142 188 232 297 368 450
#     4  12  26  49  73 102 148 194 248 308 370 441
#     4  12  27  49  72 111 147 193 251 309 374 439
#     4  11  21  42  71  99 134 193 238 287 370 448
#     4  12  26  44  74 106 148 194 244 310 370 446
#     4  12  26  47  77 104 142 200 255 303 375 440
#     4  11  24  44  67 103 145 185 239 302 371 440
#     4  12  28  47  74 109 146 192 249 309 371 442
#
# _framework density 19.551134999999999
#
# number of rings (size 3 to 8) (size 9 to 14) (size 15 to 20)
#    0.000    0.364    4.545    4.636    5.091    2.909 
#    0.000    0.000    0.000    0.000    0.000    0.000 
#    0.000    0.000    0.000    0.000    0.000    0.000 
#
# Total GULP energy -122941.838786 kJ/mol
# GULP energy per Si atom -5588.265399 kJ/mol
# Density = 1.950664 g / cm^3
# Si number density = 19.551135 Si / 1000 Ang^3
#
#
#
# Elastic Constant Matrix: (Units=GPa)
#
#
# Indices 1 2 3 4 5 6 
#
# 1 117.4775 48.3291 38.5726 0.0222 12.2642 -0.0066
# 2 48.3291 136.2378 69.4384 -0.0335 4.9228 -0.0057
# 3 38.5726 69.4384 140.7790 0.0104 7.6243 -0.0042
# 4 0.0222 -0.0335 0.0104 26.1381 0.0059 16.9147
# 5 12.2642 4.9228 7.6243 0.0059 54.1235 -0.0057
# 6 -0.0066 -0.0057 -0.0042 16.9147 -0.0057 -1.0406
#
#
#
# Elastic Compliance Matrix: (Units=1/GPa)
#
#
# Indices 1 2 3 4 5 6 
#
# 1 0.010343 -0.002950 -0.001276 0.000001 -0.001896 -0.000019
# 2 -0.002950 0.010649 -0.004462 0.000003 0.000328 0.000023
# 3 -0.001276 -0.004462 0.009690 -0.000001 -0.000670 -0.000012
# 4 0.000001 0.000003 -0.000001 0.003321 0.000005 0.053988
# 5 -0.001896 0.000328 -0.000670 0.000005 0.018970 -0.000011
# 6 -0.000019 0.000023 -0.000012 0.053988 -0.000011 -0.083426
#
#
# Mechanical properties :
#
#
# Convention : Reuss Voigt Hill
#
# Bulk Modulus (GPa) = 75.15707 78.57494 76.86600
# Shear Modulus (GPa) = -578.63353 31.72116 -273.45618
#
# Velocity S-wave (km/s) = -17.22212 4.03236 -11.83938
# Velocity P-wave (km/s) = 18.89296 7.87125 12.14470
#
# Compressibility (1/GPa) = 0.01330547
#
# Stress axis : x y z
#
# Youngs Moduli (GPa) = 96.68574 93.90554 103.19785
#
# Poissons Ratio (x) = 0.27703 0.13169
# Poissons Ratio (y) = 0.28523 0.46047
# Poissons Ratio (z) = 0.12338 0.41901
#
# Static dielectric constant tensor:
#      x y z
#    x 1.630490 -0.000530 -0.005410 
#    y -0.000530 3.012300 -0.002600 
#    z -0.005410 -0.002600 1.650180 
# 
# From -- ./inp_files/271537.got.cif
#   From: 2010.05.17/outbox.cif.g08.bks.cpg/sg12_136_cif.got.tgz:271537.got - 2010.06.03 13:09:07.
