data_PCOD9220011
_publ_section_title
;
Structure prediction by ZEFSAII (Michael W. Deem and Ramdas Pophale) SiO2 
 PCOD9220011
Probable space group: C 2/M
;
_chemical_formula_sum "Si O2"
_cell_formula_units_Z 44
_cell_length_a 12.648438
_cell_length_b 18.993529
_cell_length_c 12.018841
_cell_angle_alpha 90.000000
_cell_angle_beta 50.401123
_cell_angle_gamma 90.000000
_cell_volume 2224.806780
_symmetry_space_group_name_H-M "C 2/M"
_symmetry_group_IT_number 12
_symmetry_cell_setting 'monoclinic'
loop_
_space_group_symop_operation_xyz
x,y,z
-x,y,-z
-x,-y,-z
x,-y,z
1/2+x,1/2+y,z
1/2-x,1/2+y,-z
1/2-x,1/2-y,-z
1/2+x,1/2-y,z
loop_
_atom_site_type_symbol
_atom_site_label
_atom_site_fract_x
_atom_site_fract_y
_atom_site_fract_z
Si Si1 0.500000 0.329492 0.500000
Si Si2 0.233349 0.853669 0.951942
Si Si3 0.540441 0.580094 0.254450
Si Si4 0.227314 0.921190 0.718839
Si Si5 0.742956 0.771252 0.376918
Si Si6 0.034417 0.721358 0.092990
O O1 0.508404 0.376005 0.605944
O O2 0.368035 0.279937 0.603385
O O3 0.219259 0.904075 0.855399
O O4 0.387772 0.827833 0.871497
O O5 0.172170 0.887432 0.105022
O O6 0.140520 0.784405 0.994020
O O7 0.566732 0.500000 0.271192
O O8 0.421687 0.579523 0.240235
O O9 0.297439 0.852316 0.617952
O O10 0.284732 0.000000 0.662625
O O11 0.750000 0.750000 0.500000
O O12 0.895355 0.755719 0.230371
O O13 0.000000 0.683704 0.000000
#
# Coordination Sequence:
#
# PCOD9220011 Si02
#       6
#     4   8   8   8   8   8
#     4  12  25  42  67  90 126 174 218 264 317 378
#     4  11  21  37  66  95 128 163 205 267 325 378
#     4  11  22  40  65  97 129 165 213 265 319 384
#     4  11  23  40  63  95 130 165 210 264 320 380
#     4  12  24  42  63  94 127 168 221 264 314 381
#     4  11  21  37  62  96 128 159 215 266 315 371
#
# _framework density 19.776997999999999
#
# number of rings (size 3 to 8) (size 9 to 14) (size 15 to 20)
#    0.000    0.727    5.455    2.455    5.091    1.455 
#    0.000    0.455    0.000   12.000    0.000    0.000 
#    0.000    0.000    0.000    0.000    0.000    0.000 
#
# Total GULP energy -122889.741442 kJ/mol
# GULP energy per Si atom -5585.897338 kJ/mol
# Density = 1.973198 g / cm^3
# Si number density = 19.776998 Si / 1000 Ang^3
#
#
#
# Elastic Constant Matrix: (Units=GPa)
#
#
# Indices 1 2 3 4 5 6 
#
# 1 96.0459 43.2807 30.6367 0.0000 4.0698 0.0000
# 2 43.2807 136.0521 43.0687 0.0000 8.4097 0.0000
# 3 30.6367 43.0687 71.4046 0.0000 21.1583 0.0000
# 4 0.0000 0.0000 0.0000 22.7293 0.0000 4.6665
# 5 4.0698 8.4097 21.1583 0.0000 24.2182 0.0000
# 6 0.0000 0.0000 0.0000 4.6665 0.0000 15.0345
#
#
#
# Elastic Compliance Matrix: (Units=1/GPa)
#
#
# Indices 1 2 3 4 5 6 
#
# 1 0.013089 -0.002832 -0.004787 0.000000 0.002966 0.000000
# 2 -0.002832 0.009785 -0.005156 0.000000 0.001583 0.000000
# 3 -0.004787 -0.005156 0.024827 0.000000 -0.019095 0.000000
# 4 0.000000 0.000000 0.000000 0.046991 0.000000 -0.014585
# 5 0.002966 0.001583 -0.019095 0.000000 0.056926 0.000000
# 6 0.000000 0.000000 0.000000 -0.014585 0.000000 0.071041
#
#
# Mechanical properties :
#
#
# Convention : Reuss Voigt Hill
#
# Bulk Modulus (GPa) = 45.14319 59.71942 52.43131
# Shear Modulus (GPa) = 19.56249 24.83082 22.19665
#
# Velocity S-wave (km/s) = 3.14849 3.54720 3.35378
# Velocity P-wave (km/s) = 6.00775 6.85849 6.44716
#
# Compressibility (1/GPa) = 0.02215173
#
# Stress axis : x y z
#
# Youngs Moduli (GPa) = 76.40012 102.19310 40.27953
#
# Poissons Ratio (x) = 0.28940 0.19280
# Poissons Ratio (y) = 0.21636 0.20768
# Poissons Ratio (z) = 0.36570 0.52692
#
# Static dielectric constant tensor:
#      x y z
#    x 1.704050 0.000000 0.014190 
#    y 0.000000 1.706970 0.000000 
#    z 0.014190 0.000000 1.714070 
# 
# From -- ./inp_files/131572.got.cif
#   From: 2010.05.17/outbox.cif.g08.bks.cpg/sg12_66_cif.got.tgz:131572.got - 2010.06.03 13:09:07.
