data_PCOD9220844
_publ_section_title
;
Structure prediction by ZEFSAII (Michael W. Deem and Ramdas Pophale) SiO2 
 PCOD9220844
Probable space group: C 2/M
;
_chemical_formula_sum "Si O2"
_cell_formula_units_Z 56
_cell_length_a 29.158018
_cell_length_b 20.661472
_cell_length_c 8.770163
_cell_angle_alpha 90.000000
_cell_angle_beta 146.262511
_cell_angle_gamma 90.000000
_cell_volume 2934.431211
_symmetry_space_group_name_H-M "C 2/M"
_symmetry_group_IT_number 12
_symmetry_cell_setting 'monoclinic'
loop_
_space_group_symop_operation_xyz
x,y,z
-x,y,-z
-x,-y,-z
x,-y,z
1/2+x,1/2+y,z
1/2-x,1/2+y,-z
1/2-x,1/2-y,-z
1/2+x,1/2-y,z
loop_
_atom_site_type_symbol
_atom_site_label
_atom_site_fract_x
_atom_site_fract_y
_atom_site_fract_z
Si Si1 0.528736 0.757949 0.753317
Si Si2 0.538631 0.626560 0.954373
Si Si3 0.282840 0.649829 0.142075
Si Si4 0.185716 0.309960 0.335237
Si Si5 0.284654 0.424241 0.462158
Si Si6 0.924858 0.927408 0.407877
Si Si7 0.858793 0.711967 0.441232
O O1 0.500000 0.756872 0.500000
O O2 0.549528 0.685702 0.868921
O O3 0.452176 0.784441 0.640653
O O4 0.611316 0.797982 0.011817
O O5 0.470118 0.579155 0.695552
O O6 0.500000 0.656123 0.000000
O O7 0.622215 0.590246 0.224662
O O8 0.275624 0.600036 0.262152
O O9 0.349717 0.622391 0.206014
O O10 0.320539 0.715939 0.315238
O O11 0.198063 0.666837 0.823243
O O12 0.250000 0.250000 0.500000
O O13 0.229276 0.376781 0.411899
O O14 0.150571 0.308088 0.409368
O O15 0.266173 0.500000 0.424375
O O16 0.000000 0.915018 0.500000
O O17 0.894395 0.000000 0.296199
#
# Coordination Sequence:
#
# PCOD9220844 Si02
#       7
#     8   8   8   8   8   8   8
#     4  12  24  41  69  99 134 171 217 279 339 390
#     4  12  22  37  60  94 133 179 218 261 328 398
#     4  11  22  39  62  93 128 176 222 270 325 390
#     4  12  24  43  67 100 133 172 222 278 334 396
#     4  12  25  42  64  94 136 181 224 270 331 401
#     4  11  24  38  56  89 138 182 218 261 324 404
#     4  11  24  40  68  95 130 167 219 280 332 382
#
# _framework density 19.083766000000001
#
# number of rings (size 3 to 8) (size 9 to 14) (size 15 to 20)
#    0.000    0.429    5.714    3.429    4.000    0.571 
#    0.000    0.714    0.000    6.429    0.000    0.000 
#    0.000    0.000    0.000    0.000    0.000    0.000 
#
# Total GULP energy -156617.633322 kJ/mol
# GULP energy per Si atom -5593.486904 kJ/mol
# Density = 1.904033 g / cm^3
# Si number density = 19.083766 Si / 1000 Ang^3
#
#
#
# Elastic Constant Matrix: (Units=GPa)
#
#
# Indices 1 2 3 4 5 6 
#
# 1 104.1766 44.6073 21.8457 0.0000 -6.4893 0.0000
# 2 44.6073 125.5578 43.3832 0.0000 9.0796 0.0000
# 3 21.8457 43.3832 92.1958 0.0000 -1.5329 0.0000
# 4 0.0000 0.0000 0.0000 8.6215 0.0000 8.0772
# 5 -6.4893 9.0796 -1.5329 0.0000 23.6826 0.0000
# 6 0.0000 0.0000 0.0000 8.0772 0.0000 15.2471
#
#
#
# Elastic Compliance Matrix: (Units=1/GPa)
#
#
# Indices 1 2 3 4 5 6 
#
# 1 0.011909 -0.004343 -0.000697 0.000000 0.004883 0.000000
# 2 -0.004343 0.011477 -0.004469 0.000000 -0.005879 0.000000
# 3 -0.000697 -0.004469 0.013154 0.000000 0.002374 0.000000
# 4 0.000000 0.000000 0.000000 0.230276 0.000000 -0.121989
# 5 0.004883 -0.005879 0.002374 0.000000 0.045971 0.000000
# 6 0.000000 0.000000 0.000000 -0.121989 0.000000 0.130210
#
#
# Mechanical properties :
#
#
# Convention : Reuss Voigt Hill
#
# Bulk Modulus (GPa) = 57.07303 60.17807 58.62555
# Shear Modulus (GPa) = 10.68705 23.64984 17.16845
#
# Velocity S-wave (km/s) = 2.36902 3.52414 3.00265
# Velocity P-wave (km/s) = 6.12001 6.93985 6.54278
#
# Compressibility (1/GPa) = 0.01752141
#
# Stress axis : x y z
#
# Youngs Moduli (GPa) = 83.96877 87.13165 76.02234
#
# Poissons Ratio (x) = 0.37844 0.05298
# Poissons Ratio (y) = 0.36471 0.33975
# Poissons Ratio (z) = 0.05852 0.38940
#
# Static dielectric constant tensor:
#      x y z
#    x 1.714010 0.000000 -0.029950 
#    y 0.000000 1.654190 0.000000 
#    z -0.029950 0.000000 1.671940 
# 
# From -- ./inp_files/113421.got.cif
#   From: 2010.05.17/outbox.cif.g08.bks.cpg/sg12_57_cif.got.tgz:113421.got - 2010.06.03 13:09:07.
