data_PCOD9220341
_publ_section_title
;
Structure prediction by ZEFSAII (Michael W. Deem and Ramdas Pophale) SiO2 
 PCOD9220341
Probable space group: C 2/M
;
_chemical_formula_sum "Si O2"
_cell_formula_units_Z 40
_cell_length_a 11.494124
_cell_length_b 26.365013
_cell_length_c 10.647774
_cell_angle_alpha 90.000000
_cell_angle_beta 35.582307
_cell_angle_gamma 90.000000
_cell_volume 1877.543657
_symmetry_space_group_name_H-M "C 2/M"
_symmetry_group_IT_number 12
_symmetry_cell_setting 'monoclinic'
loop_
_space_group_symop_operation_xyz
x,y,z
-x,y,-z
-x,-y,-z
x,-y,z
1/2+x,1/2+y,z
1/2-x,1/2+y,-z
1/2-x,1/2-y,-z
1/2+x,1/2-y,z
loop_
_atom_site_type_symbol
_atom_site_label
_atom_site_fract_x
_atom_site_fract_y
_atom_site_fract_z
Si Si1 0.099759 0.557366 0.119585
Si Si2 0.872181 0.857585 0.985613
Si Si3 0.969716 0.714318 0.668035
Si Si4 0.145364 0.175064 0.524906
Si Si5 0.777875 0.919064 0.689539
O O1 0.145501 0.500000 0.117768
O O2 0.184039 0.568242 0.905717
O O3 0.205981 0.598608 0.113927
O O4 0.862793 0.562765 0.300983
O O5 0.747515 0.804811 0.099308
O O6 0.000000 0.862633 0.000000
O O7 0.021734 0.857461 0.735717
O O8 0.000000 0.694380 0.500000
O O9 0.015961 0.774055 0.622102
O O10 0.142166 0.691598 0.604213
O O11 0.198806 0.141093 0.357478
O O12 0.000000 0.940526 0.500000
#
# Coordination Sequence:
#
# PCOD9220341 Si02
#       5
#     8   8   8   8   8
#     4  11  26  43  65  99 131 167 224 279 326 384
#     4  12  24  44  66  92 134 175 217 268 322 385
#     4  11  23  41  63  93 135 171 219 261 318 391
#     4  11  23  41  64  98 128 174 214 265 322 392
#     4  11  21  42  69  95 131 165 211 272 335 381
#
# _framework density 21.304431999999998
#
# number of rings (size 3 to 8) (size 9 to 14) (size 15 to 20)
#    0.000    0.800    6.000    2.400    0.000    2.000 
#    0.000    0.000    0.000    1.800    0.000    0.000 
#    0.000    0.000    0.000    0.000    0.000    0.000 
#
# Total GULP energy -111708.368125 kJ/mol
# GULP energy per Si atom -5585.418406 kJ/mol
# Density = 2.125594 g / cm^3
# Si number density = 21.304432 Si / 1000 Ang^3
#
#
#
# Elastic Constant Matrix: (Units=GPa)
#
#
# Indices 1 2 3 4 5 6 
#
# 1 106.1125 32.0421 17.7656 0.0000 -36.6484 0.0000
# 2 32.0421 111.6222 1.4346 0.0000 -22.6156 0.0000
# 3 17.7656 1.4346 69.7700 0.0000 -19.4741 0.0000
# 4 0.0000 0.0000 0.0000 36.6234 0.0000 4.7598
# 5 -36.6484 -22.6156 -19.4741 0.0000 30.8516 0.0000
# 6 0.0000 0.0000 0.0000 4.7598 0.0000 19.0047
#
#
#
# Elastic Compliance Matrix: (Units=1/GPa)
#
#
# Indices 1 2 3 4 5 6 
#
# 1 0.016154 -0.000697 0.001353 0.000000 0.019532 0.000000
# 2 -0.000697 0.010879 0.002365 0.000000 0.008640 0.000000
# 3 0.001353 0.002365 0.018053 0.000000 0.014736 0.000000
# 4 0.000000 0.000000 0.000000 0.028224 0.000000 -0.007069
# 5 0.019532 0.008640 0.014736 0.000000 0.071250 0.000000
# 6 0.000000 0.000000 0.000000 -0.007069 0.000000 0.054389
#
#
# Mechanical properties :
#
#
# Convention : Reuss Voigt Hill
#
# Bulk Modulus (GPa) = 19.55903 43.33215 31.44559
# Shear Modulus (GPa) = 23.81536 33.04677 28.43107
#
# Velocity S-wave (km/s) = 3.34707 3.94276 3.65706
# Velocity P-wave (km/s) = 4.91303 6.41177 5.71177
#
# Compressibility (1/GPa) = 0.05112728
#
# Stress axis : x y z
#
# Youngs Moduli (GPa) = 61.90517 91.92044 55.39305
#
# Poissons Ratio (x) = 0.06408 -0.07493
# Poissons Ratio (y) = 0.04316 -0.13102
# Poissons Ratio (z) = -0.08374 -0.21742
#
# Static dielectric constant tensor:
#      x y z
#    x 1.788570 0.000000 -0.029080 
#    y 0.000000 1.798930 0.000000 
#    z -0.029080 0.000000 1.796450 
# 
# From -- ./inp_files/137114.got.cif
#   From: 2010.05.17/outbox.cif.g08.bks.cpg/sg12_69_cif.got.tgz:137114.got - 2010.06.03 13:09:07.
