data_PCOD9220247
_publ_section_title
;
Structure prediction by ZEFSAII (Michael W. Deem and Ramdas Pophale) SiO2 
 PCOD9220247
Probable space group: C 2/M
;
_chemical_formula_sum "Si O2"
_cell_formula_units_Z 48
_cell_length_a 27.952570
_cell_length_b 20.018146
_cell_length_c 12.299719
_cell_angle_alpha 90.000000
_cell_angle_beta 159.541366
_cell_angle_gamma 90.000000
_cell_volume 2405.617268
_symmetry_space_group_name_H-M "C 2/M"
_symmetry_group_IT_number 12
_symmetry_cell_setting 'monoclinic'
loop_
_space_group_symop_operation_xyz
x,y,z
-x,y,-z
-x,-y,-z
x,-y,z
1/2+x,1/2+y,z
1/2-x,1/2+y,-z
1/2-x,1/2-y,-z
1/2+x,1/2-y,z
loop_
_atom_site_type_symbol
_atom_site_label
_atom_site_fract_x
_atom_site_fract_y
_atom_site_fract_z
Si Si1 0.177932 0.500000 0.985559
Si Si2 0.961428 0.835759 0.040908
Si Si3 0.465230 0.179080 0.048452
Si Si4 0.246268 0.636694 0.240137
Si Si5 0.852122 0.500000 0.335257
Si Si6 0.255215 0.867979 0.254673
Si Si7 0.641611 0.746434 0.864430
O O1 0.243430 0.566228 0.174650
O O2 0.191499 0.500000 0.884081
O O3 0.017627 0.500000 0.679529
O O4 0.922223 0.757066 0.955490
O O5 0.100014 0.841942 0.405747
O O6 0.838892 0.875332 0.838311
O O7 0.000000 0.855788 0.000000
O O8 0.603769 0.168963 0.412302
O O9 0.500000 0.159188 0.000000
O O10 0.343206 0.136735 0.840506
O O11 0.168323 0.690873 0.999714
O O12 0.797115 0.435178 0.281693
O O13 0.167868 0.819860 0.990192
O O14 0.500000 0.748344 0.500000
O O15 0.750000 0.750000 0.000000
#
# Coordination Sequence:
#
# PCOD9220247 Si02
#       7
#     4   8   8   8   4   8   8
#     4  11  26  45  68  93 133 179 221 265 333 395
#     4  11  23  42  69 101 135 171 215 276 338 381
#     4  11  21  40  69 100 131 170 219 272 329 386
#     4  12  23  43  66  99 130 176 217 269 329 387
#     4  11  26  45  68  93 133 181 215 271 331 393
#     4  12  23  44  65 100 131 173 220 272 328 390
#     4  12  24  38  63  97 128 165 219 274 316 381
#
# _framework density 19.953299000000001
#
# number of rings (size 3 to 8) (size 9 to 14) (size 15 to 20)
#    0.000    0.500    5.000    4.000    2.333    3.333 
#    0.000    6.250    0.000    0.000    0.000    0.000 
#    0.000    0.000    0.000    0.000    0.000    0.000 
#
# Total GULP energy -134261.338404 kJ/mol
# GULP energy per Si atom -5594.222433 kJ/mol
# Density = 1.990788 g / cm^3
# Si number density = 19.953299 Si / 1000 Ang^3
#
#
#
# Elastic Constant Matrix: (Units=GPa)
#
#
# Indices 1 2 3 4 5 6 
#
# 1 136.5972 39.1314 4.6732 0.0000 16.0881 0.0000
# 2 39.1314 96.3507 5.7389 0.0000 -11.9543 0.0000
# 3 4.6732 5.7389 74.7628 0.0000 7.3838 0.0000
# 4 0.0000 0.0000 0.0000 -5.1329 0.0000 -29.7471
# 5 16.0881 -11.9543 7.3838 0.0000 35.0110 0.0000
# 6 0.0000 0.0000 0.0000 -29.7471 0.0000 -47.3725
#
#
#
# Elastic Compliance Matrix: (Units=1/GPa)
#
#
# Indices 1 2 3 4 5 6 
#
# 1 0.009301 -0.004529 0.000348 0.000000 -0.005894 0.000000
# 2 -0.004529 0.013154 -0.001405 0.000000 0.006869 0.000000
# 3 0.000348 -0.001405 0.013813 0.000000 -0.003553 0.000000
# 4 0.000000 0.000000 0.000000 0.073820 0.000000 -0.046354
# 5 -0.005894 0.006869 -0.003553 0.000000 0.034365 0.000000
# 6 0.000000 0.000000 0.000000 -0.046354 0.000000 0.007999
#
#
# Mechanical properties :
#
#
# Convention : Reuss Voigt Hill
#
# Bulk Modulus (GPa) = 39.84770 45.19975 42.52373
# Shear Modulus (GPa) = 29.07181 13.71227 21.39204
#
# Velocity S-wave (km/s) = 3.82120 2.62433 3.27785
# Velocity P-wave (km/s) = 6.28352 5.64666 5.97358
#
# Compressibility (1/GPa) = 0.02509555
#
# Stress axis : x y z
#
# Youngs Moduli (GPa) = 107.52062 76.02143 72.39762
#
# Poissons Ratio (x) = 0.34432 -0.02522
# Poissons Ratio (y) = 0.48699 0.10172
# Poissons Ratio (z) = -0.03746 0.10681
#
# Static dielectric constant tensor:
#      x y z
#    x 1.728540 0.000000 0.003810 
#    y 0.000000 1.599440 0.000000 
#    z 0.003810 0.000000 1.683300 
# 
# From -- ./inp_files/184845.got.cif
#   From: 2010.05.17/outbox.cif.g08.bks.cpg/sg12_93_cif.got.tgz:184845.got - 2010.06.03 13:09:07.
