data_PCOD9220484
_publ_section_title
;
Structure prediction by ZEFSAII (Michael W. Deem and Ramdas Pophale) SiO2 
 PCOD9220484
Probable space group: C 2/M
;
_chemical_formula_sum "Si O2"
_cell_formula_units_Z 40
_cell_length_a 30.136018
_cell_length_b 8.876738
_cell_length_c 24.946705
_cell_angle_alpha 90.000000
_cell_angle_beta 161.375650
_cell_angle_gamma 90.000000
_cell_volume 2131.256863
_symmetry_space_group_name_H-M "C 2/M"
_symmetry_group_IT_number 12
_symmetry_cell_setting 'monoclinic'
loop_
_space_group_symop_operation_xyz
x,y,z
-x,y,-z
-x,-y,-z
x,-y,z
1/2+x,1/2+y,z
1/2-x,1/2+y,-z
1/2-x,1/2-y,-z
1/2+x,1/2-y,z
loop_
_atom_site_type_symbol
_atom_site_label
_atom_site_fract_x
_atom_site_fract_y
_atom_site_fract_z
Si Si1 0.239887 0.678067 0.734166
Si Si2 0.312368 0.679599 0.216889
Si Si3 0.956451 0.179308 0.064131
Si Si4 0.742097 0.180093 0.549661
Si Si5 0.076830 0.179390 0.451408
O O1 0.222393 0.500000 0.705352
O O2 0.156877 0.735364 0.691856
O O3 0.187032 0.765845 0.622332
O O4 0.396641 0.706092 0.935651
O O5 0.317223 0.500000 0.230924
O O6 0.425522 0.720006 0.301991
O O7 0.154211 0.732758 0.025354
O O8 0.113863 0.221043 0.255139
O O9 0.941430 0.000000 0.056444
O O10 0.750000 0.250000 0.500000
O O11 0.616803 0.243751 0.441589
O O12 0.733944 0.000000 0.537295
O O13 0.083557 0.000000 0.453651
#
# Coordination Sequence:
#
# PCOD9220484 Si02
#       5
#     8   8   8   8   8
#     4   9  18  33  56  85 118 149 180 222 274 331
#     4   9  18  33  55  85 119 147 179 223 273 328
#     4   8  19  37  57  81 113 146 181 226 277 329
#     4  11  24  43  61  79 107 145 189 237 280 326
#     4  11  22  35  55  87 118 148 185 225 271 328
#
# _framework density 18.768267999999999
#
# number of rings (size 3 to 8) (size 9 to 14) (size 15 to 20)
#    1.200    1.200    0.000    2.400    0.000    8.000 
#    0.000    5.000    0.000    0.000    0.000    0.000 
#    0.000    0.000    0.000    0.000    0.000    0.000 
#
# Total GULP energy -111388.970500 kJ/mol
# GULP energy per Si atom -5569.448525 kJ/mol
# Density = 1.872555 g / cm^3
# Si number density = 18.768268 Si / 1000 Ang^3
#
#
#
# Elastic Constant Matrix: (Units=GPa)
#
#
# Indices 1 2 3 4 5 6 
#
# 1 123.4070 32.8243 9.4480 0.0002 18.8143 0.0001
# 2 32.8243 36.9022 13.4517 0.0003 6.4405 0.0002
# 3 9.4480 13.4517 25.2643 0.0002 25.3517 0.0002
# 4 0.0002 0.0003 0.0002 21.1267 0.0004 -1.0591
# 5 18.8143 6.4405 25.3517 0.0004 -8.0853 0.0003
# 6 0.0001 0.0002 0.0002 -1.0591 0.0003 31.8967
#
#
#
# Elastic Compliance Matrix: (Units=1/GPa)
#
#
# Indices 1 2 3 4 5 6 
#
# 1 0.009890 -0.008181 -0.003834 0.000000 0.004476 0.000000
# 2 -0.008181 0.038792 -0.007114 0.000000 -0.010444 0.000000
# 3 -0.003834 -0.007114 0.014336 -0.000001 0.030362 0.000000
# 4 0.000000 0.000000 -0.000001 0.047412 0.000000 0.001574
# 5 0.004476 -0.010444 0.030362 0.000000 -0.026384 0.000000
# 6 0.000000 0.000000 0.000000 0.001574 0.000000 0.031403
#
#
# Mechanical properties :
#
#
# Convention : Reuss Voigt Hill
#
# Bulk Modulus (GPa) = 40.38915 33.00238 36.69577
# Shear Modulus (GPa) = 30.87134 17.64426 24.25780
#
# Velocity S-wave (km/s) = 4.06010 3.06945 3.59902
# Velocity P-wave (km/s) = 6.59893 5.49403 6.07166
#
# Compressibility (1/GPa) = 0.02475912
#
# Stress axis : x y z
#
# Youngs Moduli (GPa) = 101.10762 25.77869 69.75393
#
# Poissons Ratio (x) = 0.21090 0.26745
# Poissons Ratio (y) = 0.82716 0.49626
# Poissons Ratio (z) = 0.38767 0.18340
#
# Static dielectric constant tensor:
#      x y z
#    x 1.653220 0.000000 0.022440 
#    y 0.000000 1.620680 0.000000 
#    z 0.022440 0.000000 1.684720 
# 
# From -- ./inp_files/186037.got.cif
#   From: 2010.05.17/outbox.cif.g08.bks.cpg/sg12_94_cif.got.tgz:186037.got - 2010.06.03 13:09:07.
