data_PCOD9220597
_publ_section_title
;
Structure prediction by ZEFSAII (Michael W. Deem and Ramdas Pophale) SiO2 
 PCOD9220597
Probable space group: C 2/M
;
_chemical_formula_sum "Si O2"
_cell_formula_units_Z 48
_cell_length_a 18.748426
_cell_length_b 17.759338
_cell_length_c 16.405569
_cell_angle_alpha 90.000000
_cell_angle_beta 24.273307
_cell_angle_gamma 90.000000
_cell_volume 2245.533241
_symmetry_space_group_name_H-M "C 2/M"
_symmetry_group_IT_number 12
_symmetry_cell_setting 'monoclinic'
loop_
_space_group_symop_operation_xyz
x,y,z
-x,y,-z
-x,-y,-z
x,-y,z
1/2+x,1/2+y,z
1/2-x,1/2+y,-z
1/2-x,1/2-y,-z
1/2+x,1/2-y,z
loop_
_atom_site_type_symbol
_atom_site_label
_atom_site_fract_x
_atom_site_fract_y
_atom_site_fract_z
Si Si1 0.313962 0.914680 0.521864
Si Si2 0.926924 0.667834 0.998977
Si Si3 0.194037 0.827622 0.802019
Si Si4 0.774449 0.179743 0.533148
Si Si5 0.335097 0.325047 0.869586
Si Si6 0.211435 0.584738 0.141841
O O1 0.269456 0.851758 0.636412
O O2 0.239950 0.892248 0.511297
O O3 0.522022 0.913821 0.299071
O O4 0.262819 0.000000 0.600143
O O5 0.106304 0.683567 0.765033
O O6 0.836638 0.741982 0.134484
O O7 0.788676 0.645217 0.073929
O O8 0.000000 0.620288 0.000000
O O9 0.295644 0.867516 0.768660
O O10 0.000000 0.860167 0.000000
O O11 0.750000 0.250000 0.500000
O O12 0.968657 0.185778 0.366422
O O13 0.250000 0.250000 0.000000
O O14 0.339680 0.380626 0.941952
O O15 0.259021 0.500000 0.113241
#
# Coordination Sequence:
#
# PCOD9220597 Si02
#       6
#     8   8   8   8   8   8
#     4  11  24  41  64  96 135 176 213 263 329 397
#     4  11  24  42  62  94 128 167 219 269 321 374
#     4  11  22  37  56  91 134 172 211 257 319 393
#     4  12  22  40  67  91 127 172 221 267 314 382
#     4  12  22  40  65  92 125 172 219 268 321 380
#     4  11  22  39  63  93 132 175 216 264 323 391
#
# _framework density 21.375769999999999
#
# number of rings (size 3 to 8) (size 9 to 14) (size 15 to 20)
#    0.000    0.667    5.000    4.000    0.000    5.333 
#    6.000    0.000    0.000    2.000    0.000    2.333 
#    0.000    0.000    0.000    0.000    0.000    0.000 
#
# Total GULP energy -133860.812811 kJ/mol
# GULP energy per Si atom -5577.533867 kJ/mol
# Density = 2.132712 g / cm^3
# Si number density = 21.375770 Si / 1000 Ang^3
#
#
#
# Elastic Constant Matrix: (Units=GPa)
#
#
# Indices 1 2 3 4 5 6 
#
# 1 106.3111 1.7075 11.0430 0.0017 -3.0526 -0.0029
# 2 1.7075 37.8455 7.2174 -0.0162 8.7200 0.0084
# 3 11.0430 7.2174 91.3075 -0.0001 -5.9856 0.0029
# 4 0.0017 -0.0162 -0.0001 17.3618 0.0016 1.5394
# 5 -3.0526 8.7200 -5.9856 0.0016 46.5790 0.0008
# 6 -0.0029 0.0084 0.0029 1.5394 0.0008 13.3299
#
#
#
# Elastic Compliance Matrix: (Units=1/GPa)
#
#
# Indices 1 2 3 4 5 6 
#
# 1 0.009541 -0.000349 -0.001090 -0.000002 0.000551 0.000003
# 2 -0.000349 0.028225 -0.002558 0.000029 -0.005636 -0.000020
# 3 -0.001090 -0.002558 0.011409 -0.000002 0.001874 -0.000001
# 4 -0.000002 0.000029 -0.000002 0.058193 -0.000008 -0.006720
# 5 0.000551 -0.005636 0.001874 -0.000008 0.022801 0.000003
# 6 0.000003 -0.000020 -0.000001 -0.006720 0.000003 0.075795
#
#
# Mechanical properties :
#
#
# Convention : Reuss Voigt Hill
#
# Bulk Modulus (GPa) = 24.28390 30.59999 27.44194
# Shear Modulus (GPa) = 21.95995 29.82057 25.89026
#
# Velocity S-wave (km/s) = 3.20867 3.73911 3.48400
# Velocity P-wave (km/s) = 5.01125 5.74348 5.38981
#
# Compressibility (1/GPa) = 0.04117955
#
# Stress axis : x y z
#
# Youngs Moduli (GPa) = 104.81061 35.42905 87.65094
#
# Poissons Ratio (x) = 0.01238 0.09556
# Poissons Ratio (y) = 0.03662 0.22423
# Poissons Ratio (z) = 0.11426 0.09064
#
# Static dielectric constant tensor:
#      x y z
#    x 2.465480 0.000310 1.507730 
#    y 0.000310 1.826040 0.000790 
#    z 1.507730 0.000790 5.536710 
# 
# From -- ./inp_files/88126.got.cif
#   From: 2010.05.17/outbox.cif.g08.bks.cpg/sg12_45_cif.got.tgz:88126.got - 2010.06.03 13:09:07.
