data_PCOD9220050
_publ_section_title
;
Structure prediction by ZEFSAII (Michael W. Deem and Ramdas Pophale) SiO2 
 PCOD9220050
Probable space group: C 2/M
;
_chemical_formula_sum "Si O2"
_cell_formula_units_Z 44
_cell_length_a 19.005853
_cell_length_b 17.841381
_cell_length_c 6.562855
_cell_angle_alpha 90.000000
_cell_angle_beta 65.220091
_cell_angle_gamma 90.000000
_cell_volume 2020.497794
_symmetry_space_group_name_H-M "C 2/M"
_symmetry_group_IT_number 12
_symmetry_cell_setting 'monoclinic'
loop_
_space_group_symop_operation_xyz
x,y,z
-x,y,-z
-x,-y,-z
x,-y,z
1/2+x,1/2+y,z
1/2-x,1/2+y,-z
1/2-x,1/2-y,-z
1/2+x,1/2-y,z
loop_
_atom_site_type_symbol
_atom_site_label
_atom_site_fract_x
_atom_site_fract_y
_atom_site_fract_z
Si Si1 0.071698 0.000000 0.759208
Si Si2 0.583021 0.372703 0.414946
Si Si3 0.359571 0.833717 0.915530
Si Si4 0.825111 0.500000 0.869250
Si Si5 0.500000 0.871937 0.000000
Si Si6 0.354718 0.500000 0.941195
Si Si7 0.440181 0.000000 0.377912
Si Si8 0.717936 0.744438 0.313056
O O1 0.072597 0.071126 0.614783
O O2 0.144550 0.000000 0.817935
O O3 0.000000 0.000000 0.000000
O O4 0.500000 0.332354 0.500000
O O5 0.603235 0.426682 0.200158
O O6 0.655194 0.320722 0.364899
O O7 0.352932 0.923351 0.938886
O O8 0.441505 0.822074 0.931134
O O9 0.331988 0.814426 0.716589
O O10 0.295430 0.781808 0.101112
O O11 0.858288 0.500000 0.597248
O O12 0.733692 0.500000 0.012849
O O13 0.543528 0.927530 0.785030
O O14 0.500000 0.000000 0.500000
O O15 0.750000 0.750000 0.500000
#
# Coordination Sequence:
#
# PCOD9220050 Si02
#       8
#     4   8   8   4   4   4   4   8
#     4  11  21  37  70 107 132 170 229 279 342 404
#     4  11  23  43  70 100 139 179 227 288 340 412
#     4  11  26  47  70 104 140 181 239 296 347 427
#     4  12  23  44  77  98 141 181 228 294 360 409
#     4  11  24  44  74 104 142 175 238 300 346 425
#     4  11  22  41  70 105 135 169 229 287 341 415
#     4  11  22  40  69 111 137 170 230 292 352 416
#     4  11  28  48  65 100 147 189 237 283 354 433
#
# _framework density 21.776812
#
# number of rings (size 3 to 8) (size 9 to 14) (size 15 to 20)
#    0.000    0.909    5.455    1.091    5.091    1.455 
#    0.000    0.000    0.000    0.000    0.000    0.000 
#    0.000    0.000    0.000    0.000    0.000    0.000 
#
# Total GULP energy -122668.315314 kJ/mol
# GULP energy per Si atom -5575.832514 kJ/mol
# Density = 2.172725 g / cm^3
# Si number density = 21.776812 Si / 1000 Ang^3
#
#
#
# Elastic Constant Matrix: (Units=GPa)
#
#
# Indices 1 2 3 4 5 6 
#
# 1 156.5249 27.9735 17.8329 0.0000 22.8409 0.0000
# 2 27.9735 58.1630 -3.2792 0.0000 15.9078 0.0000
# 3 17.8329 -3.2792 67.9744 0.0000 17.0906 0.0000
# 4 0.0000 0.0000 0.0000 4.6258 0.0000 59.8366
# 5 22.8409 15.9078 17.0906 0.0000 48.3836 0.0000
# 6 0.0000 0.0000 0.0000 59.8366 0.0000 31.5859
#
#
#
# Elastic Compliance Matrix: (Units=1/GPa)
#
#
# Indices 1 2 3 4 5 6 
#
# 1 0.007410 -0.003137 -0.001619 0.000000 -0.001895 0.000000
# 2 -0.003137 0.020687 0.003467 0.000000 -0.006545 0.000000
# 3 -0.001619 0.003467 0.016899 0.000000 -0.006345 0.000000
# 4 0.000000 0.000000 0.000000 -0.009197 0.000000 0.017423
# 5 -0.001895 -0.006545 -0.006345 0.000000 0.025956 0.000000
# 6 0.000000 0.000000 0.000000 0.017423 0.000000 -0.001347
#
#
# Mechanical properties :
#
#
# Convention : Reuss Voigt Hill
#
# Bulk Modulus (GPa) = 23.57504 40.85741 32.21622
# Shear Modulus (GPa) = 64.82893 32.92807 48.87850
#
# Velocity S-wave (km/s) = 5.46208 3.89275 4.74278
# Velocity P-wave (km/s) = 7.11536 6.24558 6.69461
#
# Compressibility (1/GPa) = 0.04241775
#
# Stress axis : x y z
#
# Youngs Moduli (GPa) = 134.94587 48.33851 59.17656
#
# Poissons Ratio (x) = 0.15164 0.09581
# Poissons Ratio (y) = 0.42333 -0.20515
# Poissons Ratio (z) = 0.21847 -0.16757
#
# Static dielectric constant tensor:
#      x y z
#    x 1.832910 0.000000 0.028730 
#    y 0.000000 1.813930 0.000000 
#    z 0.028730 0.000000 1.868850 
# 
# From -- ./inp_files/16115.got.cif
#   From: 2010.05.17/outbox.cif.g08.bks.cpg/sg12_9_cif.got.tgz:16115.got - 2010.06.03 13:09:07.
