data_PCOD9220194
_publ_section_title
;
Structure prediction by ZEFSAII (Michael W. Deem and Ramdas Pophale) SiO2 
 PCOD9220194
Probable space group: C 2/M
;
_chemical_formula_sum "Si O2"
_cell_formula_units_Z 58
_cell_length_a 11.579933
_cell_length_b 30.014362
_cell_length_c 17.490825
_cell_angle_alpha 90.000000
_cell_angle_beta 29.177759
_cell_angle_gamma 90.000000
_cell_volume 2963.729634
_symmetry_space_group_name_H-M "C 2/M"
_symmetry_group_IT_number 12
_symmetry_cell_setting 'monoclinic'
loop_
_space_group_symop_operation_xyz
x,y,z
-x,y,-z
-x,-y,-z
x,-y,z
1/2+x,1/2+y,z
1/2-x,1/2+y,-z
1/2-x,1/2-y,-z
1/2+x,1/2-y,z
loop_
_atom_site_type_symbol
_atom_site_label
_atom_site_fract_x
_atom_site_fract_y
_atom_site_fract_z
Si Si1 0.597147 0.849823 0.096978
Si Si2 0.409449 0.692207 0.191935
Si Si3 0.618260 0.127242 0.258506
Si Si4 0.632185 0.340116 0.614056
Si Si5 0.169574 0.083026 0.150195
Si Si6 0.840370 0.786005 0.667898
Si Si7 0.785698 0.552695 0.682526
Si Si8 0.000000 0.500000 0.000000
O O1 0.617829 0.871926 0.168049
O O2 0.348671 0.825413 0.233100
O O3 0.647307 0.886559 0.003535
O O4 0.807768 0.813323 0.968375
O O5 0.314167 0.659670 0.181508
O O6 0.319925 0.674256 0.326177
O O7 0.304653 0.740631 0.237569
O O8 0.369719 0.146231 0.433566
O O9 0.665602 0.079383 0.268296
O O10 0.459333 0.383063 0.717124
O O11 0.504957 0.299632 0.643850
O O12 0.959376 0.068223 0.213958
O O13 0.295863 0.039655 0.109878
O O14 0.000000 0.782038 0.500000
O O15 0.782970 0.500000 0.695831
O O16 0.000000 0.563652 0.500000
#
# Coordination Sequence:
#
# PCOD9220194 Si02
#       8
#     8   8   8   8   8   8   8   2
#     4  11  25  44  63  95 136 173 210 269 338 384
#     4  11  25  40  66  96 126 175 222 271 322 383
#     4  12  21  43  68  94 136 167 211 277 329 383
#     4  11  23  43  69  92 131 175 220 267 323 393
#     4  11  23  43  67  97 126 175 217 269 328 392
#     4  12  25  42  64  96 131 174 227 267 322 389
#     4  11  21  39  69 102 125 161 222 273 323 392
#     4  12  24  44  70  96 132 172 228 270 318 404
#
# _framework density 19.569935999999998
#
# number of rings (size 3 to 8) (size 9 to 14) (size 15 to 20)
#    0.000    0.690    6.207    2.897    1.931    2.759 
#    6.207    0.690    0.000    0.828    0.000    0.000 
#    0.000    0.000    0.000    0.000    0.000    0.000 
#
# Total GULP energy -161950.674877 kJ/mol
# GULP energy per Si atom -5584.506030 kJ/mol
# Density = 1.952539 g / cm^3
# Si number density = 19.569936 Si / 1000 Ang^3
#
#
#
# Elastic Constant Matrix: (Units=GPa)
#
#
# Indices 1 2 3 4 5 6 
#
# 1 34.6360 14.8008 6.1234 0.0001 -3.8636 -0.0001
# 2 14.8008 97.2237 2.4663 0.0001 -7.6207 -0.0002
# 3 6.1234 2.4663 57.1280 0.0000 -0.5678 -0.0001
# 4 0.0001 0.0001 0.0000 15.4701 0.0001 -10.2303
# 5 -3.8636 -7.6207 -0.5678 0.0001 24.9287 0.0000
# 6 -0.0001 -0.0002 -0.0001 -10.2303 0.0000 16.7696
#
#
#
# Elastic Compliance Matrix: (Units=1/GPa)
#
#
# Indices 1 2 3 4 5 6 
#
# 1 0.031734 -0.004478 -0.003174 0.000000 0.003477 0.000000
# 2 -0.004478 0.011180 0.000024 0.000000 0.002724 0.000000
# 3 -0.003174 0.000024 0.017843 0.000000 -0.000078 0.000000
# 4 0.000000 0.000000 0.000000 0.108353 0.000000 0.066101
# 5 0.003477 0.002724 -0.000078 0.000000 0.041484 0.000000
# 6 0.000000 0.000000 0.000000 0.066101 0.000000 0.099957
#
#
# Mechanical properties :
#
#
# Convention : Reuss Voigt Hill
#
# Bulk Modulus (GPa) = 21.97662 26.19649 24.08655
# Shear Modulus (GPa) = 14.66390 22.47350 18.56870
#
# Velocity S-wave (km/s) = 2.74032 3.39244 3.08366
# Velocity P-wave (km/s) = 4.61157 5.36283 5.00133
#
# Compressibility (1/GPa) = 0.04550291
#
# Stress axis : x y z
#
# Youngs Moduli (GPa) = 31.51173 89.44398 56.04472
#
# Poissons Ratio (x) = 0.40053 0.17786
# Poissons Ratio (y) = 0.14111 -0.00137
# Poissons Ratio (z) = 0.10001 -0.00218
#
# Static dielectric constant tensor:
#      x y z
#    x 1.685380 0.000000 -0.017140 
#    y 0.000000 1.660140 0.000000 
#    z -0.017140 0.000000 1.688070 
# 
# From -- ./inp_files/266026.got.cif
#   From: 2010.05.17/outbox.cif.g08.bks.cpg/sg12_134_cif.got.tgz:266026.got - 2010.06.03 13:09:07.
