data_PCOD9220584
_publ_section_title
;
Structure prediction by ZEFSAII (Michael W. Deem and Ramdas Pophale) SiO2 
 PCOD9220584
Probable space group: C 2/M
;
_chemical_formula_sum "Si O2"
_cell_formula_units_Z 58
_cell_length_a 29.908079
_cell_length_b 7.329376
_cell_length_c 11.595567
_cell_angle_alpha 90.000000
_cell_angle_beta 81.699260
_cell_angle_gamma 90.000000
_cell_volume 2515.207443
_symmetry_space_group_name_H-M "C 2/M"
_symmetry_group_IT_number 12
_symmetry_cell_setting 'monoclinic'
loop_
_space_group_symop_operation_xyz
x,y,z
-x,y,-z
-x,-y,-z
x,-y,z
1/2+x,1/2+y,z
1/2-x,1/2+y,-z
1/2-x,1/2-y,-z
1/2+x,1/2-y,z
loop_
_atom_site_type_symbol
_atom_site_label
_atom_site_fract_x
_atom_site_fract_y
_atom_site_fract_z
Si Si1 0.107177 0.706912 0.286857
Si Si2 0.000000 0.500000 0.500000
Si Si3 0.577977 0.706626 0.540208
Si Si4 0.315145 0.221519 0.909909
Si Si5 0.472818 0.280041 0.834384
Si Si6 0.775981 0.209702 0.171556
Si Si7 0.643543 0.277389 0.722010
Si Si8 0.935813 0.778920 0.095355
O O1 0.121974 0.500000 0.303483
O O2 0.104799 0.803726 0.409073
O O3 0.139374 0.779481 0.173084
O O4 0.055981 0.703733 0.258601
O O5 0.963987 0.340344 0.465808
O O6 0.562970 0.500000 0.578931
O O7 0.614884 0.772438 0.620232
O O8 0.272289 0.286019 0.849500
O O9 0.314849 0.000000 0.917320
O O10 0.305936 0.287314 0.042888
O O11 0.470888 0.500000 0.827911
O O12 0.524568 0.224784 0.830880
O O13 0.449010 0.220632 0.962656
O O14 0.806311 0.287115 0.263852
O O15 0.766603 0.000000 0.204920
O O16 0.645388 0.500000 0.720592
O O17 0.611662 0.218782 0.839819
O O18 0.936589 0.000000 0.092015
#
# Coordination Sequence:
#
# PCOD9220584 Si02
#       8
#     8   2   8   8   8   8   8   8
#     4  11  22  37  53  79 120 158 200 254 303 357
#     4  12  26  48  64  90 122 164 210 264 308 360
#     4  11  25  43  65  90 119 161 214 256 306 365
#     4   9  19  34  56  87 124 161 196 248 312 368
#     4   9  17  30  51  76 103 141 186 234 294 361
#     4   9  17  34  60  89 119 155 202 250 306 374
#     4   9  18  33  56  83 113 151 199 254 301 360
#     4   8  15  28  48  77 106 134 177 234 295 356
#
# _framework density 23.059729000000001
#
# number of rings (size 3 to 8) (size 9 to 14) (size 15 to 20)
#    0.000    2.483    0.690    2.276    1.931    2.207 
#    1.241    2.069    1.517    0.000    0.000    0.000 
#    0.000    0.000    0.000    0.000    0.000    0.000 
#
# Total GULP energy -161697.934899 kJ/mol
# GULP energy per Si atom -5575.790859 kJ/mol
# Density = 2.300724 g / cm^3
# Si number density = 23.059729 Si / 1000 Ang^3
#
#
#
# Elastic Constant Matrix: (Units=GPa)
#
#
# Indices 1 2 3 4 5 6 
#
# 1 107.7260 3.8986 30.3909 0.0000 38.2224 0.0000
# 2 3.8986 111.5585 -3.7624 0.0000 8.7287 0.0000
# 3 30.3909 -3.7624 43.5246 0.0000 26.8839 0.0000
# 4 0.0000 0.0000 0.0000 14.1767 0.0000 -1.0818
# 5 38.2224 8.7287 26.8839 0.0000 45.5451 0.0000
# 6 0.0000 0.0000 0.0000 -1.0818 0.0000 10.1813
#
#
#
# Elastic Compliance Matrix: (Units=1/GPa)
#
#
# Indices 1 2 3 4 5 6 
#
# 1 0.013619 0.000115 -0.003819 0.000000 -0.009198 0.000000
# 2 0.000115 0.009346 0.002980 0.000000 -0.003647 0.000000
# 3 -0.003819 0.002980 0.038200 0.000000 -0.019915 0.000000
# 4 0.000000 0.000000 0.000000 0.071115 0.000000 0.007556
# 5 -0.009198 -0.003647 -0.019915 0.000000 0.042129 0.000000
# 6 0.000000 0.000000 0.000000 0.007556 0.000000 0.099022
#
#
# Mechanical properties :
#
#
# Convention : Reuss Voigt Hill
#
# Bulk Modulus (GPa) = 16.74537 35.98481 26.36509
# Shear Modulus (GPa) = 16.96153 29.46610 23.21381
#
# Velocity S-wave (km/s) = 2.71504 3.57853 3.17627
# Velocity P-wave (km/s) = 4.13595 5.71957 4.99097
#
# Compressibility (1/GPa) = 0.05971801
#
# Stress axis : x y z
#
# Youngs Moduli (GPa) = 73.42489 107.00097 26.17777
#
# Poissons Ratio (x) = -0.01230 0.09996
# Poissons Ratio (y) = -0.00844 -0.07801
# Poissons Ratio (z) = 0.28038 -0.31886
#
# Static dielectric constant tensor:
#      x y z
#    x 1.847630 0.000000 0.000620 
#    y 0.000000 2.050670 0.000000 
#    z 0.000620 0.000000 1.860430 
# 
# From -- ./inp_files/186669.got.cif
#   From: 2010.05.17/outbox.cif.g08.bks.cpg/sg12_94_cif.got.tgz:186669.got - 2010.06.03 13:09:07.
