data_PCOD9220470
_publ_section_title
;
Structure prediction by ZEFSAII (Michael W. Deem and Ramdas Pophale) SiO2 
 PCOD9220470
Probable space group: C 2/M
;
_chemical_formula_sum "Si O2"
_cell_formula_units_Z 48
_cell_length_a 21.021551
_cell_length_b 8.227445
_cell_length_c 23.755060
_cell_angle_alpha 90.000000
_cell_angle_beta 140.364551
_cell_angle_gamma 90.000000
_cell_volume 2620.830149
_symmetry_space_group_name_H-M "C 2/M"
_symmetry_group_IT_number 12
_symmetry_cell_setting 'monoclinic'
loop_
_space_group_symop_operation_xyz
x,y,z
-x,y,-z
-x,-y,-z
x,-y,z
1/2+x,1/2+y,z
1/2-x,1/2+y,-z
1/2-x,1/2-y,-z
1/2+x,1/2-y,z
loop_
_atom_site_type_symbol
_atom_site_label
_atom_site_fract_x
_atom_site_fract_y
_atom_site_fract_z
Si Si1 0.643787 0.191525 0.948741
Si Si2 0.386643 0.301622 0.429871
Si Si3 0.893640 0.192783 0.951448
Si Si4 0.566849 0.198221 0.230445
Si Si5 0.287206 0.196034 0.771346
Si Si6 0.740518 0.803872 0.429503
O O1 0.546081 0.259577 0.849905
O O2 0.641399 0.000000 0.938783
O O3 0.750000 0.250000 0.000000
O O4 0.630177 0.228774 0.005206
O O5 0.500000 0.245180 0.500000
O O6 0.387971 0.500000 0.431564
O O7 0.315374 0.254743 0.329149
O O8 0.330163 0.250280 0.448778
O O9 0.811470 0.230451 0.848158
O O10 0.901172 0.000000 0.964899
O O11 0.000000 0.253530 0.000000
O O12 0.624947 0.242431 0.212576
O O13 0.637164 0.251721 0.329723
O O14 0.565658 0.000000 0.231114
O O15 0.287591 0.000000 0.776292
O O16 0.750000 0.750000 0.500000
O O17 0.740771 0.000000 0.428484
#
# Coordination Sequence:
#
# PCOD9220470 Si02
#       6
#     8   8   8   8   8   8
#     4  11  22  38  57  77 107 143 178 219 267 316
#     4   8  15  30  53  78 105 132 167 216 260 302
#     4  11  22  35  54  81 110 138 175 223 263 309
#     4   8  16  32  54  74  99 139 177 210 256 313
#     4   9  16  31  56  80 100 136 182 214 254 313
#     4   9  17  32  53  76 101 134 172 209 254 308
#
# _framework density 18.314809
#
# number of rings (size 3 to 8) (size 9 to 14) (size 15 to 20)
#    0.000    2.667    1.667    3.000    0.000    0.667 
#    3.000    5.000    0.000    1.000    0.000    0.000 
#    0.000    0.000    0.000    0.000    0.000    0.000 
#
# Total GULP energy -133811.725657 kJ/mol
# GULP energy per Si atom -5575.488569 kJ/mol
# Density = 1.827312 g / cm^3
# Si number density = 18.314809 Si / 1000 Ang^3
#
#
#
# Elastic Constant Matrix: (Units=GPa)
#
#
# Indices 1 2 3 4 5 6 
#
# 1 114.3902 9.3519 93.2905 0.0000 18.1339 0.0000
# 2 9.3519 8.8368 6.8643 0.0000 8.1391 0.0000
# 3 93.2905 6.8643 161.0941 0.0000 16.3421 0.0000
# 4 0.0000 0.0000 0.0000 20.1005 0.0000 -4.6780
# 5 18.1339 8.1391 16.3421 0.0000 35.2652 0.0000
# 6 0.0000 0.0000 0.0000 -4.6780 0.0000 23.5091
#
#
#
# Elastic Compliance Matrix: (Units=1/GPa)
#
#
# Indices 1 2 3 4 5 6 
#
# 1 0.017732 -0.008888 -0.009626 0.000000 -0.002606 0.000000
# 2 -0.008888 0.149467 0.001904 0.000000 -0.030808 0.000000
# 3 -0.009626 0.001904 0.011798 0.000000 -0.000957 0.000000
# 4 0.000000 0.000000 0.000000 0.052166 0.000000 0.010380
# 5 -0.002606 -0.030808 -0.000957 0.000000 0.037251 0.000000
# 6 0.000000 0.000000 0.000000 0.010380 0.000000 0.044602
#
#
# Mechanical properties :
#
#
# Convention : Reuss Voigt Hill
#
# Bulk Modulus (GPa) = 6.85982 55.92607 31.39294
# Shear Modulus (GPa) = 12.66376 27.42925 20.04651
#
# Velocity S-wave (km/s) = 2.63240 3.87415 3.31199
# Velocity P-wave (km/s) = 3.60458 7.11438 5.63947
#
# Compressibility (1/GPa) = 0.14577633
#
# Stress axis : x y z
#
# Youngs Moduli (GPa) = 56.39572 6.69044 84.76236
#
# Poissons Ratio (x) = 0.05947 0.81588
# Poissons Ratio (y) = 0.50126 -0.16136
# Poissons Ratio (z) = 0.54284 -0.01274
#
# Static dielectric constant tensor:
#      x y z
#    x 1.612610 0.000000 0.039170 
#    y 0.000000 1.642250 0.000000 
#    z 0.039170 0.000000 1.678510 
# 
# From -- ./inp_files/229280.got.cif
#   From: 2010.05.17/outbox.cif.g08.bks.cpg/sg12_115_cif.got.tgz:229280.got - 2010.06.03 13:09:07.
