data_PCOD9220185
_publ_section_title
;
Structure prediction by ZEFSAII (Michael W. Deem and Ramdas Pophale) SiO2 
 PCOD9220185
Probable space group: C 2/M
;
_chemical_formula_sum "Si O2"
_cell_formula_units_Z 36
_cell_length_a 8.259944
_cell_length_b 17.146607
_cell_length_c 17.436208
_cell_angle_alpha 90.000000
_cell_angle_beta 42.520975
_cell_angle_gamma 90.000000
_cell_volume 1669.029931
_symmetry_space_group_name_H-M "C 2/M"
_symmetry_group_IT_number 12
_symmetry_cell_setting 'monoclinic'
loop_
_space_group_symop_operation_xyz
x,y,z
-x,y,-z
-x,-y,-z
x,-y,z
1/2+x,1/2+y,z
1/2-x,1/2+y,-z
1/2-x,1/2-y,-z
1/2+x,1/2-y,z
loop_
_atom_site_type_symbol
_atom_site_label
_atom_site_fract_x
_atom_site_fract_y
_atom_site_fract_z
Si Si1 0.230181 0.807170 0.577780
Si Si2 0.958763 0.718841 0.812697
Si Si3 0.674167 0.413231 0.261025
Si Si4 0.780880 0.117078 0.922128
Si Si5 0.000000 0.123418 0.000000
O O1 0.500000 0.832533 0.500000
O O2 0.250000 0.750000 0.500000
O O3 0.102756 0.757505 0.691257
O O4 0.062087 0.880064 0.616489
O O5 0.132402 0.656096 0.793121
O O6 0.859225 0.792405 0.894888
O O7 0.715384 0.671046 0.883483
O O8 0.751139 0.500000 0.258225
O O9 0.605630 0.416214 0.194944
O O10 0.500000 0.108081 0.000000
O O11 0.864732 0.084679 0.974628
#
# Coordination Sequence:
#
# PCOD9220185 Si02
#       5
#     8   8   8   8   4
#     4  11  23  43  71  98 127 174 235 284 332 409
#     4  11  22  40  67 101 134 177 232 280 332 406
#     4  11  25  44  65  99 142 176 217 288 359 400
#     4  11  21  39  67  97 136 182 234 279 325 402
#     4  12  22  36  67 102 133 182 232 276 326 404
#
# _framework density 21.569416
#
# number of rings (size 3 to 8) (size 9 to 14) (size 15 to 20)
#    0.000    0.889    5.556    3.333    3.111    0.889 
#    0.000    4.444    0.000    0.000    0.000    0.000 
#    0.000    0.000    0.000    0.000    0.000    0.000 
#
# Total GULP energy -100319.665170 kJ/mol
# GULP energy per Si atom -5573.314732 kJ/mol
# Density = 2.152032 g / cm^3
# Si number density = 21.569416 Si / 1000 Ang^3
#
#
#
# Elastic Constant Matrix: (Units=GPa)
#
#
# Indices 1 2 3 4 5 6 
#
# 1 125.6657 26.4929 14.0355 -0.0004 -15.1011 -0.0004
# 2 26.4929 129.9528 9.9260 0.0000 -3.8321 -0.0001
# 3 14.0355 9.9260 85.6283 -0.0026 -6.9691 0.0005
# 4 -0.0004 0.0000 -0.0026 -26.2271 0.0012 -0.5565
# 5 -15.1011 -3.8321 -6.9691 0.0012 49.5592 -0.0001
# 6 -0.0004 -0.0001 0.0005 -0.5565 -0.0001 3.1136
#
#
#
# Elastic Compliance Matrix: (Units=1/GPa)
#
#
# Indices 1 2 3 4 5 6 
#
# 1 0.008703 -0.001624 -0.001045 0.000000 0.002379 0.000001
# 2 -0.001624 0.008078 -0.000667 0.000000 0.000036 0.000000
# 3 -0.001045 -0.000667 0.012035 -0.000001 0.001322 -0.000002
# 4 0.000000 0.000000 -0.000001 -0.037984 0.000001 -0.006789
# 5 0.002379 0.000036 0.001322 0.000001 0.021092 0.000001
# 6 0.000001 0.000000 -0.000002 -0.006789 0.000001 0.319955
#
#
# Mechanical properties :
#
#
# Convention : Reuss Voigt Hill
#
# Bulk Modulus (GPa) = 45.16022 49.12838 47.14430
# Shear Modulus (GPa) = 14.45376 24.67530 19.56453
#
# Velocity S-wave (km/s) = 2.59145 3.38597 3.01499
# Velocity P-wave (km/s) = 5.47145 6.17355 5.83307
#
# Compressibility (1/GPa) = 0.02214338
#
# Stress axis : x y z
#
# Youngs Moduli (GPa) = 114.90791 123.78917 83.09386
#
# Poissons Ratio (x) = 0.20106 0.08680
# Poissons Ratio (y) = 0.18664 0.05545
# Poissons Ratio (z) = 0.12003 0.08260
#
# Static dielectric constant tensor:
#      x y z
#    x 1.858290 0.000000 -0.012110 
#    y 0.000000 1.835620 0.000000 
#    z -0.012110 0.000000 1.831410 
# 
# From -- ./inp_files/300360.got.cif
#   From: 2010.05.17/outbox.cif.g08.bks.cpg/sg12_151_cif.got.tgz:300360.got - 2010.06.03 13:09:07.
