data_PCOD9220468
_publ_section_title
;
Structure prediction by ZEFSAII (Michael W. Deem and Ramdas Pophale) SiO2 
 PCOD9220468
Probable space group: C 2/M
;
_chemical_formula_sum "Si O2"
_cell_formula_units_Z 56
_cell_length_a 14.970966
_cell_length_b 8.250524
_cell_length_c 29.701384
_cell_angle_alpha 90.000000
_cell_angle_beta 50.868840
_cell_angle_gamma 90.000000
_cell_volume 2845.795467
_symmetry_space_group_name_H-M "C 2/M"
_symmetry_group_IT_number 12
_symmetry_cell_setting 'monoclinic'
loop_
_space_group_symop_operation_xyz
x,y,z
-x,y,-z
-x,-y,-z
x,-y,z
1/2+x,1/2+y,z
1/2-x,1/2+y,-z
1/2-x,1/2-y,-z
1/2+x,1/2-y,z
loop_
_atom_site_type_symbol
_atom_site_label
_atom_site_fract_x
_atom_site_fract_y
_atom_site_fract_z
Si Si1 0.352252 0.695595 0.500143
Si Si2 0.279080 0.693442 0.276915
Si Si3 0.960836 0.199083 0.812723
Si Si4 0.690473 0.680622 0.062887
Si Si5 0.886014 0.804871 0.591081
Si Si6 0.244339 0.196303 0.187744
Si Si7 0.905064 0.315132 0.062616
O O1 0.351817 0.500000 0.500137
O O2 0.250000 0.750000 0.500000
O O3 0.481148 0.749458 0.444628
O O4 0.341860 0.749613 0.555725
O O5 0.280980 0.500000 0.277859
O O6 0.410957 0.752425 0.239351
O O7 0.196628 0.753220 0.342570
O O8 0.239271 0.747746 0.240254
O O9 0.914270 0.260038 0.876149
O O10 0.868955 0.246880 0.803950
O O11 0.958858 0.000000 0.815402
O O12 0.653163 0.500000 0.062289
O O13 0.791069 0.672935 0.068284
O O14 0.750000 0.750000 0.000000
O O15 0.888953 0.000000 0.588820
O O16 0.357385 0.257395 0.124255
O O17 0.249672 0.000000 0.184476
O O18 0.947408 0.500000 0.058787
O O19 0.000000 0.235309 0.000000
#
# Coordination Sequence:
#
# PCOD9220468 Si02
#       7
#     8   8   8   8   8   8   8
#     4   9  19  37  62  87 116 149 180 218 262 309
#     4  11  22  35  54  79 109 144 181 225 272 316
#     4   8  18  36  51  68 102 142 173 210 271 333
#     4   9  17  30  48  69  94 124 161 211 266 321
#     4   9  20  39  57  81 115 149 184 217 257 316
#     4   9  18  35  55  72  98 139 181 220 267 328
#     4   8  15  28  47  70  93 121 165 215 261 318
#
# _framework density 19.678152999999998
#
# number of rings (size 3 to 8) (size 9 to 14) (size 15 to 20)
#    0.000    3.000    0.000    3.000    2.000    2.286 
#    0.000   10.714    0.000    0.857    0.000    0.000 
#    0.000    0.000    0.000    0.000    0.000    0.000 
#
# Total GULP energy -156002.522863 kJ/mol
# GULP energy per Si atom -5571.518674 kJ/mol
# Density = 1.963336 g / cm^3
# Si number density = 19.678153 Si / 1000 Ang^3
#
#
#
# Elastic Constant Matrix: (Units=GPa)
#
#
# Indices 1 2 3 4 5 6 
#
# 1 130.1784 14.4534 99.5258 0.0000 0.7494 -0.0001
# 2 14.4534 10.9865 24.8134 0.0000 -0.0547 -0.0002
# 3 99.5258 24.8134 238.8348 0.0000 2.6705 0.0000
# 4 0.0000 0.0000 0.0000 16.7903 0.0000 0.7155
# 5 0.7494 -0.0547 2.6705 0.0000 21.7660 0.0000
# 6 -0.0001 -0.0002 0.0000 0.7155 0.0000 19.4185
#
#
#
# Elastic Compliance Matrix: (Units=1/GPa)
#
#
# Indices 1 2 3 4 5 6 
#
# 1 0.011535 -0.005639 -0.004222 0.000000 0.000107 0.000000
# 2 -0.005639 0.121755 -0.010320 0.000000 0.001767 0.000001
# 3 -0.004222 -0.010320 0.007027 0.000000 -0.000743 0.000000
# 4 0.000000 0.000000 0.000000 0.059652 0.000000 -0.002198
# 5 0.000107 0.001767 -0.000743 0.000000 0.046035 0.000000
# 6 0.000000 0.000001 0.000000 -0.002198 0.000000 0.051578
#
#
# Mechanical properties :
#
#
# Convention : Reuss Voigt Hill
#
# Bulk Modulus (GPa) = 10.00441 73.06501 41.53471
# Shear Modulus (GPa) = 13.46758 27.67543 20.57150
#
# Velocity S-wave (km/s) = 2.61893 3.75427 3.23677
# Velocity P-wave (km/s) = 3.77361 7.48354 5.92636
#
# Compressibility (1/GPa) = 0.09995594
#
# Stress axis : x y z
#
# Youngs Moduli (GPa) = 86.69060 8.21323 142.30982
#
# Poissons Ratio (x) = 0.04631 0.60087
# Poissons Ratio (y) = 0.48882 1.46858
# Poissons Ratio (z) = 0.36603 0.08476
#
# Static dielectric constant tensor:
#      x y z
#    x 1.690620 0.000000 -0.010450 
#    y 0.000000 1.716580 0.000000 
#    z -0.010450 0.000000 1.718240 
# 
# From -- ./inp_files/374958.got.cif
#   From: 2010.05.17/outbox.cif.g08.bks.cpg/sg12_188_cif.got.tgz:374958.got - 2010.06.03 13:09:07.
