data_PCOD9220742
_publ_section_title
;
Structure prediction by ZEFSAII (Michael W. Deem and Ramdas Pophale) SiO2 
 PCOD9220742
Probable space group: C 2/M
;
_chemical_formula_sum "Si O2"
_cell_formula_units_Z 48
_cell_length_a 14.947265
_cell_length_b 8.668271
_cell_length_c 18.870657
_cell_angle_alpha 90.000000
_cell_angle_beta 84.602783
_cell_angle_gamma 90.000000
_cell_volume 2434.173471
_symmetry_space_group_name_H-M "C 2/M"
_symmetry_group_IT_number 12
_symmetry_cell_setting 'monoclinic'
loop_
_space_group_symop_operation_xyz
x,y,z
-x,y,-z
-x,-y,-z
x,-y,z
1/2+x,1/2+y,z
1/2-x,1/2+y,-z
1/2-x,1/2-y,-z
1/2+x,1/2-y,z
loop_
_atom_site_type_symbol
_atom_site_label
_atom_site_fract_x
_atom_site_fract_y
_atom_site_fract_z
Si Si1 0.392841 0.817521 0.633057
Si Si2 0.431212 0.683805 0.328970
Si Si3 0.741202 0.685895 0.109237
Si Si4 0.603157 0.313606 0.000515
Si Si5 0.233430 0.683762 0.731160
Si Si6 0.350571 0.684735 0.488876
O O1 0.466620 0.738866 0.677566
O O2 0.295676 0.770851 0.670099
O O3 0.401387 0.752303 0.553010
O O4 0.403608 0.000000 0.631573
O O5 0.425477 0.500000 0.320380
O O6 0.368553 0.768027 0.277135
O O7 0.393425 0.724893 0.410109
O O8 0.747099 0.500000 0.105433
O O9 0.829912 0.753828 0.065393
O O10 0.738316 0.729278 0.191654
O O11 0.653865 0.732869 0.069726
O O12 0.602092 0.500000 0.998142
O O13 0.500000 0.260266 0.000000
O O14 0.244387 0.500000 0.721617
O O15 0.349139 0.500000 0.494810
O O16 0.250000 0.750000 0.500000
#
# Coordination Sequence:
#
# PCOD9220742 Si02
#       6
#     8   8   8   8   8   8
#     4  12  25  40  60  87 118 156 200 245 299 360
#     4  11  24  41  61  86 115 152 200 250 301 357
#     4   9  20  37  57  86 119 151 190 236 287 339
#     4   9  18  35  60  88 117 152 192 232 279 339
#     4  11  23  40  60  84 121 160 197 245 295 351
#     4  11  22  38  62  87 115 151 198 252 302 353
#
# _framework density 19.719218999999999
#
# number of rings (size 3 to 8) (size 9 to 14) (size 15 to 20)
#    0.000    1.500    1.667    3.500    0.000    7.000 
#    0.000    1.667    0.000    0.000    0.000    0.000 
#    0.000    0.000    0.000    0.000    0.000    0.000 
#
# Total GULP energy -134140.044435 kJ/mol
# GULP energy per Si atom -5589.168518 kJ/mol
# Density = 1.967434 g / cm^3
# Si number density = 19.719219 Si / 1000 Ang^3
#
#
#
# Elastic Constant Matrix: (Units=GPa)
#
#
# Indices 1 2 3 4 5 6 
#
# 1 100.5347 -1.0688 12.1641 0.0000 18.6514 0.0000
# 2 -1.0688 28.2370 21.1570 0.0000 4.8635 0.0000
# 3 12.1641 21.1570 85.3311 0.0000 18.5139 0.0000
# 4 0.0000 0.0000 0.0000 26.3332 0.0000 1.1856
# 5 18.6514 4.8635 18.5139 0.0000 17.6540 0.0000
# 6 0.0000 0.0000 0.0000 1.1856 0.0000 26.8042
#
#
#
# Elastic Compliance Matrix: (Units=1/GPa)
#
#
# Indices 1 2 3 4 5 6 
#
# 1 0.012633 0.002421 0.000828 0.000000 -0.014882 0.000000
# 2 0.002421 0.043969 -0.010439 0.000000 -0.003724 0.000000
# 3 0.000828 -0.010439 0.017807 0.000000 -0.016673 0.000000
# 4 0.000000 0.000000 0.000000 0.038051 0.000000 -0.001683
# 5 -0.014882 -0.003724 -0.016673 0.000000 0.090878 0.000000
# 6 0.000000 0.000000 0.000000 -0.001683 0.000000 0.037382
#
#
# Mechanical properties :
#
#
# Convention : Reuss Voigt Hill
#
# Bulk Modulus (GPa) = 16.65853 30.95639 23.80746
# Shear Modulus (GPa) = 18.17458 26.28163 22.22810
#
# Velocity S-wave (km/s) = 3.03919 3.65470 3.36107
# Velocity P-wave (km/s) = 4.55871 5.79153 5.21170
#
# Compressibility (1/GPa) = 0.06002931
#
# Stress axis : x y z
#
# Youngs Moduli (GPa) = 79.15536 22.74324 56.15871
#
# Poissons Ratio (x) = -0.05507 -0.04648
# Poissons Ratio (y) = -0.19166 0.58624
# Poissons Ratio (z) = -0.06551 0.23741
#
# Static dielectric constant tensor:
#      x y z
#    x 1.687620 0.000000 0.018570 
#    y 0.000000 1.656100 0.000000 
#    z 0.018570 0.000000 1.686030 
# 
# From -- ./inp_files/267712.got.cif
#   From: 2010.05.17/outbox.cif.g08.bks.cpg/sg12_134_cif.got.tgz:267712.got - 2010.06.03 13:09:07.
