data_PCOD9220541
_publ_section_title
;
Structure prediction by ZEFSAII (Michael W. Deem and Ramdas Pophale) SiO2 
 PCOD9220541
Probable space group: C 2/M
;
_chemical_formula_sum "Si O2"
_cell_formula_units_Z 48
_cell_length_a 12.901095
_cell_length_b 18.314715
_cell_length_c 10.880724
_cell_angle_alpha 90.000000
_cell_angle_beta 76.156009
_cell_angle_gamma 90.000000
_cell_volume 2496.213794
_symmetry_space_group_name_H-M "C 2/M"
_symmetry_group_IT_number 12
_symmetry_cell_setting 'monoclinic'
loop_
_space_group_symop_operation_xyz
x,y,z
-x,y,-z
-x,-y,-z
x,-y,z
1/2+x,1/2+y,z
1/2-x,1/2+y,-z
1/2-x,1/2-y,-z
1/2+x,1/2-y,z
loop_
_atom_site_type_symbol
_atom_site_label
_atom_site_fract_x
_atom_site_fract_y
_atom_site_fract_z
Si Si1 0.945503 0.297611 0.892384
Si Si2 0.160357 0.668467 0.694038
Si Si3 0.811154 0.417319 0.068013
Si Si4 0.627602 0.083966 0.454763
Si Si5 0.270273 0.805016 0.758536
Si Si6 0.623458 0.417288 0.932308
O O1 0.842364 0.268390 0.846687
O O2 0.039454 0.309977 0.767921
O O3 0.894520 0.371702 0.962421
O O4 0.000000 0.262773 0.000000
O O5 0.196517 0.618200 0.796982
O O6 0.166952 0.624444 0.566540
O O7 0.229543 0.741910 0.680630
O O8 0.848013 0.500000 0.067260
O O9 0.698009 0.415474 0.031551
O O10 0.500000 0.081833 0.500000
O O11 0.661209 0.133822 0.330817
O O12 0.665634 0.000000 0.434173
O O13 0.170344 0.851224 0.838715
O O14 0.637879 0.500000 0.874611
O O15 0.500000 0.409228 0.000000
#
# Coordination Sequence:
#
# PCOD9220541 Si02
#       6
#     8   8   8   8   8   8
#     4   9  20  35  54  86 118 151 190 230 287 345
#     4  11  22  36  57  86 119 151 191 241 294 355
#     4   9  19  34  55  84 120 156 194 242 289 342
#     4  11  23  41  64  84 111 152 200 247 294 349
#     4  11  22  38  59  86 121 152 193 243 295 347
#     4   9  19  36  58  84 115 156 199 234 283 347
#
# _framework density 19.229122
#
# number of rings (size 3 to 8) (size 9 to 14) (size 15 to 20)
#    0.000    2.000    1.667    1.500    0.000   13.667 
#    0.000    0.000    0.000    0.000    0.000    5.833 
#    0.000    0.000    0.000    0.000    0.000    0.000 
#
# Total GULP energy -133879.898785 kJ/mol
# GULP energy per Si atom -5578.329116 kJ/mol
# Density = 1.918536 g / cm^3
# Si number density = 19.229122 Si / 1000 Ang^3
#
#
#
# Elastic Constant Matrix: (Units=GPa)
#
#
# Indices 1 2 3 4 5 6 
#
# 1 93.4680 35.7306 13.6782 0.0000 -0.3623 0.0000
# 2 35.7306 98.3235 25.1665 0.0000 18.4823 0.0000
# 3 13.6782 25.1665 47.5178 0.0000 2.2828 0.0000
# 4 0.0000 0.0000 0.0000 10.4197 0.0000 5.7930
# 5 -0.3623 18.4823 2.2828 0.0000 22.4536 0.0000
# 6 0.0000 0.0000 0.0000 5.7930 0.0000 16.9741
#
#
#
# Elastic Compliance Matrix: (Units=1/GPa)
#
#
# Indices 1 2 3 4 5 6 
#
# 1 0.012900 -0.005271 -0.001146 0.000000 0.004663 0.000000
# 2 -0.005271 0.016112 -0.006406 0.000000 -0.012696 0.000000
# 3 -0.001146 -0.006406 0.024635 0.000000 0.002750 0.000000
# 4 0.000000 0.000000 0.000000 0.118447 0.000000 -0.040424
# 5 0.004663 -0.012696 0.002750 0.000000 0.054783 0.000000
# 6 0.000000 0.000000 0.000000 -0.040424 0.000000 0.072709
#
#
# Mechanical properties :
#
#
# Convention : Reuss Voigt Hill
#
# Bulk Modulus (GPa) = 35.71240 43.16220 39.43730
# Shear Modulus (GPa) = 14.94479 20.95176 17.94827
#
# Velocity S-wave (km/s) = 2.79085 3.30447 3.05846
# Velocity P-wave (km/s) = 5.38493 6.08723 5.74682
#
# Compressibility (1/GPa) = 0.02800148
#
# Stress axis : x y z
#
# Youngs Moduli (GPa) = 77.52194 62.06447 40.59228
#
# Poissons Ratio (x) = 0.32715 0.04650
# Poissons Ratio (y) = 0.40862 0.26004
# Poissons Ratio (z) = 0.08881 0.39760
#
# Static dielectric constant tensor:
#      x y z
#    x 1.699030 0.000000 0.016140 
#    y 0.000000 1.689460 0.000000 
#    z 0.016140 0.000000 1.658940 
# 
# From -- ./inp_files/131064.got.cif
#   From: 2010.05.17/outbox.cif.g08.bks.cpg/sg12_66_cif.got.tgz:131064.got - 2010.06.03 13:09:07.
