data_PCOD9220504
_publ_section_title
;
Structure prediction by ZEFSAII (Michael W. Deem and Ramdas Pophale) SiO2 
 PCOD9220504
Probable space group: C 2/M
;
_chemical_formula_sum "Si O2"
_cell_formula_units_Z 56
_cell_length_a 8.277071
_cell_length_b 19.645800
_cell_length_c 23.729635
_cell_angle_alpha 90.000000
_cell_angle_beta 121.547880
_cell_angle_gamma 90.000000
_cell_volume 3288.369678
_symmetry_space_group_name_H-M "C 2/M"
_symmetry_group_IT_number 12
_symmetry_cell_setting 'monoclinic'
loop_
_space_group_symop_operation_xyz
x,y,z
-x,y,-z
-x,-y,-z
x,-y,z
1/2+x,1/2+y,z
1/2-x,1/2+y,-z
1/2-x,1/2-y,-z
1/2+x,1/2-y,z
loop_
_atom_site_type_symbol
_atom_site_label
_atom_site_fract_x
_atom_site_fract_y
_atom_site_fract_z
Si Si1 0.885086 0.917029 0.423391
Si Si2 0.446370 0.082870 0.339826
Si Si3 0.167041 0.827362 0.071868
Si Si4 0.951435 0.672638 0.928132
Si Si5 0.926891 0.082870 0.660174
Si Si6 0.159601 0.077306 0.810418
Si Si7 0.228347 0.077306 0.189582
O O1 0.664293 0.895133 0.387321
O O2 0.000000 0.896564 0.500000
O O3 0.997670 0.895133 0.387321
O O4 0.881693 0.000000 0.421129
O O5 0.281885 0.104801 0.354590
O O6 0.377074 0.101459 0.264188
O O7 0.444243 0.000000 0.341344
O O8 0.120904 0.750000 0.080602
O O9 0.355284 0.826137 0.070189
O O10 0.200737 0.874184 0.131860
O O11 0.000000 0.852061 0.000000
O O12 0.805156 0.625816 0.868140
O O13 0.000000 0.647938 0.000000
O O14 0.084509 0.101459 0.735812
O O15 0.920212 0.000000 0.658656
O O16 0.970332 0.074349 0.813555
O O17 0.234387 0.000000 0.818438
O O18 0.279074 0.000000 0.181562
#
# Coordination Sequence:
#
# PCOD9220504 Si02
#       7
#     8   8   8   8   8   8   8
#     4   9  16  24  38  62  94 129 164 200 237 294
#     4   8  15  27  42  62  92 128 162 200 246 289
#     4  11  22  36  53  71  97 131 164 205 255 302
#     4  11  22  36  53  71  97 131 164 205 255 302
#     4   8  15  27  42  62  92 128 162 200 246 289
#     4   9  18  33  52  73  98 130 167 209 251 295
#     4   9  18  33  52  73  98 130 167 209 251 295
#
# _framework density 17.029716000000001
#
# number of rings (size 3 to 8) (size 9 to 14) (size 15 to 20)
#    0.000    2.714    0.000    5.143    2.000    1.714 
#    0.000    2.857    0.000    0.000    0.000    0.000 
#    0.000    1.143    0.571    0.000    0.000    0.000 
#
# Total GULP energy -155974.340800 kJ/mol
# GULP energy per Si atom -5570.512171 kJ/mol
# Density = 1.699096 g / cm^3
# Si number density = 17.029716 Si / 1000 Ang^3
#
#
#
# Elastic Constant Matrix: (Units=GPa)
#
#
# Indices 1 2 3 4 5 6 
#
# 1 108.0819 26.5510 105.9701 0.0000 0.0025 0.0000
# 2 26.5510 22.5668 47.6487 0.0000 0.0008 0.0000
# 3 105.9701 47.6487 176.1821 0.0000 0.0001 0.0000
# 4 0.0000 0.0000 0.0000 -7.4109 0.0000 -0.0008
# 5 0.0025 0.0008 0.0001 0.0000 33.3778 0.0000
# 6 0.0000 0.0000 0.0000 -0.0008 0.0000 14.5309
#
#
#
# Elastic Compliance Matrix: (Units=1/GPa)
#
#
# Indices 1 2 3 4 5 6 
#
# 1 0.022788 0.004964 -0.015049 0.000000 -0.000002 0.000000
# 2 0.004964 0.104386 -0.031217 0.000000 -0.000003 0.000000
# 3 -0.015049 -0.031217 0.023170 0.000000 0.000002 0.000000
# 4 0.000000 0.000000 0.000000 -0.134937 0.000000 -0.000008
# 5 -0.000002 -0.000003 0.000002 0.000000 0.029960 0.000000
# 6 0.000000 0.000000 0.000000 -0.000008 0.000000 0.068819
#
#
# Mechanical properties :
#
#
# Convention : Reuss Voigt Hill
#
# Bulk Modulus (GPa) = 14.76231 74.13005 44.44618
# Shear Modulus (GPa) = 22.79260 16.54363 19.66812
#
# Velocity S-wave (km/s) = 3.66239 3.12020 3.40211
# Velocity P-wave (km/s) = 5.15475 7.52364 6.44890
#
# Compressibility (1/GPa) = 0.06774008
#
# Stress axis : x y z
#
# Youngs Moduli (GPa) = 43.88362 9.57982 43.15885
#
# Poissons Ratio (x) = -0.04755 0.64949
# Poissons Ratio (y) = -0.21784 1.34730
# Poissons Ratio (z) = 0.66040 0.29905
#
# Static dielectric constant tensor:
#      x y z
#    x 1.585010 0.000000 -0.000020 
#    y 0.000000 1.523570 0.000000 
#    z -0.000020 0.000000 1.153630 
# 
# From -- ./inp_files/301778.got.cif
#   From: 2010.05.17/outbox.cif.g08.bks.cpg/sg12_151_cif.got.tgz:301778.got - 2010.06.03 13:09:07.
