data_PCOD9220210
_publ_section_title
;
Structure prediction by ZEFSAII (Michael W. Deem and Ramdas Pophale) SiO2 
 PCOD9220210
Probable space group: C 2/M
;
_chemical_formula_sum "Si O2"
_cell_formula_units_Z 44
_cell_length_a 16.327388
_cell_length_b 16.663064
_cell_length_c 8.996879
_cell_angle_alpha 90.000000
_cell_angle_beta 52.716352
_cell_angle_gamma 90.000000
_cell_volume 1947.527303
_symmetry_space_group_name_H-M "C 2/M"
_symmetry_group_IT_number 12
_symmetry_cell_setting 'monoclinic'
loop_
_space_group_symop_operation_xyz
x,y,z
-x,y,-z
-x,-y,-z
x,-y,z
1/2+x,1/2+y,z
1/2-x,1/2+y,-z
1/2-x,1/2-y,-z
1/2+x,1/2-y,z
loop_
_atom_site_type_symbol
_atom_site_label
_atom_site_fract_x
_atom_site_fract_y
_atom_site_fract_z
Si Si1 0.000000 0.284969 0.500000
Si Si2 0.882901 0.591051 0.440371
Si Si3 0.305356 0.313552 0.220759
Si Si4 0.642096 0.339452 0.170920
Si Si5 0.258320 0.868504 0.309105
Si Si6 0.937004 0.910795 0.280425
O O1 0.963683 0.342870 0.406594
O O2 0.910658 0.228523 0.666214
O O3 0.910409 0.500000 0.448762
O O4 0.780100 0.620620 0.640427
O O5 0.851454 0.594519 0.301013
O O6 0.274094 0.226611 0.314242
O O7 0.407239 0.344587 0.191600
O O8 0.319631 0.307879 0.029284
O O9 0.735301 0.379197 0.160423
O O10 0.546883 0.397044 0.234573
O O11 0.153188 0.899775 0.499412
O O12 0.930281 0.000000 0.224309
#
# Coordination Sequence:
#
# PCOD9220210 Si02
#       6
#     4   8   8   8   8   8
#     4  12  23  44  67  84 120 160 218 250 293 368
#     4  11  24  42  65  89 120 166 203 248 306 359
#     4  11  22  39  65  94 122 159 207 250 294 360
#     4  12  23  38  66  94 121 160 203 253 302 356
#     4  11  21  40  64  89 123 159 203 248 296 363
#     4  11  23  40  61  92 129 165 195 241 309 368
#
# _framework density 22.592751
#
# number of rings (size 3 to 8) (size 9 to 14) (size 15 to 20)
#    0.000    0.727    3.636    6.818    0.000    4.364 
#    0.000    0.000    0.000    1.091    0.000    0.000 
#    0.000    0.000    0.000    0.000    0.000    0.000 
#
# Total GULP energy -122941.009174 kJ/mol
# GULP energy per Si atom -5588.227690 kJ/mol
# Density = 2.254133 g / cm^3
# Si number density = 22.592751 Si / 1000 Ang^3
#
#
#
# Elastic Constant Matrix: (Units=GPa)
#
#
# Indices 1 2 3 4 5 6 
#
# 1 114.9450 26.2790 -4.2974 0.0000 28.6832 0.0000
# 2 26.2790 104.6102 16.5537 0.0000 0.9527 0.0000
# 3 -4.2974 16.5537 33.8314 0.0000 20.5950 0.0000
# 4 0.0000 0.0000 0.0000 -83.2567 0.0000 -38.4583
# 5 28.6832 0.9527 20.5950 0.0000 35.5655 0.0000
# 6 0.0000 0.0000 0.0000 -38.4583 0.0000 -4.3012
#
#
#
# Elastic Compliance Matrix: (Units=1/GPa)
#
#
# Indices 1 2 3 4 5 6 
#
# 1 0.018535 -0.008137 0.023634 0.000000 -0.028416 0.000000
# 2 -0.008137 0.014337 -0.018240 0.000000 0.016741 0.000000
# 3 0.023634 -0.018240 0.081532 0.000000 -0.065785 0.000000
# 4 0.000000 0.000000 0.000000 0.003837 0.000000 -0.034309
# 5 -0.028416 0.016741 -0.065785 0.000000 0.088680 0.000000
# 6 0.000000 0.000000 0.000000 -0.034309 0.000000 0.074274
#
#
# Mechanical properties :
#
#
# Convention : Reuss Voigt Hill
#
# Bulk Modulus (GPa) = 9.18119 36.71747 22.94933
# Shear Modulus (GPa) = 15.48052 3.92495 9.70273
#
# Velocity S-wave (km/s) = 2.62047 1.31948 2.07460
# Velocity P-wave (km/s) = 3.63709 4.31376 3.98980
#
# Compressibility (1/GPa) = 0.10891832
#
# Stress axis : x y z
#
# Youngs Moduli (GPa) = 53.95334 69.74847 12.26510
#
# Poissons Ratio (x) = 0.56755 -0.28987
# Poissons Ratio (y) = 0.43903 0.22371
# Poissons Ratio (z) = -1.27514 1.27219
#
# Static dielectric constant tensor:
#      x y z
#    x 1.905510 0.000000 0.024850 
#    y 0.000000 1.805450 0.000000 
#    z 0.024850 0.000000 1.827170 
# 
# From -- ./inp_files/73545.got.cif
#   From: 2010.05.17/outbox.cif.g08.bks.cpg/sg12_37_cif.got.tgz:73545.got - 2010.06.03 13:09:07.
