data_PCOD9220708
_publ_section_title
;
Structure prediction by ZEFSAII (Michael W. Deem and Ramdas Pophale) SiO2 
 PCOD9220708
Probable space group: C 2/M
;
_chemical_formula_sum "Si O2"
_cell_formula_units_Z 56
_cell_length_a 32.100107
_cell_length_b 8.490182
_cell_length_c 21.251299
_cell_angle_alpha 90.000000
_cell_angle_beta 151.394610
_cell_angle_gamma 90.000000
_cell_volume 2772.936526
_symmetry_space_group_name_H-M "C 2/M"
_symmetry_group_IT_number 12
_symmetry_cell_setting 'monoclinic'
loop_
_space_group_symop_operation_xyz
x,y,z
-x,y,-z
-x,-y,-z
x,-y,z
1/2+x,1/2+y,z
1/2-x,1/2+y,-z
1/2-x,1/2-y,-z
1/2+x,1/2-y,z
loop_
_atom_site_type_symbol
_atom_site_label
_atom_site_fract_x
_atom_site_fract_y
_atom_site_fract_z
Si Si1 0.417032 0.188699 0.569687
Si Si2 0.614346 0.189866 0.840751
Si Si3 0.660261 0.312952 0.409664
Si Si4 0.778279 0.190385 0.135060
Si Si5 0.536867 0.186019 0.141752
Si Si6 0.193265 0.189279 0.684399
Si Si7 0.369140 0.313587 0.855082
O O1 0.515127 0.243393 0.714777
O O2 0.352341 0.262304 0.535115
O O3 0.387168 0.241781 0.461178
O O4 0.412821 0.000000 0.568852
O O5 0.656298 0.246611 0.831021
O O6 0.613087 0.000000 0.839097
O O7 0.681307 0.240429 0.984315
O O8 0.658014 0.500000 0.400771
O O9 0.750000 0.250000 0.500000
O O10 0.581728 0.237717 0.265538
O O11 0.801888 0.241307 0.236572
O O12 0.780541 0.000000 0.136659
O O13 0.602891 0.229424 0.172648
O O14 0.519774 0.000000 0.118878
O O15 0.447973 0.275949 0.007569
O O16 0.280306 0.248127 0.765247
O O17 0.190310 0.000000 0.678677
O O18 0.363187 0.500000 0.836056
#
# Coordination Sequence:
#
# PCOD9220708 Si02
#       7
#     8   8   8   8   8   8   8
#     4  11  24  41  62  90 125 164 207 257 311 369
#     4   9  20  40  64  91 121 157 201 252 309 369
#     4  12  25  42  62  88 121 162 209 256 309 365
#     4   9  20  39  64  91 120 159 202 251 308 369
#     4  11  22  39  61  86 117 160 204 252 310 366
#     4  11  23  39  60  88 123 164 205 252 310 369
#     4  11  22  38  59  88 122 156 204 257 305 362
#
# _framework density 20.195195999999999
#
# number of rings (size 3 to 8) (size 9 to 14) (size 15 to 20)
#    0.000    1.429    0.000    6.429    2.000    2.857 
#    0.000    2.857    0.000    0.000    0.000    0.000 
#    0.000    0.000    0.000    0.000    0.000    0.000 
#
# Total GULP energy -156611.915146 kJ/mol
# GULP energy per Si atom -5593.282684 kJ/mol
# Density = 2.014923 g / cm^3
# Si number density = 20.195196 Si / 1000 Ang^3
#
#
#
# Elastic Constant Matrix: (Units=GPa)
#
#
# Indices 1 2 3 4 5 6 
#
# 1 65.0847 2.2355 45.9871 0.0000 -8.7208 0.0000
# 2 2.2355 44.5575 -2.2811 0.0000 3.9854 0.0000
# 3 45.9871 -2.2811 76.2380 0.0000 -5.7320 0.0000
# 4 0.0000 0.0000 0.0000 33.7618 0.0000 -1.7093
# 5 -8.7208 3.9854 -5.7320 0.0000 35.6392 0.0000
# 6 0.0000 0.0000 0.0000 -1.7093 0.0000 30.4212
#
#
#
# Elastic Compliance Matrix: (Units=1/GPa)
#
#
# Indices 1 2 3 4 5 6 
#
# 1 0.027654 -0.002624 -0.016427 0.000000 0.004418 0.000000
# 2 -0.002624 0.022937 0.002053 0.000000 -0.002877 0.000000
# 3 -0.016427 0.002053 0.023046 0.000000 -0.000543 0.000000
# 4 0.000000 0.000000 0.000000 0.029704 0.000000 0.001669
# 5 0.004418 -0.002877 -0.000543 0.000000 0.029375 0.000000
# 6 0.000000 0.000000 0.000000 0.001669 0.000000 0.032966
#
#
# Mechanical properties :
#
#
# Convention : Reuss Voigt Hill
#
# Bulk Modulus (GPa) = 25.22665 30.86257 28.04461
# Shear Modulus (GPa) = 23.48622 29.29368 26.38995
#
# Velocity S-wave (km/s) = 3.41392 3.81271 3.61881
# Velocity P-wave (km/s) = 5.29701 5.89047 5.60161
#
# Compressibility (1/GPa) = 0.03964063
#
# Stress axis : x y z
#
# Youngs Moduli (GPa) = 36.16155 43.59784 43.39077
#
# Poissons Ratio (x) = 0.11438 0.71279
# Poissons Ratio (y) = 0.09487 -0.08906
# Poissons Ratio (z) = 0.59403 -0.08949
#
# Static dielectric constant tensor:
#      x y z
#    x 1.689740 0.000000 -0.015040 
#    y 0.000000 1.685450 0.000000 
#    z -0.015040 0.000000 1.732860 
# 
# From -- ./inp_files/329631.got.cif
#   From: 2010.05.17/outbox.cif.g08.bks.cpg/sg12_165_cif.got.tgz:329631.got - 2010.06.03 13:09:07.
