data_PCOD9220158
_publ_section_title
;
Structure prediction by ZEFSAII (Michael W. Deem and Ramdas Pophale) SiO2 
 PCOD9220158
Probable space group: C 2/M
;
_chemical_formula_sum "Si O2"
_cell_formula_units_Z 64
_cell_length_a 18.769880
_cell_length_b 33.330520
_cell_length_c 9.069192
_cell_angle_alpha 90.000000
_cell_angle_beta 143.780089
_cell_angle_gamma 90.000000
_cell_volume 3352.555117
_symmetry_space_group_name_H-M "C 2/M"
_symmetry_group_IT_number 12
_symmetry_cell_setting 'monoclinic'
loop_
_space_group_symop_operation_xyz
x,y,z
-x,y,-z
-x,-y,-z
x,-y,z
1/2+x,1/2+y,z
1/2-x,1/2+y,-z
1/2-x,1/2-y,-z
1/2+x,1/2-y,z
loop_
_atom_site_type_symbol
_atom_site_label
_atom_site_fract_x
_atom_site_fract_y
_atom_site_fract_z
Si Si1 0.021645 0.867475 0.702085
Si Si2 0.818706 0.269368 0.972248
Si Si3 0.394040 0.110916 0.734986
Si Si4 0.021869 0.955469 0.788328
Si Si5 0.800992 0.044294 0.635077
Si Si6 0.788908 0.828997 0.444639
Si Si7 0.964535 0.330458 0.597420
Si Si8 0.688705 0.311029 0.175363
O O1 0.000000 0.852025 0.500000
O O2 0.044400 0.915153 0.735329
O O3 0.897431 0.857320 0.576346
O O4 0.124644 0.845451 0.970710
O O5 0.735066 0.294834 0.718432
O O6 0.867606 0.230887 0.966925
O O7 0.750000 0.250000 0.000000
O O8 0.930697 0.297993 0.198714
O O9 0.292524 0.080113 0.517202
O O10 0.330862 0.144438 0.732664
O O11 0.451035 0.135102 0.695326
O O12 0.500000 0.089669 0.000000
O O13 0.890051 0.952586 0.643599
O O14 0.033707 0.000000 0.739353
O O15 0.114262 0.954001 0.079886
O O16 0.743963 0.000000 0.536133
O O17 0.820303 0.815183 0.663528
O O18 0.831265 0.310781 0.374726
O O19 0.000000 0.348664 0.500000
#
# Coordination Sequence:
#
# PCOD9220158 Si02
#       8
#     8   8   8   8   8   8   8   8
#     4  12  25  40  64  96 132 166 211 269 327 386
#     4  12  24  43  63  89 124 163 214 268 327 373
#     4  11  21  39  64  91 125 166 211 263 308 381
#     4   9  18  36  63  93 127 165 207 260 318 385
#     4   9  18  35  64  95 124 162 212 262 314 377
#     4  11  24  44  63  89 127 167 221 262 316 386
#     4  11  24  42  62  88 125 164 210 260 321 385
#     4  11  26  42  67  89 121 172 214 268 320 378
#
# _framework density 19.089915999999999
#
# number of rings (size 3 to 8) (size 9 to 14) (size 15 to 20)
#    0.000    1.250    3.750    3.750    3.500    1.000 
#    4.500    0.000    0.000    0.375    0.000    0.000 
#    0.000    0.000    0.000    0.000    0.000    0.000 
#
# Total GULP energy -178533.259163 kJ/mol
# GULP energy per Si atom -5579.164349 kJ/mol
# Density = 1.904647 g / cm^3
# Si number density = 19.089916 Si / 1000 Ang^3
#
#
#
# Elastic Constant Matrix: (Units=GPa)
#
#
# Indices 1 2 3 4 5 6 
#
# 1 82.6834 32.7949 46.2496 0.0000 -0.9255 0.0000
# 2 32.7949 127.5556 54.7515 0.0000 -2.3174 0.0000
# 3 46.2496 54.7515 103.5491 0.0000 -7.6940 0.0000
# 4 0.0000 0.0000 0.0000 29.0521 0.0000 2.3699
# 5 -0.9255 -2.3174 -7.6940 0.0000 14.8173 0.0000
# 6 0.0000 0.0000 0.0000 2.3699 0.0000 13.6692
#
#
#
# Elastic Compliance Matrix: (Units=1/GPa)
#
#
# Indices 1 2 3 4 5 6 
#
# 1 0.016413 -0.001340 -0.006825 0.000000 -0.002728 0.000000
# 2 -0.001340 0.010273 -0.004910 0.000000 -0.001026 0.000000
# 3 -0.006825 -0.004910 0.015823 0.000000 0.007022 0.000000
# 4 0.000000 0.000000 0.000000 0.034915 0.000000 -0.006053
# 5 -0.002728 -0.001026 0.007022 0.000000 0.070804 0.000000
# 6 0.000000 0.000000 0.000000 -0.006053 0.000000 0.074207
#
#
# Mechanical properties :
#
#
# Convention : Reuss Voigt Hill
#
# Bulk Modulus (GPa) = 61.12398 64.59779 62.86088
# Shear Modulus (GPa) = 19.68218 23.50720 21.59469
#
# Velocity S-wave (km/s) = 3.21444 3.51293 3.36699
# Velocity P-wave (km/s) = 6.77240 7.09693 6.93656
#
# Compressibility (1/GPa) = 0.01636019
#
# Stress axis : x y z
#
# Youngs Moduli (GPa) = 60.92810 97.34315 63.19790
#
# Poissons Ratio (x) = 0.13042 0.43132
# Poissons Ratio (y) = 0.08163 0.31028
# Poissons Ratio (z) = 0.41583 0.47792
#
# Static dielectric constant tensor:
#      x y z
#    x 1.677150 0.000000 -0.026080 
#    y 0.000000 1.678400 0.000000 
#    z -0.026080 0.000000 1.695960 
# 
# From -- ./inp_files/80770.got.cif
#   From: 2010.05.17/outbox.cif.g08.bks.cpg/sg12_41_cif.got.tgz:80770.got - 2010.06.03 13:09:07.
