data_PCOD9220134
_publ_section_title
;
Structure prediction by ZEFSAII (Michael W. Deem and Ramdas Pophale) SiO2 
 PCOD9220134
Probable space group: C 2/M
;
_chemical_formula_sum "Si O2"
_cell_formula_units_Z 50
_cell_length_a 9.124573
_cell_length_b 29.252143
_cell_length_c 17.575990
_cell_angle_alpha 90.000000
_cell_angle_beta 37.473448
_cell_angle_gamma 90.000000
_cell_volume 2854.136560
_symmetry_space_group_name_H-M "C 2/M"
_symmetry_group_IT_number 12
_symmetry_cell_setting 'monoclinic'
loop_
_space_group_symop_operation_xyz
x,y,z
-x,y,-z
-x,-y,-z
x,-y,z
1/2+x,1/2+y,z
1/2-x,1/2+y,-z
1/2-x,1/2-y,-z
1/2+x,1/2-y,z
loop_
_atom_site_type_symbol
_atom_site_label
_atom_site_fract_x
_atom_site_fract_y
_atom_site_fract_z
Si Si1 0.870431 0.856718 0.454696
Si Si2 0.796645 0.701447 0.021139
Si Si3 0.288356 0.854799 0.878822
Si Si4 0.977186 0.712000 0.343135
Si Si5 0.312126 0.089380 0.341647
Si Si6 0.862124 0.805851 0.309040
Si Si7 0.000000 0.000000 0.500000
O O1 0.781581 0.810320 0.532478
O O2 0.694672 0.893664 0.567355
O O3 0.842524 0.847052 0.377147
O O4 0.132350 0.875488 0.370473
O O5 0.559480 0.685097 0.162936
O O6 0.750000 0.750000 0.000000
O O7 0.867923 0.665617 0.927033
O O8 0.000000 0.707757 0.000000
O O9 0.380627 0.818514 0.777555
O O10 0.426966 0.901397 0.800638
O O11 0.000000 0.857912 0.000000
O O12 0.122705 0.707806 0.362048
O O13 0.954726 0.762227 0.318687
O O14 0.187342 0.040478 0.392594
#
# Coordination Sequence:
#
# PCOD9220134 Si02
#       7
#     8   8   8   8   8   8   2
#     4   9  20  34  49  77 105 139 186 235 289 319
#     4  12  22  33  49  71 110 164 211 236 269 319
#     4  11  21  39  51  81 116 151 191 232 281 323
#     4  11  23  32  50  71 111 158 201 245 271 319
#     4   9  20  37  65  84 111 137 177 243 281 370
#     4  12  22  32  48  73 107 161 201 242 273 318
#     4   8  16  40  66 100 104 132 178 222 322 350
#
# _framework density 17.518432000000001
#
# number of rings (size 3 to 8) (size 9 to 14) (size 15 to 20)
#    0.000    1.600    3.200    3.360    6.720    0.000 
#    0.000    0.400    0.000    0.000    0.000   94.640 
#    0.000    0.000    0.000    0.000    0.000    0.000 
#
# Total GULP energy -139194.254508 kJ/mol
# GULP energy per Si atom -5567.770180 kJ/mol
# Density = 1.747856 g / cm^3
# Si number density = 17.518432 Si / 1000 Ang^3
#
#
#
# Elastic Constant Matrix: (Units=GPa)
#
#
# Indices 1 2 3 4 5 6 
#
# 1 121.0553 37.3583 34.2484 0.0000 9.4154 0.0000
# 2 37.3583 78.1420 45.1283 0.0000 7.6246 0.0000
# 3 34.2484 45.1283 112.8929 0.0000 6.9886 0.0000
# 4 0.0000 0.0000 0.0000 27.1290 0.0000 -6.3364
# 5 9.4154 7.6246 6.9886 0.0000 31.1958 0.0000
# 6 0.0000 0.0000 0.0000 -6.3364 0.0000 3.2949
#
#
#
# Elastic Compliance Matrix: (Units=1/GPa)
#
#
# Indices 1 2 3 4 5 6 
#
# 1 0.009961 -0.003781 -0.001401 0.000000 -0.001769 0.000000
# 2 -0.003781 0.018286 -0.006040 0.000000 -0.001975 0.000000
# 3 -0.001401 -0.006040 0.011743 0.000000 -0.000731 0.000000
# 4 0.000000 0.000000 0.000000 0.066919 0.000000 0.128691
# 5 -0.001769 -0.001975 -0.000731 0.000000 0.033236 0.000000
# 6 0.000000 0.000000 0.000000 0.128691 0.000000 0.550981
#
#
# Mechanical properties :
#
#
# Convention : Reuss Voigt Hill
#
# Bulk Modulus (GPa) = 56.99431 60.61780 58.80606
# Shear Modulus (GPa) = 6.95005 25.34762 16.14884
#
# Velocity S-wave (km/s) = 1.99396 3.80796 3.03944
# Velocity P-wave (km/s) = 6.15676 7.34925 6.77928
#
# Compressibility (1/GPa) = 0.01754561
#
# Stress axis : x y z
#
# Youngs Moduli (GPa) = 100.38778 54.68717 85.15717
#
# Poissons Ratio (x) = 0.20675 0.11933
# Poissons Ratio (y) = 0.37952 0.51439
# Poissons Ratio (z) = 0.14067 0.33034
#
# Static dielectric constant tensor:
#      x y z
#    x 1.643160 0.000000 -0.023720 
#    y 0.000000 1.575150 0.000000 
#    z -0.023720 0.000000 1.670660 
# 
# From -- ./inp_files/259677.got.cif
#   From: 2010.05.17/outbox.cif.g08.bks.cpg/sg12_130_cif.got.tgz:259677.got - 2010.06.03 13:09:07.
