data_PCOD9220909
_publ_section_title
;
Structure prediction by ZEFSAII (Michael W. Deem and Ramdas Pophale) SiO2 
 PCOD9220909
Probable space group: C 2/M
;
_chemical_formula_sum "Si O2"
_cell_formula_units_Z 58
_cell_length_a 16.893394
_cell_length_b 29.249639
_cell_length_c 5.434777
_cell_angle_alpha 90.000000
_cell_angle_beta 106.524277
_cell_angle_gamma 90.000000
_cell_volume 2574.551384
_symmetry_space_group_name_H-M "C 2/M"
_symmetry_group_IT_number 12
_symmetry_cell_setting 'monoclinic'
loop_
_space_group_symop_operation_xyz
x,y,z
-x,y,-z
-x,-y,-z
x,-y,z
1/2+x,1/2+y,z
1/2-x,1/2+y,-z
1/2-x,1/2-y,-z
1/2+x,1/2-y,z
loop_
_atom_site_type_symbol
_atom_site_label
_atom_site_fract_x
_atom_site_fract_y
_atom_site_fract_z
Si Si1 0.854896 0.167865 0.182249
Si Si2 0.457587 0.135567 0.216965
Si Si3 0.786574 0.704653 0.645959
Si Si4 0.203370 0.051452 0.401607
Si Si5 0.929112 0.260824 0.116149
Si Si6 0.597779 0.431083 0.804854
Si Si7 0.707838 0.864322 0.713260
Si Si8 0.000000 0.000000 0.000000
O O1 0.788428 0.172076 0.340492
O O2 0.901814 0.216052 0.239607
O O3 0.912511 0.123544 0.226359
O O4 0.790982 0.158847 0.898111
O O5 0.500000 0.116272 0.500000
O O6 0.464784 0.190947 0.234655
O O7 0.359851 0.124133 0.140326
O O8 0.500000 0.121205 0.000000
O O9 0.750000 0.750000 0.500000
O O10 0.834677 0.674432 0.491658
O O11 0.845237 0.722226 0.911364
O O12 0.149859 0.056861 0.604917
O O13 0.269660 0.091240 0.423341
O O14 0.236729 0.000000 0.434054
O O15 0.150504 0.056320 0.100014
O O16 0.000000 0.242236 0.000000
O O17 0.517721 0.460167 0.802505
#
# Coordination Sequence:
#
# PCOD9220909 Si02
#       8
#     8   8   8   8   8   8   8   2
#     4  11  23  40  58  94 126 174 227 275 325 396
#     4  11  24  41  62  95 130 169 215 267 333 400
#     4  12  21  38  66  91 126 182 225 281 329 401
#     4  11  22  44  65  98 123 160 223 275 321 393
#     4  11  23  39  59  91 133 174 223 273 333 392
#     4  11  25  40  67  93 127 171 218 270 332 397
#     4  11  22  39  67  88 128 173 223 273 335 397
#     4  12  24  46  72  94 140 178 216 282 352 406
#
# _framework density 22.528196000000001
#
# number of rings (size 3 to 8) (size 9 to 14) (size 15 to 20)
#    0.000    0.828    5.517    2.897    0.966    1.103 
#    0.000    0.000    3.034    0.828    0.000    0.000 
#    0.000    0.552    0.000    0.000    0.000    0.000 
#
# Total GULP energy -161576.128898 kJ/mol
# GULP energy per Si atom -5571.590652 kJ/mol
# Density = 2.247692 g / cm^3
# Si number density = 22.528196 Si / 1000 Ang^3
#
#
#
# Elastic Constant Matrix: (Units=GPa)
#
#
# Indices 1 2 3 4 5 6 
#
# 1 91.2271 21.8173 25.9088 0.0000 -35.1603 0.0000
# 2 21.8173 111.3983 18.9126 0.0000 -19.3092 0.0000
# 3 25.9088 18.9126 100.0765 0.0000 -26.5439 0.0000
# 4 0.0000 0.0000 0.0000 24.1696 0.0000 -3.2555
# 5 -35.1603 -19.3092 -26.5439 0.0000 45.3787 0.0000
# 6 0.0000 0.0000 0.0000 -3.2555 0.0000 100.8315
#
#
#
# Elastic Compliance Matrix: (Units=1/GPa)
#
#
# Indices 1 2 3 4 5 6 
#
# 1 0.015810 -0.000983 -0.000910 0.000000 0.011299 0.000000
# 2 -0.000983 0.009818 -0.000822 0.000000 0.002935 0.000000
# 3 -0.000910 -0.000822 0.011959 0.000000 0.005940 0.000000
# 4 0.000000 0.000000 0.000000 0.041555 0.000000 0.001342
# 5 0.011299 0.002935 0.005940 0.000000 0.035515 0.000000
# 6 0.000000 0.000000 0.000000 0.001342 0.000000 0.009961
#
#
# Mechanical properties :
#
#
# Convention : Reuss Voigt Hill
#
# Bulk Modulus (GPa) = 31.09969 48.44215 39.77092
# Shear Modulus (GPa) = 35.51942 49.81349 42.66646
#
# Velocity S-wave (km/s) = 3.97503 4.70740 4.35663
# Velocity P-wave (km/s) = 5.90784 7.14813 6.55737
#
# Compressibility (1/GPa) = 0.03215466
#
# Stress axis : x y z
#
# Youngs Moduli (GPa) = 63.25022 101.85713 83.61929
#
# Poissons Ratio (x) = 0.10016 0.07612
# Poissons Ratio (y) = 0.06220 0.06877
# Poissons Ratio (z) = 0.05758 0.08377
#
# Static dielectric constant tensor:
#      x y z
#    x 1.940820 0.000000 0.029720 
#    y 0.000000 1.673220 0.000000 
#    z 0.029720 0.000000 1.953540 
# 
# From -- ./inp_files/18147.got.cif
#   From: 2010.05.17/outbox.cif.g08.bks.cpg/sg12_10_cif.got.tgz:18147.got - 2010.06.03 13:09:07.
