data_PCOD9220025
_publ_section_title
;
Structure prediction by ZEFSAII (Michael W. Deem and Ramdas Pophale) SiO2 
 PCOD9220025
Probable space group: C 2/M
;
_chemical_formula_sum "Si O2"
_cell_formula_units_Z 40
_cell_length_a 15.483495
_cell_length_b 19.039678
_cell_length_c 9.474093
_cell_angle_alpha 90.000000
_cell_angle_beta 46.755495
_cell_angle_gamma 90.000000
_cell_volume 2034.501653
_symmetry_space_group_name_H-M "C 2/M"
_symmetry_group_IT_number 12
_symmetry_cell_setting 'monoclinic'
loop_
_space_group_symop_operation_xyz
x,y,z
-x,y,-z
-x,-y,-z
x,-y,z
1/2+x,1/2+y,z
1/2-x,1/2+y,-z
1/2-x,1/2-y,-z
1/2+x,1/2-y,z
loop_
_atom_site_type_symbol
_atom_site_label
_atom_site_fract_x
_atom_site_fract_y
_atom_site_fract_z
Si Si1 0.359627 0.921809 0.130777
Si Si2 0.238851 0.364720 0.046046
Si Si3 0.646172 0.195689 0.639878
Si Si4 0.630513 0.076844 0.424052
Si Si5 0.935920 0.234339 0.725053
O O1 0.325990 0.905651 0.007644
O O2 0.327551 0.850745 0.251249
O O3 0.311410 0.000000 0.222721
O O4 0.500000 0.925647 0.000000
O O5 0.364483 0.335056 0.852219
O O6 0.229977 0.412877 0.193464
O O7 0.160594 0.296661 0.177182
O O8 0.750000 0.250000 0.500000
O O9 0.641755 0.137159 0.524248
O O10 0.525587 0.239705 0.748037
O O11 0.500000 0.082081 0.500000
O O12 0.638413 0.000000 0.481491
O O13 0.000000 0.227040 0.500000
#
# Coordination Sequence:
#
# PCOD9220025 Si02
#       5
#     8   8   8   8   8
#     4  11  22  36  56  90 124 151 191 251 309 350
#     4  11  21  37  64  84 121 158 198 252 289 364
#     4  12  23  37  60  88 128 157 193 248 303 356
#     4  11  21  39  64  91 121 156 203 254 299 352
#     4  11  21  38  58  90 121 155 205 239 298 357
#
# _framework density 19.660833
#
# number of rings (size 3 to 8) (size 9 to 14) (size 15 to 20)
#    0.000    0.800    6.000    2.400    2.800    3.200 
#    0.000    0.000    0.000   14.400    0.000    0.000 
#    0.000    0.000    0.000    0.000    0.000    0.000 
#
# Total GULP energy -111625.689587 kJ/mol
# GULP energy per Si atom -5581.284479 kJ/mol
# Density = 1.961608 g / cm^3
# Si number density = 19.660833 Si / 1000 Ang^3
#
#
#
# Elastic Constant Matrix: (Units=GPa)
#
#
# Indices 1 2 3 4 5 6 
#
# 1 30.0119 9.8307 0.3862 0.0000 -2.6482 0.0000
# 2 9.8307 94.6451 13.4362 0.0000 -21.0327 0.0000
# 3 0.3862 13.4362 66.9919 0.0000 -10.5966 0.0000
# 4 0.0000 0.0000 0.0000 -8.1609 0.0000 14.8880
# 5 -2.6482 -21.0327 -10.5966 0.0000 21.0461 0.0000
# 6 0.0000 0.0000 0.0000 14.8880 0.0000 19.0022
#
#
#
# Elastic Compliance Matrix: (Units=1/GPa)
#
#
# Indices 1 2 3 4 5 6 
#
# 1 0.034538 -0.003397 0.000687 0.000000 0.001298 0.000000
# 2 -0.003397 0.013941 -0.000696 0.000000 0.013154 0.000000
# 3 0.000687 -0.000696 0.016262 0.000000 0.007579 0.000000
# 4 0.000000 0.000000 0.000000 -0.050440 0.000000 0.039519
# 5 0.001298 0.013154 0.007579 0.000000 0.064639 0.000000
# 6 0.000000 0.000000 0.000000 0.039519 0.000000 0.021663
#
#
# Mechanical properties :
#
#
# Convention : Reuss Voigt Hill
#
# Bulk Modulus (GPa) = 17.26208 26.55055 21.90632
# Shear Modulus (GPa) = 39.45630 17.57719 28.51675
#
# Velocity S-wave (km/s) = 4.48465 2.99326 3.81259
# Velocity P-wave (km/s) = 5.96784 5.04775 5.52697
#
# Compressibility (1/GPa) = 0.05793043
#
# Stress axis : x y z
#
# Youngs Moduli (GPa) = 28.95326 71.73334 61.49470
#
# Poissons Ratio (x) = 0.24366 -0.04227
# Poissons Ratio (y) = 0.09835 0.04278
# Poissons Ratio (z) = -0.01990 0.04991
#
# Static dielectric constant tensor:
#      x y z
#    x 1.667460 0.000000 0.029870 
#    y 0.000000 1.595690 0.000000 
#    z 0.029870 0.000000 1.746930 
# 
# From -- ./inp_files/47137.got.cif
#   From: 2010.05.17/outbox.cif.g08.bks.cpg/sg12_24_cif.got.tgz:47137.got - 2010.06.03 13:09:07.
