data_PCOD9220861
_publ_section_title
;
Structure prediction by ZEFSAII (Michael W. Deem and Ramdas Pophale) SiO2 
 PCOD9220861
Probable space group: C 2/M
;
_chemical_formula_sum "Si O2"
_cell_formula_units_Z 42
_cell_length_a 14.283180
_cell_length_b 7.981904
_cell_length_c 17.268287
_cell_angle_alpha 90.000000
_cell_angle_beta 59.591639
_cell_angle_gamma 90.000000
_cell_volume 1697.889669
_symmetry_space_group_name_H-M "C 2/M"
_symmetry_group_IT_number 12
_symmetry_cell_setting 'monoclinic'
loop_
_space_group_symop_operation_xyz
x,y,z
-x,y,-z
-x,-y,-z
x,-y,z
1/2+x,1/2+y,z
1/2-x,1/2+y,-z
1/2-x,1/2-y,-z
1/2+x,1/2-y,z
loop_
_atom_site_type_symbol
_atom_site_label
_atom_site_fract_x
_atom_site_fract_y
_atom_site_fract_z
Si Si1 0.408285 0.696623 0.472666
Si Si2 0.647430 0.798709 0.988838
Si Si3 0.238885 0.686555 0.337389
Si Si4 0.500000 0.500000 0.000000
Si Si5 0.679737 0.312328 0.203064
Si Si6 0.453967 0.816911 0.283755
O O1 0.500000 0.719639 0.500000
O O2 0.400389 0.500000 0.457051
O O3 0.300467 0.757196 0.561689
O O4 0.439934 0.792400 0.381899
O O5 0.557545 0.653242 0.029100
O O6 0.703156 0.773974 0.880785
O O7 0.618945 0.000000 0.009580
O O8 0.750000 0.750000 0.000000
O O9 0.199482 0.500000 0.338800
O O10 0.188396 0.798782 0.291604
O O11 0.368671 0.693273 0.280820
O O12 0.651170 0.500000 0.192643
O O13 0.580557 0.202776 0.213746
O O14 0.415656 0.000000 0.276615
#
# Coordination Sequence:
#
# PCOD9220861 Si02
#       6
#     8   8   8   2   8   8
#     4  11  22  39  64  89 130 181 231 291 348 406
#     4  11  26  50  82 117 155 200 251 311 382 466
#     4  12  25  41  65  96 136 180 237 287 346 417
#     4  12  26  48  88 112 160 194 254 298 390 452
#     4  11  25  46  70 102 143 179 228 292 352 423
#     4  12  25  41  66  96 133 183 233 285 351 414
#
# _framework density 24.736591000000001
#
# number of rings (size 3 to 8) (size 9 to 14) (size 15 to 20)
#    0.000    0.571    2.857    5.429    2.667    2.286 
#    0.000    0.000    0.000    0.000    0.000    0.000 
#    0.000    0.000    0.000    0.000    0.000    0.000 
#
# Total GULP energy -117232.781191 kJ/mol
# GULP energy per Si atom -5582.513390 kJ/mol
# Density = 2.468029 g / cm^3
# Si number density = 24.736591 Si / 1000 Ang^3
#
#
#
# Elastic Constant Matrix: (Units=GPa)
#
#
# Indices 1 2 3 4 5 6 
#
# 1 93.8166 26.3489 -7.7793 0.0000 -4.2540 0.0000
# 2 26.3489 126.1798 8.4830 0.0000 -16.5828 0.0000
# 3 -7.7793 8.4830 50.7183 0.0000 -5.0685 0.0000
# 4 0.0000 0.0000 0.0000 12.9749 0.0000 0.1377
# 5 -4.2540 -16.5828 -5.0685 0.0000 25.8814 0.0000
# 6 0.0000 0.0000 0.0000 0.1377 0.0000 37.6221
#
#
#
# Elastic Compliance Matrix: (Units=1/GPa)
#
#
# Indices 1 2 3 4 5 6 
#
# 1 0.011575 -0.002469 0.002265 0.000000 0.000764 0.000000
# 2 -0.002469 0.009222 -0.001399 0.000000 0.005229 0.000000
# 3 0.002265 -0.001399 0.020650 0.000000 0.003520 0.000000
# 4 0.000000 0.000000 0.000000 0.077075 0.000000 -0.000282
# 5 0.000764 0.005229 0.003520 0.000000 0.042803 0.000000
# 6 0.000000 0.000000 0.000000 -0.000282 0.000000 0.026581
#
#
# Mechanical properties :
#
#
# Convention : Reuss Voigt Hill
#
# Bulk Modulus (GPa) = 26.14984 36.09110 31.12047
# Shear Modulus (GPa) = 24.52678 31.53980 28.03329
#
# Velocity S-wave (km/s) = 3.15225 3.57462 3.37006
# Velocity P-wave (km/s) = 4.88295 5.62664 5.26794
#
# Compressibility (1/GPa) = 0.03824116
#
# Stress axis : x y z
#
# Youngs Moduli (GPa) = 86.39357 108.43645 48.42656
#
# Poissons Ratio (x) = 0.26772 -0.10967
# Poissons Ratio (y) = 0.21330 0.06773
# Poissons Ratio (z) = -0.19565 0.15166
#
# Static dielectric constant tensor:
#      x y z
#    x 1.974890 0.000000 -0.049160 
#    y 0.000000 1.856920 0.000000 
#    z -0.049160 0.000000 2.052490 
# 
# From -- ./inp_files/267519.got.cif
#   From: 2010.05.17/outbox.cif.g08.bks.cpg/sg12_134_cif.got.tgz:267519.got - 2010.06.03 13:09:07.
