data_PCOD9220932
_publ_section_title
;
Structure prediction by ZEFSAII (Michael W. Deem and Ramdas Pophale) SiO2 
 PCOD9220932
Probable space group: C 2/M
;
_chemical_formula_sum "Si O2"
_cell_formula_units_Z 40
_cell_length_a 14.652874
_cell_length_b 33.670017
_cell_length_c 9.464957
_cell_angle_alpha 90.000000
_cell_angle_beta 151.653908
_cell_angle_gamma 90.000000
_cell_volume 2217.135208
_symmetry_space_group_name_H-M "C 2/M"
_symmetry_group_IT_number 12
_symmetry_cell_setting 'monoclinic'
loop_
_space_group_symop_operation_xyz
x,y,z
-x,y,-z
-x,-y,-z
x,-y,z
1/2+x,1/2+y,z
1/2-x,1/2+y,-z
1/2-x,1/2-y,-z
1/2+x,1/2-y,z
loop_
_atom_site_type_symbol
_atom_site_label
_atom_site_fract_x
_atom_site_fract_y
_atom_site_fract_z
Si Si1 0.503264 0.934985 0.176299
Si Si2 0.863632 0.209090 0.684160
Si Si3 0.191173 0.000000 0.361503
Si Si4 0.347959 0.291549 0.171590
Si Si5 0.498737 0.843165 0.170901
Si Si6 0.708477 0.500000 0.730349
O O1 0.494905 0.889369 0.207873
O O2 0.679989 0.960021 0.483525
O O3 0.500000 0.934412 0.000000
O O4 0.317399 0.962115 0.943899
O O5 0.750000 0.250000 0.500000
O O6 0.698197 0.177084 0.488223
O O7 0.012516 0.195116 0.765828
O O8 0.000000 0.217433 0.000000
O O9 0.186747 0.000000 0.529209
O O10 0.000000 0.000000 0.000000
O O11 0.500000 0.283392 0.500000
O O12 0.250000 0.250000 0.000000
O O13 0.182568 0.320810 0.005139
O O14 0.500000 0.839566 0.000000
O O15 0.500000 0.500000 0.500000
#
# Coordination Sequence:
#
# PCOD9220932 Si02
#       6
#     8   8   4   8   8   4
#     4   8  18  36  58  84 117 154 188 230 286 347
#     4  12  24  40  61  84 114 157 199 245 302 349
#     4   9  17  35  64  86 114 153 185 225 292 349
#     4  12  24  38  62  86 111 156 206 240 297 354
#     4  11  22  40  60  87 123 153 198 252 288 345
#     4   9  17  35  62  88 112 149 193 229 276 350
#
# _framework density 18.041298000000001
#
# number of rings (size 3 to 8) (size 9 to 14) (size 15 to 20)
#    0.000    1.600    4.000    3.000    0.000    1.600 
#    3.600    2.000    4.400    0.000    0.000    0.000 
#    0.000    0.000    0.000    0.000    0.000    0.000 
#
# Total GULP energy -111354.388416 kJ/mol
# GULP energy per Si atom -5567.719421 kJ/mol
# Density = 1.800024 g / cm^3
# Si number density = 18.041298 Si / 1000 Ang^3
#
#
#
# Elastic Constant Matrix: (Units=GPa)
#
#
# Indices 1 2 3 4 5 6 
#
# 1 91.9100 52.1902 48.9057 0.0000 29.5382 0.0000
# 2 52.1902 186.3898 88.3076 0.0000 32.2615 0.0000
# 3 48.9057 88.3076 185.9242 0.0000 17.3711 0.0000
# 4 0.0000 0.0000 0.0000 5.1993 0.0000 -11.1264
# 5 29.5382 32.2615 17.3711 0.0000 39.1377 0.0000
# 6 0.0000 0.0000 0.0000 -11.1264 0.0000 11.3851
#
#
#
# Elastic Compliance Matrix: (Units=1/GPa)
#
#
# Indices 1 2 3 4 5 6 
#
# 1 0.016361 -0.001645 -0.002603 0.000000 -0.009836 0.000000
# 2 -0.001645 0.007913 -0.002955 0.000000 -0.003969 0.000000
# 3 -0.002603 -0.002955 0.007361 0.000000 0.001133 0.000000
# 4 0.000000 0.000000 0.000000 -0.176237 0.000000 -0.172231
# 5 -0.009836 -0.003969 0.001133 0.000000 0.035744 0.000000
# 6 0.000000 0.000000 0.000000 -0.172231 0.000000 -0.080483
#
#
# Mechanical properties :
#
#
# Convention : Reuss Voigt Hill
#
# Bulk Modulus (GPa) = 58.04437 93.67010 75.85723
# Shear Modulus (GPa) = -29.55205 29.46579 -0.04313
#
# Velocity S-wave (km/s) = -4.05164 4.04572 -0.15478
# Velocity P-wave (km/s) = 3.21795 8.59397 6.48890
#
# Compressibility (1/GPa) = 0.01722820
#
# Stress axis : x y z
#
# Youngs Moduli (GPa) = 61.12178 126.37985 135.85623
#
# Poissons Ratio (x) = 0.20793 0.35364
# Poissons Ratio (y) = 0.10056 0.40140
# Poissons Ratio (z) = 0.15910 0.37340
#
# Static dielectric constant tensor:
#      x y z
#    x 0.778050 0.000000 0.045930 
#    y 0.000000 1.608410 0.000000 
#    z 0.045930 0.000000 1.597940 
# 
# From -- ./inp_files/68771.got.cif
#   From: 2010.05.17/outbox.cif.g08.bks.cpg/sg12_35_cif.got.tgz:68771.got - 2010.06.03 13:09:07.
