data_PCOD9220104
_publ_section_title
;
Structure prediction by ZEFSAII (Michael W. Deem and Ramdas Pophale) SiO2 
 PCOD9220104
Probable space group: C 2/M
;
_chemical_formula_sum "Si O2"
_cell_formula_units_Z 40
_cell_length_a 10.085726
_cell_length_b 20.637388
_cell_length_c 16.805644
_cell_angle_alpha 90.000000
_cell_angle_beta 40.478056
_cell_angle_gamma 90.000000
_cell_volume 2270.735995
_symmetry_space_group_name_H-M "C 2/M"
_symmetry_group_IT_number 12
_symmetry_cell_setting 'monoclinic'
loop_
_space_group_symop_operation_xyz
x,y,z
-x,y,-z
-x,-y,-z
x,-y,z
1/2+x,1/2+y,z
1/2-x,1/2+y,-z
1/2-x,1/2-y,-z
1/2+x,1/2-y,z
loop_
_atom_site_type_symbol
_atom_site_label
_atom_site_fract_x
_atom_site_fract_y
_atom_site_fract_z
Si Si1 0.155843 0.368652 0.746971
Si Si2 0.283849 0.000000 0.554343
Si Si3 0.744664 0.500000 0.388766
Si Si4 0.761862 0.253189 0.590140
Si Si5 0.662878 0.925315 0.998278
Si Si6 0.998139 0.878355 0.728530
O O1 0.186529 0.435931 0.687463
O O2 0.180239 0.310188 0.673868
O O3 0.335328 0.365398 0.731589
O O4 0.940211 0.377647 0.890643
O O5 0.500000 0.000000 0.500000
O O6 0.146645 0.062637 0.637367
O O7 0.322144 0.000000 0.442967
O O8 0.500000 0.500000 0.500000
O O9 0.750000 0.250000 0.500000
O O10 0.631922 0.314492 0.678282
O O11 0.000000 0.260689 0.500000
O O12 0.686641 0.000000 0.015922
O O13 0.500000 0.928266 0.000000
O O14 0.869289 0.898977 0.864789
#
# Coordination Sequence:
#
# PCOD9220104 Si02
#       6
#     8   4   4   8   8   8
#     4  11  21  38  63  94 119 158 210 256 302 357
#     4  12  24  37  59  93 125 158 204 251 317 366
#     4  12  20  35  65  87 119 156 204 258 297 356
#     4  12  24  40  60  88 130 165 200 248 305 366
#     4   9  18  35  63  94 119 150 202 263 305 351
#     4  11  21  39  63  89 126 160 203 256 303 364
#
# _framework density 17.615434
#
# number of rings (size 3 to 8) (size 9 to 14) (size 15 to 20)
#    0.000    1.000    6.000    2.400    0.000    0.800 
#    0.000    0.000    0.000    4.800    0.000    0.000 
#    0.000    0.000    0.000    0.000    0.000    0.000 
#
# Total GULP energy -111676.931076 kJ/mol
# GULP energy per Si atom -5583.846554 kJ/mol
# Density = 1.757534 g / cm^3
# Si number density = 17.615434 Si / 1000 Ang^3
#
#
#
# Elastic Constant Matrix: (Units=GPa)
#
#
# Indices 1 2 3 4 5 6 
#
# 1 75.2796 25.3617 35.4538 -0.0005 10.3964 0.0005
# 2 25.3617 157.4928 66.5603 -0.0003 -0.1197 0.0003
# 3 35.4538 66.5603 125.7158 0.0017 2.0313 -0.0004
# 4 -0.0005 -0.0003 0.0017 40.8675 -0.0002 2.4858
# 5 10.3964 -0.1197 2.0313 -0.0002 17.7807 -0.0001
# 6 0.0005 0.0003 -0.0004 2.4858 -0.0001 23.6567
#
#
#
# Elastic Compliance Matrix: (Units=1/GPa)
#
#
# Indices 1 2 3 4 5 6 
#
# 1 0.016831 -0.000999 -0.004066 0.000000 -0.009383 0.000000
# 2 -0.000999 0.008244 -0.004101 0.000000 0.001108 0.000000
# 3 -0.004066 -0.004101 0.011255 -0.000001 0.001064 0.000000
# 4 0.000000 0.000000 -0.000001 0.024627 0.000000 -0.002588
# 5 -0.009383 0.001108 0.001064 0.000000 0.061613 0.000000
# 6 0.000000 0.000000 0.000000 -0.002588 0.000000 0.042543
#
#
# Mechanical properties :
#
#
# Convention : Reuss Voigt Hill
#
# Bulk Modulus (GPa) = 55.56075 68.13776 61.84925
# Shear Modulus (GPa) = 26.39271 31.86849 29.13060
#
# Velocity S-wave (km/s) = 3.87495 4.25799 4.07098
# Velocity P-wave (km/s) = 7.18538 7.93339 7.56863
#
# Compressibility (1/GPa) = 0.01799832
#
# Stress axis : x y z
#
# Youngs Moduli (GPa) = 59.41329 121.29317 88.84681
#
# Poissons Ratio (x) = 0.12118 0.36126
# Poissons Ratio (y) = 0.05936 0.36438
# Poissons Ratio (z) = 0.24158 0.49745
#
# Static dielectric constant tensor:
#      x y z
#    x 0.880570 0.000000 -0.184970 
#    y 0.000000 1.582710 0.000000 
#    z -0.184970 0.000000 1.571220 
# 
# From -- ./inp_files/196786.got.cif
#   From: 2010.05.17/outbox.cif.g08.bks.cpg/sg12_99_cif.got.tgz:196786.got - 2010.06.03 13:09:07.
