data_PCOD9220477
_publ_section_title
;
Structure prediction by ZEFSAII (Michael W. Deem and Ramdas Pophale) SiO2 
 PCOD9220477
Probable space group: C 2/M
;
_chemical_formula_sum "Si O2"
_cell_formula_units_Z 64
_cell_length_a 27.027640
_cell_length_b 20.826214
_cell_length_c 9.374083
_cell_angle_alpha 90.000000
_cell_angle_beta 133.921005
_cell_angle_gamma 90.000000
_cell_volume 3800.657785
_symmetry_space_group_name_H-M "C 2/M"
_symmetry_group_IT_number 12
_symmetry_cell_setting 'monoclinic'
loop_
_space_group_symop_operation_xyz
x,y,z
-x,y,-z
-x,-y,-z
x,-y,z
1/2+x,1/2+y,z
1/2-x,1/2+y,-z
1/2-x,1/2-y,-z
1/2+x,1/2-y,z
loop_
_atom_site_type_symbol
_atom_site_label
_atom_site_fract_x
_atom_site_fract_y
_atom_site_fract_z
Si Si1 0.529635 0.183187 0.900417
Si Si2 0.328400 0.149872 0.246305
Si Si3 0.537040 0.073239 0.420786
Si Si4 0.671600 0.649872 0.932705
Si Si5 0.029635 0.816812 0.218124
Si Si6 0.962959 0.926761 0.272624
Si Si7 0.328291 0.289928 0.381693
Si Si8 0.828291 0.710073 0.931472
O O1 0.502963 0.122598 0.759799
O O2 0.500000 0.250000 0.776712
O O3 0.500000 0.179128 0.000000
O O4 0.611808 0.189235 0.055085
O O5 0.385913 0.099510 0.404708
O O6 0.335691 0.215007 0.353829
O O7 0.250000 0.126889 0.105672
O O8 0.337377 0.171863 0.099302
O O9 0.500000 0.074859 0.500000
O O10 0.536221 0.000000 0.366657
O O11 0.614087 0.599510 0.861057
O O12 0.662623 0.671863 0.749793
O O13 0.664309 0.715007 0.011066
O O14 0.111808 0.810765 0.392147
O O15 0.002962 0.877402 0.252052
O O16 0.000000 0.820872 0.000000
O O17 0.000000 0.925141 0.500000
O O18 0.963779 0.000000 0.221773
O O19 0.250000 0.300299 0.274998
#
# Coordination Sequence:
#
# PCOD9220477 Si02
#       8
#     8   8   8   8   8   8   8   8
#     4  11  22  36  56  83 111 145 187 224 273 331
#     4   9  17  31  55  84 108 140 181 230 283 321
#     4  11  22  35  55  82 111 146 184 227 278 324
#     4   9  17  31  55  84 108 140 181 230 283 321
#     4  11  22  36  56  83 111 145 187 224 273 331
#     4  11  22  35  55  82 111 146 184 227 278 324
#     4   9  17  32  56  83 110 140 180 230 281 323
#     4   9  17  32  56  83 110 140 180 230 281 323
#
# _framework density 16.839189999999999
#
# number of rings (size 3 to 8) (size 9 to 14) (size 15 to 20)
#    0.000    2.000    5.000    1.500    0.000    1.500 
#    0.000    3.750    0.000    0.750    0.000    0.000 
#    0.000    0.000    0.000    0.000    0.000    0.000 
#
# Total GULP energy -178485.622674 kJ/mol
# GULP energy per Si atom -5577.675709 kJ/mol
# Density = 1.680086 g / cm^3
# Si number density = 16.839190 Si / 1000 Ang^3
#
#
#
# Elastic Constant Matrix: (Units=GPa)
#
#
# Indices 1 2 3 4 5 6 
#
# 1 105.9699 47.0663 52.4109 0.0000 28.4349 0.0000
# 2 47.0663 125.5123 46.1557 0.0000 12.6533 0.0000
# 3 52.4109 46.1557 101.8998 0.0000 28.1390 0.0000
# 4 0.0000 0.0000 0.0000 11.8306 0.0000 1.5420
# 5 28.4349 12.6533 28.1390 0.0000 29.8701 0.0000
# 6 0.0000 0.0000 0.0000 1.5420 0.0000 11.9429
#
#
#
# Elastic Compliance Matrix: (Units=1/GPa)
#
#
# Indices 1 2 3 4 5 6 
#
# 1 0.015393 -0.003441 -0.003669 0.000000 -0.009739 0.000000
# 2 -0.003441 0.010329 -0.003521 0.000000 0.002217 0.000000
# 3 -0.003669 -0.003521 0.016110 0.000000 -0.010192 0.000000
# 4 0.000000 0.000000 0.000000 0.085973 0.000000 -0.011100
# 5 -0.009739 0.002217 -0.010192 0.000000 0.051412 0.000000
# 6 0.000000 0.000000 0.000000 -0.011100 0.000000 0.085165
#
#
# Mechanical properties :
#
#
# Convention : Reuss Voigt Hill
#
# Bulk Modulus (GPa) = 48.61509 69.40532 59.01020
# Shear Modulus (GPa) = 17.09397 23.24533 20.16965
#
# Velocity S-wave (km/s) = 3.18957 3.71945 3.46465
# Velocity P-wave (km/s) = 6.51900 7.72992 7.15014
#
# Compressibility (1/GPa) = 0.02056974
#
# Stress axis : x y z
#
# Youngs Moduli (GPa) = 64.96445 96.81476 62.07332
#
# Poissons Ratio (x) = 0.33316 0.22775
# Poissons Ratio (y) = 0.22355 0.21855
# Poissons Ratio (z) = 0.23836 0.34087
#
# Static dielectric constant tensor:
#      x y z
#    x 1.568690 0.000000 0.009610 
#    y 0.000000 1.554130 0.000000 
#    z 0.009610 0.000000 1.568000 
# 
# From -- ./inp_files/99146.got.cif
#   From: 2010.05.17/outbox.cif.g08.bks.cpg/sg12_50_cif.got.tgz:99146.got - 2010.06.03 13:09:07.
