data_PCOD9220706
_publ_section_title
;
Structure prediction by ZEFSAII (Michael W. Deem and Ramdas Pophale) SiO2 
 PCOD9220706
Probable space group: C 2/M
;
_chemical_formula_sum "Si O2"
_cell_formula_units_Z 42
_cell_length_a 14.955687
_cell_length_b 7.887229
_cell_length_c 20.333823
_cell_angle_alpha 90.000000
_cell_angle_beta 132.695286
_cell_angle_gamma 90.000000
_cell_volume 1762.867611
_symmetry_space_group_name_H-M "C 2/M"
_symmetry_group_IT_number 12
_symmetry_cell_setting 'monoclinic'
loop_
_space_group_symop_operation_xyz
x,y,z
-x,y,-z
-x,-y,-z
x,-y,z
1/2+x,1/2+y,z
1/2-x,1/2+y,-z
1/2-x,1/2-y,-z
1/2+x,1/2-y,z
loop_
_atom_site_type_symbol
_atom_site_label
_atom_site_fract_x
_atom_site_fract_y
_atom_site_fract_z
Si Si1 0.620438 0.205607 0.020089
Si Si2 0.207864 0.686074 0.548664
Si Si3 0.632564 0.299081 0.788929
Si Si4 0.479795 0.197444 0.827101
Si Si5 0.000000 0.500000 0.500000
Si Si6 0.780241 0.307182 0.305445
O O1 0.743676 0.268827 0.114717
O O2 0.627308 0.000000 0.027293
O O3 0.500000 0.257059 0.000000
O O4 0.591162 0.251088 0.930131
O O5 0.271242 0.500000 0.587203
O O6 0.250000 0.750000 0.500000
O O7 0.065443 0.645717 0.485013
O O8 0.228540 0.782433 0.627842
O O9 0.624317 0.500000 0.794579
O O10 0.521422 0.218296 0.772966
O O11 0.645460 0.263676 0.718235
O O12 0.360845 0.304082 0.785336
O O13 0.451917 0.000000 0.827763
O O14 0.828931 0.500000 0.344794
#
# Coordination Sequence:
#
# PCOD9220706 Si02
#       6
#     8   8   8   8   2   8
#     4   9  17  34  58  80 113 162 213 262 305 359
#     4   9  21  42  69  96 127 163 206 258 322 391
#     4  11  22  38  59  86 125 164 211 260 309 367
#     4  11  22  38  60  87 120 167 210 255 315 364
#     4   8  20  44  70  94 128 158 206 254 318 374
#     4  11  23  40  59  92 129 155 199 257 308 375
#
# _framework density 23.824818
#
# number of rings (size 3 to 8) (size 9 to 14) (size 15 to 20)
#    0.571    1.333    1.905    2.286    0.000    3.048 
#    3.429    4.286    0.000    0.000    0.000    0.000 
#    0.000    0.000    0.000    0.000    0.000    0.000 
#
# Total GULP energy -116919.265090 kJ/mol
# GULP energy per Si atom -5567.584052 kJ/mol
# Density = 2.377059 g / cm^3
# Si number density = 23.824818 Si / 1000 Ang^3
#
#
#
# Elastic Constant Matrix: (Units=GPa)
#
#
# Indices 1 2 3 4 5 6 
#
# 1 132.4867 7.7708 31.5251 0.0000 -37.5768 0.0000
# 2 7.7708 44.2923 4.4283 0.0000 -8.6931 0.0000
# 3 31.5251 4.4283 96.1916 0.0000 -31.4696 0.0000
# 4 0.0000 0.0000 0.0000 27.4245 0.0000 -3.5193
# 5 -37.5768 -8.6931 -31.4696 0.0000 48.5374 0.0000
# 6 0.0000 0.0000 0.0000 -3.5193 0.0000 12.9053
#
#
#
# Elastic Compliance Matrix: (Units=1/GPa)
#
#
# Indices 1 2 3 4 5 6 
#
# 1 0.009738 -0.000263 -0.000924 0.000000 0.006893 0.000000
# 2 -0.000263 0.023417 0.000398 0.000000 0.004248 0.000000
# 3 -0.000924 0.000398 0.013288 0.000000 0.007971 0.000000
# 4 0.000000 0.000000 0.000000 0.037786 0.000000 0.010304
# 5 0.006893 0.004248 0.007971 0.000000 0.031868 0.000000
# 6 0.000000 0.000000 0.000000 0.010304 0.000000 0.080298
#
#
# Mechanical properties :
#
#
# Convention : Reuss Voigt Hill
#
# Bulk Modulus (GPa) = 22.28915 40.04656 31.16786
# Shear Modulus (GPa) = 23.48185 33.05652 28.26918
#
# Velocity S-wave (km/s) = 3.14284 3.72893 3.44836
# Velocity P-wave (km/s) = 4.74823 5.94854 5.38195
#
# Compressibility (1/GPa) = 0.04486487
#
# Stress axis : x y z
#
# Youngs Moduli (GPa) = 102.68746 42.70314 75.25356
#
# Poissons Ratio (x) = 0.01124 0.06957
# Poissons Ratio (y) = 0.02704 -0.02996
# Poissons Ratio (z) = 0.09493 -0.01700
#
# Static dielectric constant tensor:
#      x y z
#    x 1.835630 0.000000 -0.039780 
#    y 0.000000 1.897820 0.000000 
#    z -0.039780 0.000000 1.900420 
# 
# From -- ./inp_files/267305.got.cif
#   From: 2010.05.17/outbox.cif.g08.bks.cpg/sg12_134_cif.got.tgz:267305.got - 2010.06.03 13:09:07.
