data_PCOD9220360
_publ_section_title
;
Structure prediction by ZEFSAII (Michael W. Deem and Ramdas Pophale) SiO2 
 PCOD9220360
Probable space group: C 2/M
;
_chemical_formula_sum "Si O2"
_cell_formula_units_Z 56
_cell_length_a 27.912805
_cell_length_b 16.909372
_cell_length_c 9.297395
_cell_angle_alpha 90.000000
_cell_angle_beta 139.613647
_cell_angle_gamma 90.000000
_cell_volume 2843.321871
_symmetry_space_group_name_H-M "C 2/M"
_symmetry_group_IT_number 12
_symmetry_cell_setting 'monoclinic'
loop_
_space_group_symop_operation_xyz
x,y,z
-x,y,-z
-x,-y,-z
x,-y,z
1/2+x,1/2+y,z
1/2-x,1/2+y,-z
1/2-x,1/2-y,-z
1/2+x,1/2-y,z
loop_
_atom_site_type_symbol
_atom_site_label
_atom_site_fract_x
_atom_site_fract_y
_atom_site_fract_z
Si Si1 0.681111 0.828454 0.680655
Si Si2 0.939011 0.914545 0.484154
Si Si3 0.722421 0.410510 0.874181
Si Si4 0.796124 0.822894 0.456341
Si Si5 0.978761 0.743955 0.618319
Si Si6 0.177721 0.591581 0.389467
Si Si7 0.423842 0.770149 0.904891
O O1 0.716482 0.754616 0.673583
O O2 0.594646 0.806975 0.511434
O O3 0.691920 0.899676 0.592357
O O4 0.721777 0.851092 0.920666
O O5 0.857267 0.906362 0.230235
O O6 0.955481 0.833992 0.604171
O O7 0.000000 0.917099 0.500000
O O8 0.941037 0.000000 0.565503
O O9 0.751055 0.500000 0.945395
O O10 0.699959 0.389023 0.659211
O O11 0.735182 0.856981 0.425893
O O12 0.864067 0.793192 0.711286
O O13 0.000000 0.737951 0.500000
O O14 0.053114 0.727790 0.876803
O O15 0.176060 0.500000 0.343155
O O16 0.103361 0.642143 0.197721
O O17 0.500000 0.752633 0.000000
#
# Coordination Sequence:
#
# PCOD9220360 Si02
#       7
#     8   8   8   8   8   8   8
#     4  11  22  42  64  95 128 177 219 274 324 399
#     4   9  19  35  56  87 124 162 203 259 322 382
#     4  11  22  38  63  96 134 169 213 273 331 388
#     4  11  23  41  64  94 131 173 223 267 327 395
#     4  11  23  39  65  96 127 168 227 269 331 397
#     4  11  25  43  65  95 132 177 222 273 336 396
#     4  11  21  43  67  96 126 175 226 274 327 400
#
# _framework density 19.695271999999999
#
# number of rings (size 3 to 8) (size 9 to 14) (size 15 to 20)
#    0.000    1.286    4.286    3.000    2.000    3.714 
#    0.000    2.857    0.000    6.000    0.000    0.000 
#    0.000    0.000    0.000    0.000    0.000    0.000 
#
# Total GULP energy -155919.210399 kJ/mol
# GULP energy per Si atom -5568.543229 kJ/mol
# Density = 1.965044 g / cm^3
# Si number density = 19.695272 Si / 1000 Ang^3
#
#
#
# Elastic Constant Matrix: (Units=GPa)
#
#
# Indices 1 2 3 4 5 6 
#
# 1 91.1067 27.5822 39.6879 0.0000 -8.5016 0.0000
# 2 27.5822 94.7987 37.7307 0.0000 4.9284 0.0000
# 3 39.6879 37.7307 112.3913 0.0000 -13.3284 0.0000
# 4 0.0000 0.0000 0.0000 19.7842 0.0000 0.9648
# 5 -8.5016 4.9284 -13.3284 0.0000 27.7380 0.0000
# 6 0.0000 0.0000 0.0000 0.9648 0.0000 8.5462
#
#
#
# Elastic Compliance Matrix: (Units=1/GPa)
#
#
# Indices 1 2 3 4 5 6 
#
# 1 0.013616 -0.002701 -0.003552 0.000000 0.002946 0.000000
# 2 -0.002701 0.013234 -0.004100 0.000000 -0.005149 0.000000
# 3 -0.003552 -0.004100 0.012179 0.000000 0.005492 0.000000
# 4 0.000000 0.000000 0.000000 0.050825 0.000000 -0.005738
# 5 0.002946 -0.005149 0.005492 0.000000 0.040509 0.000000
# 6 0.000000 0.000000 0.000000 -0.005738 0.000000 0.117659
#
#
# Mechanical properties :
#
#
# Convention : Reuss Voigt Hill
#
# Bulk Modulus (GPa) = 54.57293 56.47758 55.52525
# Shear Modulus (GPa) = 18.19269 24.10006 21.14637
#
# Velocity S-wave (km/s) = 3.04255 3.50186 3.28026
# Velocity P-wave (km/s) = 6.33338 6.71481 6.52688
#
# Compressibility (1/GPa) = 0.01832410
#
# Stress axis : x y z
#
# Youngs Moduli (GPa) = 73.44211 75.56336 82.10653
#
# Poissons Ratio (x) = 0.20411 0.29164
# Poissons Ratio (y) = 0.19838 0.33660
# Poissons Ratio (z) = 0.26086 0.30977
#
# Static dielectric constant tensor:
#      x y z
#    x 1.752040 0.000000 -0.014640 
#    y 0.000000 1.732600 0.000000 
#    z -0.014640 0.000000 1.756960 
# 
# From -- ./inp_files/106041.got.cif
#   From: 2010.05.17/outbox.cif.g08.bks.cpg/sg12_54_cif.got.tgz:106041.got - 2010.06.03 13:09:07.
