data_PCOD9220259
_publ_section_title
;
Structure prediction by ZEFSAII (Michael W. Deem and Ramdas Pophale) SiO2 
 PCOD9220259
Probable space group: C 2/M
;
_chemical_formula_sum "Si O2"
_cell_formula_units_Z 58
_cell_length_a 16.456542
_cell_length_b 17.766183
_cell_length_c 16.616702
_cell_angle_alpha 90.000000
_cell_angle_beta 33.571591
_cell_angle_gamma 90.000000
_cell_volume 2686.493450
_symmetry_space_group_name_H-M "C 2/M"
_symmetry_group_IT_number 12
_symmetry_cell_setting 'monoclinic'
loop_
_space_group_symop_operation_xyz
x,y,z
-x,y,-z
-x,-y,-z
x,-y,z
1/2+x,1/2+y,z
1/2-x,1/2+y,-z
1/2-x,1/2-y,-z
1/2+x,1/2-y,z
loop_
_atom_site_type_symbol
_atom_site_label
_atom_site_fract_x
_atom_site_fract_y
_atom_site_fract_z
Si Si1 0.740553 0.415193 0.799254
Si Si2 0.706501 0.801223 0.609177
Si Si3 0.980770 0.132016 0.893157
Si Si4 0.500000 0.000000 0.000000
Si Si5 0.107593 0.288837 0.078006
Si Si6 0.756061 0.382075 0.162204
Si Si7 0.337761 0.240225 0.660540
Si Si8 0.557825 0.414734 0.647284
O O1 0.800017 0.500000 0.741479
O O2 0.610786 0.401845 0.840389
O O3 0.840321 0.342802 0.697313
O O4 0.665344 0.406369 0.949197
O O5 0.750000 0.750000 0.500000
O O6 0.531337 0.812535 0.753422
O O7 0.746601 0.752908 0.654654
O O8 0.813801 0.872399 0.507896
O O9 0.952481 0.220990 0.928905
O O10 0.017971 0.120321 0.768232
O O11 0.630663 0.065248 0.884795
O O12 0.250000 0.250000 0.000000
O O13 0.162689 0.362736 0.987963
O O14 0.727359 0.301400 0.225563
O O15 0.594441 0.413424 0.276859
O O16 0.500000 0.261771 0.500000
O O17 0.603689 0.500000 0.624570
#
# Coordination Sequence:
#
# PCOD9220259 Si02
#       8
#     8   8   8   2   8   8   8   8
#     4  11  23  40  66 105 137 179 229 293 361 424
#     4  12  24  44  69 100 136 182 234 286 352 437
#     4  11  21  40  71  98 136 177 231 285 353 435
#     4  12  28  44  70 108 146 182 250 314 362 422
#     4  12  23  42  75 103 133 183 240 298 352 429
#     4  12  25  47  68 101 143 187 243 304 362 431
#     4  12  25  43  71  98 137 188 238 293 362 435
#     4  12  24  46  70 102 143 190 233 296 366 432
#
# _framework density 21.589480999999999
#
# number of rings (size 3 to 8) (size 9 to 14) (size 15 to 20)
#    0.000    0.276    7.586    2.483    0.000    0.276 
#    4.966    1.034    0.000    0.000    0.000    0.000 
#    0.000    0.000    0.000    0.000    0.000    0.000 
#
# Total GULP energy -161614.999455 kJ/mol
# GULP energy per Si atom -5572.931016 kJ/mol
# Density = 2.154034 g / cm^3
# Si number density = 21.589481 Si / 1000 Ang^3
#
#
#
# Elastic Constant Matrix: (Units=GPa)
#
#
# Indices 1 2 3 4 5 6 
#
# 1 46.6306 -5.5691 28.4947 0.0003 -10.4935 -0.0001
# 2 -5.5691 122.2754 41.5910 0.0006 -4.7883 -0.0002
# 3 28.4947 41.5910 155.5862 0.0016 -18.9178 -0.0007
# 4 0.0003 0.0006 0.0016 21.8063 -0.0008 0.4828
# 5 -10.4935 -4.7883 -18.9178 -0.0008 31.8388 0.0003
# 6 -0.0001 -0.0002 -0.0007 0.4828 0.0003 12.1573
#
#
#
# Elastic Compliance Matrix: (Units=1/GPa)
#
#
# Indices 1 2 3 4 5 6 
#
# 1 0.026185 0.003091 -0.004868 0.000000 0.006203 0.000000
# 2 0.003091 0.009361 -0.002990 0.000000 0.000650 0.000000
# 3 -0.004868 -0.002990 0.008481 0.000000 0.002985 0.000000
# 4 0.000000 0.000000 0.000000 0.045899 0.000001 -0.001823
# 5 0.006203 0.000650 0.002985 0.000001 0.035324 -0.000001
# 6 0.000000 0.000000 0.000000 -0.001823 -0.000001 0.082327
#
#
# Mechanical properties :
#
#
# Convention : Reuss Voigt Hill
#
# Bulk Modulus (GPa) = 28.98981 50.39172 39.69077
# Shear Modulus (GPa) = 21.87155 30.49218 26.18187
#
# Velocity S-wave (km/s) = 3.18632 3.76222 3.48618
# Velocity P-wave (km/s) = 5.19555 6.50107 5.88463
#
# Compressibility (1/GPa) = 0.03449488
#
# Stress axis : x y z
#
# Youngs Moduli (GPa) = 38.19030 106.82184 117.91159
#
# Poissons Ratio (x) = -0.33021 0.57396
# Poissons Ratio (y) = -0.11805 0.35250
# Poissons Ratio (z) = 0.18590 0.31935
#
# Static dielectric constant tensor:
#      x y z
#    x 1.853100 0.000000 -0.059190 
#    y 0.000000 1.803240 0.000000 
#    z -0.059190 0.000000 1.723820 
# 
# From -- ./inp_files/278781.got.cif
#   From: 2010.05.17/outbox.cif.g08.bks.cpg/sg12_140_cif.got.tgz:278781.got - 2010.06.03 13:09:07.
