data_PCOD9220661
_publ_section_title
;
Structure prediction by ZEFSAII (Michael W. Deem and Ramdas Pophale) SiO2 
 PCOD9220661
Probable space group: C 2/M
;
_chemical_formula_sum "Si O2"
_cell_formula_units_Z 64
_cell_length_a 14.757331
_cell_length_b 8.000157
_cell_length_c 29.100366
_cell_angle_alpha 90.000000
_cell_angle_beta 54.533441
_cell_angle_gamma 90.000000
_cell_volume 2798.153309
_symmetry_space_group_name_H-M "C 2/M"
_symmetry_group_IT_number 12
_symmetry_cell_setting 'monoclinic'
loop_
_space_group_symop_operation_xyz
x,y,z
-x,y,-z
-x,-y,-z
x,-y,z
1/2+x,1/2+y,z
1/2-x,1/2+y,-z
1/2-x,1/2-y,-z
1/2+x,1/2-y,z
loop_
_atom_site_type_symbol
_atom_site_label
_atom_site_fract_x
_atom_site_fract_y
_atom_site_fract_z
Si Si1 0.741502 0.304917 0.865976
Si Si2 0.494107 0.803924 0.053546
Si Si3 0.356588 0.301593 0.439578
Si Si4 0.187232 0.701818 0.249613
Si Si5 0.671781 0.704946 0.655409
Si Si6 0.070342 0.798786 0.777271
Si Si7 0.880335 0.804432 0.901846
Si Si8 0.594218 0.799272 0.369632
O O1 0.765468 0.500000 0.863860
O O2 0.612147 0.283479 0.892119
O O3 0.812277 0.231764 0.802467
O O4 0.767495 0.220423 0.906872
O O5 0.600259 0.777932 0.054719
O O6 0.469755 0.000000 0.058469
O O7 0.500000 0.737584 0.000000
O O8 0.355983 0.500000 0.436673
O O9 0.250000 0.250000 0.500000
O O10 0.349423 0.233158 0.389585
O O11 0.475537 0.248428 0.424700
O O12 0.174654 0.500000 0.249920
O O13 0.310569 0.731911 0.233849
O O14 0.105969 0.765713 0.313431
O O15 0.668920 0.500000 0.656411
O O16 0.585796 0.762440 0.720309
O O17 0.796200 0.754736 0.634957
O O18 0.972256 0.733775 0.838555
O O19 0.056051 0.000000 0.779356
O O20 0.899257 0.000000 0.903167
O O21 0.600161 0.000000 0.365692
#
# Coordination Sequence:
#
# PCOD9220661 Si02
#       8
#     8   8   8   8   8   8   8   8
#     4  11  22  38  61  92 126 160 198 242 298 362
#     4  11  25  45  65  86 118 160 207 256 301 351
#     4  11  23  38  56  81 113 151 195 240 287 344
#     4   8  15  31  57  86 117 150 185 231 292 351
#     4   8  17  34  57  81 110 150 191 229 281 349
#     4   8  14  30  56  85 115 148 188 234 285 348
#     4  11  22  37  62  93 124 159 198 244 300 357
#     4   9  18  36  60  83 110 147 190 236 285 343
#
# _framework density 22.872226000000001
#
# number of rings (size 3 to 8) (size 9 to 14) (size 15 to 20)
#    0.000    2.375    1.250    3.000    1.750    2.000 
#    0.000    4.375    0.000    0.000    0.000    0.000 
#    0.000    0.000    0.000    0.000    0.000    0.000 
#
# Total GULP energy -178719.929433 kJ/mol
# GULP energy per Si atom -5584.997795 kJ/mol
# Density = 2.282017 g / cm^3
# Si number density = 22.872226 Si / 1000 Ang^3
#
#
#
# Elastic Constant Matrix: (Units=GPa)
#
#
# Indices 1 2 3 4 5 6 
#
# 1 63.5754 -0.8814 4.4780 0.0000 10.9321 0.0001
# 2 -0.8814 29.2586 0.6740 0.0001 2.5410 0.0001
# 3 4.4780 0.6740 54.4017 0.0000 4.8812 0.0001
# 4 0.0000 0.0001 0.0000 16.6814 0.0000 -2.2277
# 5 10.9321 2.5410 4.8812 0.0000 34.5430 0.0001
# 6 0.0001 0.0001 0.0001 -2.2277 0.0001 21.8985
#
#
#
# Elastic Compliance Matrix: (Units=1/GPa)
#
#
# Indices 1 2 3 4 5 6 
#
# 1 0.016707 0.000979 -0.000918 0.000000 -0.005230 0.000000
# 2 0.000979 0.034457 -0.000255 0.000000 -0.002808 0.000000
# 3 -0.000918 -0.000255 0.018669 0.000000 -0.002329 0.000000
# 4 0.000000 0.000000 0.000000 0.060773 0.000000 0.006182
# 5 -0.005230 -0.002808 -0.002329 0.000000 0.031140 0.000000
# 6 0.000000 0.000000 0.000000 0.006182 0.000000 0.046294
#
#
# Mechanical properties :
#
#
# Convention : Reuss Voigt Hill
#
# Bulk Modulus (GPa) = 14.40018 17.30854 15.85436
# Shear Modulus (GPa) = 21.59099 24.15560 22.87330
#
# Velocity S-wave (km/s) = 3.07576 3.25331 3.16578
# Velocity P-wave (km/s) = 4.35010 4.65789 4.50662
#
# Compressibility (1/GPa) = 0.06944359
#
# Stress axis : x y z
#
# Youngs Moduli (GPa) = 59.85578 29.02149 53.56341
#
# Poissons Ratio (x) = -0.02840 0.04918
# Poissons Ratio (y) = -0.05858 0.01368
# Poissons Ratio (z) = 0.05495 0.00741
#
# Static dielectric constant tensor:
#      x y z
#    x 1.876070 0.000000 -0.006070 
#    y 0.000000 1.812910 0.000000 
#    z -0.006070 0.000000 1.917860 
# 
# From -- ./inp_files/375396.got.cif
#   From: 2010.05.17/outbox.cif.g08.bks.cpg/sg12_188_cif.got.tgz:375396.got - 2010.06.03 13:09:07.
