data_PCOD9220099
_publ_section_title
;
Structure prediction by ZEFSAII (Michael W. Deem and Ramdas Pophale) SiO2 
 PCOD9220099
Probable space group: C 2/M
;
_chemical_formula_sum "Si O2"
_cell_formula_units_Z 56
_cell_length_a 9.790365
_cell_length_b 16.573531
_cell_length_c 28.111116
_cell_angle_alpha 90.000000
_cell_angle_beta 142.222386
_cell_angle_gamma 90.000000
_cell_volume 2794.266298
_symmetry_space_group_name_H-M "C 2/M"
_symmetry_group_IT_number 12
_symmetry_cell_setting 'monoclinic'
loop_
_space_group_symop_operation_xyz
x,y,z
-x,y,-z
-x,-y,-z
x,-y,z
1/2+x,1/2+y,z
1/2-x,1/2+y,-z
1/2-x,1/2-y,-z
1/2+x,1/2-y,z
loop_
_atom_site_type_symbol
_atom_site_label
_atom_site_fract_x
_atom_site_fract_y
_atom_site_fract_z
Si Si1 0.276801 0.359146 0.306655
Si Si2 0.515067 0.705324 0.798737
Si Si3 0.849322 0.408329 0.832129
Si Si4 0.692089 0.091450 0.676560
Si Si5 0.749523 0.705425 0.050567
Si Si6 0.278877 0.379076 0.411718
Si Si7 0.768795 0.315026 0.411319
O O1 0.215234 0.405326 0.241360
O O2 0.255696 0.404754 0.350631
O O3 0.536913 0.332519 0.374516
O O4 0.108330 0.282317 0.258774
O O5 0.691551 0.657638 0.814586
O O6 0.320082 0.640169 0.752918
O O7 0.632482 0.736415 0.878339
O O8 0.822950 0.500000 0.842393
O O9 0.098460 0.374622 0.908307
O O10 0.432961 0.094800 0.616543
O O11 0.739818 0.138858 0.641067
O O12 0.770228 0.000000 0.694152
O O13 0.500000 0.689677 0.000000
O O14 0.750000 0.750000 0.000000
O O15 0.500000 0.404937 0.500000
O O16 0.283467 0.281306 0.410073
O O17 0.000000 0.341174 0.500000
#
# Coordination Sequence:
#
# PCOD9220099 Si02
#       7
#     8   8   8   8   8   8   8
#     4  11  21  38  66  93 124 169 225 270 315 379
#     4  11  22  40  68  93 128 167 213 252 318 384
#     4  11  24  42  70 102 132 167 211 268 320 376
#     4  12  25  40  60  92 131 167 213 273 329 377
#     4  11  24  45  72 103 131 170 210 252 311 392
#     4  11  22  39  62  89 127 174 226 273 327 381
#     4  11  21  38  63  90 120 172 229 273 315 381
#
# _framework density 20.041039999999999
#
# number of rings (size 3 to 8) (size 9 to 14) (size 15 to 20)
#    0.000    0.857    5.714    1.286    2.000    3.714 
#    0.000    3.571    0.000    0.000    0.000    0.000 
#    0.000    0.000    0.000    0.000    0.000    0.000 
#
# Total GULP energy -156452.600844 kJ/mol
# GULP energy per Si atom -5587.592887 kJ/mol
# Density = 1.999543 g / cm^3
# Si number density = 20.041040 Si / 1000 Ang^3
#
#
#
# Elastic Constant Matrix: (Units=GPa)
#
#
# Indices 1 2 3 4 5 6 
#
# 1 93.3416 30.6556 29.0943 0.0000 15.8665 0.0000
# 2 30.6556 118.0345 38.6524 0.0000 1.7050 0.0000
# 3 29.0943 38.6524 118.8612 0.0000 15.8801 0.0000
# 4 0.0000 0.0000 0.0000 -12.1528 0.0000 -15.9367
# 5 15.8665 1.7050 15.8801 0.0000 46.1295 0.0000
# 6 0.0000 0.0000 0.0000 -15.9367 0.0000 3.3211
#
#
#
# Elastic Compliance Matrix: (Units=1/GPa)
#
#
# Indices 1 2 3 4 5 6 
#
# 1 0.012771 -0.002687 -0.001759 0.000000 -0.003688 0.000000
# 2 -0.002687 0.010072 -0.002821 0.000000 0.001523 0.000000
# 3 -0.001759 -0.002821 0.010132 0.000000 -0.002779 0.000000
# 4 0.000000 0.000000 0.000000 -0.011283 0.000000 -0.054144
# 5 -0.003688 0.001523 -0.002779 0.000000 0.023847 0.000000
# 6 0.000000 0.000000 0.000000 -0.054144 0.000000 0.041289
#
#
# Mechanical properties :
#
#
# Convention : Reuss Voigt Hill
#
# Bulk Modulus (GPa) = 54.23064 58.56020 56.39542
# Shear Modulus (GPa) = 46.50735 22.91522 34.71129
#
# Velocity S-wave (km/s) = 4.82249 3.38511 4.16626
# Velocity P-wave (km/s) = 7.62411 6.67549 7.16552
#
# Compressibility (1/GPa) = 0.01843976
#
# Stress axis : x y z
#
# Youngs Moduli (GPa) = 78.30093 99.28663 98.69313
#
# Poissons Ratio (x) = 0.26683 0.17365
# Poissons Ratio (y) = 0.21043 0.27841
# Poissons Ratio (z) = 0.13777 0.28008
#
# Static dielectric constant tensor:
#      x y z
#    x 1.714970 0.000000 0.010100 
#    y 0.000000 1.709290 0.000000 
#    z 0.010100 0.000000 1.726310 
# 
# From -- ./inp_files/356765.got.cif
#   From: 2010.05.17/outbox.cif.g08.bks.cpg/sg12_179_cif.got.tgz:356765.got - 2010.06.03 13:09:07.
