data_PCOD9220535
_publ_section_title
;
Structure prediction by ZEFSAII (Michael W. Deem and Ramdas Pophale) SiO2 
 PCOD9220535
Probable space group: C 2/M
;
_chemical_formula_sum "Si O2"
_cell_formula_units_Z 48
_cell_length_a 27.719475
_cell_length_b 17.275659
_cell_length_c 14.141761
_cell_angle_alpha 90.000000
_cell_angle_beta 21.061367
_cell_angle_gamma 90.000000
_cell_volume 2433.672360
_symmetry_space_group_name_H-M "C 2/M"
_symmetry_group_IT_number 12
_symmetry_cell_setting 'monoclinic'
loop_
_space_group_symop_operation_xyz
x,y,z
-x,y,-z
-x,-y,-z
x,-y,z
1/2+x,1/2+y,z
1/2-x,1/2+y,-z
1/2-x,1/2-y,-z
1/2+x,1/2-y,z
loop_
_atom_site_type_symbol
_atom_site_label
_atom_site_fract_x
_atom_site_fract_y
_atom_site_fract_z
Si Si1 0.942567 0.838672 0.001930
Si Si2 0.304908 0.850891 0.786764
Si Si3 0.918212 0.407701 0.776879
Si Si4 0.021206 0.913753 0.261929
Si Si5 0.313679 0.240255 0.486666
Si Si6 0.779246 0.183323 0.742998
O O1 0.977835 0.895343 0.851846
O O2 0.026869 0.758718 0.820245
O O3 0.780409 0.830604 0.304247
O O4 0.000000 0.860738 0.000000
O O5 0.356944 0.862913 0.798125
O O6 0.427264 0.882491 0.499679
O O7 0.271451 0.763878 0.814463
O O8 0.172190 0.901033 0.018858
O O9 0.908200 0.500000 0.781666
O O10 0.834022 0.375833 0.017986
O O11 0.924989 0.854089 0.491516
O O12 0.973456 0.000000 0.367434
O O13 0.250000 0.250000 0.500000
O O14 0.274135 0.300815 0.640546
#
# Coordination Sequence:
#
# PCOD9220535 Si02
#       6
#     8   8   8   8   8   8
#     4   9  18  33  54  81 113 147 185 232 283 338
#     4  11  22  40  60  83 114 152 200 238 280 345
#     4  11  24  41  59  84 118 156 190 237 297 344
#     4  11  22  36  56  85 118 149 186 238 291 338
#     4   9  18  33  55  85 114 144 188 239 283 330
#     4  11  22  37  61  87 114 150 197 236 284 340
#
# _framework density 19.723279999999999
#
# number of rings (size 3 to 8) (size 9 to 14) (size 15 to 20)
#    0.000    1.667    1.667    4.000    2.333    2.333 
#    0.000    1.667    0.000    0.000    0.000    1.167 
#    0.000    0.000    0.000    0.000    0.000    0.000 
#
# Total GULP energy -133647.829024 kJ/mol
# GULP energy per Si atom -5568.659543 kJ/mol
# Density = 1.967839 g / cm^3
# Si number density = 19.723280 Si / 1000 Ang^3
#
#
#
# Elastic Constant Matrix: (Units=GPa)
#
#
# Indices 1 2 3 4 5 6 
#
# 1 38.5904 4.7750 12.4916 -0.0001 -5.0839 0.0001
# 2 4.7750 67.5134 -0.7837 -0.0002 4.3419 0.0002
# 3 12.4916 -0.7837 50.8795 -0.0001 0.3121 0.0002
# 4 -0.0001 -0.0002 -0.0001 12.2851 0.0001 -5.8098
# 5 -5.0839 4.3419 0.3121 0.0001 27.1738 -0.0001
# 6 0.0001 0.0002 0.0002 -5.8098 -0.0001 3.1693
#
#
#
# Elastic Compliance Matrix: (Units=1/GPa)
#
#
# Indices 1 2 3 4 5 6 
#
# 1 0.029376 -0.002547 -0.007288 -0.000001 0.005987 -0.000002
# 2 -0.002547 0.015190 0.000877 -0.000002 -0.002914 -0.000004
# 3 -0.007288 0.000877 0.021468 -0.000002 -0.001750 -0.000005
# 4 -0.000001 -0.000002 -0.000002 0.611630 0.000003 1.121197
# 5 0.005987 -0.002914 -0.001750 0.000003 0.038406 0.000007
# 6 -0.000002 -0.000004 -0.000005 1.121197 0.000007 2.370824
#
#
# Mechanical properties :
#
#
# Convention : Reuss Voigt Hill
#
# Bulk Modulus (GPa) = 20.78259 21.10544 20.94402
# Shear Modulus (GPa) = 1.60213 17.89234 9.74723
#
# Velocity S-wave (km/s) = 0.90226 3.01519 2.22547
# Velocity P-wave (km/s) = 3.41253 4.77973 4.15278
#
# Compressibility (1/GPa) = 0.04811720
#
# Stress axis : x y z
#
# Youngs Moduli (GPa) = 34.04109 65.83455 46.58117
#
# Poissons Ratio (x) = 0.16770 0.33949
# Poissons Ratio (y) = 0.08671 -0.04086
# Poissons Ratio (z) = 0.24810 -0.05775
#
# Static dielectric constant tensor:
#      x y z
#    x 1.717200 0.000000 -0.001060 
#    y 0.000000 1.625960 0.000000 
#    z -0.001060 0.000000 1.744980 
# 
# From -- ./inp_files/204507.got.cif
#   From: 2010.05.17/outbox.cif.g08.bks.cpg/sg12_103_cif.got.tgz:204507.got - 2010.06.03 13:09:07.
