data_PCOD9220118
_publ_section_title
;
Structure prediction by ZEFSAII (Michael W. Deem and Ramdas Pophale) SiO2 
 PCOD9220118
Probable space group: C 2/M
;
_chemical_formula_sum "Si O2"
_cell_formula_units_Z 42
_cell_length_a 13.119548
_cell_length_b 27.174746
_cell_length_c 8.888978
_cell_angle_alpha 90.000000
_cell_angle_beta 34.401257
_cell_angle_gamma 90.000000
_cell_volume 1790.495345
_symmetry_space_group_name_H-M "C 2/M"
_symmetry_group_IT_number 12
_symmetry_cell_setting 'monoclinic'
loop_
_space_group_symop_operation_xyz
x,y,z
-x,y,-z
-x,-y,-z
x,-y,z
1/2+x,1/2+y,z
1/2-x,1/2+y,-z
1/2-x,1/2-y,-z
1/2+x,1/2-y,z
loop_
_atom_site_type_symbol
_atom_site_label
_atom_site_fract_x
_atom_site_fract_y
_atom_site_fract_z
Si Si1 0.760825 0.643059 0.859133
Si Si2 0.213797 0.764337 0.718007
Si Si3 0.912184 0.904696 0.416960
Si Si4 0.280592 0.555350 0.289193
Si Si5 0.000000 0.000000 0.500000
Si Si6 0.325484 0.835437 0.105533
O O1 0.553612 0.633423 0.169220
O O2 0.865371 0.656971 0.882591
O O3 0.782104 0.685313 0.708786
O O4 0.800858 0.590707 0.736243
O O5 0.250000 0.750000 0.500000
O O6 0.267717 0.717246 0.752450
O O7 0.000000 0.768947 0.000000
O O8 0.765039 0.919836 0.470788
O O9 0.807612 0.877860 0.677507
O O10 0.994880 0.955957 0.375870
O O11 0.212616 0.500000 0.368043
O O12 0.500000 0.554243 0.000000
O O13 0.500000 0.836719 0.000000
#
# Coordination Sequence:
#
# PCOD9220118 Si02
#       6
#     8   8   8   8   2   8
#     4  11  21  38  65  94 124 171 225 276 329 392
#     4  11  23  42  66  98 134 176 226 283 342 405
#     4  11  21  39  66  97 129 168 227 279 334 399
#     4   9  18  31  57  88 118 148 200 272 328 373
#     4  12  20  36  72 100 126 170 228 280 342 390
#     4  11  24  40  59  90 134 173 218 272 337 405
#
# _framework density 23.457196
#
# number of rings (size 3 to 8) (size 9 to 14) (size 15 to 20)
#    0.000    1.333    2.857    4.571    1.333    0.000 
#    0.000   12.857    0.000    1.143    0.000    0.000 
#    0.000    0.000    0.000    0.000    0.000    0.000 
#
# Total GULP energy -117155.255361 kJ/mol
# GULP energy per Si atom -5578.821684 kJ/mol
# Density = 2.340381 g / cm^3
# Si number density = 23.457196 Si / 1000 Ang^3
#
#
#
# Elastic Constant Matrix: (Units=GPa)
#
#
# Indices 1 2 3 4 5 6 
#
# 1 114.6149 64.1789 48.8029 0.0000 40.4805 0.0000
# 2 64.1789 186.0447 53.8815 0.0000 21.4753 0.0000
# 3 48.8029 53.8815 114.9543 0.0000 22.4027 0.0000
# 4 0.0000 0.0000 0.0000 28.2614 0.0000 21.3346
# 5 40.4805 21.4753 22.4027 0.0000 48.1569 0.0000
# 6 0.0000 0.0000 0.0000 21.3346 0.0000 33.4937
#
#
#
# Elastic Compliance Matrix: (Units=1/GPa)
#
#
# Indices 1 2 3 4 5 6 
#
# 1 0.015414 -0.003272 -0.003046 0.000000 -0.010081 0.000000
# 2 -0.003272 0.007022 -0.002010 0.000000 0.000554 0.000000
# 3 -0.003046 -0.002010 0.011284 0.000000 -0.001792 0.000000
# 4 0.000000 0.000000 0.000000 0.068158 0.000000 -0.043415
# 5 -0.010081 0.000554 -0.001792 0.000000 0.029827 0.000000
# 6 0.000000 0.000000 0.000000 -0.043415 0.000000 0.057510
#
#
# Mechanical properties :
#
#
# Convention : Reuss Voigt Hill
#
# Bulk Modulus (GPa) = 58.60136 83.26009 70.93072
# Shear Modulus (GPa) = 23.63415 38.56578 31.09997
#
# Velocity S-wave (km/s) = 3.17763 4.05914 3.64513
# Velocity P-wave (km/s) = 6.20480 7.58554 6.92964
#
# Compressibility (1/GPa) = 0.01706445
#
# Stress axis : x y z
#
# Youngs Moduli (GPa) = 64.87471 142.41113 88.62251
#
# Poissons Ratio (x) = 0.46591 0.26993
# Poissons Ratio (y) = 0.21224 0.17816
# Poissons Ratio (z) = 0.19760 0.28630
#
# Static dielectric constant tensor:
#      x y z
#    x 1.811600 0.000000 0.047280 
#    y 0.000000 1.870410 0.000000 
#    z 0.047280 0.000000 1.889070 
# 
# From -- ./inp_files/66749.got.cif
#   From: 2010.05.17/outbox.cif.g08.bks.cpg/sg12_34_cif.got.tgz:66749.got - 2010.06.03 13:09:07.
