data_PCOD9220333
_publ_section_title
;
Structure prediction by ZEFSAII (Michael W. Deem and Ramdas Pophale) SiO2 
 PCOD9220333
Probable space group: C 2/M
;
_chemical_formula_sum "Si O2"
_cell_formula_units_Z 56
_cell_length_a 27.000451
_cell_length_b 18.882827
_cell_length_c 8.449527
_cell_angle_alpha 90.000000
_cell_angle_beta 33.956039
_cell_angle_gamma 90.000000
_cell_volume 2406.232875
_symmetry_space_group_name_H-M "C 2/M"
_symmetry_group_IT_number 12
_symmetry_cell_setting 'monoclinic'
loop_
_space_group_symop_operation_xyz
x,y,z
-x,y,-z
-x,-y,-z
x,-y,z
1/2+x,1/2+y,z
1/2-x,1/2+y,-z
1/2-x,1/2-y,-z
1/2+x,1/2-y,z
loop_
_atom_site_type_symbol
_atom_site_label
_atom_site_fract_x
_atom_site_fract_y
_atom_site_fract_z
Si Si1 0.806601 0.420302 0.705107
Si Si2 0.449371 0.700559 0.839638
Si Si3 0.522034 0.848056 0.625729
Si Si4 0.851615 0.419951 0.216273
Si Si5 0.305872 0.676940 0.496452
Si Si6 0.291665 0.713117 0.043445
Si Si7 0.559606 0.418260 0.680132
O O1 0.792212 0.500000 0.797834
O O2 0.839694 0.421429 0.436315
O O3 0.721635 0.370570 0.933247
O O4 0.881784 0.380193 0.603324
O O5 0.511410 0.767503 0.713927
O O6 0.504322 0.627891 0.699935
O O7 0.375748 0.691508 0.172096
O O8 0.392723 0.721652 0.833941
O O9 0.500000 0.853067 0.500000
O O10 0.448642 0.893287 0.913284
O O11 0.837441 0.500000 0.194388
O O12 0.778336 0.367710 0.339312
O O13 0.269663 0.750647 0.659924
O O14 0.355441 0.628417 0.495375
O O15 0.250000 0.750000 0.000000
O O16 0.577344 0.500000 0.589755
O O17 0.500000 0.420230 0.000000
#
# Coordination Sequence:
#
# PCOD9220333 Si02
#       7
#     8   8   8   8   8   8   8
#     4  11  25  43  65  95 133 172 220 275 330 394
#     4  11  22  41  69  94 130 174 219 274 325 390
#     4  12  25  43  63  97 134 177 225 270 332 401
#     4  11  23  41  68  98 133 174 219 276 334 395
#     4  11  21  42  67  99 129 168 224 276 326 397
#     4  12  24  42  65  96 131 171 221 267 330 392
#     4   9  20  37  64  99 129 163 211 272 333 388
#
# _framework density 23.272891000000001
#
# number of rings (size 3 to 8) (size 9 to 14) (size 15 to 20)
#    0.000    1.000    2.857    4.286    0.000    5.714 
#    0.000    0.714    0.000    3.000    0.000    0.000 
#    0.000    0.000    0.000    0.000    0.000    0.000 
#
# Total GULP energy -156804.088848 kJ/mol
# GULP energy per Si atom -5600.146030 kJ/mol
# Density = 2.321992 g / cm^3
# Si number density = 23.272891 Si / 1000 Ang^3
#
#
#
# Elastic Constant Matrix: (Units=GPa)
#
#
# Indices 1 2 3 4 5 6 
#
# 1 100.7991 37.4211 0.8906 0.0000 -18.7255 0.0000
# 2 37.4211 173.1405 13.1576 0.0000 -17.5781 0.0000
# 3 0.8906 13.1576 27.4074 0.0000 3.7157 0.0000
# 4 0.0000 0.0000 0.0000 6.6157 0.0000 -16.5700
# 5 -18.7255 -17.5781 3.7157 0.0000 29.5256 0.0000
# 6 0.0000 0.0000 0.0000 -16.5700 0.0000 20.1360
#
#
#
# Elastic Compliance Matrix: (Units=1/GPa)
#
#
# Indices 1 2 3 4 5 6 
#
# 1 0.011812 -0.001874 -0.000354 0.000000 0.006420 0.000000
# 2 -0.001874 0.006795 -0.003651 0.000000 0.003316 0.000000
# 3 -0.000354 -0.003651 0.039245 0.000000 -0.007337 0.000000
# 4 0.000000 0.000000 0.000000 -0.142452 0.000000 -0.117224
# 5 0.006420 0.003316 -0.007337 0.000000 0.040838 0.000000
# 6 0.000000 0.000000 0.000000 -0.117224 0.000000 -0.046802
#
#
# Mechanical properties :
#
#
# Convention : Reuss Voigt Hill
#
# Bulk Modulus (GPa) = 21.69492 44.92063 33.30778
# Shear Modulus (GPa) = -78.81484 27.91396 -25.45044
#
# Velocity S-wave (km/s) = -5.82572 3.46702 -3.31050
# Velocity P-wave (km/s) = 5.99248 5.94732 0.51926
#
# Compressibility (1/GPa) = 0.04609373
#
# Stress axis : x y z
#
# Youngs Moduli (GPa) = 84.65702 147.17057 25.48071
#
# Poissons Ratio (x) = 0.27584 0.00903
# Poissons Ratio (y) = 0.15867 0.09302
# Poissons Ratio (z) = 0.03001 0.53728
#
# Static dielectric constant tensor:
#      x y z
#    x 1.885130 0.000000 0.035140 
#    y 0.000000 1.855150 0.000000 
#    z 0.035140 0.000000 1.881590 
# 
# From -- ./inp_files/105940.got.cif
#   From: 2010.05.17/outbox.cif.g08.bks.cpg/sg12_53_cif.got.tgz:105940.got - 2010.06.03 13:09:07.
