data_PCOD9220443
_publ_section_title
;
Structure prediction by ZEFSAII (Michael W. Deem and Ramdas Pophale) SiO2 
 PCOD9220443
Probable space group: C 2/M
;
_chemical_formula_sum "Si O2"
_cell_formula_units_Z 40
_cell_length_a 14.267432
_cell_length_b 24.158970
_cell_length_c 15.110576
_cell_angle_alpha 90.000000
_cell_angle_beta 29.617199
_cell_angle_gamma 90.000000
_cell_volume 2574.011541
_symmetry_space_group_name_H-M "C 2/M"
_symmetry_group_IT_number 12
_symmetry_cell_setting 'monoclinic'
loop_
_space_group_symop_operation_xyz
x,y,z
-x,y,-z
-x,-y,-z
x,-y,z
1/2+x,1/2+y,z
1/2-x,1/2+y,-z
1/2-x,1/2-y,-z
1/2+x,1/2-y,z
loop_
_atom_site_type_symbol
_atom_site_label
_atom_site_fract_x
_atom_site_fract_y
_atom_site_fract_z
Si Si1 0.250321 0.437600 0.108729
Si Si2 0.295820 0.562301 0.281068
Si Si3 0.154397 0.677782 0.450418
Si Si4 0.600740 0.823376 0.176217
Si Si5 0.977780 0.755025 0.914196
O O1 0.187019 0.500000 0.139712
O O2 0.239587 0.430052 0.224002
O O3 0.140364 0.388649 0.150916
O O4 0.475511 0.434225 0.902996
O O5 0.238604 0.500000 0.354662
O O6 0.207573 0.612746 0.406390
O O7 0.340189 0.712172 0.272231
O O8 0.000000 0.686691 0.500000
O O9 0.061786 0.692271 0.620071
O O10 0.551733 0.799653 0.120428
O O11 0.793935 0.793519 0.049669
O O12 0.000000 0.744642 0.000000
#
# Coordination Sequence:
#
# PCOD9220443 Si02
#       5
#     8   8   8   8   8
#     4   9  16  30  49  73 102 133 166 200 247 301
#     4   9  17  28  47  74 108 135 157 198 248 305
#     4  12  20  31  52  75 109 134 166 203 246 303
#     4  11  22  34  55  75  98 140 166 210 253 297
#     4  11  22  38  51  72 104 132 177 210 250 290
#
# _framework density 15.539946
#
# number of rings (size 3 to 8) (size 9 to 14) (size 15 to 20)
#    0.000    1.600    6.000    1.800    0.000    1.200 
#    0.000    0.000    0.000    0.600    0.000    0.000 
#    0.000    4.000    0.000    0.000    0.000    0.000 
#
# Total GULP energy -111644.725571 kJ/mol
# GULP energy per Si atom -5582.236279 kJ/mol
# Density = 1.550458 g / cm^3
# Si number density = 15.539946 Si / 1000 Ang^3
#
#
#
# Elastic Constant Matrix: (Units=GPa)
#
#
# Indices 1 2 3 4 5 6 
#
# 1 76.6915 52.1020 41.5431 0.0036 7.6293 -0.0059
# 2 52.1020 109.7010 44.0980 0.0107 5.5602 -0.0125
# 3 41.5431 44.0980 98.4819 -0.0186 -0.0934 0.0104
# 4 0.0036 0.0107 -0.0186 1.6447 0.0068 5.0347
# 5 7.6293 5.5602 -0.0934 0.0068 16.7961 0.0028
# 6 -0.0059 -0.0125 0.0104 5.0347 0.0028 19.7723
#
#
#
# Elastic Compliance Matrix: (Units=1/GPa)
#
#
# Indices 1 2 3 4 5 6 
#
# 1 0.022323 -0.007841 -0.005913 -0.000236 -0.007577 0.000066
# 2 -0.007841 0.014107 -0.003010 -0.000584 -0.001125 0.000157
# 3 -0.005913 -0.003010 0.014000 0.000955 0.003760 -0.000255
# 4 -0.000236 -0.000584 0.000955 2.756808 -0.000702 -0.701973
# 5 -0.007577 -0.001125 0.003760 -0.000702 0.063373 0.000165
# 6 0.000066 0.000157 -0.000255 -0.701973 0.000165 0.229321
#
#
# Mechanical properties :
#
#
# Convention : Reuss Voigt Hill
#
# Bulk Modulus (GPa) = 59.16629 62.26228 60.71429
# Shear Modulus (GPa) = 1.59282 17.45139 9.52210
#
# Velocity S-wave (km/s) = 1.01351 3.35476 2.47806
# Velocity P-wave (km/s) = 6.28697 7.42690 6.88058
#
# Compressibility (1/GPa) = 0.01690151
#
# Stress axis : x y z
#
# Youngs Moduli (GPa) = 44.79671 70.88645 71.42838
#
# Poissons Ratio (x) = 0.55585 0.42233
# Poissons Ratio (y) = 0.35127 0.21502
# Poissons Ratio (z) = 0.26487 0.21339
#
# Static dielectric constant tensor:
#      x y z
#    x 1.483050 -0.000010 -0.020700 
#    y -0.000010 1.525850 0.000010 
#    z -0.020700 0.000010 1.545060 
# 
# From -- ./inp_files/50049.got.cif
#   From: 2010.05.17/outbox.cif.g08.bks.cpg/sg12_26_cif.got.tgz:50049.got - 2010.06.03 13:09:07.
