data_PCOD9220629
_publ_section_title
;
Structure prediction by ZEFSAII (Michael W. Deem and Ramdas Pophale) SiO2 
 PCOD9220629
Probable space group: C 2/M
;
_chemical_formula_sum "Si O2"
_cell_formula_units_Z 48
_cell_length_a 25.318045
_cell_length_b 17.775360
_cell_length_c 5.093511
_cell_angle_alpha 90.000000
_cell_angle_beta 102.233823
_cell_angle_gamma 90.000000
_cell_volume 2240.215041
_symmetry_space_group_name_H-M "C 2/M"
_symmetry_group_IT_number 12
_symmetry_cell_setting 'monoclinic'
loop_
_space_group_symop_operation_xyz
x,y,z
-x,y,-z
-x,-y,-z
x,-y,z
1/2+x,1/2+y,z
1/2-x,1/2+y,-z
1/2-x,1/2-y,-z
1/2+x,1/2-y,z
loop_
_atom_site_type_symbol
_atom_site_label
_atom_site_fract_x
_atom_site_fract_y
_atom_site_fract_z
Si Si1 0.447382 0.576841 0.121368
Si Si2 0.840933 0.660715 0.287099
Si Si3 0.561402 0.266568 0.597956
Si Si4 0.210354 0.500000 0.779695
Si Si5 0.361223 0.628181 0.664648
Si Si6 0.210232 0.000000 0.640379
Si Si7 0.700644 0.764328 0.251925
O O1 0.446184 0.500000 0.292163
O O2 0.448141 0.659803 0.236157
O O3 0.500000 0.573082 0.000000
O O4 0.395211 0.575826 0.886375
O O5 0.898271 0.699822 0.270693
O O6 0.827757 0.573269 0.246613
O O7 0.833468 0.681744 0.586625
O O8 0.799103 0.699437 0.035224
O O9 0.500000 0.237148 0.500000
O O10 0.596414 0.311510 0.413392
O O11 0.246436 0.500000 0.552832
O O12 0.254646 0.500000 0.059370
O O13 0.326694 0.575440 0.432934
O O14 0.323527 0.681096 0.799430
O O15 0.750000 0.750000 0.500000
#
# Coordination Sequence:
#
# PCOD9220629 Si02
#       7
#     8   8   8   4   8   4   8
#     4  11  22  37  59  88 132 174 214 257 315 382
#     4  11  24  42  67  92 125 172 215 275 331 379
#     4  11  24  41  63  95 131 172 218 274 324 390
#     4  12  26  48  65  95 130 170 224 278 329 383
#     4  11  23  37  59  92 128 171 215 254 319 387
#     4  12  28  42  66  97 137 176 212 272 323 385
#     4  11  22  39  63  92 124 165 216 266 320 387
#
# _framework density 21.426517
#
# number of rings (size 3 to 8) (size 9 to 14) (size 15 to 20)
#    0.000    0.833    4.167    3.500    3.500    1.667 
#    0.000    0.417    0.000    0.000    0.000    5.250 
#    0.000    0.000    0.000    0.000    0.000    0.000 
#
# Total GULP energy -133738.021776 kJ/mol
# GULP energy per Si atom -5572.417574 kJ/mol
# Density = 2.137775 g / cm^3
# Si number density = 21.426517 Si / 1000 Ang^3
#
#
#
# Elastic Constant Matrix: (Units=GPa)
#
#
# Indices 1 2 3 4 5 6 
#
# 1 89.2709 47.3990 20.3651 0.0000 22.0671 0.0000
# 2 47.3990 127.2285 28.1214 0.0000 26.1343 0.0000
# 3 20.3651 28.1214 81.2333 0.0000 5.5876 0.0000
# 4 0.0000 0.0000 0.0000 35.9813 0.0000 12.0486
# 5 22.0671 26.1343 5.5876 0.0000 37.4273 0.0000
# 6 0.0000 0.0000 0.0000 12.0486 0.0000 25.5613
#
#
#
# Elastic Compliance Matrix: (Units=1/GPa)
#
#
# Indices 1 2 3 4 5 6 
#
# 1 0.015256 -0.004028 -0.002026 0.000000 -0.005880 0.000000
# 2 -0.004028 0.010898 -0.002428 0.000000 -0.004872 0.000000
# 3 -0.002026 -0.002428 0.013599 0.000000 0.000859 0.000000
# 4 0.000000 0.000000 0.000000 0.033001 0.000000 -0.015555
# 5 -0.005880 -0.004872 0.000859 0.000000 0.033459 0.000000
# 6 0.000000 0.000000 0.000000 -0.015555 0.000000 0.046454
#
#
# Mechanical properties :
#
#
# Convention : Reuss Voigt Hill
#
# Bulk Modulus (GPa) = 43.87822 54.38929 49.13375
# Shear Modulus (GPa) = 28.21229 33.25047 30.73138
#
# Velocity S-wave (km/s) = 3.63257 3.94361 3.79128
# Velocity P-wave (km/s) = 6.17390 6.79524 6.49201
#
# Compressibility (1/GPa) = 0.02279035
#
# Stress axis : x y z
#
# Youngs Moduli (GPa) = 65.54697 91.76017 73.53264
#
# Poissons Ratio (x) = 0.36962 0.14896
# Poissons Ratio (y) = 0.26403 0.17851
# Poissons Ratio (z) = 0.13279 0.22276
#
# Static dielectric constant tensor:
#      x y z
#    x 1.897560 0.000000 -0.014200 
#    y 0.000000 1.869220 0.000000 
#    z -0.014200 0.000000 1.862710 
# 
# From -- ./inp_files/25045.got.cif
#   From: 2010.05.17/outbox.cif.g08.bks.cpg/sg12_13_cif.got.tgz:25045.got - 2010.06.03 13:09:07.
