data_PCOD9220091
_publ_section_title
;
Structure prediction by ZEFSAII (Michael W. Deem and Ramdas Pophale) SiO2 
 PCOD9220091
Probable space group: C 2/M
;
_chemical_formula_sum "Si O2"
_cell_formula_units_Z 64
_cell_length_a 11.368419
_cell_length_b 15.778960
_cell_length_c 18.536393
_cell_angle_alpha 90.000000
_cell_angle_beta 110.037941
_cell_angle_gamma 90.000000
_cell_volume 3123.810719
_symmetry_space_group_name_H-M "C 2/M"
_symmetry_group_IT_number 12
_symmetry_cell_setting 'monoclinic'
loop_
_space_group_symop_operation_xyz
x,y,z
-x,y,-z
-x,-y,-z
x,-y,z
1/2+x,1/2+y,z
1/2-x,1/2+y,-z
1/2-x,1/2-y,-z
1/2+x,1/2-y,z
loop_
_atom_site_type_symbol
_atom_site_label
_atom_site_fract_x
_atom_site_fract_y
_atom_site_fract_z
Si Si1 0.271047 0.090384 0.931414
Si Si2 0.629091 0.141372 0.199936
Si Si3 0.735193 0.321732 0.197491
Si Si4 0.115356 0.693130 0.914057
Si Si5 0.003153 0.125624 0.918014
Si Si6 0.149178 0.247107 0.544898
Si Si7 0.095997 0.398156 0.641369
Si Si8 0.687401 0.905328 0.370084
O O1 0.299700 0.110235 0.855396
O O2 0.122728 0.086834 0.906383
O O3 0.328426 0.000000 0.963125
O O4 0.319180 0.155449 0.001972
O O5 0.670717 0.239665 0.220581
O O6 0.485861 0.133187 0.144983
O O7 0.654750 0.094085 0.278720
O O8 0.791009 0.289849 0.132439
O O9 0.625760 0.385879 0.150766
O O10 0.835065 0.364641 0.271468
O O11 0.036310 0.774209 0.922368
O O12 0.000000 0.098732 0.000000
O O13 0.250000 0.250000 0.500000
O O14 0.148317 0.336039 0.589509
O O15 0.206763 0.165846 0.598364
O O16 0.000000 0.232132 0.500000
O O17 0.115890 0.500000 0.635249
O O18 0.945494 0.384804 0.618281
O O19 0.726345 0.000000 0.401556
#
# Coordination Sequence:
#
# PCOD9220091 Si02
#       8
#     8   8   8   8   8   8   8   8
#     4  12  25  38  54  84 128 170 225 295 351 395
#     4  11  22  39  66  91 127 175 230 282 344 403
#     4  11  21  39  69  91 126 177 229 279 335 408
#     4  11  21  38  62  87 116 171 228 284 337 399
#     4  11  22  38  59  82 119 172 231 283 343 407
#     4  12  26  49  82 112 147 186 228 278 349 431
#     4  11  25  46  75 110 144 184 233 285 345 420
#     4  11  24  44  74 108 145 187 233 284 348 419
#
# _framework density 20.487797
#
# number of rings (size 3 to 8) (size 9 to 14) (size 15 to 20)
#    0.000    0.750    6.250    2.625    0.000    3.750 
#    2.250    0.000    0.000    0.000    0.000    0.000 
#    0.000    0.000    0.000    0.000    0.000    0.000 
#
# Total GULP energy -178563.717848 kJ/mol
# GULP energy per Si atom -5580.116183 kJ/mol
# Density = 2.044117 g / cm^3
# Si number density = 20.487797 Si / 1000 Ang^3
#
#
#
# Elastic Constant Matrix: (Units=GPa)
#
#
# Indices 1 2 3 4 5 6 
#
# 1 108.9855 26.6076 46.5580 0.0000 -1.5666 0.0000
# 2 26.6076 96.2234 32.0080 0.0000 1.7872 0.0000
# 3 46.5580 32.0080 84.1891 0.0000 -4.2975 0.0000
# 4 0.0000 0.0000 0.0000 -13.1413 0.0000 28.0407
# 5 -1.5666 1.7872 -4.2975 0.0000 38.6257 0.0000
# 6 0.0000 0.0000 0.0000 28.0407 0.0000 -34.0230
#
#
#
# Elastic Compliance Matrix: (Units=1/GPa)
#
#
# Indices 1 2 3 4 5 6 
#
# 1 0.012152 -0.001282 -0.006240 0.000000 -0.000142 0.000000
# 2 -0.001282 0.012076 -0.003936 0.000000 -0.001049 0.000000
# 3 -0.006240 -0.003936 0.016918 0.000000 0.001811 0.000000
# 4 0.000000 0.000000 0.000000 0.100311 0.000000 0.082674
# 5 -0.000142 -0.001049 0.001811 0.000000 0.026134 0.000000
# 6 0.000000 0.000000 0.000000 0.082674 0.000000 0.038745
#
#
# Mechanical properties :
#
#
# Convention : Reuss Voigt Hill
#
# Bulk Modulus (GPa) = 54.85485 55.52725 55.19105
# Shear Modulus (GPa) = 21.24691 10.57391 15.91041
#
# Velocity S-wave (km/s) = 3.22382 2.27427 2.78974
# Velocity P-wave (km/s) = 6.37886 5.83591 6.11342
#
# Compressibility (1/GPa) = 0.01822993
#
# Stress axis : x y z
#
# Youngs Moduli (GPa) = 82.28916 82.81167 59.10941
#
# Poissons Ratio (x) = 0.10616 0.36886
# Poissons Ratio (y) = 0.10549 0.23263
# Poissons Ratio (z) = 0.51351 0.32592
#
# Static dielectric constant tensor:
#      x y z
#    x 1.747800 0.000000 -0.013180 
#    y 0.000000 1.824040 0.000000 
#    z -0.013180 0.000000 1.744740 
# 
# From -- ./inp_files/305455.got.cif
#   From: 2010.05.17/outbox.cif.g08.bks.cpg/sg12_153_cif.got.tgz:305455.got - 2010.06.03 13:09:07.
