data_PCOD9220816
_publ_section_title
;
Structure prediction by ZEFSAII (Michael W. Deem and Ramdas Pophale) SiO2 
 PCOD9220816
Probable space group: C 2/M
;
_chemical_formula_sum "Si O2"
_cell_formula_units_Z 56
_cell_length_a 26.060894
_cell_length_b 29.195625
_cell_length_c 13.728809
_cell_angle_alpha 90.000000
_cell_angle_beta 161.646282
_cell_angle_gamma 90.000000
_cell_volume 3289.185868
_symmetry_space_group_name_H-M "C 2/M"
_symmetry_group_IT_number 12
_symmetry_cell_setting 'monoclinic'
loop_
_space_group_symop_operation_xyz
x,y,z
-x,y,-z
-x,-y,-z
x,-y,z
1/2+x,1/2+y,z
1/2-x,1/2+y,-z
1/2-x,1/2-y,-z
1/2+x,1/2-y,z
loop_
_atom_site_type_symbol
_atom_site_label
_atom_site_fract_x
_atom_site_fract_y
_atom_site_fract_z
Si Si1 0.782379 0.355209 0.367427
Si Si2 0.814543 0.301518 0.629086
Si Si3 0.246171 0.447791 0.370473
Si Si4 0.378966 0.300764 0.370144
Si Si5 0.585048 0.644790 0.367424
Si Si6 0.491176 0.800763 0.370141
Si Si7 0.875702 0.552209 0.629532
O O1 0.804771 0.327959 0.509046
O O2 0.906829 0.334831 0.513232
O O3 0.818016 0.408264 0.454251
O O4 0.599138 0.348931 0.000001
O O5 0.750000 0.250000 0.500000
O O6 0.704275 0.327959 0.509045
O O7 0.000000 0.301038 0.000000
O O8 0.300818 0.500000 0.450979
O O9 0.363767 0.408265 0.545756
O O10 0.216899 0.442598 0.433800
O O11 0.067405 0.442199 0.000002
O O12 0.500000 0.313244 0.500000
O O13 0.393597 0.334833 0.486768
O O14 0.432001 0.250001 0.500005
O O15 0.195338 0.299051 0.000002
O O16 0.500000 0.813242 0.500000
O O17 0.849844 0.500000 0.549027
#
# Coordination Sequence:
#
# PCOD9220816 Si02
#       7
#     8   8   8   8   8   8   8
#     4  12  23  36  55  83 114 147 185 227 276 332
#     4  12  24  38  53  76 111 148 184 225 277 331
#     4   9  18  34  56  81 111 147 186 228 276 329
#     4  11  22  39  60  83 111 146 188 233 276 326
#     4  12  23  36  55  83 114 147 185 227 276 332
#     4  11  22  39  60  83 111 146 188 233 276 326
#     4   9  18  34  56  81 111 147 186 228 276 329
#
# _framework density 17.025489
#
# number of rings (size 3 to 8) (size 9 to 14) (size 15 to 20)
#    0.000    1.143    1.429    9.000    0.000    0.571 
#    0.000    1.429    0.000    0.857    0.000    0.000 
#    0.000    0.000    0.000    0.000    0.000    0.000 
#
# Total GULP energy -156552.642719 kJ/mol
# GULP energy per Si atom -5591.165811 kJ/mol
# Density = 1.698674 g / cm^3
# Si number density = 17.025489 Si / 1000 Ang^3
#
#
#
# Elastic Constant Matrix: (Units=GPa)
#
#
# Indices 1 2 3 4 5 6 
#
# 1 101.6558 78.8976 67.5461 0.0000 1.2027 0.0000
# 2 78.8976 123.4204 73.2038 0.0000 -0.5109 0.0000
# 3 67.5461 73.2038 170.5544 0.0000 5.0207 0.0000
# 4 0.0000 0.0000 0.0000 33.8696 0.0000 1.9449
# 5 1.2027 -0.5109 5.0207 0.0000 24.0464 0.0000
# 6 0.0000 0.0000 0.0000 1.9449 0.0000 12.3176
#
#
#
# Elastic Compliance Matrix: (Units=1/GPa)
#
#
# Indices 1 2 3 4 5 6 
#
# 1 0.020914 -0.011362 -0.003389 0.000000 -0.000580 0.000000
# 2 -0.011362 0.017077 -0.002875 0.000000 0.001531 0.000000
# 3 -0.003389 -0.002875 0.008488 0.000000 -0.001664 0.000000
# 4 0.000000 0.000000 0.000000 0.029795 0.000000 -0.004705
# 5 -0.000580 0.001531 -0.001664 0.000000 0.041995 0.000000
# 6 0.000000 0.000000 0.000000 -0.004705 0.000000 0.081928
#
#
# Mechanical properties :
#
#
# Convention : Reuss Voigt Hill
#
# Bulk Modulus (GPa) = 89.06506 92.76950 90.91728
# Shear Modulus (GPa) = 20.90372 25.77892 23.34132
#
# Velocity S-wave (km/s) = 3.50778 3.89541 3.70667
# Velocity P-wave (km/s) = 8.29653 8.65097 8.47560
#
# Compressibility (1/GPa) = 0.01122775
#
# Stress axis : x y z
#
# Youngs Moduli (GPa) = 47.81487 58.55812 117.80707
#
# Poissons Ratio (x) = 0.66532 0.39926
# Poissons Ratio (y) = 0.54326 0.33870
# Poissons Ratio (z) = 0.16205 0.16836
#
# Static dielectric constant tensor:
#      x y z
#    x 1.547550 0.000000 0.001820 
#    y 0.000000 1.569050 0.000000 
#    z 0.001820 0.000000 1.567730 
# 
# From -- ./inp_files/124372.got.cif
#   From: 2010.05.17/outbox.cif.g08.bks.cpg/sg12_63_cif.got.tgz:124372.got - 2010.06.03 13:09:07.
