data_PCOD9220560
_publ_section_title
;
Structure prediction by ZEFSAII (Michael W. Deem and Ramdas Pophale) SiO2 
 PCOD9220560
Probable space group: C 2/M
;
_chemical_formula_sum "Si O2"
_cell_formula_units_Z 40
_cell_length_a 19.393863
_cell_length_b 8.770912
_cell_length_c 22.148349
_cell_angle_alpha 90.000000
_cell_angle_beta 146.524874
_cell_angle_gamma 90.000000
_cell_volume 2078.044975
_symmetry_space_group_name_H-M "C 2/M"
_symmetry_group_IT_number 12
_symmetry_cell_setting 'monoclinic'
loop_
_space_group_symop_operation_xyz
x,y,z
-x,y,-z
-x,-y,-z
x,-y,z
1/2+x,1/2+y,z
1/2-x,1/2+y,-z
1/2-x,1/2-y,-z
1/2+x,1/2-y,z
loop_
_atom_site_type_symbol
_atom_site_label
_atom_site_fract_x
_atom_site_fract_y
_atom_site_fract_z
Si Si1 0.399132 0.174972 0.213607
Si Si2 0.305732 0.677466 0.844057
Si Si3 0.622949 0.817796 0.230529
Si Si4 0.652437 0.180163 0.002989
Si Si5 0.162424 0.179816 0.384827
O O1 0.336882 0.182870 0.234858
O O2 0.280373 0.226457 0.086257
O O3 0.518914 0.279250 0.295561
O O4 0.432608 0.000000 0.224146
O O5 0.344461 0.500000 0.875169
O O6 0.323752 0.743412 0.791227
O O7 0.374910 0.775196 0.946571
O O8 0.685906 0.754617 0.336692
O O9 0.633105 0.000000 0.234409
O O10 0.474128 0.779839 0.124259
O O11 0.675949 0.000000 0.014996
O O12 0.250000 0.250000 0.500000
O O13 0.180193 0.000000 0.394521
#
# Coordination Sequence:
#
# PCOD9220560 Si02
#       5
#     8   8   8   8   8
#     4   9  20  38  60  86 120 154 191 237 288 345
#     4   9  19  34  57  89 124 156 190 235 286 344
#     4  11  22  36  59  89 122 156 196 238 284 344
#     4   9  18  33  57  89 123 157 190 233 287 342
#     4  12  26  44  64  82 111 151 197 246 293 345
#
# _framework density 19.248861999999999
#
# number of rings (size 3 to 8) (size 9 to 14) (size 15 to 20)
#    1.200    0.800    0.000    4.200    0.000    6.400 
#    0.000    1.000    0.000    6.000    0.000    0.000 
#    0.000    0.000    0.000    0.000    0.000    0.000 
#
# Total GULP energy -111576.999281 kJ/mol
# GULP energy per Si atom -5578.849964 kJ/mol
# Density = 1.920505 g / cm^3
# Si number density = 19.248862 Si / 1000 Ang^3
#
#
#
# Elastic Constant Matrix: (Units=GPa)
#
#
# Indices 1 2 3 4 5 6 
#
# 1 60.9244 4.5961 18.4970 0.0000 -11.8281 0.0000
# 2 4.5961 64.5784 15.5119 0.0000 -1.3207 0.0000
# 3 18.4970 15.5119 103.0828 0.0000 -18.6937 0.0000
# 4 0.0000 0.0000 0.0000 28.3884 0.0000 -1.0443
# 5 -11.8281 -1.3207 -18.6937 0.0000 19.1137 0.0000
# 6 0.0000 0.0000 0.0000 -1.0443 0.0000 32.5086
#
#
#
# Elastic Compliance Matrix: (Units=1/GPa)
#
#
# Indices 1 2 3 4 5 6 
#
# 1 0.018893 -0.000796 -0.001410 0.000000 0.010258 0.000000
# 2 -0.000796 0.016136 -0.002641 0.000000 -0.001960 0.000000
# 3 -0.001410 -0.002641 0.012351 0.000000 0.011024 0.000000
# 4 0.000000 0.000000 0.000000 0.035267 0.000000 0.001133
# 5 0.010258 -0.001960 0.011024 0.000000 0.069312 0.000000
# 6 0.000000 0.000000 0.000000 0.001133 0.000000 0.030797
#
#
# Mechanical properties :
#
#
# Convention : Reuss Voigt Hill
#
# Bulk Modulus (GPa) = 26.53537 33.97727 30.25632
# Shear Modulus (GPa) = 24.38870 28.66754 26.52812
#
# Velocity S-wave (km/s) = 3.56338 3.86335 3.71639
# Velocity P-wave (km/s) = 5.54487 6.13111 5.84534
#
# Compressibility (1/GPa) = 0.03768554
#
# Stress axis : x y z
#
# Youngs Moduli (GPa) = 52.92846 61.97341 80.96823
#
# Poissons Ratio (x) = 0.04934 0.11418
# Poissons Ratio (y) = 0.04214 0.21382
# Poissons Ratio (z) = 0.07464 0.16366
#
# Static dielectric constant tensor:
#      x y z
#    x 1.734100 0.000000 -0.023560 
#    y 0.000000 1.635570 0.000000 
#    z -0.023560 0.000000 1.661690 
# 
# From -- ./inp_files/281889.got.cif
#   From: 2010.05.17/outbox.cif.g08.bks.cpg/sg12_141_cif.got.tgz:281889.got - 2010.06.03 13:09:07.
