data_PCOD9220418
_publ_section_title
;
Structure prediction by ZEFSAII (Michael W. Deem and Ramdas Pophale) SiO2 
 PCOD9220418
Probable space group: C 2/M
;
_chemical_formula_sum "Si O2"
_cell_formula_units_Z 48
_cell_length_a 23.228388
_cell_length_b 8.975334
_cell_length_c 20.217225
_cell_angle_alpha 90.000000
_cell_angle_beta 135.981801
_cell_angle_gamma 90.000000
_cell_volume 2928.905168
_symmetry_space_group_name_H-M "C 2/M"
_symmetry_group_IT_number 12
_symmetry_cell_setting 'monoclinic'
loop_
_space_group_symop_operation_xyz
x,y,z
-x,y,-z
-x,-y,-z
x,-y,z
1/2+x,1/2+y,z
1/2-x,1/2+y,-z
1/2-x,1/2-y,-z
1/2+x,1/2-y,z
loop_
_atom_site_type_symbol
_atom_site_label
_atom_site_fract_x
_atom_site_fract_y
_atom_site_fract_z
Si Si1 0.840043 0.179174 0.584998
Si Si2 0.619729 0.819374 0.645383
Si Si3 0.057954 0.319516 0.449175
Si Si4 0.055965 0.672072 0.979443
Si Si5 0.196956 0.179560 0.173506
Si Si6 0.911294 0.821410 0.787185
O O1 0.750000 0.250000 0.500000
O O2 0.900124 0.241039 0.577915
O O3 0.875214 0.220890 0.686332
O O4 0.834376 0.000000 0.577319
O O5 0.604926 0.778923 0.556387
O O6 0.538030 0.776114 0.618677
O O7 0.708098 0.768012 0.745431
O O8 0.621119 0.000000 0.647233
O O9 0.062501 0.500000 0.445999
O O10 0.070337 0.500000 0.975671
O O11 0.999358 0.748742 0.877360
O O12 0.140978 0.752548 0.069304
O O13 0.000000 0.680381 0.000000
O O14 0.152913 0.218599 0.207056
O O15 0.195463 0.000000 0.166914
O O16 0.920557 0.000000 0.796705
#
# Coordination Sequence:
#
# PCOD9220418 Si02
#       6
#     8   8   8   8   8   8
#     4  11  22  34  49  71  98 127 159 193 232 279
#     4   8  15  29  51  73  94 125 161 195 231 279
#     4   9  17  32  51  71  96 126 161 196 232 276
#     4   9  17  28  43  67  96 121 148 189 239 280
#     4   9  15  27  48  70  91 120 158 192 227 276
#     4   9  18  31  47  67  93 125 157 189 227 277
#
# _framework density 16.388375
#
# number of rings (size 3 to 8) (size 9 to 14) (size 15 to 20)
#    0.000    2.833    0.000    3.000    0.000    6.000 
#    0.000    6.667    0.000    1.000    0.000    0.000 
#    0.000    0.000    0.000    0.000    0.000    0.000 
#
# Total GULP energy -133747.390123 kJ/mol
# GULP energy per Si atom -5572.807922 kJ/mol
# Density = 1.635107 g / cm^3
# Si number density = 16.388375 Si / 1000 Ang^3
#
#
#
# Elastic Constant Matrix: (Units=GPa)
#
#
# Indices 1 2 3 4 5 6 
#
# 1 80.8999 32.3848 78.8641 0.0000 9.9391 0.0000
# 2 32.3848 29.7359 52.4011 0.0000 3.7499 0.0000
# 3 78.8641 52.4011 176.2565 0.0000 23.3975 0.0000
# 4 0.0000 0.0000 0.0000 22.3248 0.0000 -2.8534
# 5 9.9391 3.7499 23.3975 0.0000 29.7079 0.0000
# 6 0.0000 0.0000 0.0000 -2.8534 0.0000 22.0082
#
#
#
# Elastic Compliance Matrix: (Units=1/GPa)
#
#
# Indices 1 2 3 4 5 6 
#
# 1 0.025073 -0.016159 -0.006223 0.000000 -0.001448 0.000000
# 2 -0.016159 0.083032 -0.018741 0.000000 0.009686 0.000000
# 3 -0.006223 -0.018741 0.015008 0.000000 -0.007373 0.000000
# 4 0.000000 0.000000 0.000000 0.045548 0.000000 0.005905
# 5 -0.001448 0.009686 -0.007373 0.000000 0.038730 0.000000
# 6 0.000000 0.000000 0.000000 0.005905 0.000000 0.046203
#
#
# Mechanical properties :
#
#
# Convention : Reuss Voigt Hill
#
# Bulk Modulus (GPa) = 24.46861 68.24360 46.35610
# Shear Modulus (GPa) = 14.30771 23.02432 18.66601
#
# Velocity S-wave (km/s) = 2.95793 3.75229 3.37854
# Velocity P-wave (km/s) = 5.16030 7.77848 6.60051
#
# Compressibility (1/GPa) = 0.04086869
#
# Stress axis : x y z
#
# Youngs Moduli (GPa) = 39.88313 12.04357 66.63025
#
# Poissons Ratio (x) = 0.19461 0.41461
# Poissons Ratio (y) = 0.64446 1.24872
# Poissons Ratio (z) = 0.24817 0.22571
#
# Static dielectric constant tensor:
#      x y z
#    x 1.537270 0.000000 0.012410 
#    y 0.000000 1.548180 0.000000 
#    z 0.012410 0.000000 1.547160 
# 
# From -- ./inp_files/280803.got.cif
#   From: 2010.05.17/outbox.cif.g08.bks.cpg/sg12_141_cif.got.tgz:280803.got - 2010.06.03 13:09:07.
