data_PCOD9220273
_publ_section_title
;
Structure prediction by ZEFSAII (Michael W. Deem and Ramdas Pophale) SiO2 
 PCOD9220273
Probable space group: C 2/M
;
_chemical_formula_sum "Si O2"
_cell_formula_units_Z 48
_cell_length_a 17.598461
_cell_length_b 30.138366
_cell_length_c 9.214830
_cell_angle_alpha 90.000000
_cell_angle_beta 149.935684
_cell_angle_gamma 90.000000
_cell_volume 2448.471302
_symmetry_space_group_name_H-M "C 2/M"
_symmetry_group_IT_number 12
_symmetry_cell_setting 'monoclinic'
loop_
_space_group_symop_operation_xyz
x,y,z
-x,y,-z
-x,-y,-z
x,-y,z
1/2+x,1/2+y,z
1/2-x,1/2+y,-z
1/2-x,1/2-y,-z
1/2+x,1/2-y,z
loop_
_atom_site_type_symbol
_atom_site_label
_atom_site_fract_x
_atom_site_fract_y
_atom_site_fract_z
Si Si1 0.000000 0.078529 0.000000
Si Si2 0.828364 0.432173 0.258838
Si Si3 0.093234 0.772292 0.796546
Si Si4 0.746899 0.000000 0.092724
Si Si5 0.213620 0.149893 0.197347
Si Si6 0.607707 0.000000 0.399758
Si Si7 0.846987 0.000000 0.570344
Si Si8 0.112201 0.282697 0.321579
O O1 0.894544 0.113164 0.911370
O O2 0.923922 0.044431 0.760487
O O3 0.807828 0.380172 0.241516
O O4 0.817486 0.458170 0.392998
O O5 0.000000 0.441439 0.500000
O O6 0.733556 0.457365 0.979025
O O7 0.000000 0.786636 0.500000
O O8 0.987619 0.739031 0.714762
O O9 0.250000 0.750000 0.000000
O O10 0.130771 0.811998 0.969134
O O11 0.850063 0.000000 0.403248
O O12 0.572285 0.000000 0.867478
O O13 0.311857 0.173562 0.484492
O O14 0.675375 0.000000 0.351322
O O15 0.250000 0.250000 0.500000
O O16 0.000000 0.290197 0.000000
#
# Coordination Sequence:
#
# PCOD9220273 Si02
#       8
#     4   8   8   4   8   4   4   8
#     4  11  26  42  62  98 130 186 212 282 330 393
#     4   9  20  38  62  95 128 169 205 268 333 382
#     4  12  25  44  70  99 130 177 227 282 347 405
#     4   9  20  37  67  94 133 167 220 264 334 402
#     4  12  24  42  70  92 141 166 236 274 335 402
#     4   9  16  40  64  88 128 172 207 264 332 397
#     4  11  21  41  65  91 139 173 222 259 337 400
#     4  12  24  47  71  95 132 184 225 279 351 412
#
# _framework density 19.604068000000002
#
# number of rings (size 3 to 8) (size 9 to 14) (size 15 to 20)
#    0.000    1.167    5.000    2.250    2.333    1.333 
#    6.000    0.833    0.000    0.000    0.000    0.000 
#    0.000    0.000    0.000    0.000    0.000    0.000 
#
# Total GULP energy -133904.778250 kJ/mol
# GULP energy per Si atom -5579.365760 kJ/mol
# Density = 1.955945 g / cm^3
# Si number density = 19.604068 Si / 1000 Ang^3
#
#
#
# Elastic Constant Matrix: (Units=GPa)
#
#
# Indices 1 2 3 4 5 6 
#
# 1 88.0351 37.1037 37.9651 0.0000 -5.3154 0.0000
# 2 37.1037 123.4646 51.2637 0.0000 -0.7467 0.0000
# 3 37.9651 51.2637 124.3278 0.0000 -25.6110 0.0000
# 4 0.0000 0.0000 0.0000 5.5012 0.0000 -2.8988
# 5 -5.3154 -0.7467 -25.6110 0.0000 40.9099 0.0000
# 6 0.0000 0.0000 0.0000 -2.8988 0.0000 25.3824
#
#
#
# Elastic Compliance Matrix: (Units=1/GPa)
#
#
# Indices 1 2 3 4 5 6 
#
# 1 0.013900 -0.002897 -0.003087 0.000000 -0.000180 0.000000
# 2 -0.002897 0.010641 -0.004065 0.000000 -0.002727 0.000000
# 3 -0.003087 -0.004065 0.012128 0.000000 0.007117 0.000000
# 4 0.000000 0.000000 0.000000 0.193417 0.000000 0.022089
# 5 -0.000180 -0.002727 0.007117 0.000000 0.028827 0.000000
# 6 0.000000 0.000000 0.000000 0.022089 0.000000 0.041920
#
#
# Mechanical properties :
#
#
# Convention : Reuss Voigt Hill
#
# Bulk Modulus (GPa) = 60.34155 65.38806 62.86480
# Shear Modulus (GPa) = 15.31602 28.32504 21.82053
#
# Velocity S-wave (km/s) = 2.79815 3.80525 3.33988
# Velocity P-wave (km/s) = 6.42545 7.26177 6.85637
#
# Compressibility (1/GPa) = 0.01657233
#
# Stress axis : x y z
#
# Youngs Moduli (GPa) = 71.93992 93.97371 82.45226
#
# Poissons Ratio (x) = 0.27220 0.25456
# Poissons Ratio (y) = 0.20838 0.33516
# Poissons Ratio (z) = 0.22210 0.38199
#
# Static dielectric constant tensor:
#      x y z
#    x 1.784110 0.000000 0.050670 
#    y 0.000000 1.660630 0.000000 
#    z 0.050670 0.000000 1.703060 
# 
# From -- ./inp_files/80904.got.cif
#   From: 2010.05.17/outbox.cif.g08.bks.cpg/sg12_41_cif.got.tgz:80904.got - 2010.06.03 13:09:07.
