data_PCOD9220538
_publ_section_title
;
Structure prediction by ZEFSAII (Michael W. Deem and Ramdas Pophale) SiO2 
 PCOD9220538
Probable space group: C 2/M
;
_chemical_formula_sum "Si O2"
_cell_formula_units_Z 56
_cell_length_a 35.692931
_cell_length_b 14.311866
_cell_length_c 14.229764
_cell_angle_alpha 90.000000
_cell_angle_beta 25.674879
_cell_angle_gamma 90.000000
_cell_volume 3149.406699
_symmetry_space_group_name_H-M "C 2/M"
_symmetry_group_IT_number 12
_symmetry_cell_setting 'monoclinic'
loop_
_space_group_symop_operation_xyz
x,y,z
-x,y,-z
-x,-y,-z
x,-y,z
1/2+x,1/2+y,z
1/2-x,1/2+y,-z
1/2-x,1/2-y,-z
1/2+x,1/2-y,z
loop_
_atom_site_type_symbol
_atom_site_label
_atom_site_fract_x
_atom_site_fract_y
_atom_site_fract_z
Si Si1 0.780617 0.111969 0.184789
Si Si2 0.249696 0.355038 0.037149
Si Si3 0.938289 0.246623 0.821344
Si Si4 0.901543 0.599888 0.757395
Si Si5 0.134424 0.611294 0.656802
Si Si6 0.952805 0.388221 0.960042
Si Si7 0.558091 0.602665 0.462898
O O1 0.713394 0.146685 0.415817
O O2 0.790801 0.000000 0.167959
O O3 0.746671 0.133123 0.156085
O O4 0.870482 0.164875 0.995768
O O5 0.341945 0.393927 0.792939
O O6 0.250000 0.250000 0.000000
O O7 0.166130 0.397242 0.174684
O O8 0.896769 0.307749 0.830967
O O9 0.026149 0.192471 0.593703
O O10 0.949726 0.321365 0.877861
O O11 0.886983 0.500000 0.841245
O O12 0.000000 0.599816 0.500000
O O13 0.146712 0.500000 0.636743
O O14 0.116986 0.642541 0.802912
O O15 0.046001 0.623725 0.798639
O O16 0.942935 0.500000 0.962194
O O17 0.500000 0.606908 0.500000
O O18 0.541497 0.500000 0.544591
#
# Coordination Sequence:
#
# PCOD9220538 Si02
#       7
#     8   8   8   8   8   8   8
#     4  11  22  36  57  82 110 148 192 232 274 327
#     4  12  22  38  57  80 115 155 191 231 278 331
#     4  12  22  34  56  83 113 149 188 233 277 335
#     4  11  24  38  51  78 115 149 187 232 285 337
#     4   8  18  37  59  82 108 139 184 236 287 340
#     4   9  19  37  59  84 111 141 180 237 295 338
#     4  11  22  38  56  79 116 156 196 234 268 318
#
# _framework density 17.781126
#
# number of rings (size 3 to 8) (size 9 to 14) (size 15 to 20)
#    0.000    1.429    2.857    4.286    4.000    0.571 
#    0.000    0.000    0.000    0.000    0.000    8.000 
#    0.000    0.000    0.000    0.000    0.000    0.000 
#
# Total GULP energy -156134.090481 kJ/mol
# GULP energy per Si atom -5576.217517 kJ/mol
# Density = 1.774066 g / cm^3
# Si number density = 17.781126 Si / 1000 Ang^3
#
#
#
# Elastic Constant Matrix: (Units=GPa)
#
#
# Indices 1 2 3 4 5 6 
#
# 1 68.2881 20.8825 26.5923 0.0000 -1.3064 0.0000
# 2 20.8825 96.0891 16.4896 0.0000 6.1339 0.0000
# 3 26.5923 16.4896 95.0549 0.0000 -4.0552 0.0000
# 4 0.0000 0.0000 0.0000 54.6714 0.0000 -4.1820
# 5 -1.3064 6.1339 -4.0552 0.0000 26.9568 0.0000
# 6 0.0000 0.0000 0.0000 -4.1820 0.0000 24.9941
#
#
#
# Elastic Compliance Matrix: (Units=1/GPa)
#
#
# Indices 1 2 3 4 5 6 
#
# 1 0.017260 -0.003078 -0.004256 0.000000 0.000896 0.000000
# 2 -0.003078 0.011480 -0.001256 0.000000 -0.002950 0.000000
# 3 -0.004256 -0.001256 0.012009 0.000000 0.001886 0.000000
# 4 0.000000 0.000000 0.000000 0.018528 0.000000 0.003100
# 5 0.000896 -0.002950 0.001886 0.000000 0.038095 0.000000
# 6 0.000000 0.000000 0.000000 0.003100 0.000000 0.040528
#
#
# Mechanical properties :
#
#
# Convention : Reuss Voigt Hill
#
# Bulk Modulus (GPa) = 42.43034 43.04009 42.73522
# Shear Modulus (GPa) = 30.68674 34.35566 32.52120
#
# Velocity S-wave (km/s) = 4.15879 4.40038 4.28129
# Velocity P-wave (km/s) = 6.85383 7.07643 6.96602
#
# Compressibility (1/GPa) = 0.02356804
#
# Stress axis : x y z
#
# Youngs Moduli (GPa) = 57.93860 87.10949 83.26826
#
# Poissons Ratio (x) = 0.26810 0.35442
# Poissons Ratio (y) = 0.17832 0.10461
# Poissons Ratio (z) = 0.24661 0.10944
#
# Static dielectric constant tensor:
#      x y z
#    x 1.594770 0.000000 0.014610 
#    y 0.000000 1.645150 0.000000 
#    z 0.014610 0.000000 1.640050 
# 
# From -- ./inp_files/189638.got.cif
#   From: 2010.05.17/outbox.cif.g08.bks.cpg/sg12_95_cif.got.tgz:189638.got - 2010.06.03 13:09:07.
