data_PCOD9220379
_publ_section_title
;
Structure prediction by ZEFSAII (Michael W. Deem and Ramdas Pophale) SiO2 
 PCOD9220379
Probable space group: C 2/M
;
_chemical_formula_sum "Si O2"
_cell_formula_units_Z 24
_cell_length_a 10.563072
_cell_length_b 11.347826
_cell_length_c 13.199178
_cell_angle_alpha 90.000000
_cell_angle_beta 33.706888
_cell_angle_gamma 90.000000
_cell_volume 878.009668
_symmetry_space_group_name_H-M "C 2/M"
_symmetry_group_IT_number 12
_symmetry_cell_setting 'monoclinic'
loop_
_space_group_symop_operation_xyz
x,y,z
-x,y,-z
-x,-y,-z
x,-y,z
1/2+x,1/2+y,z
1/2-x,1/2+y,-z
1/2-x,1/2-y,-z
1/2+x,1/2-y,z
loop_
_atom_site_type_symbol
_atom_site_label
_atom_site_fract_x
_atom_site_fract_y
_atom_site_fract_z
Si Si1 0.733191 0.635232 0.781804
Si Si2 0.130383 0.500000 0.020394
Si Si3 0.485200 0.690301 0.273089
Si Si4 0.198301 0.000000 0.451847
O O1 0.798743 0.500000 0.714024
O O2 0.674757 0.706301 0.718175
O O3 0.907911 0.703728 0.735597
O O4 0.500000 0.629850 0.000000
O O5 0.298882 0.612003 0.910246
O O6 0.000000 0.500000 0.000000
O O7 0.939613 0.500000 0.233882
O O8 0.148204 0.890145 0.558054
O O9 0.000000 0.000000 0.500000
#
# Coordination Sequence:
#
# PCOD9220379 Si02
#       4
#     8   4   8   4
#     4  11  24  47  80 123 160 208 270 325 402 482
#     4  11  21  44  83 113 151 216 265 318 404 479
#     4  11  24  49  83 117 160 213 262 333 404 470
#     4  11  23  46  81 117 156 213 271 317 406 490
#
# _framework density 27.334551000000001
#
# number of rings (size 3 to 8) (size 9 to 14) (size 15 to 20)
#    0.000    1.000    6.667    2.000    0.000    0.000 
#    6.000    5.000    0.000    3.000    0.000    0.000 
#    0.000    0.000    0.000    0.000    0.000    0.000 
#
# Total GULP energy -67527.792183 kJ/mol
# GULP energy per Si atom -5627.316015 kJ/mol
# Density = 2.727234 g / cm^3
# Si number density = 27.334551 Si / 1000 Ang^3
#
#
#
# Elastic Constant Matrix: (Units=GPa)
#
#
# Indices 1 2 3 4 5 6 
#
# 1 274.2384 109.1245 64.2345 -0.0008 -1.4496 -0.0001
# 2 109.1245 133.2694 70.5178 -0.0025 -30.0063 0.0006
# 3 64.2345 70.5178 245.4036 -0.0081 24.2569 0.0021
# 4 -0.0008 -0.0025 -0.0081 24.2008 0.0022 -0.6608
# 5 -1.4496 -30.0063 24.2569 0.0022 49.8840 0.0001
# 6 -0.0001 0.0006 0.0021 -0.6608 0.0001 53.1347
#
#
#
# Elastic Compliance Matrix: (Units=1/GPa)
#
#
# Indices 1 2 3 4 5 6 
#
# 1 0.005842 -0.005869 0.000514 0.000000 -0.003610 0.000000
# 2 -0.005869 0.017770 -0.004843 -0.000001 0.012873 0.000000
# 3 0.000514 -0.004843 0.005902 0.000002 -0.005768 0.000000
# 4 0.000000 -0.000001 0.000002 0.041335 -0.000004 0.000514
# 5 -0.003610 0.012873 -0.005768 -0.000004 0.030490 0.000000
# 6 0.000000 0.000000 0.000000 0.000514 0.000000 0.018826
#
#
# Mechanical properties :
#
#
# Convention : Reuss Voigt Hill
#
# Bulk Modulus (GPa) = 109.65211 126.74056 118.19634
# Shear Modulus (GPa) = 34.81902 52.71286 43.76594
#
# Velocity S-wave (km/s) = 3.57292 4.39616 4.00574
# Velocity P-wave (km/s) = 7.56458 8.49914 8.04544
#
# Compressibility (1/GPa) = 0.00911975
#
# Stress axis : x y z
#
# Youngs Moduli (GPa) = 171.16814 56.27517 169.43312
#
# Poissons Ratio (x) = 0.33026 -0.08709
# Poissons Ratio (y) = 1.00452 0.82049
# Poissons Ratio (z) = -0.08799 0.27252
#
# Static dielectric constant tensor:
#      x y z
#    x 2.018310 0.000000 0.006080 
#    y 0.000000 2.244930 0.000000 
#    z 0.006080 0.000000 2.095420 
# 
# From -- ./inp_files/153136.got.cif
#   From: 2010.05.17/outbox.cif.g08.bks.cpg/sg12_77_cif.got.tgz:153136.got - 2010.06.03 13:09:07.
