data_PCOD9220714
_publ_section_title
;
Structure prediction by ZEFSAII (Michael W. Deem and Ramdas Pophale) SiO2 
 PCOD9220714
Probable space group: C 2/M
;
_chemical_formula_sum "Si O2"
_cell_formula_units_Z 56
_cell_length_a 8.642148
_cell_length_b 29.590251
_cell_length_c 15.366473
_cell_angle_alpha 90.000000
_cell_angle_beta 55.777911
_cell_angle_gamma 90.000000
_cell_volume 3249.215623
_symmetry_space_group_name_H-M "C 2/M"
_symmetry_group_IT_number 12
_symmetry_cell_setting 'monoclinic'
loop_
_space_group_symop_operation_xyz
x,y,z
-x,y,-z
-x,-y,-z
x,-y,z
1/2+x,1/2+y,z
1/2-x,1/2+y,-z
1/2-x,1/2-y,-z
1/2+x,1/2-y,z
loop_
_atom_site_type_symbol
_atom_site_label
_atom_site_fract_x
_atom_site_fract_y
_atom_site_fract_z
Si Si1 0.547274 0.000000 0.126993
Si Si2 0.812225 0.448006 0.500000
Si Si3 0.698741 0.500000 0.126993
Si Si4 0.433123 0.403962 0.880955
Si Si5 0.024522 0.629190 0.662892
Si Si6 0.350306 0.370810 0.337108
Si Si7 0.195035 0.403962 0.119044
Si Si8 0.683971 0.699707 0.500000
O O1 0.330297 0.000000 0.169703
O O2 0.612112 0.954379 0.152040
O O3 0.664244 0.000000 1.000000
O O4 0.755784 0.500000 0.500000
O O5 0.868494 0.417022 0.399439
O O6 0.667372 0.417022 0.600561
O O7 0.000000 0.450249 0.500000
O O8 0.583809 0.454379 0.152040
O O9 0.478599 0.372701 0.784542
O O10 0.614908 0.402555 0.885092
O O11 0.256096 0.394634 1.000000
O O12 0.156545 0.671009 0.599743
O O13 0.841919 0.631718 0.658081
O O14 0.952316 0.627299 0.784543
O O15 0.356029 0.328991 0.400258
O O16 0.500000 0.701052 0.500000
O O17 0.750000 0.750000 0.500000
#
# Coordination Sequence:
#
# PCOD9220714 Si02
#       8
#     4   8   4   8   8   8   8   8
#     4   9  17  27  39  60  95 140 183 217 247 281
#     4   8  14  24  41  65  94 132 172 204 240 285
#     4   9  17  27  39  60  95 140 183 217 247 281
#     4   9  17  29  47  71 100 136 177 215 248 293
#     4   9  18  32  51  75 103 133 170 209 253 304
#     4   9  18  32  51  75 103 133 170 209 253 304
#     4   9  17  29  47  71 100 136 177 215 248 293
#     4  11  22  38  60  80 101 124 159 207 258 311
#
# _framework density 17.234929000000001
#
# number of rings (size 3 to 8) (size 9 to 14) (size 15 to 20)
#    0.000    2.857    0.000    2.571    2.000    2.857 
#    0.000    0.000    0.000    2.571    0.000    0.000 
#    0.000    0.000    0.000    0.000    0.000    0.000 
#
# Total GULP energy -155944.721154 kJ/mol
# GULP energy per Si atom -5569.454327 kJ/mol
# Density = 1.719570 g / cm^3
# Si number density = 17.234929 Si / 1000 Ang^3
#
#
#
# Elastic Constant Matrix: (Units=GPa)
#
#
# Indices 1 2 3 4 5 6 
#
# 1 13.2169 24.1196 31.8859 0.0000 -2.3696 0.0000
# 2 24.1196 128.1699 72.3722 0.0000 -2.7694 0.0000
# 3 31.8859 72.3722 149.4098 0.0000 -5.4470 0.0000
# 4 0.0000 0.0000 0.0000 8.3086 0.0000 0.6886
# 5 -2.3696 -2.7694 -5.4470 0.0000 11.4851 0.0000
# 6 0.0000 0.0000 0.0000 0.6886 0.0000 20.3090
#
#
#
# Elastic Compliance Matrix: (Units=1/GPa)
#
#
# Indices 1 2 3 4 5 6 
#
# 1 0.182567 -0.016981 -0.030032 0.000000 0.019329 0.000000
# 2 -0.016981 0.012319 -0.002404 0.000000 -0.001673 0.000000
# 3 -0.030032 -0.002404 0.014267 0.000000 -0.000010 0.000000
# 4 0.000000 0.000000 0.000000 0.120697 0.000000 -0.004092
# 5 0.019329 -0.001673 -0.000010 0.000000 0.090649 0.000000
# 6 0.000000 0.000000 0.000000 -0.004092 0.000000 0.049378
#
#
# Mechanical properties :
#
#
# Convention : Reuss Voigt Hill
#
# Bulk Modulus (GPa) = 9.06471 60.83912 34.95191
# Shear Modulus (GPa) = 8.25787 18.84846 13.55316
#
# Velocity S-wave (km/s) = 2.19129 3.31058 2.80728
# Velocity P-wave (km/s) = 3.41662 7.07034 5.55261
#
# Compressibility (1/GPa) = 0.11031792
#
# Stress axis : x y z
#
# Youngs Moduli (GPa) = 5.47746 81.17471 70.09422
#
# Poissons Ratio (x) = 1.37840 2.10508
# Poissons Ratio (y) = 0.09301 0.16853
# Poissons Ratio (z) = 0.16450 0.19517
#
# Static dielectric constant tensor:
#      x y z
#    x 1.592440 0.000000 -0.002350 
#    y 0.000000 1.552520 0.000000 
#    z -0.002350 0.000000 1.633360 
# 
# From -- ./inp_files/199732.got.cif
#   From: 2010.05.17/outbox.cif.g08.bks.cpg/sg12_100_cif.got.tgz:199732.got - 2010.06.03 13:09:07.
