data_PCOD9220916
_publ_section_title
;
Structure prediction by ZEFSAII (Michael W. Deem and Ramdas Pophale) SiO2 
 PCOD9220916
Probable space group: C 2/M
;
_chemical_formula_sum "Si O2"
_cell_formula_units_Z 40
_cell_length_a 11.521703
_cell_length_b 15.231442
_cell_length_c 10.207086
_cell_angle_alpha 90.000000
_cell_angle_beta 61.517034
_cell_angle_gamma 90.000000
_cell_volume 1574.447035
_symmetry_space_group_name_H-M "C 2/M"
_symmetry_group_IT_number 12
_symmetry_cell_setting 'monoclinic'
loop_
_space_group_symop_operation_xyz
x,y,z
-x,y,-z
-x,-y,-z
x,-y,z
1/2+x,1/2+y,z
1/2-x,1/2+y,-z
1/2-x,1/2-y,-z
1/2+x,1/2-y,z
loop_
_atom_site_type_symbol
_atom_site_label
_atom_site_fract_x
_atom_site_fract_y
_atom_site_fract_z
Si Si1 0.706750 0.402616 0.105276
Si Si2 0.016436 0.234603 0.846178
Si Si3 0.445912 0.905038 0.768783
Si Si4 0.220569 0.345669 0.376268
Si Si5 0.655928 0.359000 0.421352
O O1 0.648327 0.500000 0.114859
O O2 0.608504 0.324067 0.123286
O O3 0.725655 0.391298 0.250925
O O4 0.833717 0.397969 0.942990
O O5 0.028624 0.316635 0.742885
O O6 0.143219 0.173120 0.773758
O O7 0.000000 0.269808 0.000000
O O8 0.375106 0.898989 0.666346
O O9 0.510329 0.000000 0.749284
O O10 0.270164 0.386930 0.485613
O O11 0.161657 0.247409 0.422865
O O12 0.500000 0.384454 0.500000
#
# Coordination Sequence:
#
# PCOD9220916 Si02
#       5
#     8   8   8   8   8
#     4  11  23  39  62  94 128 164 213 261 315 382
#     4  12  22  40  69  94 130 169 211 268 328 368
#     4  11  24  43  67  98 130 166 217 265 318 384
#     4  11  22  39  68  94 126 170 217 257 320 385
#     4  11  22  40  63  94 127 169 214 260 318 381
#
# _framework density 25.405746000000001
#
# number of rings (size 3 to 8) (size 9 to 14) (size 15 to 20)
#    0.000    0.800    6.000    1.800    0.000    2.800 
#    0.000    1.000    0.000   11.400    0.000    0.000 
#    0.000    0.000    0.000    0.000    0.000    0.000 
#
# Total GULP energy -112090.825488 kJ/mol
# GULP energy per Si atom -5604.541274 kJ/mol
# Density = 2.534792 g / cm^3
# Si number density = 25.405746 Si / 1000 Ang^3
#
#
#
# Elastic Constant Matrix: (Units=GPa)
#
#
# Indices 1 2 3 4 5 6 
#
# 1 79.1166 24.0059 41.6031 0.0000 27.4161 0.0000
# 2 24.0059 132.8425 1.1545 0.0000 11.9401 0.0000
# 3 41.6031 1.1545 138.6817 0.0000 19.7561 0.0000
# 4 0.0000 0.0000 0.0000 -0.4636 0.0000 8.2162
# 5 27.4161 11.9401 19.7561 0.0000 52.0465 0.0000
# 6 0.0000 0.0000 0.0000 8.2162 0.0000 12.0315
#
#
#
# Elastic Compliance Matrix: (Units=1/GPa)
#
#
# Indices 1 2 3 4 5 6 
#
# 1 0.018309 -0.002608 -0.004421 0.000000 -0.007368 0.000000
# 2 -0.002608 0.008063 0.000828 0.000000 -0.000790 0.000000
# 3 -0.004421 0.000828 0.008696 0.000000 -0.001162 0.000000
# 4 0.000000 0.000000 0.000000 -0.164626 0.000000 0.112422
# 5 -0.007368 -0.000790 -0.001162 0.000000 0.023717 0.000000
# 6 0.000000 0.000000 0.000000 0.112422 0.000000 0.006343
#
#
# Mechanical properties :
#
#
# Convention : Reuss Voigt Hill
#
# Bulk Modulus (GPa) = 44.12127 53.79642 48.95885
# Shear Modulus (GPa) = -62.86041 31.64803 -15.60619
#
# Velocity S-wave (km/s) = -4.97959 3.53328 -2.48115
# Velocity P-wave (km/s) = 3.95694 6.15356 3.33234
#
# Compressibility (1/GPa) = 0.02266481
#
# Stress axis : x y z
#
# Youngs Moduli (GPa) = 54.61814 124.02619 114.99975
#
# Poissons Ratio (x) = 0.32345 0.50843
# Poissons Ratio (y) = 0.14244 -0.09520
# Poissons Ratio (z) = 0.24148 -0.10267
#
# Static dielectric constant tensor:
#      x y z
#    x 1.998290 0.000000 -0.009810 
#    y 0.000000 1.929410 0.000000 
#    z -0.009810 0.000000 2.016040 
# 
# From -- ./inp_files/129595.got.cif
#   From: 2010.05.17/outbox.cif.g08.bks.cpg/sg12_65_cif.got.tgz:129595.got - 2010.06.03 13:09:07.
