data_PCOD9220743
_publ_section_title
;
Structure prediction by ZEFSAII (Michael W. Deem and Ramdas Pophale) SiO2 
 PCOD9220743
Probable space group: C 2/M
;
_chemical_formula_sum "Si O2"
_cell_formula_units_Z 64
_cell_length_a 14.745294
_cell_length_b 8.633660
_cell_length_c 32.167944
_cell_angle_alpha 90.000000
_cell_angle_beta 126.692942
_cell_angle_gamma 90.000000
_cell_volume 3283.707108
_symmetry_space_group_name_H-M "C 2/M"
_symmetry_group_IT_number 12
_symmetry_cell_setting 'monoclinic'
loop_
_space_group_symop_operation_xyz
x,y,z
-x,y,-z
-x,-y,-z
x,-y,z
1/2+x,1/2+y,z
1/2-x,1/2+y,-z
1/2-x,1/2-y,-z
1/2+x,1/2-y,z
loop_
_atom_site_type_symbol
_atom_site_label
_atom_site_fract_x
_atom_site_fract_y
_atom_site_fract_z
Si Si1 0.746719 0.815551 0.374027
Si Si2 0.802830 0.186428 0.219706
Si Si3 0.405873 0.687063 0.941191
Si Si4 0.518934 0.315534 0.332448
Si Si5 0.533147 0.817235 0.595474
Si Si6 0.837427 0.812947 0.133542
Si Si7 0.337696 0.685602 0.490281
Si Si8 0.060516 0.186820 0.145270
O O1 0.627993 0.731046 0.335536
O O2 0.844810 0.762911 0.370004
O O3 0.795386 0.770271 0.432933
O O4 0.731679 0.000000 0.368663
O O5 0.836786 0.234045 0.181979
O O6 0.679648 0.253959 0.195879
O O7 0.903155 0.231243 0.278138
O O8 0.795070 0.000000 0.218041
O O9 0.400878 0.500000 0.940452
O O10 0.281127 0.750932 0.916647
O O11 0.439341 0.734943 0.903322
O O12 0.500000 0.737620 0.000000
O O13 0.518338 0.500000 0.339486
O O14 0.528547 0.226965 0.378666
O O15 0.458640 0.750421 0.537419
O O16 0.543837 0.000000 0.594175
O O17 0.949189 0.759937 0.139576
O O18 0.835665 0.000000 0.131589
O O19 0.341376 0.500000 0.493262
O O20 0.250000 0.750000 0.500000
O O21 0.061310 0.000000 0.146609
#
# Coordination Sequence:
#
# PCOD9220743 Si02
#       8
#     8   8   8   8   8   8   8   8
#     4  11  24  41  61  87 116 148 186 229 280 338
#     4   9  20  37  56  79 106 138 177 227 279 327
#     4   9  18  32  49  75 112 148 183 223 269 321
#     4  11  23  40  60  83 114 147 184 233 287 341
#     4  12  25  40  60  86 115 150 189 229 277 334
#     4   9  18  34  54  77 106 139 182 227 272 325
#     4  11  22  38  62  87 116 149 186 228 276 334
#     4   9  18  33  54  78 106 144 184 225 272 324
#
# _framework density 19.490168000000001
#
# number of rings (size 3 to 8) (size 9 to 14) (size 15 to 20)
#    0.000    1.875    1.250    2.625    0.000    6.250 
#    0.000    1.250    0.000    0.000    0.000    0.000 
#    0.000    0.000    0.000    0.000    0.000    0.000 
#
# Total GULP energy -178746.580972 kJ/mol
# GULP energy per Si atom -5585.830655 kJ/mol
# Density = 1.944581 g / cm^3
# Si number density = 19.490168 Si / 1000 Ang^3
#
#
#
# Elastic Constant Matrix: (Units=GPa)
#
#
# Indices 1 2 3 4 5 6 
#
# 1 124.6192 5.7778 27.7940 0.0000 27.2314 0.0000
# 2 5.7778 21.9218 19.0866 0.0000 5.7454 0.0000
# 3 27.7940 19.0866 91.2047 0.0000 29.4797 0.0000
# 4 0.0000 0.0000 0.0000 21.2775 0.0000 11.3149
# 5 27.2314 5.7454 29.4797 0.0000 23.6849 0.0000
# 6 0.0000 0.0000 0.0000 11.3149 0.0000 29.0466
#
#
#
# Elastic Compliance Matrix: (Units=1/GPa)
#
#
# Indices 1 2 3 4 5 6 
#
# 1 0.010798 -0.000306 0.001275 0.000000 -0.013927 0.000000
# 2 -0.000306 0.055828 -0.012258 0.000000 0.002066 0.000000
# 3 0.001275 -0.012258 0.021171 0.000000 -0.024843 0.000000
# 4 0.000000 0.000000 0.000000 0.059277 0.000000 -0.023091
# 5 -0.013927 0.002066 -0.024843 0.000000 0.088654 0.000000
# 6 0.000000 0.000000 0.000000 -0.023091 0.000000 0.043422
#
#
# Mechanical properties :
#
#
# Convention : Reuss Voigt Hill
#
# Bulk Modulus (GPa) = 15.33281 38.11804 26.72542
# Shear Modulus (GPa) = 15.45746 27.14096 21.29921
#
# Velocity S-wave (km/s) = 2.81924 3.73573 3.30937
# Velocity P-wave (km/s) = 4.29901 6.18123 5.32396
#
# Compressibility (1/GPa) = 0.06521964
#
# Stress axis : x y z
#
# Youngs Moduli (GPa) = 92.61333 17.91201 47.23435
#
# Poissons Ratio (x) = 0.00548 -0.06023
# Poissons Ratio (y) = 0.02834 0.57900
# Poissons Ratio (z) = -0.11810 0.21956
#
# Static dielectric constant tensor:
#      x y z
#    x 1.681390 0.000000 -0.006600 
#    y 0.000000 1.647650 0.000000 
#    z -0.006600 0.000000 1.674390 
# 
# From -- ./inp_files/375583.got.cif
#   From: 2010.05.17/outbox.cif.g08.bks.cpg/sg12_188_cif.got.tgz:375583.got - 2010.06.03 13:09:07.
