data_PCOD9220939
_publ_section_title
;
Structure prediction by ZEFSAII (Michael W. Deem and Ramdas Pophale) SiO2 
 PCOD9220939
Probable space group: C 2/M
;
_chemical_formula_sum "Si O2"
_cell_formula_units_Z 52
_cell_length_a 19.694338
_cell_length_b 18.919310
_cell_length_c 13.794156
_cell_angle_alpha 90.000000
_cell_angle_beta 146.631943
_cell_angle_gamma 90.000000
_cell_volume 2826.939535
_symmetry_space_group_name_H-M "C 2/M"
_symmetry_group_IT_number 12
_symmetry_cell_setting 'monoclinic'
loop_
_space_group_symop_operation_xyz
x,y,z
-x,y,-z
-x,-y,-z
x,-y,z
1/2+x,1/2+y,z
1/2-x,1/2+y,-z
1/2-x,1/2-y,-z
1/2+x,1/2-y,z
loop_
_atom_site_type_symbol
_atom_site_label
_atom_site_fract_x
_atom_site_fract_y
_atom_site_fract_z
Si Si1 0.617837 0.161430 0.848766
Si Si2 0.250194 0.500000 0.783503
Si Si3 0.230726 0.242932 0.136382
Si Si4 0.439813 0.380855 0.031053
Si Si5 0.152972 0.269081 0.519979
Si Si6 0.586623 0.000000 0.763431
Si Si7 0.809655 0.500000 0.511356
Si Si8 0.684971 0.363378 0.419427
O O1 0.698039 0.199139 0.861197
O O2 0.477656 0.192719 0.663694
O O3 0.629654 0.077061 0.852340
O O4 0.676730 0.187372 0.020574
O O5 0.122920 0.500000 0.692027
O O6 0.255580 0.500000 0.672866
O O7 0.325181 0.432014 0.907274
O O8 0.321883 0.245430 0.337048
O O9 0.110808 0.198200 0.024223
O O10 0.547814 0.391103 0.236627
O O11 0.500000 0.396657 0.000000
O O12 0.260166 0.320997 0.607822
O O13 0.173671 0.194973 0.489379
O O14 0.447438 0.000000 0.636022
O O15 0.773413 0.431107 0.529712
#
# Coordination Sequence:
#
# PCOD9220939 Si02
#       8
#     8   4   8   8   8   4   4   8
#     4  11  24  42  63  91 123 163 209 254 306 366
#     4  12  23  34  57  89 122 159 195 249 322 371
#     4  11  23  40  64  89 119 162 210 254 300 361
#     4  12  20  36  57  87 122 156 198 247 303 370
#     4  11  22  40  62  88 122 161 206 252 304 362
#     4  12  25  39  59  87 130 161 197 258 312 370
#     4  12  22  38  57  89 128 158 200 252 312 380
#     4  11  23  36  58  89 122 159 199 247 305 368
#
# _framework density 18.394451
#
# number of rings (size 3 to 8) (size 9 to 14) (size 15 to 20)
#    0.000    0.615    7.692    1.385    0.000    1.231 
#    0.000    0.769    0.000    0.923    0.000    4.308 
#    0.000    0.000    0.000    0.000    0.000    0.000 
#
# Total GULP energy -144898.436831 kJ/mol
# GULP energy per Si atom -5573.016801 kJ/mol
# Density = 1.835258 g / cm^3
# Si number density = 18.394451 Si / 1000 Ang^3
#
#
#
# Elastic Constant Matrix: (Units=GPa)
#
#
# Indices 1 2 3 4 5 6 
#
# 1 49.3777 47.6851 20.7950 0.0000 0.5792 0.0000
# 2 47.6851 124.0146 30.7404 0.0000 -5.7794 0.0000
# 3 20.7950 30.7404 63.0818 0.0000 0.4322 0.0000
# 4 0.0000 0.0000 0.0000 6.1202 0.0000 6.0309
# 5 0.5792 -5.7794 0.4322 0.0000 31.6488 0.0000
# 6 0.0000 0.0000 0.0000 6.0309 0.0000 27.0705
#
#
#
# Elastic Compliance Matrix: (Units=1/GPa)
#
#
# Indices 1 2 3 4 5 6 
#
# 1 0.034025 -0.011867 -0.005415 0.000000 -0.002716 0.000000
# 2 -0.011867 0.013407 -0.002640 0.000000 0.002701 0.000000
# 3 -0.005415 -0.002640 0.018928 0.000000 -0.000641 0.000000
# 4 0.000000 0.000000 0.000000 0.209353 0.000000 -0.046641
# 5 -0.002716 0.002701 -0.000641 0.000000 0.032149 0.000000
# 6 0.000000 0.000000 0.000000 -0.046641 0.000000 0.047331
#
#
# Mechanical properties :
#
#
# Convention : Reuss Voigt Hill
#
# Bulk Modulus (GPa) = 37.71250 48.32391 43.01820
# Shear Modulus (GPa) = 12.38007 22.11815 17.24911
#
# Velocity S-wave (km/s) = 2.59710 3.47138 3.06557
# Velocity P-wave (km/s) = 5.43506 6.51116 5.99730
#
# Compressibility (1/GPa) = 0.02651641
#
# Stress axis : x y z
#
# Youngs Moduli (GPa) = 29.39032 74.58818 52.83137
#
# Poissons Ratio (x) = 0.88516 0.28606
# Poissons Ratio (y) = 0.34879 0.13946
# Poissons Ratio (z) = 0.15914 0.19690
#
# Static dielectric constant tensor:
#      x y z
#    x 1.625180 0.000000 0.015270 
#    y 0.000000 1.785900 0.000000 
#    z 0.015270 0.000000 1.684050 
# 
# From -- ./inp_files/168741.got.cif
#   From: 2010.05.17/outbox.cif.g08.bks.cpg/sg12_85_cif.got.tgz:168741.got - 2010.06.03 13:09:07.
