data_PCOD9220389
_publ_section_title
;
Structure prediction by ZEFSAII (Michael W. Deem and Ramdas Pophale) SiO2 
 PCOD9220389
Probable space group: C 2/M
;
_chemical_formula_sum "Si O2"
_cell_formula_units_Z 40
_cell_length_a 11.009857
_cell_length_b 16.586480
_cell_length_c 14.053331
_cell_angle_alpha 90.000000
_cell_angle_beta 45.921285
_cell_angle_gamma 90.000000
_cell_volume 1843.623786
_symmetry_space_group_name_H-M "C 2/M"
_symmetry_group_IT_number 12
_symmetry_cell_setting 'monoclinic'
loop_
_space_group_symop_operation_xyz
x,y,z
-x,y,-z
-x,-y,-z
x,-y,z
1/2+x,1/2+y,z
1/2-x,1/2+y,-z
1/2-x,1/2-y,-z
1/2+x,1/2-y,z
loop_
_atom_site_type_symbol
_atom_site_label
_atom_site_fract_x
_atom_site_fract_y
_atom_site_fract_z
Si Si1 0.920920 0.826749 0.727375
Si Si2 0.159267 0.232087 0.745474
Si Si3 0.308514 0.407375 0.138919
Si Si4 0.044986 0.500000 0.866449
Si Si5 0.942689 0.000000 0.638792
Si Si6 0.646220 0.838303 0.048871
O O1 0.818233 0.786104 0.694798
O O2 0.987557 0.915715 0.664375
O O3 0.078708 0.775084 0.683309
O O4 0.782044 0.839812 0.889288
O O5 0.194191 0.141084 0.761128
O O6 0.995183 0.270533 0.887725
O O7 0.239682 0.500000 0.179617
O O8 0.233767 0.342504 0.104277
O O9 0.500000 0.416527 0.000000
O O10 0.240744 0.500000 0.745358
O O11 0.959831 0.419253 0.880092
O O12 0.000000 0.500000 0.000000
O O13 0.000000 0.000000 0.500000
#
# Coordination Sequence:
#
# PCOD9220389 Si02
#       6
#     8   8   8   4   4   8
#     4  12  24  39  65  97 133 174 218 270 327 396
#     4  12  23  36  59 100 137 172 212 268 332 390
#     4  11  22  32  49  88 147 176 202 259 333 395
#     4  12  20  38  66  97 127 168 217 271 333 391
#     4  12  28  48  67  94 132 179 227 275 327 393
#     4  12  20  34  60  98 137 171 211 265 336 389
#
# _framework density 21.696401000000002
#
# number of rings (size 3 to 8) (size 9 to 14) (size 15 to 20)
#    0.000    0.200    9.000    2.400    1.400    0.000 
#    0.000    1.000    0.000    0.000    0.000    2.800 
#    0.000    0.000    0.000    0.000    0.000    0.000 
#
# Total GULP energy -111449.761136 kJ/mol
# GULP energy per Si atom -5572.488057 kJ/mol
# Density = 2.164702 g / cm^3
# Si number density = 21.696401 Si / 1000 Ang^3
#
#
#
# Elastic Constant Matrix: (Units=GPa)
#
#
# Indices 1 2 3 4 5 6 
#
# 1 138.0219 39.3221 7.5944 0.0001 11.5149 -0.0001
# 2 39.3221 131.2846 0.2817 0.0000 8.6036 -0.0001
# 3 7.5944 0.2817 37.8257 0.0001 6.6694 -0.0002
# 4 0.0001 0.0000 0.0001 11.3449 -0.0001 17.0815
# 5 11.5149 8.6036 6.6694 -0.0001 6.9290 0.0002
# 6 -0.0001 -0.0001 -0.0002 17.0815 0.0002 67.9032
#
#
#
# Elastic Compliance Matrix: (Units=1/GPa)
#
#
# Indices 1 2 3 4 5 6 
#
# 1 0.008804 -0.001792 0.000522 0.000000 -0.012908 0.000000
# 2 -0.001792 0.008799 0.002042 0.000000 -0.009913 0.000000
# 3 0.000522 0.002042 0.032419 -0.000002 -0.034607 0.000001
# 4 0.000000 0.000000 -0.000002 0.141887 0.000006 -0.035693
# 5 -0.012908 -0.009913 -0.034607 0.000006 0.211392 -0.000002
# 6 0.000000 0.000000 0.000001 -0.035693 -0.000002 0.023706
#
#
# Mechanical properties :
#
#
# Convention : Reuss Voigt Hill
#
# Bulk Modulus (GPa) = 19.39288 44.61427 32.00358
# Shear Modulus (GPa) = 11.29556 34.56433 22.92994
#
# Velocity S-wave (km/s) = 2.28418 3.99568 3.25446
# Velocity P-wave (km/s) = 3.98928 6.47263 5.37630
#
# Compressibility (1/GPa) = 0.05156531
#
# Stress axis : x y z
#
# Youngs Moduli (GPa) = 113.58506 113.64801 30.84606
#
# Poissons Ratio (x) = 0.20368 -0.01609
# Poissons Ratio (y) = 0.20356 -0.06299
# Poissons Ratio (z) = -0.05925 -0.23209
#
# Static dielectric constant tensor:
#      x y z
#    x 1.889770 0.000000 0.037230 
#    y 0.000000 1.709230 0.000000 
#    z 0.037230 0.000000 1.772880 
# 
# From -- ./inp_files/205524.got.cif
#   From: 2010.05.17/outbox.cif.g08.bks.cpg/sg12_103_cif.got.tgz:205524.got - 2010.06.03 13:09:07.
