data_PCOD9221821
_publ_section_title
;
Structure prediction by ZEFSAII (Michael W. Deem and Ramdas Pophale) SiO2 
 PCOD9221821
Probable space group: C 2/M
;
_chemical_formula_sum "Si O2"
_cell_formula_units_Z 40
_cell_length_a 14.524064
_cell_length_b 18.113595
_cell_length_c 11.875587
_cell_angle_alpha 90.000000
_cell_angle_beta 147.542434
_cell_angle_gamma 90.000000
_cell_volume 1676.714514
_symmetry_space_group_name_H-M "C 2/M"
_symmetry_group_IT_number 12
_symmetry_cell_setting 'monoclinic'
loop_
_space_group_symop_operation_xyz
x,y,z
-x,y,-z
-x,-y,-z
x,-y,z
1/2+x,1/2+y,z
1/2-x,1/2+y,-z
1/2-x,1/2-y,-z
1/2+x,1/2-y,z
loop_
_atom_site_type_symbol
_atom_site_label
_atom_site_fract_x
_atom_site_fract_y
_atom_site_fract_z
Si Si1 0.087929 0.195737 0.244210
Si Si2 0.253448 0.500000 0.281200
Si Si3 0.721474 0.234088 0.841375
Si Si4 0.059261 0.386814 0.443545
Si Si5 0.690753 0.333170 0.594928
Si Si6 0.945341 0.500000 0.137785
O O1 0.101127 0.190724 0.004377
O O2 0.243290 0.140325 0.365983
O O3 0.146978 0.281682 0.284112
O O4 0.074553 0.179088 0.364380
O O5 0.323674 0.420416 0.393272
O O6 0.082718 0.500000 0.180847
O O7 0.225224 0.500000 0.115814
O O8 0.553931 0.185526 0.666872
O O9 0.688522 0.298228 0.717655
O O10 0.750000 0.250000 0.000000
O O11 0.989354 0.431770 0.264511
O O12 0.000000 0.423879 0.500000
#
# Coordination Sequence:
#
# PCOD9221821 Si02
#       6
#     8   4   8   8   8   4
#     4  11  25  44  72 104 149 192 241 297 361 424
#     4  11  24  40  77 103 149 188 236 299 375 433
#     4  12  26  41  72 106 147 188 243 299 355 433
#     4  12  25  48  71 104 144 190 248 300 355 438
#     4  11  23  44  70 109 143 190 241 295 360 433
#     4  11  25  44  71 109 141 194 238 296 375 430
#
# _framework density 23.856179000000001
#
# number of rings (size 3 to 8) (size 9 to 14) (size 15 to 20)
#    0.000    0.600    4.000    4.500    5.600    0.000 
#    0.000    2.000    0.000   12.000    0.000    0.000 
#    0.000    0.000    0.000    0.000    0.000    0.000 
#
# Total GULP energy -111370.269063 kJ/mol
# GULP energy per Si atom -5568.513453 kJ/mol
# Density = 2.380188 g / cm^3
# Si number density = 23.856179 Si / 1000 Ang^3
#
#
#
# Elastic Constant Matrix: (Units=GPa)
#
#
# Indices 1 2 3 4 5 6 
#
# 1 137.4306 40.7180 51.9265 0.0000 -34.5492 0.0000
# 2 40.7180 171.5818 61.3420 0.0000 -31.4979 0.0000
# 3 51.9265 61.3420 145.8605 0.0000 -40.5764 0.0000
# 4 0.0000 0.0000 0.0000 43.0557 0.0000 -30.0766
# 5 -34.5492 -31.4979 -40.5764 0.0000 50.0064 0.0000
# 6 0.0000 0.0000 0.0000 -30.0766 0.0000 24.8155
#
#
#
# Elastic Compliance Matrix: (Units=1/GPa)
#
#
# Indices 1 2 3 4 5 6 
#
# 1 0.009295 -0.000754 -0.001728 0.000000 0.004545 0.000000
# 2 -0.000754 0.007183 -0.002117 0.000000 0.002286 0.000000
# 3 -0.001728 -0.002117 0.009891 0.000000 0.005499 0.000000
# 4 0.000000 0.000000 0.000000 0.151458 0.000000 0.183569
# 5 0.004545 0.002286 0.005499 0.000000 0.029040 0.000000
# 6 0.000000 0.000000 0.000000 0.183569 0.000000 0.262785
#
#
# Mechanical properties :
#
#
# Convention : Reuss Voigt Hill
#
# Bulk Modulus (GPa) = 58.22998 84.76066 71.49532
# Shear Modulus (GPa) = 10.31838 43.63461 26.97649
#
# Velocity S-wave (km/s) = 2.08198 4.28140 3.36638
# Velocity P-wave (km/s) = 5.49921 7.74903 6.71896
#
# Compressibility (1/GPa) = 0.01717329
#
# Stress axis : x y z
#
# Youngs Moduli (GPa) = 107.58278 139.20901 101.10480
#
# Poissons Ratio (x) = 0.10493 0.17467
# Poissons Ratio (y) = 0.08109 0.21400
# Poissons Ratio (z) = 0.18586 0.29465
#
# Static dielectric constant tensor:
#      x y z
#    x 2.161920 0.000000 -0.242850 
#    y 0.000000 2.033620 0.000000 
#    z -0.242850 0.000000 2.928930 
# 
# From -- ./inp_files/159041.got.cif
#   From: 2010.05.17/outbox.cif.g08.bks.cpg/sg12_80_cif.got.tgz:159041.got - 2010.06.03 13:09:07.
