data_PCOD9221645
_publ_section_title
;
Structure prediction by ZEFSAII (Michael W. Deem and Ramdas Pophale) SiO2 
 PCOD9221645
Probable space group: C 2/M
;
_chemical_formula_sum "Si O2"
_cell_formula_units_Z 50
_cell_length_a 27.387780
_cell_length_b 18.737614
_cell_length_c 5.071350
_cell_angle_alpha 90.000000
_cell_angle_beta 120.078777
_cell_angle_gamma 90.000000
_cell_volume 2252.060432
_symmetry_space_group_name_H-M "C 2/M"
_symmetry_group_IT_number 12
_symmetry_cell_setting 'monoclinic'
loop_
_space_group_symop_operation_xyz
x,y,z
-x,y,-z
-x,-y,-z
x,-y,z
1/2+x,1/2+y,z
1/2-x,1/2+y,-z
1/2-x,1/2-y,-z
1/2+x,1/2-y,z
loop_
_atom_site_type_symbol
_atom_site_label
_atom_site_fract_x
_atom_site_fract_y
_atom_site_fract_z
Si Si1 0.829826 0.925322 0.151028
Si Si2 0.721574 0.697391 0.709396
Si Si3 0.944009 0.105706 0.181377
Si Si4 0.220996 0.581128 0.478883
Si Si5 0.935456 0.273594 0.273984
Si Si6 0.500000 0.500000 0.000000
Si Si7 0.636093 0.810006 0.395917
O O1 0.777384 0.920356 0.808405
O O2 0.823555 0.000000 0.285676
O O3 0.826087 0.854503 0.306933
O O4 0.887926 0.923788 0.156895
O O5 0.764418 0.638988 0.707996
O O6 0.683948 0.751425 0.435671
O O7 0.750000 0.750000 0.000000
O O8 0.939360 0.190988 0.183840
O O9 0.000000 0.083321 0.500000
O O10 0.953488 0.063961 0.936476
O O11 0.208971 0.500000 0.360489
O O12 0.170686 0.616467 0.511213
O O13 0.896357 0.285092 0.427192
O O14 0.000000 0.295206 0.500000
O O15 0.907905 0.315721 0.959014
#
# Coordination Sequence:
#
# PCOD9221645 Si02
#       7
#     8   8   8   8   8   2   8
#     4  11  23  42  61  96 142 189 241 294 356 426
#     4  12  23  41  68 104 144 190 243 299 357 441
#     4  11  25  42  60  90 133 190 243 291 340 408
#     4  11  26  44  67 104 144 189 235 296 378 443
#     4  11  26  46  73 105 135 182 243 303 359 431
#     4  12  26  40  64  86 144 200 244 284 352 408
#     4  12  24  45  76 103 145 185 239 302 363 429
#
# _framework density 22.201889999999999
#
# number of rings (size 3 to 8) (size 9 to 14) (size 15 to 20)
#    0.000    0.640    4.000    3.600    4.480    1.280 
#    0.000    0.000    0.000    2.880    0.000    0.000 
#    0.000    0.000    0.000    0.000    0.000    0.000 
#
# Total GULP energy -139459.135835 kJ/mol
# GULP energy per Si atom -5578.365433 kJ/mol
# Density = 2.215136 g / cm^3
# Si number density = 22.201890 Si / 1000 Ang^3
#
#
#
# Elastic Constant Matrix: (Units=GPa)
#
#
# Indices 1 2 3 4 5 6 
#
# 1 135.2286 78.3178 23.7884 0.0000 3.7339 0.0000
# 2 78.3178 149.8738 21.3096 0.0000 3.6827 0.0000
# 3 23.7884 21.3096 78.0170 0.0000 18.5375 0.0000
# 4 0.0000 0.0000 0.0000 -62.6478 0.0000 39.5644
# 5 3.7339 3.6827 18.5375 0.0000 39.5358 0.0000
# 6 0.0000 0.0000 0.0000 39.5644 0.0000 -36.7424
#
#
#
# Elastic Compliance Matrix: (Units=1/GPa)
#
#
# Indices 1 2 3 4 5 6 
#
# 1 0.010855 -0.005408 -0.001923 0.000000 0.000380 0.000000
# 2 -0.005408 0.009639 -0.001004 0.000000 0.000083 0.000000
# 3 -0.001923 -0.001004 0.015320 0.000000 -0.006908 0.000000
# 4 0.000000 0.000000 0.000000 -0.049889 0.000000 -0.053721
# 5 0.000380 0.000083 -0.006908 0.000000 0.028489 0.000000
# 6 0.000000 0.000000 0.000000 -0.053721 0.000000 -0.085063
#
#
# Mechanical properties :
#
#
# Convention : Reuss Voigt Hill
#
# Bulk Modulus (GPa) = 52.23590 67.77235 60.00412
# Shear Modulus (GPa) = -105.04400 4.00937 -50.51732
#
# Velocity S-wave (km/s) = -6.88591 1.34528 -4.77525
# Velocity P-wave (km/s) = 6.29621 5.74498 1.82174
#
# Compressibility (1/GPa) = 0.01914392
#
# Stress axis : x y z
#
# Youngs Moduli (GPa) = 92.12495 103.74485 65.27603
#
# Poissons Ratio (x) = 0.56107 0.12552
# Poissons Ratio (y) = 0.49823 0.06551
# Poissons Ratio (z) = 0.17715 0.10412
#
# Static dielectric constant tensor:
#      x y z
#    x 1.914780 0.000000 -0.090690 
#    y 0.000000 1.839000 0.000000 
#    z -0.090690 0.000000 1.960230 
# 
# From -- ./inp_files/28866.got.cif
#   From: 2010.05.17/outbox.cif.g08.bks.cpg/sg12_15_cif.got.tgz:28866.got - 2010.06.03 13:09:07.
