data_PCOD9221702
_publ_section_title
;
Structure prediction by ZEFSAII (Michael W. Deem and Ramdas Pophale) SiO2 
 PCOD9221702
Probable space group: C 2/M
;
_chemical_formula_sum "Si O2"
_cell_formula_units_Z 58
_cell_length_a 14.453706
_cell_length_b 7.292866
_cell_length_c 27.232421
_cell_angle_alpha 90.000000
_cell_angle_beta 48.379530
_cell_angle_gamma 90.000000
_cell_volume 2145.903795
_symmetry_space_group_name_H-M "C 2/M"
_symmetry_group_IT_number 12
_symmetry_cell_setting 'monoclinic'
loop_
_space_group_symop_operation_xyz
x,y,z
-x,y,-z
-x,-y,-z
x,-y,z
1/2+x,1/2+y,z
1/2-x,1/2+y,-z
1/2-x,1/2-y,-z
1/2+x,1/2-y,z
loop_
_atom_site_type_symbol
_atom_site_label
_atom_site_fract_x
_atom_site_fract_y
_atom_site_fract_z
Si Si1 0.951989 0.292392 0.450974
Si Si2 0.845044 0.288939 0.690431
Si Si3 0.414175 0.709970 0.275175
Si Si4 0.962788 0.778382 0.861865
Si Si5 0.690918 0.711998 0.949159
Si Si6 0.000000 0.500000 0.000000
Si Si7 0.787916 0.777310 0.171162
Si Si8 0.217968 0.224640 0.581348
O O1 0.989543 0.500000 0.450686
O O2 0.854094 0.295272 0.440556
O O3 0.863347 0.220049 0.526010
O O4 0.066637 0.203062 0.381921
O O5 0.887543 0.500000 0.681594
O O6 0.709733 0.294349 0.714393
O O7 0.821452 0.213927 0.753403
O O8 0.449928 0.500000 0.272871
O O9 0.513679 0.791067 0.202552
O O10 0.363162 0.788157 0.343923
O O11 0.080494 0.718217 0.852263
O O12 0.825034 0.730098 0.926610
O O13 0.969008 0.000000 0.858383
O O14 0.715955 0.778475 0.883775
O O15 0.154164 0.000000 0.963443
O O16 0.578503 0.840543 0.002156
O O17 0.784357 0.000000 0.173470
O O18 0.219175 0.000000 0.581063
#
# Coordination Sequence:
#
# PCOD9221702 Si02
#       8
#     8   8   8   8   8   2   8   8
#     4   9  17  27  42  63  96 137 182 231 282 337
#     4   8  14  27  47  75 101 135 182 235 286 341
#     4   8  15  27  48  74 103 137 182 233 286 342
#     4   9  17  36  61  88 121 159 198 247 306 357
#     4  11  23  42  69  95 127 164 200 249 292 349
#     4  12  26  48  68  98 132 162 206 236 292 362
#     4   8  17  34  60  88 121 155 198 246 302 360
#     4   9  17  28  40  64  98 136 182 232 280 339
#
# _framework density 27.028238999999999
#
# number of rings (size 3 to 8) (size 9 to 14) (size 15 to 20)
#    0.000    3.034    0.690    1.862    1.931    0.552 
#    1.241    3.448    0.000    1.655    0.000    3.862 
#    0.000    0.000    0.000    0.000    0.000    0.000 
#
# Total GULP energy -161789.477566 kJ/mol
# GULP energy per Si atom -5578.947502 kJ/mol
# Density = 2.696672 g / cm^3
# Si number density = 27.028239 Si / 1000 Ang^3
#
#
#
# Elastic Constant Matrix: (Units=GPa)
#
#
# Indices 1 2 3 4 5 6 
#
# 1 76.1218 7.0681 25.8336 0.0002 -12.4020 -0.0007
# 2 7.0681 146.0903 7.8151 0.0025 -10.8420 -0.0045
# 3 25.8336 7.8151 178.8920 0.0002 -8.8729 -0.0001
# 4 0.0002 0.0025 0.0002 -15.3749 0.0001 -8.8765
# 5 -12.4020 -10.8420 -8.8729 0.0001 52.6495 -0.0004
# 6 -0.0007 -0.0045 -0.0001 -8.8765 -0.0004 -2.8058
#
#
#
# Elastic Compliance Matrix: (Units=1/GPa)
#
#
# Indices 1 2 3 4 5 6 
#
# 1 0.014301 -0.000370 -0.001902 -0.000002 0.002972 0.000004
# 2 -0.000370 0.006971 -0.000186 -0.000009 0.001317 0.000018
# 3 -0.001902 -0.000186 0.005898 0.000000 0.000508 0.000000
# 4 -0.000002 -0.000009 0.000000 0.078701 -0.000004 -0.248975
# 5 0.002972 0.001317 0.000508 -0.000004 0.020050 0.000008
# 6 0.000004 0.000018 0.000000 -0.248975 0.000008 0.431250
#
#
# Mechanical properties :
#
#
# Convention : Reuss Voigt Hill
#
# Bulk Modulus (GPa) = 44.93326 53.61529 49.27428
# Shear Modulus (GPa) = 8.77959 30.91957 19.84958
#
# Velocity S-wave (km/s) = 1.80426 3.38594 2.71292
# Velocity P-wave (km/s) = 4.58270 5.93009 5.29939
#
# Compressibility (1/GPa) = 0.02225523
#
# Stress axis : x y z
#
# Youngs Moduli (GPa) = 69.92649 143.45864 169.55256
#
# Poissons Ratio (x) = 0.05302 0.32242
# Poissons Ratio (y) = 0.02584 0.03151
# Poissons Ratio (z) = 0.13297 0.02666
#
# Static dielectric constant tensor:
#      x y z
#    x 2.095710 0.000000 0.021000 
#    y 0.000000 2.040340 0.000000 
#    z 0.021000 0.000000 2.289450 
# 
# From -- ./inp_files/375815.got.cif
#   From: 2010.05.17/outbox.cif.g08.bks.cpg/sg12_188_cif.got.tgz:375815.got - 2010.06.03 13:09:07.
