data_PCOD9221331
_publ_section_title
;
Structure prediction by ZEFSAII (Michael W. Deem and Ramdas Pophale) SiO2 
 PCOD9221331
Probable space group: C 2/M
;
_chemical_formula_sum "Si O2"
_cell_formula_units_Z 64
_cell_length_a 9.406942
_cell_length_b 18.552766
_cell_length_c 32.337693
_cell_angle_alpha 90.000000
_cell_angle_beta 141.473714
_cell_angle_gamma 90.000000
_cell_volume 3515.330003
_symmetry_space_group_name_H-M "C 2/M"
_symmetry_group_IT_number 12
_symmetry_cell_setting 'monoclinic'
loop_
_space_group_symop_operation_xyz
x,y,z
-x,y,-z
-x,-y,-z
x,-y,z
1/2+x,1/2+y,z
1/2-x,1/2+y,-z
1/2-x,1/2-y,-z
1/2+x,1/2-y,z
loop_
_atom_site_type_symbol
_atom_site_label
_atom_site_fract_x
_atom_site_fract_y
_atom_site_fract_z
Si Si1 0.269847 0.817356 0.472655
Si Si2 0.261144 0.411869 0.064087
Si Si3 0.470680 0.686360 0.324153
Si Si4 0.692810 0.168487 0.677225
Si Si5 0.612483 0.913723 0.197231
Si Si6 0.416220 0.414471 0.188289
Si Si7 0.241287 0.414842 0.455246
Si Si8 0.408611 0.412102 0.934386
O O1 0.500000 0.805549 0.500000
O O2 0.250000 0.750000 0.500000
O O3 0.077097 0.826033 0.393870
O O4 0.279067 0.888838 0.502281
O O5 0.261616 0.500000 0.064660
O O6 0.362085 0.386055 0.130539
O O7 0.415655 0.389303 0.060938
O O8 0.000000 0.389173 0.000000
O O9 0.352716 0.763277 0.304055
O O10 0.671154 0.686876 0.334732
O O11 0.280964 0.628869 0.266329
O O12 0.452047 0.130695 0.612339
O O13 0.858094 0.116064 0.739730
O O14 0.711497 0.900587 0.173788
O O15 0.348624 0.890626 0.136363
O O16 0.625196 0.000000 0.208231
O O17 0.439660 0.500000 0.190366
O O18 0.500000 0.398078 0.500000
O O19 0.202435 0.500000 0.441418
O O20 0.404706 0.500000 0.934689
O O21 0.500000 0.388247 0.000000
#
# Coordination Sequence:
#
# PCOD9221331 Si02
#       8
#     8   8   8   8   8   8   8   8
#     4  12  22  40  63  87 114 153 196 243 288 349
#     4   9  16  27  47  77 109 146 189 226 272 332
#     4  11  23  38  61  84 110 153 191 236 289 343
#     4  11  23  40  59  84 113 150 193 235 286 350
#     4   9  19  35  54  81 114 146 188 236 286 338
#     4   9  18  34  55  78 110 148 184 232 283 333
#     4  11  25  42  61  87 117 149 189 240 296 346
#     4   9  16  28  49  79 115 151 185 228 278 331
#
# _framework density 18.205971000000002
#
# number of rings (size 3 to 8) (size 9 to 14) (size 15 to 20)
#    0.000    1.875    2.500    1.500    1.750    5.250 
#    0.000    0.000    0.000    0.750    0.000    5.250 
#    0.000    0.000    0.000    0.000    0.000    0.000 
#
# Total GULP energy -178479.974425 kJ/mol
# GULP energy per Si atom -5577.499201 kJ/mol
# Density = 1.816453 g / cm^3
# Si number density = 18.205971 Si / 1000 Ang^3
#
#
#
# Elastic Constant Matrix: (Units=GPa)
#
#
# Indices 1 2 3 4 5 6 
#
# 1 135.3820 48.1093 93.2650 0.0002 8.1588 0.0000
# 2 48.1093 30.1608 31.5896 0.0001 4.1465 0.0000
# 3 93.2650 31.5896 142.8115 0.0011 -0.8057 0.0003
# 4 0.0002 0.0001 0.0011 -9.5368 0.0003 -13.2707
# 5 8.1588 4.1465 -0.8057 0.0003 37.6948 0.0001
# 6 0.0000 0.0000 0.0003 -13.2707 0.0001 14.8803
#
#
#
# Elastic Compliance Matrix: (Units=1/GPa)
#
#
# Indices 1 2 3 4 5 6 
#
# 1 0.024070 -0.028109 -0.009515 -0.000001 -0.002321 0.000000
# 2 -0.028109 0.076924 0.001328 0.000000 -0.002349 0.000000
# 3 -0.009515 0.001328 0.012934 0.000001 0.002190 0.000000
# 4 -0.000001 0.000000 0.000001 -0.046790 0.000001 -0.041729
# 5 -0.002321 -0.002349 0.002190 0.000001 0.027336 0.000000
# 6 0.000000 0.000000 0.000000 -0.041729 0.000000 0.029988
#
#
# Mechanical properties :
#
#
# Convention : Reuss Voigt Hill
#
# Bulk Modulus (GPa) = 24.19103 72.69802 48.44453
# Shear Modulus (GPa) = 23.71544 17.63368 20.67456
#
# Velocity S-wave (km/s) = 3.61310 3.11556 3.37351
# Velocity P-wave (km/s) = 5.54276 7.27735 6.46846
#
# Compressibility (1/GPa) = 0.04133763
#
# Stress axis : x y z
#
# Youngs Moduli (GPa) = 41.54560 12.99979 77.31360
#
# Poissons Ratio (x) = 0.36542 0.73560
# Poissons Ratio (y) = 1.16782 -0.10271
# Poissons Ratio (z) = 0.39529 -0.01727
#
# Static dielectric constant tensor:
#      x y z
#    x 1.621820 0.000000 -0.012070 
#    y 0.000000 1.618130 0.000000 
#    z -0.012070 0.000000 1.537840 
# 
# From -- ./inp_files/373015.got.cif
#   From: 2010.05.17/outbox.cif.g08.bks.cpg/sg12_187_cif.got.tgz:373015.got - 2010.06.03 13:09:07.
