data_PCOD9221904
_publ_section_title
;
Structure prediction by ZEFSAII (Michael W. Deem and Ramdas Pophale) SiO2 
 PCOD9221904
Probable space group: C 2/M
;
_chemical_formula_sum "Si O2"
_cell_formula_units_Z 28
_cell_length_a 15.161766
_cell_length_b 15.540358
_cell_length_c 6.926984
_cell_angle_alpha 90.000000
_cell_angle_beta 50.243668
_cell_angle_gamma 90.000000
_cell_volume 1254.735184
_symmetry_space_group_name_H-M "C 2/M"
_symmetry_group_IT_number 12
_symmetry_cell_setting 'monoclinic'
loop_
_space_group_symop_operation_xyz
x,y,z
-x,y,-z
-x,-y,-z
x,-y,z
1/2+x,1/2+y,z
1/2-x,1/2+y,-z
1/2-x,1/2-y,-z
1/2+x,1/2-y,z
loop_
_atom_site_type_symbol
_atom_site_label
_atom_site_fract_x
_atom_site_fract_y
_atom_site_fract_z
Si Si1 0.436475 0.500000 0.796597
Si Si2 0.660823 0.000000 0.239237
Si Si3 0.421302 0.687125 0.791792
Si Si4 0.628721 0.000000 0.736467
Si Si5 0.674280 0.146565 0.950158
O O1 0.500000 0.500000 0.500000
O O2 0.464109 0.597328 0.826864
O O3 0.297921 0.500000 0.003403
O O4 0.639048 0.000000 0.494343
O O5 0.616928 0.084689 0.191744
O O6 0.500000 0.711398 0.500000
O O7 0.298892 0.669163 0.859275
O O8 0.398366 0.766570 0.965730
O O9 0.684449 0.086104 0.749042
O O10 0.500000 0.000000 0.000000
#
# Coordination Sequence:
#
# PCOD9221904 Si02
#       5
#     4   4   8   4   8
#     4   8  15  32  57  82 104 143 187 234 283 337
#     4   9  19  36  59  82 117 151 190 241 287 341
#     4   9  17  33  63  84 112 153 194 237 294 344
#     4  11  24  37  58  87 122 154 197 241 286 347
#     4   9  20  37  58  87 115 154 195 238 289 349
#
# _framework density 22.315467000000002
#
# number of rings (size 3 to 8) (size 9 to 14) (size 15 to 20)
#    0.000    2.857    0.000    0.857    4.000    1.143 
#    0.000   12.857    0.000   48.000    0.000    0.000 
#    0.000    0.000    0.000    0.000    0.000    0.000 
#
# Total GULP energy -77993.345285 kJ/mol
# GULP energy per Si atom -5570.953235 kJ/mol
# Density = 2.226468 g / cm^3
# Si number density = 22.315467 Si / 1000 Ang^3
#
#
#
# Elastic Constant Matrix: (Units=GPa)
#
#
# Indices 1 2 3 4 5 6 
#
# 1 41.6195 9.7066 36.6263 0.0000 2.9284 0.0000
# 2 9.7066 169.4258 54.7636 0.0000 4.7018 0.0000
# 3 36.6263 54.7636 100.7686 0.0000 4.9723 0.0000
# 4 0.0000 0.0000 0.0000 6.4046 0.0000 -5.2938
# 5 2.9284 4.7018 4.9723 0.0000 31.9933 0.0000
# 6 0.0000 0.0000 0.0000 -5.2938 0.0000 3.9600
#
#
#
# Elastic Compliance Matrix: (Units=1/GPa)
#
#
# Indices 1 2 3 4 5 6 
#
# 1 0.036348 0.002675 -0.014594 0.000000 -0.001452 0.000000
# 2 0.002675 0.007363 -0.004946 0.000000 -0.000558 0.000000
# 3 -0.014594 -0.004946 0.017952 0.000000 -0.000727 0.000000
# 4 0.000000 0.000000 0.000000 -1.487242 0.000000 -1.988189
# 5 -0.001452 -0.000558 -0.000727 0.000000 0.031585 0.000000
# 6 0.000000 0.000000 0.000000 -1.988189 0.000000 -2.405345
#
#
# Mechanical properties :
#
#
# Convention : Reuss Voigt Hill
#
# Bulk Modulus (GPa) = 35.79906 57.11188 46.45547
# Shear Modulus (GPa) = -1.33110 22.51939 10.59414
#
# Velocity S-wave (km/s) = -0.77317 3.18014 2.18123
# Velocity P-wave (km/s) = 3.90897 6.25563 5.21598
#
# Compressibility (1/GPa) = 0.02793370
#
# Stress axis : x y z
#
# Youngs Moduli (GPa) = 27.51163 135.80752 55.70377
#
# Poissons Ratio (x) = -0.36328 0.81292
# Poissons Ratio (y) = -0.07359 0.27553
# Poissons Ratio (z) = 0.40149 0.67176
#
# Static dielectric constant tensor:
#      x y z
#    x 1.853560 0.000000 -0.035430 
#    y 0.000000 1.929770 0.000000 
#    z -0.035430 0.000000 1.770560 
# 
# From -- ./inp_files/9720.got.cif
#   From: 2010.05.17/outbox.cif.g08.bks.cpg/sg12_5_cif.got.tgz:9720.got - 2010.06.03 13:09:07.
