data_PCOD9221121
_publ_section_title
;
Structure prediction by ZEFSAII (Michael W. Deem and Ramdas Pophale) SiO2 
 PCOD9221121
Probable space group: C 2/M
;
_chemical_formula_sum "Si O2"
_cell_formula_units_Z 40
_cell_length_a 14.247717
_cell_length_b 17.909891
_cell_length_c 14.470480
_cell_angle_alpha 90.000000
_cell_angle_beta 148.819276
_cell_angle_gamma 90.000000
_cell_volume 1911.754922
_symmetry_space_group_name_H-M "C 2/M"
_symmetry_group_IT_number 12
_symmetry_cell_setting 'monoclinic'
loop_
_space_group_symop_operation_xyz
x,y,z
-x,y,-z
-x,-y,-z
x,-y,z
1/2+x,1/2+y,z
1/2-x,1/2+y,-z
1/2-x,1/2-y,-z
1/2+x,1/2-y,z
loop_
_atom_site_type_symbol
_atom_site_label
_atom_site_fract_x
_atom_site_fract_y
_atom_site_fract_z
Si Si1 0.376375 0.657419 0.176160
Si Si2 0.269180 0.163533 0.547610
Si Si3 0.496172 0.914521 0.107184
Si Si4 0.154560 0.203777 0.056487
Si Si5 0.949513 0.585043 0.350346
O O1 0.564847 0.632362 0.378670
O O2 0.292987 0.727554 0.161337
O O3 0.416873 0.685739 0.106425
O O4 0.210393 0.599661 0.034205
O O5 0.250000 0.250000 0.500000
O O6 0.376521 0.144768 0.732476
O O7 0.390378 0.122414 0.573288
O O8 0.551385 0.000000 0.174703
O O9 0.500000 0.904987 0.000000
O O10 0.269330 0.132619 0.184400
O O11 0.000000 0.219964 0.000000
O O12 0.924490 0.500000 0.298857
O O13 0.000000 0.586181 0.500000
#
# Coordination Sequence:
#
# PCOD9221121 Si02
#       5
#     8   8   8   8   8
#     4  11  23  42  70 101 137 186 238 294 360 419
#     4  12  23  45  73 104 140 187 236 298 360 423
#     4  11  26  47  70 102 145 190 240 297 357 429
#     4  11  22  42  67 100 142 183 236 290 355 430
#     4  11  24  42  66 101 144 186 231 290 357 429
#
# _framework density 20.923183000000002
#
# number of rings (size 3 to 8) (size 9 to 14) (size 15 to 20)
#    0.000    0.800    4.000    3.600    0.000    4.400 
#    0.000    2.000    0.000    0.000    0.000    0.000 
#    0.000    0.000    0.000    0.000    0.000    0.000 
#
# Total GULP energy -111894.128826 kJ/mol
# GULP energy per Si atom -5594.706441 kJ/mol
# Density = 2.087556 g / cm^3
# Si number density = 20.923183 Si / 1000 Ang^3
#
#
#
# Elastic Constant Matrix: (Units=GPa)
#
#
# Indices 1 2 3 4 5 6 
#
# 1 148.4099 26.5390 45.0168 -0.0002 -4.2311 0.0000
# 2 26.5390 128.9473 34.0673 0.0000 -11.2430 -0.0002
# 3 45.0168 34.0673 136.6442 -0.0006 8.1949 0.0002
# 4 -0.0002 0.0000 -0.0006 28.2339 -0.0004 -3.6314
# 5 -4.2311 -11.2430 8.1949 -0.0004 26.5876 0.0001
# 6 0.0000 -0.0002 0.0002 -3.6314 0.0001 10.2896
#
#
#
# Elastic Compliance Matrix: (Units=1/GPa)
#
#
# Indices 1 2 3 4 5 6 
#
# 1 0.007662 -0.000794 -0.002424 0.000000 0.001630 0.000000
# 2 -0.000794 0.008878 -0.002210 0.000000 0.004309 0.000000
# 3 -0.002424 -0.002210 0.008912 0.000000 -0.004067 0.000000
# 4 0.000000 0.000000 0.000000 0.037103 0.000000 0.013094
# 5 0.001630 0.004309 -0.004067 0.000000 0.040947 0.000000
# 6 0.000000 0.000000 0.000000 0.013094 0.000000 0.101807
#
#
# Mechanical properties :
#
#
# Convention : Reuss Voigt Hill
#
# Bulk Modulus (GPa) = 68.51688 69.47196 68.99442
# Shear Modulus (GPa) = 22.62139 33.58077 28.10108
#
# Velocity S-wave (km/s) = 3.29167 4.01054 3.66875
# Velocity P-wave (km/s) = 6.87494 7.39738 7.14094
#
# Compressibility (1/GPa) = 0.01459494
#
# Stress axis : x y z
#
# Youngs Moduli (GPa) = 130.51650 112.63495 112.21112
#
# Poissons Ratio (x) = 0.08947 0.27199
# Poissons Ratio (y) = 0.10368 0.24801
# Poissons Ratio (z) = 0.31636 0.24895
#
# Static dielectric constant tensor:
#      x y z
#    x 1.731970 0.000000 -0.033250 
#    y 0.000000 1.766000 0.000000 
#    z -0.033250 0.000000 1.784880 
# 
# From -- ./inp_files/216938.got.cif
#   From: 2010.05.17/outbox.cif.g08.bks.cpg/sg12_109_cif.got.tgz:216938.got - 2010.06.03 13:09:07.
