data_PCOD9221470
_publ_section_title
;
Structure prediction by ZEFSAII (Michael W. Deem and Ramdas Pophale) SiO2 
 PCOD9221470
Probable space group: C 2/M
;
_chemical_formula_sum "Si O2"
_cell_formula_units_Z 58
_cell_length_a 28.243250
_cell_length_b 20.501177
_cell_length_c 15.096496
_cell_angle_alpha 90.000000
_cell_angle_beta 160.675983
_cell_angle_gamma 90.000000
_cell_volume 2892.540776
_symmetry_space_group_name_H-M "C 2/M"
_symmetry_group_IT_number 12
_symmetry_cell_setting 'monoclinic'
loop_
_space_group_symop_operation_xyz
x,y,z
-x,y,-z
-x,-y,-z
x,-y,z
1/2+x,1/2+y,z
1/2-x,1/2+y,-z
1/2-x,1/2-y,-z
1/2+x,1/2-y,z
loop_
_atom_site_type_symbol
_atom_site_label
_atom_site_fract_x
_atom_site_fract_y
_atom_site_fract_z
Si Si1 0.675775 0.358773 0.870623
Si Si2 0.116039 0.671163 0.470557
Si Si3 0.360557 0.230254 0.307913
Si Si4 0.084539 0.744749 0.233062
Si Si5 0.559897 0.380761 0.967172
Si Si6 0.356473 0.075535 0.051240
Si Si7 0.934090 0.077923 0.555760
Si Si8 0.000000 0.000000 0.000000
O O1 0.670555 0.300567 0.788743
O O2 0.780729 0.411059 0.012055
O O3 0.530784 0.390636 0.649200
O O4 0.739555 0.320971 0.067776
O O5 0.118109 0.727148 0.550010
O O6 0.075364 0.701853 0.304950
O O7 0.271551 0.637314 0.741112
O O8 0.993738 0.620616 0.282800
O O9 0.500000 0.207739 0.500000
O O10 0.250000 0.750000 0.500000
O O11 0.000000 0.715894 0.000000
O O12 0.018151 0.815746 0.134881
O O13 0.535295 0.442068 0.988115
O O14 0.490786 0.396948 0.749724
O O15 0.232395 0.090992 0.759914
O O16 0.395091 0.000000 0.110895
O O17 0.952386 0.000000 0.584355
#
# Coordination Sequence:
#
# PCOD9221470 Si02
#       8
#     8   8   8   8   8   8   8   2
#     4  11  23  40  67  97 144 188 237 284 331 419
#     4  12  27  46  73 105 144 183 236 292 357 427
#     4  11  23  40  63 105 141 187 230 282 352 407
#     4  12  27  49  72 108 138 178 234 296 365 421
#     4  12  26  46  77 104 134 186 233 291 359 428
#     4  11  26  44  66 102 147 188 231 288 350 411
#     4  11  24  43  68 100 137 193 238 280 344 421
#     4  12  24  52  76 102 132 168 248 300 348 424
#
# _framework density 20.051576000000001
#
# number of rings (size 3 to 8) (size 9 to 14) (size 15 to 20)
#    0.000    0.552    5.517    1.655    8.690    1.103 
#    0.000    0.690    0.000    1.241    0.000    0.000 
#    0.000    0.000    0.000    0.000    0.000    0.000 
#
# Total GULP energy -161906.029707 kJ/mol
# GULP energy per Si atom -5582.966542 kJ/mol
# Density = 2.000594 g / cm^3
# Si number density = 20.051576 Si / 1000 Ang^3
#
#
#
# Elastic Constant Matrix: (Units=GPa)
#
#
# Indices 1 2 3 4 5 6 
#
# 1 122.4707 22.2306 28.7801 0.0000 -18.7658 0.0000
# 2 22.2306 61.6546 25.2915 0.0000 0.6087 0.0000
# 3 28.7801 25.2915 89.7131 0.0000 6.6711 0.0000
# 4 0.0000 0.0000 0.0000 23.4621 0.0000 -5.4716
# 5 -18.7658 0.6087 6.6711 0.0000 44.8197 0.0000
# 6 0.0000 0.0000 0.0000 -5.4716 0.0000 35.3645
#
#
#
# Elastic Compliance Matrix: (Units=1/GPa)
#
#
# Indices 1 2 3 4 5 6 
#
# 1 0.009998 -0.002480 -0.002853 0.000000 0.004644 0.000000
# 2 -0.002480 0.018968 -0.004505 0.000000 -0.000625 0.000000
# 3 -0.002853 -0.004505 0.013567 0.000000 -0.003153 0.000000
# 4 0.000000 0.000000 0.000000 0.044217 0.000000 0.006841
# 5 0.004644 -0.000625 -0.003153 0.000000 0.024734 0.000000
# 6 0.000000 0.000000 0.000000 0.006841 0.000000 0.029335
#
#
# Mechanical properties :
#
#
# Convention : Reuss Voigt Hill
#
# Bulk Modulus (GPa) = 43.75499 47.38253 45.56876
# Shear Modulus (GPa) = 29.74164 33.89835 31.82000
#
# Velocity S-wave (km/s) = 3.85549 4.11610 3.98792
# Velocity P-wave (km/s) = 6.45665 6.80230 6.63173
#
# Compressibility (1/GPa) = 0.02285454
#
# Stress axis : x y z
#
# Youngs Moduli (GPa) = 100.02416 52.72065 73.71077
#
# Poissons Ratio (x) = 0.13076 0.21033
# Poissons Ratio (y) = 0.24808 0.33208
# Poissons Ratio (z) = 0.28541 0.23752
#
# Static dielectric constant tensor:
#      x y z
#    x 1.715470 0.000000 -0.020840 
#    y 0.000000 1.690500 0.000000 
#    z -0.020840 0.000000 1.770680 
# 
# From -- ./inp_files/247311.got.cif
#   From: 2010.05.17/outbox.cif.g08.bks.cpg/sg12_124_cif.got.tgz:247311.got - 2010.06.03 13:09:07.
