data_PCOD9221133
_publ_section_title
;
Structure prediction by ZEFSAII (Michael W. Deem and Ramdas Pophale) SiO2 
 PCOD9221133
Probable space group: C 2/M
;
_chemical_formula_sum "Si O2"
_cell_formula_units_Z 56
_cell_length_a 14.833892
_cell_length_b 29.729372
_cell_length_c 12.232901
_cell_angle_alpha 90.000000
_cell_angle_beta 28.486486
_cell_angle_gamma 90.000000
_cell_volume 2573.027909
_symmetry_space_group_name_H-M "C 2/M"
_symmetry_group_IT_number 12
_symmetry_cell_setting 'monoclinic'
loop_
_space_group_symop_operation_xyz
x,y,z
-x,y,-z
-x,-y,-z
x,-y,z
1/2+x,1/2+y,z
1/2-x,1/2+y,-z
1/2-x,1/2-y,-z
1/2+x,1/2-y,z
loop_
_atom_site_type_symbol
_atom_site_label
_atom_site_fract_x
_atom_site_fract_y
_atom_site_fract_z
Si Si1 0.890674 0.806643 0.730662
Si Si2 0.229055 0.449269 0.746897
Si Si3 0.991062 0.267938 0.891741
Si Si4 0.484743 0.448794 0.891880
Si Si5 0.249747 0.404548 0.948958
Si Si6 0.299247 0.309179 0.413956
Si Si7 0.301281 0.092032 0.443582
O O1 0.000000 0.809487 0.500000
O O2 0.046559 0.800036 0.656585
O O3 0.730558 0.768146 0.897832
O O4 0.790511 0.853616 0.868422
O O5 0.289942 0.500000 0.653190
O O6 0.265058 0.413548 0.612024
O O7 0.302963 0.434847 0.786689
O O8 0.000000 0.450181 0.000000
O O9 0.102318 0.293307 0.676828
O O10 0.115060 0.222218 0.771822
O O11 0.000000 0.292519 0.000000
O O12 0.412186 0.500000 0.970462
O O13 0.696832 0.447236 0.618760
O O14 0.500000 0.432166 0.000000
O O15 0.361155 0.419758 0.938435
O O16 0.026067 0.409800 0.207278
O O17 0.274789 0.361806 0.423264
#
# Coordination Sequence:
#
# PCOD9221133 Si02
#       7
#     8   8   8   8   8   8   8
#     4  12  22  39  67  98 130 172 210 264 340 408
#     4   9  19  34  59  99 134 161 202 257 326 397
#     4  11  24  41  65  93 129 171 215 273 324 397
#     4  11  26  45  66  93 127 178 235 276 319 383
#     4  11  23  39  68 100 134 172 213 272 335 402
#     4  11  23  41  64  92 130 169 219 265 325 397
#     4  11  22  42  68  95 134 178 213 272 335 399
#
# _framework density 21.764240999999998
#
# number of rings (size 3 to 8) (size 9 to 14) (size 15 to 20)
#    0.000    1.143    4.286    2.143    0.000    2.857 
#    0.000    2.857    0.000    0.000    0.000    0.000 
#    0.000    0.000    0.000    0.000    0.000    0.000 
#
# Total GULP energy -156386.131499 kJ/mol
# GULP energy per Si atom -5585.218982 kJ/mol
# Density = 2.171470 g / cm^3
# Si number density = 21.764241 Si / 1000 Ang^3
#
#
#
# Elastic Constant Matrix: (Units=GPa)
#
#
# Indices 1 2 3 4 5 6 
#
# 1 87.3765 8.9842 51.3521 -0.0011 5.5389 0.0001
# 2 8.9842 87.5596 18.3716 -0.0001 4.9549 -0.0001
# 3 51.3521 18.3716 122.0594 -0.0027 -6.8892 0.0001
# 4 -0.0011 -0.0001 -0.0027 2.6549 0.0011 -2.8601
# 5 5.5389 4.9549 -6.8892 0.0011 35.2910 -0.0001
# 6 0.0001 -0.0001 0.0001 -2.8601 -0.0001 25.0885
#
#
#
# Elastic Compliance Matrix: (Units=1/GPa)
#
#
# Indices 1 2 3 4 5 6 
#
# 1 0.015691 0.000036 -0.006821 0.000001 -0.003799 0.000000
# 2 0.000036 0.011938 -0.001928 -0.000001 -0.002058 0.000000
# 3 -0.006821 -0.001928 0.011556 0.000008 0.003597 0.000001
# 4 0.000001 -0.000001 0.000008 0.429401 -0.000012 0.048952
# 5 -0.003799 -0.002058 0.003597 -0.000012 0.029923 -0.000001
# 6 0.000000 0.000000 0.000001 0.048952 -0.000001 0.045439
#
#
# Mechanical properties :
#
#
# Convention : Reuss Voigt Hill
#
# Bulk Modulus (GPa) = 45.95976 50.49015 48.22495
# Shear Modulus (GPa) = 8.79310 27.15938 17.97624
#
# Velocity S-wave (km/s) = 2.01220 3.53638 2.87706
# Velocity P-wave (km/s) = 5.15379 6.31852 5.76564
#
# Compressibility (1/GPa) = 0.02175816
#
# Stress axis : x y z
#
# Youngs Moduli (GPa) = 63.73186 83.76525 86.53689
#
# Poissons Ratio (x) = -0.00304 0.59029
# Poissons Ratio (y) = -0.00231 0.16687
# Poissons Ratio (z) = 0.43473 0.16152
#
# Static dielectric constant tensor:
#      x y z
#    x 1.799130 0.000000 -0.003930 
#    y 0.000000 1.844060 0.000000 
#    z -0.003930 0.000000 1.820520 
# 
# From -- ./inp_files/150397.got.cif
#   From: 2010.05.17/outbox.cif.g08.bks.cpg/sg12_76_cif.got.tgz:150397.got - 2010.06.03 13:09:07.
