data_PCOD9221730
_publ_section_title
;
Structure prediction by ZEFSAII (Michael W. Deem and Ramdas Pophale) SiO2 
 PCOD9221730
Probable space group: C 2/M
;
_chemical_formula_sum "Si O2"
_cell_formula_units_Z 40
_cell_length_a 18.823950
_cell_length_b 16.245479
_cell_length_c 16.385461
_cell_angle_alpha 90.000000
_cell_angle_beta 158.107930
_cell_angle_gamma 90.000000
_cell_volume 1868.301656
_symmetry_space_group_name_H-M "C 2/M"
_symmetry_group_IT_number 12
_symmetry_cell_setting 'monoclinic'
loop_
_space_group_symop_operation_xyz
x,y,z
-x,y,-z
-x,-y,-z
x,-y,z
1/2+x,1/2+y,z
1/2-x,1/2+y,-z
1/2-x,1/2-y,-z
1/2+x,1/2-y,z
loop_
_atom_site_type_symbol
_atom_site_label
_atom_site_fract_x
_atom_site_fract_y
_atom_site_fract_z
Si Si1 0.464854 0.589946 0.866516
Si Si2 0.441538 0.404529 0.325670
Si Si3 0.577829 0.862732 0.498715
Si Si4 0.769065 0.686827 0.752122
Si Si5 0.208691 0.835733 0.998621
O O1 0.545057 0.500000 0.928884
O O2 0.239368 0.590091 0.622243
O O3 0.500000 0.601846 0.000000
O O4 0.552639 0.660107 0.904073
O O5 0.425517 0.500000 0.331811
O O6 0.313543 0.347523 0.249710
O O7 0.659153 0.372973 0.570531
O O8 0.367871 0.392920 0.155526
O O9 0.500000 0.900411 0.500000
O O10 0.679161 0.776358 0.634681
O O11 0.401370 0.856171 0.250803
O O12 0.000000 0.686345 0.000000
O O13 0.250000 0.750000 0.000000
#
# Coordination Sequence:
#
# PCOD9221730 Si02
#       5
#     8   8   8   8   8
#     4  11  26  44  69 104 140 184 238 293 350 422
#     4  11  25  45  68 104 144 182 235 299 363 424
#     4  12  23  43  73 102 138 186 241 293 354 427
#     4  11  23  42  73 102 138 186 237 290 357 433
#     4  12  25  46  72 102 142 186 236 298 356 420
#
# _framework density 21.409818999999999
#
# number of rings (size 3 to 8) (size 9 to 14) (size 15 to 20)
#    0.000    0.600    6.000    2.400    2.800    6.000 
#    0.000    0.000    0.000    0.000    0.000    0.000 
#    0.000    0.000    0.000    0.000    0.000    0.000 
#
# Total GULP energy -111698.657544 kJ/mol
# GULP energy per Si atom -5584.932877 kJ/mol
# Density = 2.136109 g / cm^3
# Si number density = 21.409819 Si / 1000 Ang^3
#
#
#
# Elastic Constant Matrix: (Units=GPa)
#
#
# Indices 1 2 3 4 5 6 
#
# 1 110.5989 38.8966 69.1878 -0.0011 -5.3926 0.0030
# 2 38.8966 101.9665 20.5027 0.0024 6.4427 0.0064
# 3 69.1878 20.5027 196.1011 0.0007 -0.5995 0.0075
# 4 -0.0011 0.0024 0.0007 -4.9743 0.0021 25.5381
# 5 -5.3926 6.4427 -0.5995 0.0021 49.3138 0.0024
# 6 0.0030 0.0064 0.0075 25.5381 0.0024 -0.9752
#
#
#
# Elastic Compliance Matrix: (Units=1/GPa)
#
#
# Indices 1 2 3 4 5 6 
#
# 1 0.013321 -0.004354 -0.004239 0.000001 0.001974 0.000001
# 2 -0.004354 0.011528 0.000325 -0.000002 -0.001978 -0.000002
# 3 -0.004239 0.000325 0.006560 -0.000001 -0.000426 -0.000001
# 4 0.000001 -0.000002 -0.000001 0.001506 -0.000002 0.039451
# 5 0.001974 -0.001978 -0.000426 -0.000002 0.020747 -0.000002
# 6 0.000001 -0.000002 -0.000001 0.039451 -0.000002 0.007684
#
#
# Mechanical properties :
#
#
# Convention : Reuss Voigt Hill
#
# Bulk Modulus (GPa) = 67.23676 73.98232 70.60954
# Shear Modulus (GPa) = 60.35848 27.34484 43.85166
#
# Velocity S-wave (km/s) = 5.31537 3.57769 4.53062
# Velocity P-wave (km/s) = 8.31527 7.19005 7.77305
#
# Compressibility (1/GPa) = 0.01487282
#
# Stress axis : x y z
#
# Youngs Moduli (GPa) = 75.07153 86.74795 152.44912
#
# Poissons Ratio (x) = 0.37769 0.64616
# Poissons Ratio (y) = 0.32685 -0.04952
# Poissons Ratio (z) = 0.31819 -0.02818
#
# Static dielectric constant tensor:
#      x y z
#    x 1.735570 0.000000 0.013660 
#    y 0.000000 1.839300 -0.000010 
#    z 0.013660 -0.000010 1.909070 
# 
# From -- ./inp_files/285058.got.cif
#   From: 2010.05.17/outbox.cif.g08.bks.cpg/sg12_143_cif.got.tgz:285058.got - 2010.06.03 13:09:07.
