data_PCOD9221795
_publ_section_title
;
Structure prediction by ZEFSAII (Michael W. Deem and Ramdas Pophale) SiO2 
 PCOD9221795
Probable space group: C 2/M
;
_chemical_formula_sum "Si O2"
_cell_formula_units_Z 28
_cell_length_a 15.141974
_cell_length_b 9.045390
_cell_length_c 14.391875
_cell_angle_alpha 90.000000
_cell_angle_beta 141.754978
_cell_angle_gamma 90.000000
_cell_volume 1220.213604
_symmetry_space_group_name_H-M "C 2/M"
_symmetry_group_IT_number 12
_symmetry_cell_setting 'monoclinic'
loop_
_space_group_symop_operation_xyz
x,y,z
-x,y,-z
-x,-y,-z
x,-y,z
1/2+x,1/2+y,z
1/2-x,1/2+y,-z
1/2-x,1/2-y,-z
1/2+x,1/2-y,z
loop_
_atom_site_type_symbol
_atom_site_label
_atom_site_fract_x
_atom_site_fract_y
_atom_site_fract_z
Si Si1 0.500000 0.756820 0.000000
Si Si2 0.799339 0.670260 0.321891
Si Si3 0.900421 0.333575 0.115905
Si Si4 0.461188 0.677238 0.608110
O O1 0.361055 0.672828 0.847804
O O2 0.554925 0.840635 0.954363
O O3 0.843414 0.500000 0.366119
O O4 0.828371 0.752474 0.443410
O O5 0.900910 0.760440 0.334691
O O6 0.888464 0.500000 0.144061
O O7 0.013693 0.240452 0.268892
O O8 0.750000 0.250000 0.000000
O O9 0.457077 0.500000 0.602764
#
# Coordination Sequence:
#
# PCOD9221795 Si02
#       4
#     4   8   8   8
#     4  12  28  44  74 108 148 182 240 294 360 418
#     4  11  23  43  72 105 142 186 238 294 352 420
#     4  12  26  46  73 105 144 188 235 293 357 421
#     4  11  24  44  71 102 143 190 236 289 355 424
#
# _framework density 22.946802000000002
#
# number of rings (size 3 to 8) (size 9 to 14) (size 15 to 20)
#    0.000    0.571    2.857    6.857    0.000    8.000 
#    0.000    0.000    0.000    0.000    0.000    0.000 
#    0.000    0.000    0.000    0.000    0.000    0.000 
#
# Total GULP energy -78328.391590 kJ/mol
# GULP energy per Si atom -5594.885114 kJ/mol
# Density = 2.289457 g / cm^3
# Si number density = 22.946802 Si / 1000 Ang^3
#
#
#
# Elastic Constant Matrix: (Units=GPa)
#
#
# Indices 1 2 3 4 5 6 
#
# 1 104.5749 39.0989 52.4134 0.0000 -11.6419 0.0000
# 2 39.0989 242.7297 93.2153 0.0000 -7.4766 0.0000
# 3 52.4134 93.2153 207.1154 0.0000 -2.3147 0.0000
# 4 0.0000 0.0000 0.0000 -8.1105 0.0000 -1.6121
# 5 -11.6419 -7.4766 -2.3147 0.0000 52.4267 0.0000
# 6 0.0000 0.0000 0.0000 -1.6121 0.0000 6.2843
#
#
#
# Elastic Compliance Matrix: (Units=1/GPa)
#
#
# Indices 1 2 3 4 5 6 
#
# 1 0.011367 -0.000804 -0.002489 0.000000 0.002299 0.000000
# 2 -0.000804 0.005057 -0.002067 0.000000 0.000451 0.000000
# 3 -0.002489 -0.002067 0.006382 0.000000 -0.000566 0.000000
# 4 0.000000 0.000000 0.000000 -0.117315 0.000000 -0.030094
# 5 0.002299 0.000451 -0.000566 0.000000 0.019624 0.000000
# 6 0.000000 0.000000 0.000000 -0.030094 0.000000 0.151407
#
#
# Mechanical properties :
#
#
# Convention : Reuss Voigt Hill
#
# Bulk Modulus (GPa) = 82.74802 102.65280 92.70041
# Shear Modulus (GPa) = 54.78137 34.76627 44.77382
#
# Velocity S-wave (km/s) = 4.89132 3.89663 4.42203
# Velocity P-wave (km/s) = 8.24858 8.06704 8.15832
#
# Compressibility (1/GPa) = 0.01208488
#
# Stress axis : x y z
#
# Youngs Moduli (GPa) = 87.97678 197.73578 156.68505
#
# Poissons Ratio (x) = 0.15905 0.38995
# Poissons Ratio (y) = 0.07076 0.32395
# Poissons Ratio (z) = 0.21895 0.40882
#
# Static dielectric constant tensor:
#      x y z
#    x 1.912910 0.000000 -0.024740 
#    y 0.000000 1.786330 0.000000 
#    z -0.024740 0.000000 1.869930 
# 
# From -- ./inp_files/211511.got.cif
#   From: 2010.05.17/outbox.cif.g08.bks.cpg/sg12_106_cif.got.tgz:211511.got - 2010.06.03 13:09:07.
