data_PCOD9221954
_publ_section_title
;
Structure prediction by ZEFSAII (Michael W. Deem and Ramdas Pophale) SiO2 
 PCOD9221954
Probable space group: C 2/M
;
_chemical_formula_sum "Si O2"
_cell_formula_units_Z 56
_cell_length_a 9.827752
_cell_length_b 28.925929
_cell_length_c 11.419753
_cell_angle_alpha 90.000000
_cell_angle_beta 121.499180
_cell_angle_gamma 90.000000
_cell_volume 2768.010993
_symmetry_space_group_name_H-M "C 2/M"
_symmetry_group_IT_number 12
_symmetry_cell_setting 'monoclinic'
loop_
_space_group_symop_operation_xyz
x,y,z
-x,y,-z
-x,-y,-z
x,-y,z
1/2+x,1/2+y,z
1/2-x,1/2+y,-z
1/2-x,1/2-y,-z
1/2+x,1/2-y,z
loop_
_atom_site_type_symbol
_atom_site_label
_atom_site_fract_x
_atom_site_fract_y
_atom_site_fract_z
Si Si1 0.361886 0.848646 0.672568
Si Si2 0.097261 0.272188 0.708445
Si Si3 0.554117 0.636748 0.891061
Si Si4 0.481424 0.552498 0.293315
Si Si5 0.764092 0.552851 0.598981
Si Si6 0.687624 0.804209 0.101545
Si Si7 0.669405 0.303774 0.379036
O O1 0.521841 0.819372 0.722354
O O2 0.380768 0.903650 0.666898
O O3 0.295160 0.832237 0.767911
O O4 0.234809 0.832227 0.517809
O O5 0.227032 0.245280 0.845809
O O6 0.183876 0.282352 0.626194
O O7 0.951876 0.236141 0.638057
O O8 0.559605 0.588007 0.826752
O O9 0.719539 0.664649 0.950316
O O10 0.426219 0.665520 0.757191
O O11 0.500000 0.633302 0.000000
O O12 0.479086 0.500000 0.248805
O O13 0.652080 0.560045 0.434347
O O14 0.353645 0.555861 0.341695
O O15 0.827503 0.500000 0.623377
O O16 0.500000 0.798111 0.000000
#
# Coordination Sequence:
#
# PCOD9221954 Si02
#       7
#     8   8   8   8   8   8   8
#     4  12  22  40  71  93 133 168 216 278 325 384
#     4  11  25  42  64  96 131 174 216 269 324 387
#     4  11  24  40  64  95 133 175 219 267 328 391
#     4   9  17  35  63  98 131 164 213 271 333 391
#     4   9  18  35  66 102 129 163 218 278 328 388
#     4  11  27  45  63  91 134 180 221 264 324 394
#     4  11  25  41  66  98 130 171 222 268 326 395
#
# _framework density 20.231131999999999
#
# number of rings (size 3 to 8) (size 9 to 14) (size 15 to 20)
#    0.000    1.429    4.286    1.714    4.000    3.143 
#    0.000    0.000    0.000    4.286    0.000    0.000 
#    0.000    0.571    0.000    0.000    0.000    0.000 
#
# Total GULP energy -156565.432749 kJ/mol
# GULP energy per Si atom -5591.622598 kJ/mol
# Density = 2.018509 g / cm^3
# Si number density = 20.231132 Si / 1000 Ang^3
#
#
#
# Elastic Constant Matrix: (Units=GPa)
#
#
# Indices 1 2 3 4 5 6 
#
# 1 99.8218 52.2957 42.2973 0.0000 5.9604 0.0000
# 2 52.2957 181.4567 60.4794 0.0000 13.9487 0.0000
# 3 42.2973 60.4794 88.0534 0.0000 -1.2241 0.0000
# 4 0.0000 0.0000 0.0000 22.2749 0.0000 -3.9697
# 5 5.9604 13.9487 -1.2241 0.0000 20.3550 0.0000
# 6 0.0000 0.0000 0.0000 -3.9697 0.0000 27.1061
#
#
#
# Elastic Compliance Matrix: (Units=1/GPa)
#
#
# Indices 1 2 3 4 5 6 
#
# 1 0.013378 -0.001914 -0.005152 0.000000 -0.002915 0.000000
# 2 -0.001914 0.008016 -0.004659 0.000000 -0.005213 0.000000
# 3 -0.005152 -0.004659 0.017111 0.000000 0.005730 0.000000
# 4 0.000000 0.000000 0.000000 0.046097 0.000000 0.006751
# 5 -0.002915 -0.005213 0.005730 0.000000 0.053898 0.000000
# 6 0.000000 0.000000 0.000000 0.006751 0.000000 0.037881
#
#
# Mechanical properties :
#
#
# Convention : Reuss Voigt Hill
#
# Bulk Modulus (GPa) = 66.42268 75.49742 70.96005
# Shear Modulus (GPa) = 24.40823 28.23118 26.31971
#
# Velocity S-wave (km/s) = 3.47719 3.73960 3.61078
# Velocity P-wave (km/s) = 7.00174 7.48630 7.24807
#
# Compressibility (1/GPa) = 0.01505510
#
# Stress axis : x y z
#
# Youngs Moduli (GPa) = 74.75083 124.74844 58.44169
#
# Poissons Ratio (x) = 0.23880 0.30108
# Poissons Ratio (y) = 0.14309 0.27227
# Poissons Ratio (z) = 0.38511 0.58118
#
# Static dielectric constant tensor:
#      x y z
#    x 1.710530 0.000000 0.005620 
#    y 0.000000 1.727030 0.000000 
#    z 0.005620 0.000000 1.756280 
# 
# From -- ./inp_files/125852.got.cif
#   From: 2010.05.17/outbox.cif.g08.bks.cpg/sg12_63_cif.got.tgz:125852.got - 2010.06.03 13:09:07.
