data_PCOD9221334
_publ_section_title
;
Structure prediction by ZEFSAII (Michael W. Deem and Ramdas Pophale) SiO2 
 PCOD9221334
Probable space group: C 2/M
;
_chemical_formula_sum "Si O2"
_cell_formula_units_Z 40
_cell_length_a 15.942705
_cell_length_b 8.725663
_cell_length_c 31.268557
_cell_angle_alpha 90.000000
_cell_angle_beta 27.411556
_cell_angle_gamma 90.000000
_cell_volume 2002.551248
_symmetry_space_group_name_H-M "C 2/M"
_symmetry_group_IT_number 12
_symmetry_cell_setting 'monoclinic'
loop_
_space_group_symop_operation_xyz
x,y,z
-x,y,-z
-x,-y,-z
x,-y,z
1/2+x,1/2+y,z
1/2-x,1/2+y,-z
1/2-x,1/2-y,-z
1/2+x,1/2-y,z
loop_
_atom_site_type_symbol
_atom_site_label
_atom_site_fract_x
_atom_site_fract_y
_atom_site_fract_z
Si Si1 0.039817 0.681647 0.710940
Si Si2 0.932898 0.183278 0.396545
Si Si3 0.048067 0.182397 0.094050
Si Si4 0.725536 0.682037 0.706357
Si Si5 0.844837 0.681860 0.105325
O O1 0.053807 0.500000 0.699947
O O2 0.840822 0.728007 0.818722
O O3 0.055071 0.759466 0.657718
O O4 0.186945 0.743540 0.678021
O O5 0.750000 0.250000 0.500000
O O6 0.104390 0.245771 0.345773
O O7 0.931887 0.000000 0.397996
O O8 0.951609 0.206030 0.183339
O O9 0.924967 0.264955 0.114326
O O10 0.051980 0.000000 0.084066
O O11 0.250000 0.250000 0.000000
O O12 0.752993 0.500000 0.689548
O O13 0.806601 0.500000 0.122731
O O14 0.000000 0.712277 0.000000
#
# Coordination Sequence:
#
# PCOD9221334 Si02
#       5
#     8   8   8   8   8
#     4  12  25  43  68 100 136 178 226 276 336 403
#     4  12  26  47  74 102 135 176 223 281 342 403
#     4  11  23  38  61  92 132 176 224 276 333 399
#     4  11  24  44  68  99 136 177 225 279 336 400
#     4  11  23  39  61  92 132 177 226 277 334 397
#
# _framework density 19.974519999999998
#
# number of rings (size 3 to 8) (size 9 to 14) (size 15 to 20)
#    0.000    0.600    2.000    6.600    0.000    9.600 
#    0.000    4.000    0.000    0.000    0.000    0.000 
#    0.000    0.000    0.000    0.000    0.000    0.000 
#
# Total GULP energy -111986.834214 kJ/mol
# GULP energy per Si atom -5599.341711 kJ/mol
# Density = 1.992906 g / cm^3
# Si number density = 19.974520 Si / 1000 Ang^3
#
#
#
# Elastic Constant Matrix: (Units=GPa)
#
#
# Indices 1 2 3 4 5 6 
#
# 1 158.7446 62.1630 46.3832 -0.0010 -7.6627 -0.0019
# 2 62.1630 135.9151 68.0665 -0.0026 -4.7850 -0.0013
# 3 46.3832 68.0665 102.3497 -0.0024 -11.7013 -0.0025
# 4 -0.0010 -0.0026 -0.0024 36.2432 -0.0026 -2.4989
# 5 -7.6627 -4.7850 -11.7013 -0.0026 21.0048 -0.0003
# 6 -0.0019 -0.0013 -0.0025 -2.4989 -0.0003 36.3120
#
#
#
# Elastic Compliance Matrix: (Units=1/GPa)
#
#
# Indices 1 2 3 4 5 6 
#
# 1 0.007917 -0.002780 -0.001582 0.000000 0.001374 0.000000
# 2 -0.002780 0.012064 -0.007011 0.000000 -0.002172 0.000000
# 3 -0.001582 -0.007011 0.015915 0.000001 0.006692 0.000001
# 4 0.000000 0.000000 0.000001 0.027723 0.000004 0.001908
# 5 0.001374 -0.002172 0.006692 0.000004 0.051342 0.000001
# 6 0.000000 0.000000 0.000001 0.001908 0.000001 0.027670
#
#
# Mechanical properties :
#
#
# Convention : Reuss Voigt Hill
#
# Bulk Modulus (GPa) = 76.05094 83.35942 79.70518
# Shear Modulus (GPa) = 29.45321 33.40512 31.42916
#
# Velocity S-wave (km/s) = 3.84414 4.09392 3.97099
# Velocity P-wave (km/s) = 7.60657 8.01064 7.81122
#
# Compressibility (1/GPa) = 0.01314908
#
# Stress axis : x y z
#
# Youngs Moduli (GPa) = 126.31654 82.89118 62.83375
#
# Poissons Ratio (x) = 0.23047 0.09938
# Poissons Ratio (y) = 0.35121 0.44055
# Poissons Ratio (z) = 0.19978 0.58118
#
# Static dielectric constant tensor:
#      x y z
#    x 1.699990 0.000000 0.002450 
#    y 0.000000 1.666710 0.000000 
#    z 0.002450 0.000000 1.707200 
# 
# From -- ./inp_files/211178.got.cif
#   From: 2010.05.17/outbox.cif.g08.bks.cpg/sg12_106_cif.got.tgz:211178.got - 2010.06.03 13:09:07.
