data_PCOD9221257
_publ_section_title
;
Structure prediction by ZEFSAII (Michael W. Deem and Ramdas Pophale) SiO2 
 PCOD9221257
Probable space group: C 2/M
;
_chemical_formula_sum "Si O2"
_cell_formula_units_Z 48
_cell_length_a 13.204077
_cell_length_b 22.777607
_cell_length_c 12.012245
_cell_angle_alpha 90.000000
_cell_angle_beta 43.216790
_cell_angle_gamma 90.000000
_cell_volume 2473.882957
_symmetry_space_group_name_H-M "C 2/M"
_symmetry_group_IT_number 12
_symmetry_cell_setting 'monoclinic'
loop_
_space_group_symop_operation_xyz
x,y,z
-x,y,-z
-x,-y,-z
x,-y,z
1/2+x,1/2+y,z
1/2-x,1/2+y,-z
1/2-x,1/2-y,-z
1/2+x,1/2-y,z
loop_
_atom_site_type_symbol
_atom_site_label
_atom_site_fract_x
_atom_site_fract_y
_atom_site_fract_z
Si Si1 0.146823 0.838533 0.595054
Si Si2 0.296002 0.931838 0.772227
Si Si3 0.653925 0.240975 0.406808
Si Si4 0.355552 0.658624 0.949438
Si Si5 0.861447 0.432731 0.457717
Si Si6 0.857606 0.714191 0.048115
O O1 0.234159 0.801106 0.618569
O O2 0.114229 0.793867 0.521734
O O3 0.262784 0.888235 0.467005
O O4 0.995859 0.863281 0.767103
O O5 0.305547 0.927241 0.630880
O O6 0.463468 0.920889 0.681078
O O7 0.257380 0.000000 0.829147
O O8 0.189242 0.884858 0.915510
O O9 0.500000 0.209682 0.500000
O O10 0.732302 0.266942 0.236116
O O11 0.214143 0.670561 0.983624
O O12 0.399223 0.724034 0.956086
O O13 0.840406 0.500000 0.440673
O O14 0.000000 0.691457 0.000000
#
# Coordination Sequence:
#
# PCOD9221257 Si02
#       6
#     8   8   8   8   8   8
#     4  11  23  35  58  85 110 148 188 225 275 328
#     4   9  20  37  58  82 112 146 182 227 279 329
#     4  11  23  38  54  81 116 150 183 224 275 333
#     4  11  23  36  56  86 113 145 185 230 275 325
#     4   9  20  37  57  83 111 145 184 226 277 330
#     4  11  23  38  54  82 118 147 181 227 277 329
#
# _framework density 19.402695999999999
#
# number of rings (size 3 to 8) (size 9 to 14) (size 15 to 20)
#    0.000    1.667    3.333    2.000    7.000    0.667 
#    0.000    1.667    0.000    2.000    0.000    0.000 
#    0.000    0.000    0.000    0.000    0.000    0.000 
#
# Total GULP energy -134105.114242 kJ/mol
# GULP energy per Si atom -5587.713093 kJ/mol
# Density = 1.935853 g / cm^3
# Si number density = 19.402696 Si / 1000 Ang^3
#
#
#
# Elastic Constant Matrix: (Units=GPa)
#
#
# Indices 1 2 3 4 5 6 
#
# 1 66.5022 2.0553 -10.9804 0.0000 -11.4841 0.0000
# 2 2.0553 54.7353 -0.7536 0.0000 -7.7922 0.0000
# 3 -10.9804 -0.7536 38.5983 0.0000 -6.4861 0.0000
# 4 0.0000 0.0000 0.0000 21.2159 0.0000 1.0053
# 5 -11.4841 -7.7922 -6.4861 0.0000 24.4086 0.0000
# 6 0.0000 0.0000 0.0000 1.0053 0.0000 19.5578
#
#
#
# Elastic Compliance Matrix: (Units=1/GPa)
#
#
# Indices 1 2 3 4 5 6 
#
# 1 0.017979 0.000928 0.006913 0.000000 0.010592 0.000000
# 2 0.000928 0.019267 0.001829 0.000000 0.007073 0.000000
# 3 0.006913 0.001829 0.029889 0.000000 0.011779 0.000000
# 4 0.000000 0.000000 0.000000 0.047250 0.000000 -0.002429
# 5 0.010592 0.007073 0.011779 0.000000 0.051341 0.000000
# 6 0.000000 0.000000 0.000000 -0.002429 0.000000 0.051255
#
#
# Mechanical properties :
#
#
# Convention : Reuss Voigt Hill
#
# Bulk Modulus (GPa) = 11.56415 15.60872 13.58643
# Shear Modulus (GPa) = 22.07827 24.33742 23.20784
#
# Velocity S-wave (km/s) = 3.37693 3.54550 3.46224
# Velocity P-wave (km/s) = 4.60195 4.98225 4.79587
#
# Compressibility (1/GPa) = 0.08647416
#
# Stress axis : x y z
#
# Youngs Moduli (GPa) = 55.62072 51.90210 33.45667
#
# Poissons Ratio (x) = -0.04816 -0.23127
# Poissons Ratio (y) = -0.05162 -0.06118
# Poissons Ratio (z) = -0.38449 -0.09492
#
# Static dielectric constant tensor:
#      x y z
#    x 1.680400 0.000000 -0.006960 
#    y 0.000000 1.684370 0.000000 
#    z -0.006960 0.000000 1.676900 
# 
# From -- ./inp_files/64713.got.cif
#   From: 2010.05.17/outbox.cif.g08.bks.cpg/sg12_33_cif.got.tgz:64713.got - 2010.06.03 13:09:07.
