data_PCOD9221404
_publ_section_title
;
Structure prediction by ZEFSAII (Michael W. Deem and Ramdas Pophale) SiO2 
 PCOD9221404
Probable space group: C 2/M
;
_chemical_formula_sum "Si O2"
_cell_formula_units_Z 40
_cell_length_a 9.145194
_cell_length_b 16.089190
_cell_length_c 24.232504
_cell_angle_alpha 90.000000
_cell_angle_beta 32.646580
_cell_angle_gamma 90.000000
_cell_volume 1923.450529
_symmetry_space_group_name_H-M "C 2/M"
_symmetry_group_IT_number 12
_symmetry_cell_setting 'monoclinic'
loop_
_space_group_symop_operation_xyz
x,y,z
-x,y,-z
-x,-y,-z
x,-y,z
1/2+x,1/2+y,z
1/2-x,1/2+y,-z
1/2-x,1/2-y,-z
1/2+x,1/2-y,z
loop_
_atom_site_type_symbol
_atom_site_label
_atom_site_fract_x
_atom_site_fract_y
_atom_site_fract_z
Si Si1 0.253386 0.669740 0.037665
Si Si2 0.312652 0.592423 0.911223
Si Si3 0.218723 0.165432 0.698968
Si Si4 0.566364 0.000000 0.611079
Si Si5 0.855626 0.000000 0.633035
Si Si6 0.828174 0.163154 0.717540
O O1 0.336638 0.597163 0.969000
O O2 0.500000 0.679958 0.000000
O O3 0.250000 0.750000 0.000000
O O4 0.963999 0.659336 0.158737
O O5 0.372770 0.500000 0.871248
O O6 0.499038 0.653244 0.817649
O O7 0.000000 0.610877 0.000000
O O8 0.411537 0.084743 0.642854
O O9 0.349369 0.254278 0.672659
O O10 0.058862 0.165629 0.691714
O O11 0.625141 0.000000 0.658438
O O12 0.856175 0.000000 0.489264
O O13 0.842230 0.918338 0.675217
#
# Coordination Sequence:
#
# PCOD9221404 Si02
#       6
#     8   8   8   4   4   8
#     4  12  24  38  61  95 141 183 221 270 327 399
#     4  11  23  39  62  98 142 187 228 276 336 409
#     4  12  24  43  73 103 139 190 230 286 347 417
#     4  11  27  53  77  97 135 175 232 307 366 409
#     4  11  29  51  73 105 133 174 236 302 358 421
#     4  12  26  43  70 107 142 184 237 280 344 421
#
# _framework density 20.795960000000001
#
# number of rings (size 3 to 8) (size 9 to 14) (size 15 to 20)
#    0.000    0.400    5.000    3.600    4.200    2.800 
#    0.000    0.000    0.000    0.000    0.000    0.000 
#    0.000    0.000    0.000    0.000    0.000    0.000 
#
# Total GULP energy -111828.582740 kJ/mol
# GULP energy per Si atom -5591.429137 kJ/mol
# Density = 2.074863 g / cm^3
# Si number density = 20.795960 Si / 1000 Ang^3
#
#
#
# Elastic Constant Matrix: (Units=GPa)
#
#
# Indices 1 2 3 4 5 6 
#
# 1 212.4601 82.3194 48.7319 -0.0306 -14.2389 0.0387
# 2 82.3194 182.0676 46.9113 -0.1595 -1.4972 0.1805
# 3 48.7319 46.9113 63.7377 0.2129 4.6338 0.3200
# 4 -0.0306 -0.1595 0.2129 25.3700 -0.0770 -8.6872
# 5 -14.2389 -1.4972 4.6338 -0.0770 26.8021 -0.0929
# 6 0.0387 0.1805 0.3200 -8.6872 -0.0929 69.9705
#
#
#
# Elastic Compliance Matrix: (Units=1/GPa)
#
#
# Indices 1 2 3 4 5 6 
#
# 1 0.006642 -0.001955 -0.003938 0.000052 0.004101 0.000031
# 2 -0.001955 0.007395 -0.003953 0.000081 0.000058 0.000010
# 3 -0.003938 -0.003953 0.022057 -0.000278 -0.006128 -0.000131
# 4 0.000052 0.000081 -0.000278 0.041171 0.000216 0.005113
# 5 0.004101 0.000058 -0.006128 0.000216 0.040553 0.000106
# 6 0.000031 0.000010 -0.000131 0.005113 0.000106 0.014927
#
#
# Mechanical properties :
#
#
# Convention : Reuss Voigt Hill
#
# Bulk Modulus (GPa) = 60.96639 90.46562 75.71601
# Shear Modulus (GPa) = 31.66458 43.11536 37.38997
#
# Velocity S-wave (km/s) = 3.90632 4.55824 4.24482
# Velocity P-wave (km/s) = 7.05166 8.44390 7.77899
#
# Compressibility (1/GPa) = 0.01640248
#
# Stress axis : x y z
#
# Youngs Moduli (GPa) = 150.55031 135.21980 45.33725
#
# Poissons Ratio (x) = 0.26432 0.17855
# Poissons Ratio (y) = 0.29429 0.17922
# Poissons Ratio (z) = 0.59290 0.53453
#
# Static dielectric constant tensor:
#      x y z
#    x 1.699150 -0.000070 0.001840 
#    y -0.000070 1.803570 -0.000110 
#    z 0.001840 -0.000110 1.718640 
# 
# From -- ./inp_files/333467.got.cif
#   From: 2010.05.17/outbox.cif.g08.bks.cpg/sg12_167_cif.got.tgz:333467.got - 2010.06.03 13:09:07.
