data_PCOD9221817
_publ_section_title
;
Structure prediction by ZEFSAII (Michael W. Deem and Ramdas Pophale) SiO2 
 PCOD9221817
Probable space group: C 2/M
;
_chemical_formula_sum "Si O2"
_cell_formula_units_Z 48
_cell_length_a 20.063838
_cell_length_b 15.969288
_cell_length_c 16.185737
_cell_angle_alpha 90.000000
_cell_angle_beta 150.014400
_cell_angle_gamma 90.000000
_cell_volume 2591.868366
_symmetry_space_group_name_H-M "C 2/M"
_symmetry_group_IT_number 12
_symmetry_cell_setting 'monoclinic'
loop_
_space_group_symop_operation_xyz
x,y,z
-x,y,-z
-x,-y,-z
x,-y,z
1/2+x,1/2+y,z
1/2-x,1/2+y,-z
1/2-x,1/2-y,-z
1/2+x,1/2-y,z
loop_
_atom_site_type_symbol
_atom_site_label
_atom_site_fract_x
_atom_site_fract_y
_atom_site_fract_z
Si Si1 0.784353 0.289083 0.947725
Si Si2 0.066337 0.652686 0.305793
Si Si3 0.203477 0.797439 0.559902
Si Si4 0.462777 0.593805 0.364062
Si Si5 0.657460 0.318191 0.149685
Si Si6 0.995713 0.500000 0.637194
Si Si7 0.215818 0.500000 0.737736
O O1 0.667145 0.351152 0.794218
O O2 0.803958 0.220921 0.897242
O O3 0.750000 0.250000 0.000000
O O4 0.926329 0.333286 0.110835
O O5 0.121574 0.734063 0.413139
O O6 0.181598 0.647590 0.360688
O O7 0.038780 0.579731 0.342461
O O8 0.266543 0.737827 0.699043
O O9 0.091655 0.861806 0.466512
O O10 0.500000 0.590037 0.500000
O O11 0.442329 0.500000 0.310024
O O12 0.701954 0.415053 0.190933
O O13 0.500000 0.312838 0.000000
O O14 0.896746 0.500000 0.453569
O O15 0.141400 0.500000 0.748144
#
# Coordination Sequence:
#
# PCOD9221817 Si02
#       7
#     8   8   8   8   8   4   4
#     4  12  24  42  67  98 135 177 221 281 336 404
#     4  11  24  42  65 100 131 175 225 273 337 399
#     4  11  23  44  69  92 134 182 224 275 332 408
#     4  11  25  43  66  97 131 174 228 275 333 395
#     4  12  24  45  68 101 138 181 229 274 346 416
#     4  11  24  42  68  99 136 178 226 280 341 411
#     4  11  25  42  70 100 139 177 224 281 347 407
#
# _framework density 18.519459999999999
#
# number of rings (size 3 to 8) (size 9 to 14) (size 15 to 20)
#    0.000    0.667    6.667    1.250    2.333    0.000 
#    1.500    0.000    0.000    4.000    0.000    0.000 
#    0.000    0.000    0.000    0.000    0.000    0.000 
#
# Total GULP energy -133883.406640 kJ/mol
# GULP energy per Si atom -5578.475277 kJ/mol
# Density = 1.847731 g / cm^3
# Si number density = 18.519460 Si / 1000 Ang^3
#
#
#
# Elastic Constant Matrix: (Units=GPa)
#
#
# Indices 1 2 3 4 5 6 
#
# 1 98.6095 45.4784 51.3753 0.0000 18.5846 0.0000
# 2 45.4784 103.3288 52.3866 0.0000 12.6225 0.0000
# 3 51.3753 52.3866 131.1704 0.0000 19.0977 0.0000
# 4 0.0000 0.0000 0.0000 24.5804 0.0000 17.6660
# 5 18.5846 12.6225 19.0977 0.0000 35.6871 0.0000
# 6 0.0000 0.0000 0.0000 17.6660 0.0000 81.7838
#
#
#
# Elastic Compliance Matrix: (Units=1/GPa)
#
#
# Indices 1 2 3 4 5 6 
#
# 1 0.014683 -0.004186 -0.003450 0.000000 -0.004320 0.000000
# 2 -0.004186 0.013441 -0.003637 0.000000 -0.000628 0.000000
# 3 -0.003450 -0.003637 0.010822 0.000000 -0.002708 0.000000
# 4 0.000000 0.000000 0.000000 0.048159 0.000000 -0.010403
# 5 -0.004320 -0.000628 -0.002708 0.000000 0.031942 0.000000
# 6 0.000000 0.000000 0.000000 -0.010403 0.000000 0.014474
#
#
# Mechanical properties :
#
#
# Convention : Reuss Voigt Hill
#
# Bulk Modulus (GPa) = 60.97711 70.17660 65.57686
# Shear Modulus (GPa) = 30.95316 40.66816 35.81066
#
# Velocity S-wave (km/s) = 4.09269 4.69120 4.40213
# Velocity P-wave (km/s) = 7.43848 8.20481 7.83102
#
# Compressibility (1/GPa) = 0.01639960
#
# Stress axis : x y z
#
# Youngs Moduli (GPa) = 68.10543 74.40056 92.40477
#
# Poissons Ratio (x) = 0.31141 0.31883
# Poissons Ratio (y) = 0.28506 0.33609
# Poissons Ratio (z) = 0.23499 0.27061
#
# Static dielectric constant tensor:
#      x y z
#    x 1.556950 0.000000 0.009100 
#    y 0.000000 1.624130 0.000000 
#    z 0.009100 0.000000 1.617520 
# 
# From -- ./inp_files/112760.got.cif
#   From: 2010.05.17/outbox.cif.g08.bks.cpg/sg12_57_cif.got.tgz:112760.got - 2010.06.03 13:09:07.
