data_PCOD9221104
_publ_section_title
;
Structure prediction by ZEFSAII (Michael W. Deem and Ramdas Pophale) SiO2 
 PCOD9221104
Probable space group: C 2/M
;
_chemical_formula_sum "Si O2"
_cell_formula_units_Z 40
_cell_length_a 19.651051
_cell_length_b 13.001155
_cell_length_c 8.899180
_cell_angle_alpha 90.000000
_cell_angle_beta 69.178524
_cell_angle_gamma 90.000000
_cell_volume 2125.134741
_symmetry_space_group_name_H-M "C 2/M"
_symmetry_group_IT_number 12
_symmetry_cell_setting 'monoclinic'
loop_
_space_group_symop_operation_xyz
x,y,z
-x,y,-z
-x,-y,-z
x,-y,z
1/2+x,1/2+y,z
1/2-x,1/2+y,-z
1/2-x,1/2-y,-z
1/2+x,1/2-y,z
loop_
_atom_site_type_symbol
_atom_site_label
_atom_site_fract_x
_atom_site_fract_y
_atom_site_fract_z
Si Si1 0.554864 0.500000 0.165525
Si Si2 0.116572 0.000000 0.784819
Si Si3 0.080268 0.385068 0.139947
Si Si4 0.407098 0.114645 0.213524
Si Si5 0.170911 0.198800 0.570832
Si Si6 0.921663 0.804494 0.643754
O O1 0.467349 0.500000 0.208330
O O2 0.571892 0.398414 0.246433
O O3 0.601577 0.500000 0.975308
O O4 0.158029 0.899285 0.689136
O O5 0.101330 0.500000 0.173764
O O6 0.096402 0.298218 0.248303
O O7 0.993543 0.386022 0.175635
O O8 0.110798 0.367169 0.948227
O O9 0.377585 0.207803 0.330930
O O10 0.379816 0.000000 0.274855
O O11 0.250000 0.250000 0.500000
O O12 0.139068 0.171303 0.432674
O O13 0.000000 0.792120 0.500000
#
# Coordination Sequence:
#
# PCOD9221104 Si02
#       6
#     4   4   8   8   8   8
#     4  11  22  41  74  95 118 156 220 278 305 358
#     4  11  23  44  67  96 124 164 210 259 322 373
#     4   9  18  34  60  89 118 152 200 246 292 358
#     4   9  18  36  59  86 118 159 196 240 300 360
#     4  12  26  40  60  89 129 164 199 253 325 380
#     4  12  21  37  62  96 121 152 210 266 314 359
#
# _framework density 18.822334999999999
#
# number of rings (size 3 to 8) (size 9 to 14) (size 15 to 20)
#    0.000    1.400    4.000    3.300    1.400    4.400 
#    0.000    4.000    0.000    0.000    0.000    0.000 
#    0.000    0.000    0.000    0.000    0.000    0.000 
#
# Total GULP energy -111611.397614 kJ/mol
# GULP energy per Si atom -5580.569881 kJ/mol
# Density = 1.877949 g / cm^3
# Si number density = 18.822335 Si / 1000 Ang^3
#
#
#
# Elastic Constant Matrix: (Units=GPa)
#
#
# Indices 1 2 3 4 5 6 
#
# 1 49.6277 6.6979 22.7855 0.0000 1.4968 0.0000
# 2 6.6979 109.8710 62.6618 0.0000 10.0497 0.0000
# 3 22.7855 62.6618 87.5902 0.0000 15.4638 0.0000
# 4 0.0000 0.0000 0.0000 48.9081 0.0000 25.7064
# 5 1.4968 10.0497 15.4638 0.0000 16.7452 0.0000
# 6 0.0000 0.0000 0.0000 25.7064 0.0000 56.8181
#
#
#
# Elastic Compliance Matrix: (Units=1/GPa)
#
#
# Indices 1 2 3 4 5 6 
#
# 1 0.023940 0.003606 -0.009615 0.000000 0.004575 0.000000
# 2 0.003606 0.015935 -0.012656 0.000000 0.001802 0.000000
# 3 -0.009615 -0.012656 0.025663 0.000000 -0.015245 0.000000
# 4 0.000000 0.000000 0.000000 0.026826 0.000000 -0.012137
# 5 0.004575 0.001802 -0.015245 0.000000 0.072306 0.000000
# 6 0.000000 0.000000 0.000000 -0.012137 0.000000 0.023091
#
#
# Mechanical properties :
#
#
# Convention : Reuss Voigt Hill
#
# Bulk Modulus (GPa) = 35.45092 47.93103 41.69098
# Shear Modulus (GPa) = 21.32251 34.82385 28.07318
#
# Velocity S-wave (km/s) = 3.36941 4.30599 3.86616
# Velocity P-wave (km/s) = 5.83203 7.08818 6.49056
#
# Compressibility (1/GPa) = 0.02820801
#
# Stress axis : x y z
#
# Youngs Moduli (GPa) = 41.77136 62.75549 38.96615
#
# Poissons Ratio (x) = -0.22627 0.37465
# Poissons Ratio (y) = -0.15061 0.49315
# Poissons Ratio (z) = 0.40163 0.79422
#
# Static dielectric constant tensor:
#      x y z
#    x 1.686570 0.000000 -0.022650 
#    y 0.000000 1.645080 0.000000 
#    z -0.022650 0.000000 1.685000 
# 
# From -- ./inp_files/83981.got.cif
#   From: 2010.05.17/outbox.cif.g08.bks.cpg/sg12_42_cif.got.tgz:83981.got - 2010.06.03 13:09:07.
