data_PCOD9221818
_publ_section_title
;
Structure prediction by ZEFSAII (Michael W. Deem and Ramdas Pophale) SiO2 
 PCOD9221818
Probable space group: C 2/M
;
_chemical_formula_sum "Si O2"
_cell_formula_units_Z 36
_cell_length_a 7.134650
_cell_length_b 15.247975
_cell_length_c 12.666024
_cell_angle_alpha 90.000000
_cell_angle_beta 93.875315
_cell_angle_gamma 90.000000
_cell_volume 1374.773003
_symmetry_space_group_name_H-M "C 2/M"
_symmetry_group_IT_number 12
_symmetry_cell_setting 'monoclinic'
loop_
_space_group_symop_operation_xyz
x,y,z
-x,y,-z
-x,-y,-z
x,-y,z
1/2+x,1/2+y,z
1/2-x,1/2+y,-z
1/2-x,1/2-y,-z
1/2+x,1/2-y,z
loop_
_atom_site_type_symbol
_atom_site_label
_atom_site_fract_x
_atom_site_fract_y
_atom_site_fract_z
Si Si1 0.721501 0.396048 0.521091
Si Si2 0.209056 0.647476 0.701596
Si Si3 0.284767 0.000000 0.144121
Si Si4 0.149396 0.846330 0.744330
Si Si5 0.220404 0.354513 0.018850
O O1 0.500000 0.373116 0.500000
O O2 0.742062 0.500000 0.507766
O O3 0.825869 0.353451 0.425488
O O4 0.763701 0.372650 0.643594
O O5 0.125305 0.574759 0.772876
O O6 0.158521 0.741369 0.745069
O O7 0.433272 0.626009 0.719987
O O8 0.800714 0.920989 0.935574
O O9 0.217898 0.877151 0.860324
O O10 0.250000 0.250000 0.000000
O O11 0.000000 0.373236 0.000000
#
# Coordination Sequence:
#
# PCOD9221818 Si02
#       5
#     8   8   4   8   8
#     4   9  19  38  65 100 131 167 220 276 330 393
#     4  11  23  44  69  98 135 174 220 276 336 395
#     4  12  27  43  71  95 141 173 223 280 335 388
#     4  11  24  41  70  96 133 176 224 269 333 398
#     4  12  27  48  69  98 136 178 224 276 330 397
#
# _framework density 26.186140000000002
#
# number of rings (size 3 to 8) (size 9 to 14) (size 15 to 20)
#    0.000    1.111    3.333    2.333    3.111    0.889 
#    0.000    0.000    0.000    2.667    0.000    0.000 
#    0.000    0.000    0.000    0.000    0.000    0.000 
#
# Total GULP energy -100352.139196 kJ/mol
# GULP energy per Si atom -5575.118844 kJ/mol
# Density = 2.612654 g / cm^3
# Si number density = 26.186140 Si / 1000 Ang^3
#
#
#
# Elastic Constant Matrix: (Units=GPa)
#
#
# Indices 1 2 3 4 5 6 
#
# 1 67.7536 -4.1948 41.2112 0.0000 2.9345 0.0000
# 2 -4.1948 77.8646 35.4669 0.0000 -14.7005 0.0000
# 3 41.2112 35.4669 247.4778 0.0000 6.1984 0.0000
# 4 0.0000 0.0000 0.0000 51.5065 0.0000 9.1351
# 5 2.9345 -14.7005 6.1984 0.0000 43.6048 0.0000
# 6 0.0000 0.0000 0.0000 9.1351 0.0000 389.8930
#
#
#
# Elastic Compliance Matrix: (Units=1/GPa)
#
#
# Indices 1 2 3 4 5 6 
#
# 1 0.016810 0.002356 -0.003140 0.000000 0.000109 0.000000
# 2 0.002356 0.015214 -0.002707 0.000000 0.005355 0.000000
# 3 -0.003140 -0.002707 0.004987 0.000000 -0.001410 0.000000
# 4 0.000000 0.000000 0.000000 0.019496 0.000000 -0.000457
# 5 0.000109 0.005355 -0.001410 0.000000 0.024932 0.000000
# 6 0.000000 0.000000 0.000000 -0.000457 0.000000 0.002576
#
#
# Mechanical properties :
#
#
# Convention : Reuss Voigt Hill
#
# Bulk Modulus (GPa) = 33.29950 59.78473 46.54212
# Shear Modulus (GPa) = 49.50258 118.37503 83.93881
#
# Velocity S-wave (km/s) = 4.35260 6.73078 5.66783
# Velocity P-wave (km/s) = 6.16476 9.12605 7.78746
#
# Compressibility (1/GPa) = 0.03003048
#
# Stress axis : x y z
#
# Youngs Moduli (GPa) = 59.48739 65.72991 200.52667
#
# Poissons Ratio (x) = -0.15489 0.62961
# Poissons Ratio (y) = -0.14018 0.54280
# Poissons Ratio (z) = 0.18678 0.17792
#
# Static dielectric constant tensor:
#      x y z
#    x 2.176950 0.000000 -0.010050 
#    y 0.000000 1.949150 0.000000 
#    z -0.010050 0.000000 2.070070 
# 
# From -- ./inp_files/194220.got.cif
#   From: 2010.05.17/outbox.cif.g08.bks.cpg/sg12_98_cif.got.tgz:194220.got - 2010.06.03 13:09:07.
