data_PCOD9221127
_publ_section_title
;
Structure prediction by ZEFSAII (Michael W. Deem and Ramdas Pophale) SiO2 
 PCOD9221127
Probable space group: C 2/M
;
_chemical_formula_sum "Si O2"
_cell_formula_units_Z 56
_cell_length_a 21.509699
_cell_length_b 19.998178
_cell_length_c 18.802442
_cell_angle_alpha 90.000000
_cell_angle_beta 18.916104
_cell_angle_gamma 90.000000
_cell_volume 2621.981876
_symmetry_space_group_name_H-M "C 2/M"
_symmetry_group_IT_number 12
_symmetry_cell_setting 'monoclinic'
loop_
_space_group_symop_operation_xyz
x,y,z
-x,y,-z
-x,-y,-z
x,-y,z
1/2+x,1/2+y,z
1/2-x,1/2+y,-z
1/2-x,1/2-y,-z
1/2+x,1/2-y,z
loop_
_atom_site_type_symbol
_atom_site_label
_atom_site_fract_x
_atom_site_fract_y
_atom_site_fract_z
Si Si1 0.933737 0.078001 0.748538
Si Si2 0.750126 0.330286 0.347566
Si Si3 0.335559 0.123102 0.728694
Si Si4 0.421645 0.162594 0.901117
Si Si5 0.222587 0.234284 0.239487
Si Si6 0.549391 0.423852 0.787489
Si Si7 0.380298 0.816629 0.459884
O O1 0.069003 0.121689 0.551657
O O2 0.002408 0.089207 0.755316
O O3 0.948778 0.000000 0.716645
O O4 0.717880 0.103735 0.972459
O O5 0.806759 0.316810 0.205301
O O6 0.696785 0.255527 0.432734
O O7 0.913788 0.358232 0.221926
O O8 0.500000 0.092079 0.500000
O O9 0.241279 0.187003 0.790182
O O10 0.458067 0.154547 0.661499
O O11 0.155052 0.081625 0.951048
O O12 0.522763 0.191818 0.722174
O O13 0.292840 0.214852 0.085236
O O14 0.000000 0.228210 0.500000
O O15 0.622950 0.500000 0.715372
O O16 0.705926 0.369754 0.643072
#
# Coordination Sequence:
#
# PCOD9221127 Si02
#       7
#     8   8   8   8   8   8   8
#     4  11  25  44  67  97 138 182 229 283 339 409
#     4  12  24  44  68 105 137 178 224 292 344 405
#     4  11  23  44  68  97 138 182 222 277 345 410
#     4  12  24  39  69 100 130 175 230 277 343 404
#     4  11  22  42  67  97 143 173 218 285 352 397
#     4  11  26  45  67 100 142 183 229 285 339 406
#     4  12  24  41  72 106 131 176 236 288 340 404
#
# _framework density 21.357889
#
# number of rings (size 3 to 8) (size 9 to 14) (size 15 to 20)
#    0.000    0.571    7.143    1.714    2.000    3.714 
#    0.000    2.143    0.000    1.714    0.000    0.000 
#    0.000    0.000    0.000    0.000    0.000    0.000 
#
# Total GULP energy -156477.265514 kJ/mol
# GULP energy per Si atom -5588.473768 kJ/mol
# Density = 2.130928 g / cm^3
# Si number density = 21.357889 Si / 1000 Ang^3
#
#
#
# Elastic Constant Matrix: (Units=GPa)
#
#
# Indices 1 2 3 4 5 6 
#
# 1 72.2498 22.7325 19.2691 0.0333 4.5649 -0.0129
# 2 22.7325 99.9166 35.7568 0.0158 -6.5771 -0.0145
# 3 19.2691 35.7568 108.6083 -0.0167 12.4553 -0.0053
# 4 0.0333 0.0158 -0.0167 7.8338 -0.0009 0.7472
# 5 4.5649 -6.5771 12.4553 -0.0009 47.2266 0.0025
# 6 -0.0129 -0.0145 -0.0053 0.7472 0.0025 16.3222
#
#
#
# Elastic Compliance Matrix: (Units=1/GPa)
#
#
# Indices 1 2 3 4 5 6 
#
# 1 0.015300 -0.003025 -0.001547 -0.000064 -0.001492 0.000012
# 2 -0.003025 0.012273 -0.003850 -0.000020 0.003017 0.000008
# 3 -0.001547 -0.003850 0.011130 0.000038 -0.003322 -0.000002
# 4 -0.000064 -0.000020 0.000038 0.128211 -0.000004 -0.005870
# 5 -0.001492 0.003017 -0.003322 -0.000004 0.022615 -0.000003
# 6 0.000012 0.000008 -0.000002 -0.005870 -0.000003 0.061535
#
#
# Mechanical properties :
#
#
# Convention : Reuss Voigt Hill
#
# Bulk Modulus (GPa) = 45.74975 48.47682 47.11329
# Shear Modulus (GPa) = 18.16889 27.81096 22.98993
#
# Velocity S-wave (km/s) = 2.91982 3.61243 3.28443
# Velocity P-wave (km/s) = 5.73011 6.33610 6.04071
#
# Compressibility (1/GPa) = 0.02185804
#
# Stress axis : x y z
#
# Youngs Moduli (GPa) = 65.36061 81.47975 89.84427
#
# Poissons Ratio (x) = 0.24651 0.13902
# Poissons Ratio (y) = 0.19774 0.34589
# Poissons Ratio (z) = 0.10113 0.31368
#
# Static dielectric constant tensor:
#      x y z
#    x 1.855780 0.000010 -0.040270 
#    y 0.000010 1.737910 0.000010 
#    z -0.040270 0.000010 1.819180 
# 
# From -- ./inp_files/285979.got.cif
#   From: 2010.05.17/outbox.cif.g08.bks.cpg/sg12_143_cif.got.tgz:285979.got - 2010.06.03 13:09:07.
