data_PCOD9221581
_publ_section_title
;
Structure prediction by ZEFSAII (Michael W. Deem and Ramdas Pophale) SiO2 
 PCOD9221581
Probable space group: C 2/M
;
_chemical_formula_sum "Si O2"
_cell_formula_units_Z 56
_cell_length_a 20.620529
_cell_length_b 29.061734
_cell_length_c 8.990994
_cell_angle_alpha 90.000000
_cell_angle_beta 150.377414
_cell_angle_gamma 90.000000
_cell_volume 2663.214205
_symmetry_space_group_name_H-M "C 2/M"
_symmetry_group_IT_number 12
_symmetry_cell_setting 'monoclinic'
loop_
_space_group_symop_operation_xyz
x,y,z
-x,y,-z
-x,-y,-z
x,-y,z
1/2+x,1/2+y,z
1/2-x,1/2+y,-z
1/2-x,1/2-y,-z
1/2+x,1/2-y,z
loop_
_atom_site_type_symbol
_atom_site_label
_atom_site_fract_x
_atom_site_fract_y
_atom_site_fract_z
Si Si1 0.375294 0.857587 0.343620
Si Si2 0.018847 0.500000 0.292154
Si Si3 0.639814 0.609076 0.351989
Si Si4 0.120158 0.749724 0.642930
Si Si5 0.609100 0.091120 0.318161
Si Si6 0.277288 0.000000 0.028390
Si Si7 0.359101 0.717053 0.647726
Si Si8 0.358501 0.402389 0.290163
O O1 0.500000 0.877053 0.500000
O O2 0.404850 0.804390 0.435313
O O3 0.357002 0.881812 0.464523
O O4 0.247640 0.866897 0.989187
O O5 0.040231 0.544959 0.237411
O O6 0.131498 0.500000 0.643619
O O7 0.878859 0.500000 0.093518
O O8 0.760064 0.582739 0.515288
O O9 0.666406 0.663231 0.373604
O O10 0.635755 0.601783 0.520443
O O11 0.500000 0.597229 0.000000
O O12 0.135639 0.775145 0.518382
O O13 0.000000 0.768752 0.500000
O O14 0.250000 0.750000 0.000000
O O15 0.500000 0.116499 0.000000
O O16 0.192390 0.953569 0.852988
O O17 0.250000 0.750000 0.500000
O O18 0.500000 0.728325 0.000000
O O19 0.500000 0.394436 0.500000
#
# Coordination Sequence:
#
# PCOD9221581 Si02
#       8
#     8   4   8   8   8   4   8   8
#     4  11  23  41  65  96 130 171 219 272 323 384
#     4  11  23  42  72  97 131 168 211 263 320 380
#     4  11  26  44  63  96 133 172 214 266 327 383
#     4  11  24  40  64  96 128 168 224 276 322 377
#     4  12  24  41  67  99 130 167 215 265 319 382
#     4  11  23  44  70 100 129 167 215 263 318 382
#     4  11  24  43  66  91 131 175 215 264 328 388
#     4  12  25  44  69  95 132 174 218 264 322 387
#
# _framework density 21.027221999999998
#
# number of rings (size 3 to 8) (size 9 to 14) (size 15 to 20)
#    0.000    0.714    1.429    6.429    0.000    9.714 
#    0.000    0.714    0.000    0.000    0.000    0.000 
#    0.000    0.000    0.000    0.000    0.000    0.000 
#
# Total GULP energy -156780.368529 kJ/mol
# GULP energy per Si atom -5599.298876 kJ/mol
# Density = 2.097936 g / cm^3
# Si number density = 21.027222 Si / 1000 Ang^3
#
#
#
# Elastic Constant Matrix: (Units=GPa)
#
#
# Indices 1 2 3 4 5 6 
#
# 1 143.3155 -12.9468 49.2685 0.0000 4.0883 0.0000
# 2 -12.9468 28.2205 -16.8549 0.0000 5.2200 0.0000
# 3 49.2685 -16.8549 125.2844 0.0000 -0.4286 0.0000
# 4 0.0000 0.0000 0.0000 18.2797 0.0000 -2.7912
# 5 4.0883 5.2200 -0.4286 0.0000 48.6362 0.0000
# 6 0.0000 0.0000 0.0000 -2.7912 0.0000 23.5171
#
#
#
# Elastic Compliance Matrix: (Units=1/GPa)
#
#
# Indices 1 2 3 4 5 6 
#
# 1 0.008213 0.002189 -0.002938 0.000000 -0.000951 0.000000
# 2 0.002189 0.039946 0.004498 0.000000 -0.004432 0.000000
# 3 -0.002938 0.004498 0.009742 0.000000 -0.000150 0.000000
# 4 0.000000 0.000000 0.000000 0.055715 0.000000 0.006613
# 5 -0.000951 -0.004432 -0.000150 0.000000 0.021115 0.000000
# 6 0.000000 0.000000 0.000000 0.006613 0.000000 0.043307
#
#
# Mechanical properties :
#
#
# Convention : Reuss Voigt Hill
#
# Bulk Modulus (GPa) = 15.29125 37.30601 26.29863
# Shear Modulus (GPa) = 25.99568 36.57686 31.28627
#
# Velocity S-wave (km/s) = 3.51990 4.17526 3.86151
# Velocity P-wave (km/s) = 4.87929 6.40500 5.69348
#
# Compressibility (1/GPa) = 0.06539688
#
# Stress axis : x y z
#
# Youngs Moduli (GPa) = 121.76363 25.03408 102.64803
#
# Poissons Ratio (x) = -0.05479 0.30163
# Poissons Ratio (y) = -0.26650 -0.46172
# Poissons Ratio (z) = 0.35780 -0.11261
#
# Static dielectric constant tensor:
#      x y z
#    x 1.717600 0.000000 -0.002100 
#    y 0.000000 1.772790 0.000000 
#    z -0.002100 0.000000 1.680840 
# 
# From -- ./inp_files/91678.got.cif
#   From: 2010.05.17/outbox.cif.g08.bks.cpg/sg12_46_cif.got.tgz:91678.got - 2010.06.03 13:09:07.
