data_PCOD9221916
_publ_section_title
;
Structure prediction by ZEFSAII (Michael W. Deem and Ramdas Pophale) SiO2 
 PCOD9221916
Probable space group: C 2/M
;
_chemical_formula_sum "Si O2"
_cell_formula_units_Z 48
_cell_length_a 28.232728
_cell_length_b 7.671926
_cell_length_c 11.364959
_cell_angle_alpha 90.000000
_cell_angle_beta 58.206647
_cell_angle_gamma 90.000000
_cell_volume 2092.283128
_symmetry_space_group_name_H-M "C 2/M"
_symmetry_group_IT_number 12
_symmetry_cell_setting 'monoclinic'
loop_
_space_group_symop_operation_xyz
x,y,z
-x,y,-z
-x,-y,-z
x,-y,z
1/2+x,1/2+y,z
1/2-x,1/2+y,-z
1/2-x,1/2-y,-z
1/2+x,1/2-y,z
loop_
_atom_site_type_symbol
_atom_site_label
_atom_site_fract_x
_atom_site_fract_y
_atom_site_fract_z
Si Si1 0.177731 0.209593 0.843452
Si Si2 0.216214 0.291369 0.424890
Si Si3 0.484426 0.213004 0.330158
Si Si4 0.610691 0.210205 0.697325
Si Si5 0.582594 0.205985 0.351799
Si Si6 0.314853 0.706092 0.912521
O O1 0.240275 0.276291 0.729238
O O2 0.135385 0.246822 0.792754
O O3 0.181983 0.000000 0.843978
O O4 0.161618 0.275591 0.993325
O O5 0.211547 0.500000 0.414106
O O6 0.250000 0.250000 0.500000
O O7 0.154887 0.226038 0.539681
O O8 0.451049 0.270862 0.257935
O O9 0.545713 0.273366 0.289578
O O10 0.445311 0.268478 0.491482
O O11 0.486302 0.000000 0.321566
O O12 0.611318 0.000000 0.690138
O O13 0.647611 0.230896 0.244267
O O14 0.573816 0.000000 0.368381
O O15 0.320308 0.500000 0.903305
O O16 0.250000 0.750000 0.000000
#
# Coordination Sequence:
#
# PCOD9221916 Si02
#       6
#     8   8   8   8   8   8
#     4   9  19  34  49  71 106 141 174 214 267 320
#     4   8  14  25  43  67  96 129 161 204 252 298
#     4   8  16  32  58  86 108 139 180 222 271 319
#     4   9  16  28  52  80 104 132 176 222 261 311
#     4   9  18  36  59  81 109 143 181 223 266 319
#     4  11  24  39  56  78 107 145 183 221 267 324
#
# _framework density 22.941445000000002
#
# number of rings (size 3 to 8) (size 9 to 14) (size 15 to 20)
#    0.000    3.000    0.000    1.500    2.333    1.333 
#    0.000    4.167    0.000    5.000    0.000    0.000 
#    0.000    0.000    0.000    0.000    0.000    0.000 
#
# Total GULP energy -133733.129456 kJ/mol
# GULP energy per Si atom -5572.213727 kJ/mol
# Density = 2.288923 g / cm^3
# Si number density = 22.941445 Si / 1000 Ang^3
#
#
#
# Elastic Constant Matrix: (Units=GPa)
#
#
# Indices 1 2 3 4 5 6 
#
# 1 110.5043 -9.9105 1.3583 0.0000 -1.5453 0.0000
# 2 -9.9105 36.4799 -7.5324 0.0000 3.2325 0.0000
# 3 1.3583 -7.5324 56.8017 0.0000 -3.7458 0.0000
# 4 0.0000 0.0000 0.0000 11.6354 0.0000 1.0318
# 5 -1.5453 3.2325 -3.7458 0.0000 26.6370 0.0000
# 6 0.0000 0.0000 0.0000 1.0318 0.0000 9.6303
#
#
#
# Elastic Compliance Matrix: (Units=1/GPa)
#
#
# Indices 1 2 3 4 5 6 
#
# 1 0.009278 0.002525 0.000129 0.000000 0.000250 0.000000
# 2 0.002525 0.029098 0.003609 0.000000 -0.002877 0.000000
# 3 0.000129 0.003609 0.018221 0.000000 0.002132 0.000000
# 4 0.000000 0.000000 0.000000 0.086769 0.000000 -0.009297
# 5 0.000250 -0.002877 0.002132 0.000000 0.038205 0.000000
# 6 0.000000 0.000000 0.000000 -0.009297 0.000000 0.104835
#
#
# Mechanical properties :
#
#
# Convention : Reuss Voigt Hill
#
# Bulk Modulus (GPa) = 14.46685 19.06852 16.76768
# Shear Modulus (GPa) = 16.83944 24.23857 20.53900
#
# Velocity S-wave (km/s) = 2.71222 3.25397 2.99537
# Velocity P-wave (km/s) = 4.01595 4.73790 4.39178
#
# Compressibility (1/GPa) = 0.06912356
#
# Stress axis : x y z
#
# Youngs Moduli (GPa) = 107.78430 34.36616 54.88138
#
# Poissons Ratio (x) = -0.08678 -0.00711
# Poissons Ratio (y) = -0.27216 -0.19804
# Poissons Ratio (z) = -0.01396 -0.12401
#
# Static dielectric constant tensor:
#      x y z
#    x 1.898680 0.000000 0.018150 
#    y 0.000000 1.860140 0.000000 
#    z 0.018150 0.000000 1.831010 
# 
# From -- ./inp_files/179740.got.cif
#   From: 2010.05.17/outbox.cif.g08.bks.cpg/sg12_90_cif.got.tgz:179740.got - 2010.06.03 13:09:07.
