data_PCOD9221510
_publ_section_title
;
Structure prediction by ZEFSAII (Michael W. Deem and Ramdas Pophale) SiO2 
 PCOD9221510
Probable space group: C 2/M
;
_chemical_formula_sum "Si O2"
_cell_formula_units_Z 48
_cell_length_a 20.598118
_cell_length_b 8.678819
_cell_length_c 21.330695
_cell_angle_alpha 90.000000
_cell_angle_beta 138.164209
_cell_angle_gamma 90.000000
_cell_volume 2543.417890
_symmetry_space_group_name_H-M "C 2/M"
_symmetry_group_IT_number 12
_symmetry_cell_setting 'monoclinic'
loop_
_space_group_symop_operation_xyz
x,y,z
-x,y,-z
-x,-y,-z
x,-y,z
1/2+x,1/2+y,z
1/2-x,1/2+y,-z
1/2-x,1/2-y,-z
1/2+x,1/2-y,z
loop_
_atom_site_type_symbol
_atom_site_label
_atom_site_fract_x
_atom_site_fract_y
_atom_site_fract_z
Si Si1 0.981534 0.315996 0.795806
Si Si2 0.673343 0.315898 0.995380
Si Si3 0.470549 0.816216 0.315038
Si Si4 0.215124 0.815946 0.288971
Si Si5 0.256061 0.315990 0.183106
Si Si6 0.585801 0.315669 0.511610
O O1 0.986100 0.500000 0.808622
O O2 0.877652 0.252575 0.742103
O O3 0.066915 0.235958 0.896727
O O4 0.001241 0.285503 0.736557
O O5 0.681508 0.500000 0.002750
O O6 0.750000 0.250000 0.000000
O O7 0.700311 0.247535 0.082325
O O8 0.368579 0.734480 0.257130
O O9 0.550994 0.754082 0.420829
O O10 0.458493 0.000000 0.314257
O O11 0.215770 0.755817 0.218084
O O12 0.314401 0.756727 0.392234
O O13 0.212432 0.000000 0.287898
O O14 0.249948 0.500000 0.181370
O O15 0.500000 0.282886 0.500000
O O16 0.596126 0.500000 0.514480
#
# Coordination Sequence:
#
# PCOD9221510 Si02
#       6
#     8   8   8   8   8   8
#     4  11  25  45  67  96 135 172 215 270 330 386
#     4  12  24  41  67  99 132 171 220 267 321 384
#     4  11  23  40  67  98 129 169 218 269 323 385
#     4  12  26  44  67  96 133 172 217 270 330 389
#     4  12  24  41  67  97 131 171 218 268 324 385
#     4  11  23  40  66  97 130 171 219 266 322 387
#
# _framework density 18.872243999999998
#
# number of rings (size 3 to 8) (size 9 to 14) (size 15 to 20)
#    0.000    0.500    3.333    6.000    0.000    4.000 
#    0.000    3.333    0.000    0.000    0.000    0.000 
#    0.000    0.000    0.000    0.000    0.000    0.000 
#
# Total GULP energy -134375.468999 kJ/mol
# GULP energy per Si atom -5598.977875 kJ/mol
# Density = 1.882929 g / cm^3
# Si number density = 18.872244 Si / 1000 Ang^3
#
#
#
# Elastic Constant Matrix: (Units=GPa)
#
#
# Indices 1 2 3 4 5 6 
#
# 1 45.9918 12.8459 -10.3541 0.0000 10.3941 0.0000
# 2 12.8459 71.2871 -3.0023 0.0000 -1.6735 0.0000
# 3 -10.3541 -3.0023 75.8397 0.0000 -7.4725 0.0000
# 4 0.0000 0.0000 0.0000 39.7902 0.0000 2.5085
# 5 10.3941 -1.6735 -7.4725 0.0000 35.3257 0.0000
# 6 0.0000 0.0000 0.0000 2.5085 0.0000 32.3478
#
#
#
# Elastic Compliance Matrix: (Units=1/GPa)
#
#
# Indices 1 2 3 4 5 6 
#
# 1 0.025208 -0.004601 0.002560 0.000000 -0.007093 0.000000
# 2 -0.004601 0.014913 0.000169 0.000000 0.002096 0.000000
# 3 0.002560 0.000169 0.013755 0.000000 0.002164 0.000000
# 4 0.000000 0.000000 0.000000 0.025255 0.000000 -0.001958
# 5 -0.007093 0.002096 0.002164 0.000000 0.030952 0.000000
# 6 0.000000 0.000000 0.000000 -0.001958 0.000000 0.031066
#
#
# Mechanical properties :
#
#
# Convention : Reuss Voigt Hill
#
# Bulk Modulus (GPa) = 19.94724 21.34417 20.64571
# Shear Modulus (GPa) = 30.93985 34.40138 32.67061
#
# Velocity S-wave (km/s) = 4.05339 4.27412 4.16522
# Velocity P-wave (km/s) = 5.70081 5.97427 5.83914
#
# Compressibility (1/GPa) = 0.05013224
#
# Stress axis : x y z
#
# Youngs Moduli (GPa) = 39.67051 67.05465 72.69981
#
# Poissons Ratio (x) = 0.30852 -0.18615
# Poissons Ratio (y) = 0.18253 -0.01227
# Poissons Ratio (z) = -0.10157 -0.01131
#
# Static dielectric constant tensor:
#      x y z
#    x 1.622650 0.000000 -0.005480 
#    y 0.000000 1.628950 0.000000 
#    z -0.005480 0.000000 1.627700 
# 
# From -- ./inp_files/320324.got.cif
#   From: 2010.05.17/outbox.cif.g08.bks.cpg/sg12_161_cif.got.tgz:320324.got - 2010.06.03 13:09:07.
