data_PCOD9221259
_publ_section_title
;
Structure prediction by ZEFSAII (Michael W. Deem and Ramdas Pophale) SiO2 
 PCOD9221259
Probable space group: C 2/M
;
_chemical_formula_sum "Si O2"
_cell_formula_units_Z 48
_cell_length_a 22.973610
_cell_length_b 11.958246
_cell_length_c 22.534915
_cell_angle_alpha 90.000000
_cell_angle_beta 21.576825
_cell_angle_gamma 90.000000
_cell_volume 2276.687896
_symmetry_space_group_name_H-M "C 2/M"
_symmetry_group_IT_number 12
_symmetry_cell_setting 'monoclinic'
loop_
_space_group_symop_operation_xyz
x,y,z
-x,y,-z
-x,-y,-z
x,-y,z
1/2+x,1/2+y,z
1/2-x,1/2+y,-z
1/2-x,1/2-y,-z
1/2+x,1/2-y,z
loop_
_atom_site_type_symbol
_atom_site_label
_atom_site_fract_x
_atom_site_fract_y
_atom_site_fract_z
Si Si1 0.046583 0.759650 0.124557
Si Si2 0.010852 0.182913 0.631837
Si Si3 0.330055 0.365203 0.633915
Si Si4 0.333168 0.129906 0.096713
Si Si5 0.679485 0.373883 0.584983
Si Si6 0.112806 0.370162 0.178271
O O1 0.047217 0.665365 0.175822
O O2 0.906956 0.845693 0.271347
O O3 0.058394 0.702396 0.049512
O O4 0.211354 0.822694 0.980369
O O5 0.153253 0.169453 0.450196
O O6 0.048323 0.119457 0.657055
O O7 0.845745 0.138079 0.761413
O O8 0.986163 0.310193 0.675933
O O9 0.500000 0.328518 0.500000
O O10 0.327320 0.500000 0.637132
O O11 0.194851 0.331112 0.808819
O O12 0.382472 0.000000 0.049261
O O13 0.754540 0.500000 0.514808
O O14 0.750000 0.250000 0.500000
O O15 0.115804 0.500000 0.181426
#
# Coordination Sequence:
#
# PCOD9221259 Si02
#       6
#     8   8   8   8   8   8
#     4   9  18  29  45  67  93 121 150 192 239 286
#     4   9  17  29  47  70  99 127 152 190 236 282
#     4   8  13  23  43  71  99 122 145 179 230 288
#     4   9  15  25  48  78 101 121 145 183 238 293
#     4  11  23  36  50  68  93 129 168 203 238 276
#     4   9  16  26  44  69  94 122 152 186 235 290
#
# _framework density 21.083259000000002
#
# number of rings (size 3 to 8) (size 9 to 14) (size 15 to 20)
#    0.000    2.833    0.000    4.500    0.000    3.333 
#    0.000    0.000    0.000   14.500    0.000    4.667 
#    0.000    0.000    0.000    0.000    0.000    0.000 
#
# Total GULP energy -133716.906985 kJ/mol
# GULP energy per Si atom -5571.537791 kJ/mol
# Density = 2.103527 g / cm^3
# Si number density = 21.083259 Si / 1000 Ang^3
#
#
#
# Elastic Constant Matrix: (Units=GPa)
#
#
# Indices 1 2 3 4 5 6 
#
# 1 64.5155 16.5610 27.1488 -0.0002 15.8366 -0.0001
# 2 16.5610 138.2934 40.7921 0.0027 16.5181 -0.0012
# 3 27.1488 40.7921 114.8253 -0.0004 41.2922 0.0002
# 4 -0.0002 0.0027 -0.0004 25.6960 0.0007 6.0100
# 5 15.8366 16.5181 41.2922 0.0007 39.4251 -0.0005
# 6 -0.0001 -0.0012 0.0002 6.0100 -0.0005 10.5388
#
#
#
# Elastic Compliance Matrix: (Units=1/GPa)
#
#
# Indices 1 2 3 4 5 6 
#
# 1 0.017775 -0.000928 -0.002318 0.000000 -0.004323 0.000000
# 2 -0.000928 0.008135 -0.002533 -0.000001 -0.000383 0.000002
# 3 -0.002318 -0.002533 0.015144 0.000001 -0.013869 -0.000002
# 4 0.000000 -0.000001 0.000001 0.044906 -0.000002 -0.025609
# 5 -0.004323 -0.000383 -0.013869 -0.000002 0.041787 0.000003
# 6 0.000000 0.000002 -0.000002 -0.025609 0.000003 0.109491
#
#
# Mechanical properties :
#
#
# Convention : Reuss Voigt Hill
#
# Bulk Modulus (GPa) = 33.90380 54.07088 43.98734
# Shear Modulus (GPa) = 19.33265 30.67414 25.00340
#
# Velocity S-wave (km/s) = 3.03143 3.81846 3.44748
# Velocity P-wave (km/s) = 5.32622 6.71885 6.06265
#
# Compressibility (1/GPa) = 0.02949522
#
# Stress axis : x y z
#
# Youngs Moduli (GPa) = 56.25809 122.92553 66.03178
#
# Poissons Ratio (x) = 0.11413 0.15308
# Poissons Ratio (y) = 0.05223 0.16725
# Poissons Ratio (z) = 0.13042 0.31136
#
# Static dielectric constant tensor:
#      x y z
#    x 1.803650 0.000000 -0.049660 
#    y 0.000000 1.725590 0.000000 
#    z -0.049660 0.000000 1.892070 
# 
# From -- ./inp_files/351859.got.cif
#   From: 2010.05.17/outbox.cif.g08.bks.cpg/sg12_176_cif.got.tgz:351859.got - 2010.06.03 13:09:07.
