data_PCOD9221159
_publ_section_title
;
Structure prediction by ZEFSAII (Michael W. Deem and Ramdas Pophale) SiO2 
 PCOD9221159
Probable space group: C 2/M
;
_chemical_formula_sum "Si O2"
_cell_formula_units_Z 56
_cell_length_a 12.574810
_cell_length_b 27.212979
_cell_length_c 8.022216
_cell_angle_alpha 90.000000
_cell_angle_beta 66.448894
_cell_angle_gamma 90.000000
_cell_volume 2516.523638
_symmetry_space_group_name_H-M "C 2/M"
_symmetry_group_IT_number 12
_symmetry_cell_setting 'monoclinic'
loop_
_space_group_symop_operation_xyz
x,y,z
-x,y,-z
-x,-y,-z
x,-y,z
1/2+x,1/2+y,z
1/2-x,1/2+y,-z
1/2-x,1/2-y,-z
1/2+x,1/2-y,z
loop_
_atom_site_type_symbol
_atom_site_label
_atom_site_fract_x
_atom_site_fract_y
_atom_site_fract_z
Si Si1 0.898462 0.388564 0.961262
Si Si2 0.747087 0.308752 0.006240
Si Si3 0.153310 0.944090 0.080946
Si Si4 0.493858 0.710087 0.704177
Si Si5 0.894486 0.943426 0.286564
Si Si6 0.044638 0.318388 0.658792
Si Si7 0.724990 0.344957 0.640980
O O1 0.844838 0.335780 0.056368
O O2 0.981637 0.367043 0.764340
O O3 0.778318 0.418039 0.020785
O O4 0.000000 0.415049 0.000000
O O5 0.758754 0.332947 0.813681
O O6 0.750000 0.250000 0.000000
O O7 0.620246 0.317307 0.160166
O O8 0.028869 0.928319 0.238836
O O9 0.169289 0.000000 0.127124
O O10 0.124081 0.944158 0.902198
O O11 0.500000 0.709739 0.500000
O O12 0.504200 0.766538 0.760998
O O13 0.604839 0.682684 0.701193
O O14 0.802665 0.901364 0.391973
O O15 0.876841 0.000000 0.355878
O O16 0.181623 0.323375 0.545066
O O17 0.000000 0.314039 0.500000
#
# Coordination Sequence:
#
# PCOD9221159 Si02
#       7
#     8   8   8   8   8   8   8
#     4  12  25  38  61  90 130 168 213 260 317 379
#     4  12  23  40  61  88 123 167 221 257 304 377
#     4   9  18  37  62  92 123 156 208 266 322 379
#     4  11  25  39  59  90 125 166 211 259 319 375
#     4   9  18  37  68  97 120 152 212 279 319 369
#     4  11  22  43  56  86 128 169 206 256 307 377
#     4  12  23  39  67  89 128 166 211 262 322 374
#
# _framework density 22.252918999999999
#
# number of rings (size 3 to 8) (size 9 to 14) (size 15 to 20)
#    0.000    1.143    4.286    3.429    6.000    0.286 
#    0.000    0.714    0.000    3.000    0.000    0.000 
#    0.000    0.000    0.000    0.000    0.000    0.000 
#
# Total GULP energy -155931.659847 kJ/mol
# GULP energy per Si atom -5568.987852 kJ/mol
# Density = 2.220227 g / cm^3
# Si number density = 22.252919 Si / 1000 Ang^3
#
#
#
# Elastic Constant Matrix: (Units=GPa)
#
#
# Indices 1 2 3 4 5 6 
#
# 1 121.4363 17.0244 14.8410 0.0000 -27.8116 0.0000
# 2 17.0244 82.9823 -6.7868 0.0000 -5.8116 0.0000
# 3 14.8410 -6.7868 56.4119 0.0000 -23.5759 0.0000
# 4 0.0000 0.0000 0.0000 12.2479 0.0000 -14.2673
# 5 -27.8116 -5.8116 -23.5759 0.0000 33.5807 0.0000
# 6 0.0000 0.0000 0.0000 -14.2673 0.0000 33.8340
#
#
#
# Elastic Compliance Matrix: (Units=1/GPa)
#
#
# Indices 1 2 3 4 5 6 
#
# 1 0.010380 -0.001436 0.000828 0.000000 0.008930 0.000000
# 2 -0.001436 0.012855 0.003336 0.000000 0.003377 0.000000
# 3 0.000828 0.003336 0.026095 0.000000 0.019583 0.000000
# 4 0.000000 0.000000 0.000000 0.160473 0.000000 0.067669
# 5 0.008930 0.003377 0.019583 0.000000 0.051508 0.000000
# 6 0.000000 0.000000 0.000000 0.067669 0.000000 0.058091
#
#
# Mechanical properties :
#
#
# Convention : Reuss Voigt Hill
#
# Bulk Modulus (GPa) = 18.25329 34.55417 26.40373
# Shear Modulus (GPa) = 15.05084 31.64931 23.35007
#
# Velocity S-wave (km/s) = 2.60350 3.77537 3.24281
# Velocity P-wave (km/s) = 4.15428 5.87930 5.09040
#
# Compressibility (1/GPa) = 0.05478465
#
# Stress axis : x y z
#
# Youngs Moduli (GPa) = 96.33901 77.79210 38.32224
#
# Poissons Ratio (x) = 0.11174 -0.03174
# Poissons Ratio (y) = 0.13838 -0.12783
# Poissons Ratio (z) = -0.07980 -0.25949
#
# Static dielectric constant tensor:
#      x y z
#    x 1.925910 0.000000 0.077770 
#    y 0.000000 1.895770 0.000000 
#    z 0.077770 0.000000 1.929920 
# 
# From -- ./inp_files/54199.got.cif
#   From: 2010.05.17/outbox.cif.g08.bks.cpg/sg12_28_cif.got.tgz:54199.got - 2010.06.03 13:09:07.
