data_PCOD9221548
_publ_section_title
;
Structure prediction by ZEFSAII (Michael W. Deem and Ramdas Pophale) SiO2 
 PCOD9221548
Probable space group: C 2/M
;
_chemical_formula_sum "Si O2"
_cell_formula_units_Z 42
_cell_length_a 20.437788
_cell_length_b 21.332787
_cell_length_c 4.955578
_cell_angle_alpha 90.000000
_cell_angle_beta 115.551227
_cell_angle_gamma 90.000000
_cell_volume 1949.299772
_symmetry_space_group_name_H-M "C 2/M"
_symmetry_group_IT_number 12
_symmetry_cell_setting 'monoclinic'
loop_
_space_group_symop_operation_xyz
x,y,z
-x,y,-z
-x,-y,-z
x,-y,z
1/2+x,1/2+y,z
1/2-x,1/2+y,-z
1/2-x,1/2-y,-z
1/2+x,1/2-y,z
loop_
_atom_site_type_symbol
_atom_site_label
_atom_site_fract_x
_atom_site_fract_y
_atom_site_fract_z
Si Si1 0.845749 0.574326 0.644691
Si Si2 0.950677 0.237530 0.153829
Si Si3 0.105363 0.899188 0.987815
Si Si4 0.197721 0.072195 0.659058
Si Si5 0.000000 0.000000 0.500000
Si Si6 0.416397 0.133633 0.256289
O O1 0.840741 0.500000 0.585238
O O2 0.770121 0.596081 0.644499
O O3 0.866412 0.608798 0.407553
O O4 0.905106 0.590287 0.976512
O O5 0.919043 0.171699 0.004060
O O6 0.898872 0.294481 0.145981
O O7 0.000000 0.223042 0.500000
O O8 0.000000 0.263533 0.000000
O O9 0.169103 0.895802 0.877410
O O10 0.135075 0.926156 0.321445
O O11 0.045113 0.944817 0.751365
O O12 0.211182 0.000000 0.761265
O O13 0.500000 0.132757 0.500000
#
# Coordination Sequence:
#
# PCOD9221548 Si02
#       6
#     8   8   8   8   2   8
#     4  11  24  42  67  93 126 165 207 257 322 379
#     4  11  23  41  62  90 130 168 204 256 323 375
#     4  12  24  39  64  96 128 168 216 257 307 358
#     4  11  23  42  60  89 132 171 204 256 318 377
#     4  12  24  38  68 102 132 154 224 274 284 362
#     4  11  23  42  66  94 125 160 208 264 319 375
#
# _framework density 21.546199999999999
#
# number of rings (size 3 to 8) (size 9 to 14) (size 15 to 20)
#    0.000    0.762    2.857    5.714    0.000    6.095 
#    0.000    5.714    0.000    0.000    0.000    0.000 
#    0.000    0.000    0.000    0.000    0.000    0.000 
#
# Total GULP energy -117227.386658 kJ/mol
# GULP energy per Si atom -5582.256508 kJ/mol
# Density = 2.149716 g / cm^3
# Si number density = 21.546200 Si / 1000 Ang^3
#
#
#
# Elastic Constant Matrix: (Units=GPa)
#
#
# Indices 1 2 3 4 5 6 
#
# 1 73.4757 36.2519 2.4914 0.0000 -20.6771 0.0000
# 2 36.2519 86.8643 -2.9029 0.0000 -7.0405 0.0000
# 3 2.4914 -2.9029 62.9741 0.0000 -13.6372 0.0000
# 4 0.0000 0.0000 0.0000 34.7383 0.0000 2.5615
# 5 -20.6771 -7.0405 -13.6372 0.0000 37.7586 0.0000
# 6 0.0000 0.0000 0.0000 2.5615 0.0000 24.0245
#
#
#
# Elastic Compliance Matrix: (Units=1/GPa)
#
#
# Indices 1 2 3 4 5 6 
#
# 1 0.020106 -0.007549 0.001015 0.000000 0.009969 0.000000
# 2 -0.007549 0.014593 0.000722 0.000000 -0.001152 0.000000
# 3 0.001015 0.000722 0.017382 0.000000 0.006968 0.000000
# 4 0.000000 0.000000 0.000000 0.029015 0.000000 -0.003094
# 5 0.009969 -0.001152 0.006968 0.000000 0.034245 0.000000
# 6 0.000000 0.000000 0.000000 -0.003094 0.000000 0.041954
#
#
# Mechanical properties :
#
#
# Convention : Reuss Voigt Hill
#
# Bulk Modulus (GPa) = 24.71729 32.77720 28.74725
# Shear Modulus (GPa) = 27.41178 31.80255 29.60716
#
# Velocity S-wave (km/s) = 3.57071 3.84606 3.71094
# Velocity P-wave (km/s) = 5.33822 5.91342 5.63316
#
# Compressibility (1/GPa) = 0.04045751
#
# Stress axis : x y z
#
# Youngs Moduli (GPa) = 49.73763 68.52417 57.53192
#
# Poissons Ratio (x) = 0.51728 -0.05842
# Poissons Ratio (y) = 0.37546 -0.04153
# Poissons Ratio (z) = -0.05051 -0.04947
#
# Static dielectric constant tensor:
#      x y z
#    x 1.820750 0.000000 0.041170 
#    y 0.000000 1.755080 0.000000 
#    z 0.041170 0.000000 1.759050 
# 
# From -- ./inp_files/21078.got.cif
#   From: 2010.05.17/outbox.cif.g08.bks.cpg/sg12_11_cif.got.tgz:21078.got - 2010.06.03 13:09:07.
