data_PCOD9221556
_publ_section_title
;
Structure prediction by ZEFSAII (Michael W. Deem and Ramdas Pophale) SiO2 
 PCOD9221556
Probable space group: C 2/M
;
_chemical_formula_sum "Si O2"
_cell_formula_units_Z 50
_cell_length_a 7.707040
_cell_length_b 19.709556
_cell_length_c 18.189864
_cell_angle_alpha 90.000000
_cell_angle_beta 122.482334
_cell_angle_gamma 90.000000
_cell_volume 2330.818070
_symmetry_space_group_name_H-M "C 2/M"
_symmetry_group_IT_number 12
_symmetry_cell_setting 'monoclinic'
loop_
_space_group_symop_operation_xyz
x,y,z
-x,y,-z
-x,-y,-z
x,-y,z
1/2+x,1/2+y,z
1/2-x,1/2+y,-z
1/2-x,1/2-y,-z
1/2+x,1/2-y,z
loop_
_atom_site_type_symbol
_atom_site_label
_atom_site_fract_x
_atom_site_fract_y
_atom_site_fract_z
Si Si1 0.675475 0.108065 0.486249
Si Si2 0.033063 0.922530 0.785624
Si Si3 0.500000 0.500000 0.500000
Si Si4 0.089883 0.665684 0.311782
Si Si5 0.338144 0.578576 0.029204
Si Si6 0.455591 0.316764 0.649077
Si Si7 0.992206 0.421932 0.155256
O O1 0.500000 0.080515 0.500000
O O2 0.579926 0.126530 0.386139
O O3 0.772863 0.173635 0.549231
O O4 0.863895 0.058277 0.512334
O O5 0.060516 0.893173 0.874068
O O6 0.267603 0.925610 0.809095
O O7 0.919596 0.872373 0.704687
O O8 0.950526 0.000000 0.767409
O O9 0.328390 0.667504 0.341067
O O10 0.027067 0.742880 0.311572
O O11 0.968749 0.625560 0.220628
O O12 0.293428 0.500000 0.039662
O O13 0.500000 0.580159 0.000000
O O14 0.130389 0.604745 0.944018
O O15 0.921652 0.500000 0.153983
#
# Coordination Sequence:
#
# PCOD9221556 Si02
#       7
#     8   8   2   8   8   8   8
#     4  12  26  44  70  97 131 172 208 260 320 373
#     4   9  19  35  60  85 116 158 203 256 317 375
#     4  12  26  48  68 102 136 154 220 264 312 374
#     4  11  23  41  64  90 127 168 214 263 313 383
#     4   9  17  31  52  83 120 151 191 253 314 379
#     4  11  23  41  64  90 127 168 214 263 313 383
#     4   9  19  35  60  85 116 158 203 256 317 375
#
# _framework density 21.451695000000001
#
# number of rings (size 3 to 8) (size 9 to 14) (size 15 to 20)
#    0.000    1.760    1.600    2.160    2.240    4.480 
#    0.000    0.800    0.000    0.000    0.000    0.000 
#    0.000    0.000    0.000    0.000    0.000    0.000 
#
# Total GULP energy -139377.224743 kJ/mol
# GULP energy per Si atom -5575.088990 kJ/mol
# Density = 2.140287 g / cm^3
# Si number density = 21.451695 Si / 1000 Ang^3
#
#
#
# Elastic Constant Matrix: (Units=GPa)
#
#
# Indices 1 2 3 4 5 6 
#
# 1 88.8932 25.5266 33.2578 0.0000 -16.4720 0.0000
# 2 25.5266 77.2297 20.9848 0.0000 -21.5595 0.0000
# 3 33.2578 20.9848 83.8662 0.0000 -35.1208 0.0000
# 4 0.0000 0.0000 0.0000 19.3149 0.0000 -7.8788
# 5 -16.4720 -21.5595 -35.1208 0.0000 35.1475 0.0000
# 6 0.0000 0.0000 0.0000 -7.8788 0.0000 20.8158
#
#
#
# Elastic Compliance Matrix: (Units=1/GPa)
#
#
# Indices 1 2 3 4 5 6 
#
# 1 0.013971 -0.003409 -0.004851 0.000000 -0.000391 0.000000
# 2 -0.003409 0.016457 0.001362 0.000000 0.009859 0.000000
# 3 -0.004851 0.001362 0.022190 0.000000 0.020735 0.000000
# 4 0.000000 0.000000 0.000000 0.061227 0.000000 0.023175
# 5 -0.000391 0.009859 0.020735 0.000000 0.055035 0.000000
# 6 0.000000 0.000000 0.000000 0.023175 0.000000 0.056812
#
#
# Mechanical properties :
#
#
# Convention : Reuss Voigt Hill
#
# Bulk Modulus (GPa) = 25.75770 45.50304 35.63037
# Shear Modulus (GPa) = 19.80767 26.40362 23.10565
#
# Velocity S-wave (km/s) = 3.04198 3.51214 3.28548
# Velocity P-wave (km/s) = 4.93676 6.14042 5.57119
#
# Compressibility (1/GPa) = 0.03882335
#
# Stress axis : x y z
#
# Youngs Moduli (GPa) = 71.57788 60.76428 45.06561
#
# Poissons Ratio (x) = 0.20713 0.21861
# Poissons Ratio (y) = 0.24399 -0.06140
# Poissons Ratio (z) = 0.34722 -0.08279
#
# Static dielectric constant tensor:
#      x y z
#    x 1.808460 0.000000 0.011570 
#    y 0.000000 1.747540 0.000000 
#    z 0.011570 0.000000 1.798040 
# 
# From -- ./inp_files/257247.got.cif
#   From: 2010.05.17/outbox.cif.g08.bks.cpg/sg12_129_cif.got.tgz:257247.got - 2010.06.03 13:09:07.
