data_PCOD9221729
_publ_section_title
;
Structure prediction by ZEFSAII (Michael W. Deem and Ramdas Pophale) SiO2 
 PCOD9221729
Probable space group: C 2/M
;
_chemical_formula_sum "Si O2"
_cell_formula_units_Z 40
_cell_length_a 8.561363
_cell_length_b 23.812542
_cell_length_c 13.220225
_cell_angle_alpha 90.000000
_cell_angle_beta 147.420782
_cell_angle_gamma 90.000000
_cell_volume 1451.259721
_symmetry_space_group_name_H-M "C 2/M"
_symmetry_group_IT_number 12
_symmetry_cell_setting 'monoclinic'
loop_
_space_group_symop_operation_xyz
x,y,z
-x,y,-z
-x,-y,-z
x,-y,z
1/2+x,1/2+y,z
1/2-x,1/2+y,-z
1/2-x,1/2-y,-z
1/2+x,1/2-y,z
loop_
_atom_site_type_symbol
_atom_site_label
_atom_site_fract_x
_atom_site_fract_y
_atom_site_fract_z
Si Si1 0.763613 0.154456 0.438944
Si Si2 0.713643 0.436740 0.283367
Si Si3 0.310626 0.665644 0.174117
Si Si4 0.618590 0.064266 0.864534
Si Si5 0.813288 0.786420 0.806016
O O1 0.631232 0.109709 0.289018
O O2 0.506919 0.189063 0.351437
O O3 0.000000 0.187463 0.500000
O O4 0.952277 0.130471 0.634231
O O5 0.676796 0.500000 0.303430
O O6 0.793000 0.439569 0.206872
O O7 0.000000 0.414700 0.500000
O O8 0.380978 0.415243 0.082289
O O9 0.206901 0.720625 0.183735
O O10 0.502458 0.696360 0.191236
O O11 0.000000 0.636044 0.000000
O O12 0.542023 0.000000 0.852129
O O13 0.000000 0.811570 0.000000
#
# Coordination Sequence:
#
# PCOD9221729 Si02
#       5
#     8   8   8   8   8
#     4  12  25  41  62  96 141 188 235 291 346 416
#     4   8  15  33  62  93 126 165 222 291 355 415
#     4  11  23  45  69 102 138 178 229 291 356 428
#     4   9  20  38  61  94 135 183 237 291 347 411
#     4  11  23  42  73 101 135 177 229 291 362 425
#
# _framework density 27.562262
#
# number of rings (size 3 to 8) (size 9 to 14) (size 15 to 20)
#    0.000    1.800    0.000    7.200    2.800    2.000 
#    3.600    0.000    0.000    0.600    0.000    0.000 
#    0.000    0.000    0.000    0.000    0.000    0.000 
#
# Total GULP energy -111552.622958 kJ/mol
# GULP energy per Si atom -5577.631148 kJ/mol
# Density = 2.749953 g / cm^3
# Si number density = 27.562262 Si / 1000 Ang^3
#
#
#
# Elastic Constant Matrix: (Units=GPa)
#
#
# Indices 1 2 3 4 5 6 
#
# 1 147.1020 -10.8473 73.4673 0.0000 34.1183 0.0000
# 2 -10.8473 37.6226 10.8168 0.0000 16.5664 0.0000
# 3 73.4673 10.8168 286.4434 0.0000 -16.2648 0.0000
# 4 0.0000 0.0000 0.0000 49.3091 0.0000 3.0595
# 5 34.1183 16.5664 -16.2648 0.0000 65.9053 0.0000
# 6 0.0000 0.0000 0.0000 3.0595 0.0000 -15.8806
#
#
#
# Elastic Compliance Matrix: (Units=1/GPa)
#
#
# Indices 1 2 3 4 5 6 
#
# 1 0.011307 0.008218 -0.003712 0.000000 -0.008835 0.000000
# 2 0.008218 0.036580 -0.004313 0.000000 -0.014514 0.000000
# 3 -0.003712 -0.004313 0.004845 0.000000 0.004201 0.000000
# 4 0.000000 0.000000 0.000000 0.020041 0.000000 0.003861
# 5 -0.008835 -0.014514 0.004201 0.000000 0.024432 0.000000
# 6 0.000000 0.000000 0.000000 0.003861 0.000000 -0.062226
#
#
# Mechanical properties :
#
#
# Convention : Reuss Voigt Hill
#
# Bulk Modulus (GPa) = 18.82641 68.67130 43.74885
# Shear Modulus (GPa) = 95.60381 46.38218 70.99299
#
# Velocity S-wave (km/s) = 5.89591 4.10666 5.08067
# Velocity P-wave (km/s) = 7.29345 6.88878 7.09400
#
# Compressibility (1/GPa) = 0.05311688
#
# Stress axis : x y z
#
# Youngs Moduli (GPa) = 88.43967 27.33731 206.41476
#
# Poissons Ratio (x) = -0.22465 0.76623
# Poissons Ratio (y) = -0.72678 0.89030
# Poissons Ratio (z) = 0.32830 0.11791
#
# Static dielectric constant tensor:
#      x y z
#    x 2.384800 0.000000 -0.025070 
#    y 0.000000 2.289520 0.000000 
#    z -0.025070 0.000000 2.346790 
# 
# From -- ./inp_files/201419.got.cif
#   From: 2010.05.17/outbox.cif.g08.bks.cpg/sg12_101_cif.got.tgz:201419.got - 2010.06.03 13:09:07.
