data_PCOD9221833
_publ_section_title
;
Structure prediction by ZEFSAII (Michael W. Deem and Ramdas Pophale) SiO2 
 PCOD9221833
Probable space group: C 2/M
;
_chemical_formula_sum "Si O2"
_cell_formula_units_Z 48
_cell_length_a 10.342014
_cell_length_b 22.305021
_cell_length_c 10.492288
_cell_angle_alpha 90.000000
_cell_angle_beta 128.113165
_cell_angle_gamma 90.000000
_cell_volume 1904.314049
_symmetry_space_group_name_H-M "C 2/M"
_symmetry_group_IT_number 12
_symmetry_cell_setting 'monoclinic'
loop_
_space_group_symop_operation_xyz
x,y,z
-x,y,-z
-x,-y,-z
x,-y,z
1/2+x,1/2+y,z
1/2-x,1/2+y,-z
1/2-x,1/2-y,-z
1/2+x,1/2-y,z
loop_
_atom_site_type_symbol
_atom_site_label
_atom_site_fract_x
_atom_site_fract_y
_atom_site_fract_z
Si Si1 0.167187 0.064150 0.920213
Si Si2 0.500000 0.293469 0.500000
Si Si3 0.000000 0.242208 0.000000
Si Si4 0.216176 0.307800 0.669524
Si Si5 0.758453 0.892400 0.300586
Si Si6 0.205603 0.066845 0.394122
Si Si7 0.596845 0.165882 0.864331
O O1 0.242458 0.066782 0.823741
O O2 0.972373 0.068573 0.781804
O O3 0.204602 0.000000 0.004677
O O4 0.256119 0.117967 0.044733
O O5 0.354092 0.248505 0.451604
O O6 0.392634 0.340252 0.351817
O O7 0.897524 0.205816 0.833302
O O8 0.116012 0.285815 0.987907
O O9 0.205192 0.372751 0.598913
O O10 0.107261 0.306663 0.731501
O O11 0.810337 0.924930 0.462796
O O12 0.578343 0.865117 0.215870
O O13 0.276425 0.000000 0.412968
#
# Coordination Sequence:
#
# PCOD9221833 Si02
#       7
#     8   4   4   8   8   8   8
#     4  11  23  44  72 101 136 184 238 285 336 403
#     4  12  24  44  68 106 138 178 232 284 346 406
#     4  12  24  44  68 100 138 180 228 286 346 408
#     4  12  27  43  70 102 141 185 223 285 347 421
#     4  12  23  44  72 104 137 178 231 292 343 402
#     4  11  26  47  71 101 141 188 232 278 345 416
#     4  12  25  44  66 106 138 178 228 287 348 410
#
# _framework density 25.205928
#
# number of rings (size 3 to 8) (size 9 to 14) (size 15 to 20)
#    0.000    0.333    5.000    3.000    2.333    5.333 
#    0.000    5.000    0.000    0.000    0.000    0.000 
#    0.000    0.000    0.000    0.000    0.000    0.000 
#
# Total GULP energy -134247.756397 kJ/mol
# GULP energy per Si atom -5593.656517 kJ/mol
# Density = 2.514856 g / cm^3
# Si number density = 25.205928 Si / 1000 Ang^3
#
#
#
# Elastic Constant Matrix: (Units=GPa)
#
#
# Indices 1 2 3 4 5 6 
#
# 1 53.2339 5.3474 -11.4022 0.0000 0.5040 0.0000
# 2 5.3474 145.7502 24.1749 0.0000 5.3597 0.0000
# 3 -11.4022 24.1749 81.8286 0.0000 20.2173 0.0000
# 4 0.0000 0.0000 0.0000 -135.5909 0.0000 44.1623
# 5 0.5040 5.3597 20.2173 0.0000 41.3188 0.0000
# 6 0.0000 0.0000 0.0000 44.1623 0.0000 13.1212
#
#
#
# Elastic Compliance Matrix: (Units=1/GPa)
#
#
# Indices 1 2 3 4 5 6 
#
# 1 0.019690 -0.001246 0.003562 0.000000 -0.001821 0.000000
# 2 -0.001246 0.007294 -0.002387 0.000000 0.000237 0.000000
# 3 0.003562 -0.002387 0.015193 0.000000 -0.007168 0.000000
# 4 0.000000 0.000000 0.000000 -0.003518 0.000000 0.011842
# 5 -0.001821 0.000237 -0.007168 0.000000 0.027701 0.000000
# 6 0.000000 0.000000 0.000000 0.011842 0.000000 0.036357
#
#
# Mechanical properties :
#
#
# Convention : Reuss Voigt Hill
#
# Bulk Modulus (GPa) = 23.78992 35.22810 29.50901
# Shear Modulus (GPa) = 42.78198 1.28264 22.03231
#
# Velocity S-wave (km/s) = 4.12430 0.71412 2.95971
# Velocity P-wave (km/s) = 5.66908 3.83229 4.83864
#
# Compressibility (1/GPa) = 0.04203460
#
# Stress axis : x y z
#
# Youngs Moduli (GPa) = 50.78628 137.09904 65.81898
#
# Poissons Ratio (x) = 0.17086 -0.23444
# Poissons Ratio (y) = 0.06329 0.15712
# Poissons Ratio (z) = -0.18089 0.32727
#
# Static dielectric constant tensor:
#      x y z
#    x 1.966910 0.000000 0.036120 
#    y 0.000000 1.991060 0.000000 
#    z 0.036120 0.000000 1.978780 
# 
# From -- ./inp_files/134107.got.cif
#   From: 2010.05.17/outbox.cif.g08.bks.cpg/sg12_68_cif.got.tgz:134107.got - 2010.06.03 13:09:07.
