data_PCOD9221784
_publ_section_title
;
Structure prediction by ZEFSAII (Michael W. Deem and Ramdas Pophale) SiO2 
 PCOD9221784
Probable space group: C 2/M
;
_chemical_formula_sum "Si O2"
_cell_formula_units_Z 40
_cell_length_a 16.758387
_cell_length_b 22.534802
_cell_length_c 9.763873
_cell_angle_alpha 90.000000
_cell_angle_beta 29.911379
_cell_angle_gamma 90.000000
_cell_volume 1838.706987
_symmetry_space_group_name_H-M "C 2/M"
_symmetry_group_IT_number 12
_symmetry_cell_setting 'monoclinic'
loop_
_space_group_symop_operation_xyz
x,y,z
-x,y,-z
-x,-y,-z
x,-y,z
1/2+x,1/2+y,z
1/2-x,1/2+y,-z
1/2-x,1/2-y,-z
1/2+x,1/2-y,z
loop_
_atom_site_type_symbol
_atom_site_label
_atom_site_fract_x
_atom_site_fract_y
_atom_site_fract_z
Si Si1 0.598076 0.369650 0.071150
Si Si2 0.908981 0.375085 0.417871
Si Si3 0.224715 0.069384 0.448040
Si Si4 0.738994 0.069687 0.927531
Si Si5 0.060410 0.256543 0.759156
O O1 0.454921 0.413533 0.241904
O O2 0.523908 0.304318 0.161987
O O3 0.756828 0.376251 0.743658
O O4 0.648823 0.388951 0.147790
O O5 0.845349 0.395472 0.364428
O O6 0.969602 0.308078 0.306028
O O7 0.055943 0.416528 0.240615
O O8 0.255008 0.000000 0.421264
O O9 0.244465 0.083316 0.258142
O O10 0.777861 0.000000 0.890883
O O11 0.250000 0.250000 0.500000
O O12 0.000000 0.272559 0.000000
#
# Coordination Sequence:
#
# PCOD9221784 Si02
#       5
#     8   8   8   8   8
#     4  12  25  43  67 102 137 180 224 282 350 395
#     4  12  25  43  72 100 134 181 231 282 336 405
#     4  11  23  43  70  99 134 183 233 277 336 408
#     4  11  26  46  68 100 143 181 222 282 346 408
#     4  12  23  45  71 102 138 177 228 288 336 403
#
# _framework density 21.754418000000001
#
# number of rings (size 3 to 8) (size 9 to 14) (size 15 to 20)
#    0.000    0.400    4.000    4.800    0.000    8.800 
#    0.000    2.000    0.000    0.000    0.000    0.000 
#    0.000    0.000    0.000    0.000    0.000    0.000 
#
# Total GULP energy -111981.276471 kJ/mol
# GULP energy per Si atom -5599.063824 kJ/mol
# Density = 2.170490 g / cm^3
# Si number density = 21.754418 Si / 1000 Ang^3
#
#
#
# Elastic Constant Matrix: (Units=GPa)
#
#
# Indices 1 2 3 4 5 6 
#
# 1 87.1904 37.6169 15.7577 -0.0017 -3.2520 0.0005
# 2 37.6169 71.2243 22.0832 -0.0052 14.1814 0.0032
# 3 15.7577 22.0832 117.0469 -0.0067 -6.8819 0.0039
# 4 -0.0017 -0.0052 -0.0067 18.9514 0.0008 6.0422
# 5 -3.2520 14.1814 -6.8819 0.0008 33.0404 -0.0007
# 6 0.0005 0.0032 0.0039 6.0422 -0.0007 28.0694
#
#
#
# Elastic Compliance Matrix: (Units=1/GPa)
#
#
# Indices 1 2 3 4 5 6 
#
# 1 0.015747 -0.009426 -0.000013 -0.000002 0.005593 0.000001
# 2 -0.009426 0.022389 -0.003619 0.000005 -0.011291 -0.000003
# 3 -0.000013 -0.003619 0.009435 0.000003 0.003517 -0.000001
# 4 -0.000002 0.000005 0.000003 0.056655 -0.000004 -0.012195
# 5 0.005593 -0.011291 0.003517 -0.000004 0.036395 0.000002
# 6 0.000001 -0.000003 -0.000001 -0.012195 0.000002 0.038251
#
#
# Mechanical properties :
#
#
# Convention : Reuss Voigt Hill
#
# Bulk Modulus (GPa) = 46.60976 47.37524 46.99250
# Shear Modulus (GPa) = 23.56938 29.34583 26.45761
#
# Velocity S-wave (km/s) = 3.29512 3.67680 3.49118
# Velocity P-wave (km/s) = 5.99575 6.31267 6.15625
#
# Compressibility (1/GPa) = 0.02145473
#
# Stress axis : x y z
#
# Youngs Moduli (GPa) = 63.50442 44.66490 105.98978
#
# Poissons Ratio (x) = 0.42103 0.00134
# Poissons Ratio (y) = 0.59862 0.38357
# Poissons Ratio (z) = 0.00080 0.16164
#
# Static dielectric constant tensor:
#      x y z
#    x 1.774110 0.000000 0.006550 
#    y 0.000000 1.778530 0.000010 
#    z 0.006550 0.000010 1.603930 
# 
# From -- ./inp_files/79247.got.cif
#   From: 2010.05.17/outbox.cif.g08.bks.cpg/sg12_40_cif.got.tgz:79247.got - 2010.06.03 13:09:07.
