data_PCOD9221113
_publ_section_title
;
Structure prediction by ZEFSAII (Michael W. Deem and Ramdas Pophale) SiO2 
 PCOD9221113
Probable space group: C 2/M
;
_chemical_formula_sum "Si O2"
_cell_formula_units_Z 58
_cell_length_a 22.681057
_cell_length_b 26.170345
_cell_length_c 9.972325
_cell_angle_alpha 90.000000
_cell_angle_beta 27.319596
_cell_angle_gamma 90.000000
_cell_volume 2716.675703
_symmetry_space_group_name_H-M "C 2/M"
_symmetry_group_IT_number 12
_symmetry_cell_setting 'monoclinic'
loop_
_space_group_symop_operation_xyz
x,y,z
-x,y,-z
-x,-y,-z
x,-y,z
1/2+x,1/2+y,z
1/2-x,1/2+y,-z
1/2-x,1/2-y,-z
1/2+x,1/2-y,z
loop_
_atom_site_type_symbol
_atom_site_label
_atom_site_fract_x
_atom_site_fract_y
_atom_site_fract_z
Si Si1 0.629851 0.734619 0.151124
Si Si2 0.670114 0.614664 0.038453
Si Si3 0.381822 0.201399 0.311147
Si Si4 0.745514 0.706873 0.310721
Si Si5 0.634206 0.909253 0.578225
Si Si6 0.856814 0.060183 0.326630
Si Si7 0.879661 0.893744 0.554396
Si Si8 0.000000 0.500000 0.000000
O O1 0.500000 0.735272 0.500000
O O2 0.655969 0.676174 0.053584
O O3 0.750000 0.750000 0.000000
O O4 0.633283 0.776622 0.025392
O O5 0.675410 0.601307 0.185022
O O6 0.532337 0.596611 0.259397
O O7 0.790057 0.591902 0.715622
O O8 0.328778 0.239694 0.527508
O O9 0.282139 0.193416 0.389533
O O10 0.423852 0.147011 0.284165
O O11 0.500000 0.228428 0.000000
O O12 0.660345 0.662833 0.416121
O O13 0.749819 0.914487 0.451893
O O14 0.539426 0.954693 0.810034
O O15 0.830440 0.069930 0.536000
O O16 0.849872 0.000000 0.311874
O O17 0.000000 0.078693 0.000000
#
# Coordination Sequence:
#
# PCOD9221113 Si02
#       8
#     8   8   8   8   8   8   8   2
#     4  12  23  39  63  94 138 188 227 267 327 420
#     4  11  23  39  66 100 135 174 220 274 343 407
#     4  11  25  37  61  95 129 172 230 282 328 398
#     4  11  24  38  60  97 137 180 219 277 336 400
#     4  12  23  44  68  93 129 175 224 278 338 408
#     4  11  23  41  69  97 123 165 223 279 343 407
#     4  11  22  42  65 101 141 172 214 283 346 404
#     4  12  28  48  70  92 132 178 230 292 344 404
#
# _framework density 21.349623000000001
#
# number of rings (size 3 to 8) (size 9 to 14) (size 15 to 20)
#    0.000    0.690    8.276    0.000    3.862    0.552 
#    1.241    0.690    0.000    0.828    0.000    0.000 
#    0.000    0.000    0.000    0.000    0.000    0.000 
#
# Total GULP energy -161718.610720 kJ/mol
# GULP energy per Si atom -5576.503818 kJ/mol
# Density = 2.130103 g / cm^3
# Si number density = 21.349623 Si / 1000 Ang^3
#
#
#
# Elastic Constant Matrix: (Units=GPa)
#
#
# Indices 1 2 3 4 5 6 
#
# 1 60.7377 -12.5238 1.1613 -0.0060 11.9496 0.0052
# 2 -12.5238 64.9826 25.3430 -0.0050 -0.5715 0.0037
# 3 1.1613 25.3430 120.4031 -0.0073 19.2035 0.0044
# 4 -0.0060 -0.0050 -0.0073 32.5577 0.0065 5.2159
# 5 11.9496 -0.5715 19.2035 0.0065 25.9230 -0.0041
# 6 0.0052 0.0037 0.0044 5.2159 -0.0041 10.8957
#
#
#
# Elastic Compliance Matrix: (Units=1/GPa)
#
#
# Indices 1 2 3 4 5 6 
#
# 1 0.018928 0.003351 0.000558 0.000009 -0.009065 -0.000018
# 2 0.003351 0.017624 -0.004034 0.000003 0.001832 -0.000007
# 3 0.000558 -0.004034 0.010438 0.000005 -0.008078 -0.000008
# 4 0.000009 0.000003 0.000005 0.033266 -0.000018 -0.015925
# 5 -0.009065 0.001832 -0.008078 -0.000018 0.048779 0.000034
# 6 -0.000018 -0.000007 -0.000008 -0.015925 0.000034 0.099402
#
#
# Mechanical properties :
#
#
# Convention : Reuss Voigt Hill
#
# Bulk Modulus (GPa) = 21.39585 30.45379 25.92482
# Shear Modulus (GPa) = 20.46940 29.35148 24.91044
#
# Velocity S-wave (km/s) = 3.09976 3.71185 3.41953
# Velocity P-wave (km/s) = 4.78067 5.71540 5.26880
#
# Compressibility (1/GPa) = 0.04673804
#
# Stress axis : x y z
#
# Youngs Moduli (GPa) = 52.83233 56.74112 95.80750
#
# Poissons Ratio (x) = -0.19012 -0.05345
# Poissons Ratio (y) = -0.17702 0.38650
# Poissons Ratio (z) = -0.02948 0.22890
#
# Static dielectric constant tensor:
#      x y z
#    x 1.810560 0.000000 0.007310 
#    y 0.000000 1.749310 0.000000 
#    z 0.007310 0.000000 1.855030 
# 
# From -- ./inp_files/100067.got.cif
#   From: 2010.05.17/outbox.cif.g08.bks.cpg/sg12_51_cif.got.tgz:100067.got - 2010.06.03 13:09:07.
