data_PCOD9221125
_publ_section_title
;
Structure prediction by ZEFSAII (Michael W. Deem and Ramdas Pophale) SiO2 
 PCOD9221125
Probable space group: C 2/M
;
_chemical_formula_sum "Si O2"
_cell_formula_units_Z 56
_cell_length_a 9.335540
_cell_length_b 30.866566
_cell_length_c 11.437046
_cell_angle_alpha 90.000000
_cell_angle_beta 119.936966
_cell_angle_gamma 90.000000
_cell_volume 2855.931330
_symmetry_space_group_name_H-M "C 2/M"
_symmetry_group_IT_number 12
_symmetry_cell_setting 'monoclinic'
loop_
_space_group_symop_operation_xyz
x,y,z
-x,y,-z
-x,-y,-z
x,-y,z
1/2+x,1/2+y,z
1/2-x,1/2+y,-z
1/2-x,1/2-y,-z
1/2+x,1/2-y,z
loop_
_atom_site_type_symbol
_atom_site_label
_atom_site_fract_x
_atom_site_fract_y
_atom_site_fract_z
Si Si1 0.365994 0.289682 0.032073
Si Si2 0.323982 0.792317 0.597199
Si Si3 0.300703 0.450146 0.433481
Si Si4 0.096149 0.402525 0.154603
Si Si5 0.136526 0.655866 0.782113
Si Si6 0.632626 0.667560 0.734564
Si Si7 0.283727 0.372556 0.595989
O O1 0.429425 0.304015 0.183188
O O2 0.500000 0.272421 0.000000
O O3 0.250000 0.250000 0.000000
O O4 0.277296 0.328474 0.928054
O O5 0.250000 0.750000 0.500000
O O6 0.517067 0.801417 0.710878
O O7 0.204752 0.803199 0.659212
O O8 0.304783 0.833238 0.504941
O O9 0.500000 0.447278 0.500000
O O10 0.260064 0.500000 0.442661
O O11 0.208010 0.435140 0.276655
O O12 0.247005 0.417563 0.515788
O O13 0.217085 0.363236 0.165734
O O14 0.972376 0.379834 0.195817
O O15 0.000000 0.418833 0.000000
O O16 0.222856 0.634310 0.703848
O O17 0.476540 0.637188 0.646449
#
# Coordination Sequence:
#
# PCOD9221125 Si02
#       7
#     8   8   8   8   8   8   8
#     4  12  28  43  59  91 131 178 229 272 321 393
#     4  11  26  39  62  92 127 168 217 272 329 384
#     4  11  23  43  72 103 132 171 219 275 338 407
#     4  11  22  42  67  95 130 169 215 267 330 393
#     4  11  25  40  64  92 131 174 211 271 332 384
#     4  11  23  41  65  88 129 178 217 266 326 386
#     4  12  22  42  62  97 130 170 218 268 327 396
#
# _framework density 19.608312999999999
#
# number of rings (size 3 to 8) (size 9 to 14) (size 15 to 20)
#    0.000    0.714    7.143    0.857    8.000    1.429 
#    0.000    1.429    0.000    0.000    0.000    3.000 
#    0.000    0.000    0.000    0.000    0.000    0.000 
#
# Total GULP energy -156207.187407 kJ/mol
# GULP energy per Si atom -5578.828122 kJ/mol
# Density = 1.956368 g / cm^3
# Si number density = 19.608313 Si / 1000 Ang^3
#
#
#
# Elastic Constant Matrix: (Units=GPa)
#
#
# Indices 1 2 3 4 5 6 
#
# 1 108.0868 23.2583 31.2481 0.0000 -17.4427 0.0000
# 2 23.2583 117.3885 40.9431 0.0000 -17.7998 0.0000
# 3 31.2481 40.9431 105.7482 0.0000 -14.6117 0.0000
# 4 0.0000 0.0000 0.0000 5.9860 0.0000 11.9810
# 5 -17.4427 -17.7998 -14.6117 0.0000 36.0843 0.0000
# 6 0.0000 0.0000 0.0000 11.9810 0.0000 13.9566
#
#
#
# Elastic Compliance Matrix: (Units=1/GPa)
#
#
# Indices 1 2 3 4 5 6 
#
# 1 0.010711 -0.000714 -0.002353 0.000000 0.003872 0.000000
# 2 -0.000714 0.010335 -0.003319 0.000000 0.003409 0.000000
# 3 -0.002353 -0.003319 0.011709 0.000000 0.001966 0.000000
# 4 0.000000 0.000000 0.000000 -0.232612 0.000000 0.199684
# 5 0.003872 0.003409 0.001966 0.000000 0.032062 0.000000
# 6 0.000000 0.000000 0.000000 0.199684 0.000000 -0.099767
#
#
# Mechanical properties :
#
#
# Convention : Reuss Voigt Hill
#
# Bulk Modulus (GPa) = 50.04910 58.01361 54.03136
# Shear Modulus (GPa) = -20.15085 26.92364 3.38640
#
# Velocity S-wave (km/s) = -3.20920 3.70952 1.31559
# Velocity P-wave (km/s) = 3.44207 6.92805 5.47018
#
# Compressibility (1/GPa) = 0.01998038
#
# Stress axis : x y z
#
# Youngs Moduli (GPa) = 93.36405 96.76031 85.40654
#
# Poissons Ratio (x) = 0.06910 0.20100
# Poissons Ratio (y) = 0.06668 0.28350
# Poissons Ratio (z) = 0.21973 0.32118
#
# Static dielectric constant tensor:
#      x y z
#    x 1.801350 0.000000 0.134540 
#    y 0.000000 1.669220 0.000000 
#    z 0.134540 0.000000 1.945420 
# 
# From -- ./inp_files/125835.got.cif
#   From: 2010.05.17/outbox.cif.g08.bks.cpg/sg12_63_cif.got.tgz:125835.got - 2010.06.03 13:09:07.
