data_PCOD9221009
_publ_section_title
;
Structure prediction by ZEFSAII (Michael W. Deem and Ramdas Pophale) SiO2 
 PCOD9221009
Probable space group: C 2/M
;
_chemical_formula_sum "Si O2"
_cell_formula_units_Z 46
_cell_length_a 32.909324
_cell_length_b 14.788373
_cell_length_c 16.599440
_cell_angle_alpha 90.000000
_cell_angle_beta 167.732517
_cell_angle_gamma 90.000000
_cell_volume 1716.494321
_symmetry_space_group_name_H-M "C 2/M"
_symmetry_group_IT_number 12
_symmetry_cell_setting 'monoclinic'
loop_
_space_group_symop_operation_xyz
x,y,z
-x,y,-z
-x,-y,-z
x,-y,z
1/2+x,1/2+y,z
1/2-x,1/2+y,-z
1/2-x,1/2-y,-z
1/2+x,1/2-y,z
loop_
_atom_site_type_symbol
_atom_site_label
_atom_site_fract_x
_atom_site_fract_y
_atom_site_fract_z
Si Si1 0.475463 0.859100 0.581349
Si Si2 0.959010 0.000000 0.196764
Si Si3 0.427514 0.646362 0.450757
Si Si4 0.361904 0.351215 0.564706
Si Si5 0.000000 0.500000 0.500000
Si Si6 0.782594 0.605810 0.552883
Si Si7 0.430164 0.145841 0.670806
O O1 0.445278 0.752959 0.507076
O O2 0.405616 0.920917 0.374211
O O3 0.399588 0.890926 0.521726
O O4 0.703082 0.876949 0.022305
O O5 0.973653 0.919492 0.294574
O O6 0.000290 0.922941 0.206676
O O7 0.500000 0.634212 0.500000
O O8 0.350228 0.345018 0.639420
O O9 0.416050 0.253435 0.636935
O O10 0.147024 0.377481 0.118075
O O11 0.748303 0.500000 0.501256
O O12 0.789307 0.621366 0.470770
O O13 0.000000 0.627866 0.000000
#
# Coordination Sequence:
#
# PCOD9221009 Si02
#       7
#     8   4   8   8   2   8   8
#     4  12  25  47  69  98 134 173 222 275 329 396
#     4  12  22  41  70  95 127 171 220 270 320 398
#     4  12  26  47  70  96 130 171 222 278 337 392
#     4  11  22  41  67  98 135 168 219 267 324 384
#     4  12  30  42  68  98 136 170 218 286 326 384
#     4   9  19  33  63 101 129 168 219 264 314 388
#     4  11  22  40  68  94 131 175 213 265 324 389
#
# _framework density 26.798807
#
# number of rings (size 3 to 8) (size 9 to 14) (size 15 to 20)
#    0.000    0.870    5.217    1.826    2.435    0.000 
#    0.000    0.000    1.913    1.043    0.000    0.000 
#    0.000    0.000    0.000    0.000    0.000    0.000 
#
# Total GULP energy -128297.021418 kJ/mol
# GULP energy per Si atom -5578.131366 kJ/mol
# Density = 2.673781 g / cm^3
# Si number density = 26.798807 Si / 1000 Ang^3
#
#
#
# Elastic Constant Matrix: (Units=GPa)
#
#
# Indices 1 2 3 4 5 6 
#
# 1 251.6323 43.1822 38.9932 0.0000 -12.5565 0.0000
# 2 43.1822 124.3089 -14.0964 0.0000 -11.7372 0.0000
# 3 38.9932 -14.0964 103.3524 0.0000 11.3131 0.0000
# 4 0.0000 0.0000 0.0000 -12.3871 0.0000 6.0084
# 5 -12.5565 -11.7372 11.3131 0.0000 46.1926 0.0000
# 6 0.0000 0.0000 0.0000 6.0084 0.0000 88.4986
#
#
#
# Elastic Compliance Matrix: (Units=1/GPa)
#
#
# Indices 1 2 3 4 5 6 
#
# 1 0.004673 -0.001739 -0.002149 0.000000 0.001355 0.000000
# 2 -0.001739 0.008975 0.001729 0.000000 0.001384 0.000000
# 3 -0.002149 0.001729 0.011034 0.000000 -0.002847 0.000000
# 4 0.000000 0.000000 0.000000 -0.078155 0.000000 0.005306
# 5 0.001355 0.001384 -0.002847 0.000000 0.023066 0.000000
# 6 0.000000 0.000000 0.000000 0.005306 0.000000 0.010939
#
#
# Mechanical properties :
#
#
# Convention : Reuss Voigt Hill
#
# Bulk Modulus (GPa) = 49.10543 68.38351 58.74447
# Shear Modulus (GPa) = -597.92604 51.87512 -273.02546
#
# Velocity S-wave (km/s) = -14.95330 4.40446 -10.10450
# Velocity P-wave (km/s) = 16.72636 7.17206 10.68487
#
# Compressibility (1/GPa) = 0.02036435
#
# Stress axis : x y z
#
# Youngs Moduli (GPa) = 213.99442 111.41643 90.63175
#
# Poissons Ratio (x) = 0.19376 0.19472
# Poissons Ratio (y) = 0.37215 -0.15668
# Poissons Ratio (z) = 0.45977 -0.19261
#
# Static dielectric constant tensor:
#      x y z
#    x 2.061880 0.000000 -0.024190 
#    y 0.000000 1.956250 0.000000 
#    z -0.024190 0.000000 2.228930 
# 
# From -- ./inp_files/251523.got.cif
#   From: 2010.05.17/outbox.cif.g08.bks.cpg/sg12_126_cif.got.tgz:251523.got - 2010.06.03 13:09:07.
