data_PCOD9221756
_publ_section_title
;
Structure prediction by ZEFSAII (Michael W. Deem and Ramdas Pophale) SiO2 
 PCOD9221756
Probable space group: C 2/M
;
_chemical_formula_sum "Si O2"
_cell_formula_units_Z 32
_cell_length_a 14.693122
_cell_length_b 10.222654
_cell_length_c 24.294872
_cell_angle_alpha 90.000000
_cell_angle_beta 22.275763
_cell_angle_gamma 90.000000
_cell_volume 1383.266181
_symmetry_space_group_name_H-M "C 2/M"
_symmetry_group_IT_number 12
_symmetry_cell_setting 'monoclinic'
loop_
_space_group_symop_operation_xyz
x,y,z
-x,y,-z
-x,-y,-z
x,-y,z
1/2+x,1/2+y,z
1/2-x,1/2+y,-z
1/2-x,1/2-y,-z
1/2+x,1/2-y,z
loop_
_atom_site_type_symbol
_atom_site_label
_atom_site_fract_x
_atom_site_fract_y
_atom_site_fract_z
Si Si1 0.471659 0.277451 0.666237
Si Si2 0.484210 0.638157 0.074466
Si Si3 0.768371 0.142164 0.668314
Si Si4 0.619929 0.345679 0.154708
O O1 0.368865 0.362191 0.673808
O O2 0.422177 0.329348 0.755570
O O3 0.750000 0.250000 0.500000
O O4 0.297574 0.152871 0.756699
O O5 0.575438 0.500000 0.046469
O O6 0.500000 0.630759 0.000000
O O7 0.640871 0.767652 0.998293
O O8 0.592655 0.263264 0.755028
O O9 0.000000 0.158920 0.500000
O O10 0.656604 0.000000 0.716952
O O11 0.628254 0.500000 0.138969
#
# Coordination Sequence:
#
# PCOD9221756 Si02
#       4
#     8   8   8   8
#     4  11  23  43  68 103 132 174 219 278 331 393
#     4   9  21  41  68  98 132 175 222 270 330 398
#     4  11  24  43  67  98 135 176 220 270 332 399
#     4  11  24  44  69  99 136 173 220 279 331 388
#
# _framework density 23.133651
#
# number of rings (size 3 to 8) (size 9 to 14) (size 15 to 20)
#    0.000    1.500    2.500    1.500    0.000   11.000 
#    0.000    0.000    0.000    0.000    0.000    0.000 
#    0.000    0.000    0.000    0.000    0.000    0.000 
#
# Total GULP energy -89318.380806 kJ/mol
# GULP energy per Si atom -5582.398800 kJ/mol
# Density = 2.308100 g / cm^3
# Si number density = 23.133651 Si / 1000 Ang^3
#
#
#
# Elastic Constant Matrix: (Units=GPa)
#
#
# Indices 1 2 3 4 5 6 
#
# 1 154.7091 45.8497 36.8730 0.0004 7.9171 -0.0025
# 2 45.8497 251.8537 87.0919 -0.0068 -31.0423 -0.0019
# 3 36.8730 87.0919 173.8455 -0.0444 -17.4366 0.0043
# 4 0.0004 -0.0068 -0.0444 3.0194 0.0038 -24.5377
# 5 7.9171 -31.0423 -17.4366 0.0038 39.9009 -0.0023
# 6 -0.0025 -0.0019 0.0043 -24.5377 -0.0023 -4.2343
#
#
#
# Elastic Compliance Matrix: (Units=1/GPa)
#
#
# Indices 1 2 3 4 5 6 
#
# 1 0.007280 -0.001274 -0.001203 -0.000001 -0.002961 0.000002
# 2 -0.001274 0.005347 -0.002056 -0.000001 0.003514 0.000003
# 3 -0.001203 -0.002056 0.007217 0.000003 0.001793 -0.000012
# 4 -0.000001 -0.000001 0.000003 0.006886 -0.000002 -0.039906
# 5 -0.002961 0.003514 0.001793 -0.000002 0.029167 0.000000
# 6 0.000002 0.000003 -0.000012 -0.039906 0.000000 -0.004911
#
#
# Mechanical properties :
#
#
# Convention : Reuss Voigt Hill
#
# Bulk Modulus (GPa) = 92.78384 102.22637 97.50511
# Shear Modulus (GPa) = 78.56169 35.11011 56.83590
#
# Velocity S-wave (km/s) = 5.83384 3.90000 4.96204
# Velocity P-wave (km/s) = 9.25057 8.03526 8.66425
#
# Compressibility (1/GPa) = 0.01077774
#
# Stress axis : x y z
#
# Youngs Moduli (GPa) = 137.37023 187.03593 138.56128
#
# Poissons Ratio (x) = 0.23836 0.16664
# Poissons Ratio (y) = 0.17506 0.28484
# Poissons Ratio (z) = 0.16520 0.38450
#
# Static dielectric constant tensor:
#      x y z
#    x 1.897210 0.000000 0.024240 
#    y 0.000000 1.890140 0.000000 
#    z 0.024240 0.000000 1.841150 
# 
# From -- ./inp_files/213104.got.cif
#   From: 2010.05.17/outbox.cif.g08.bks.cpg/sg12_107_cif.got.tgz:213104.got - 2010.06.03 13:09:07.
