data_PCOD9221072
_publ_section_title
;
Structure prediction by ZEFSAII (Michael W. Deem and Ramdas Pophale) SiO2 
 PCOD9221072
Probable space group: C 2/M
;
_chemical_formula_sum "Si O2"
_cell_formula_units_Z 40
_cell_length_a 21.241404
_cell_length_b 11.487705
_cell_length_c 9.926864
_cell_angle_alpha 90.000000
_cell_angle_beta 56.097612
_cell_angle_gamma 90.000000
_cell_volume 2010.485394
_symmetry_space_group_name_H-M "C 2/M"
_symmetry_group_IT_number 12
_symmetry_cell_setting 'monoclinic'
loop_
_space_group_symop_operation_xyz
x,y,z
-x,y,-z
-x,-y,-z
x,-y,z
1/2+x,1/2+y,z
1/2-x,1/2+y,-z
1/2-x,1/2-y,-z
1/2+x,1/2-y,z
loop_
_atom_site_type_symbol
_atom_site_label
_atom_site_fract_x
_atom_site_fract_y
_atom_site_fract_z
Si Si1 0.558586 0.500000 0.730869
Si Si2 0.169866 0.244518 0.018214
Si Si3 0.186577 0.367481 0.718969
Si Si4 0.642914 0.712191 0.531570
Si Si5 0.411928 0.135939 0.646138
Si Si6 0.614888 0.500000 0.966160
O O1 0.579958 0.613026 0.618842
O O2 0.471771 0.500000 0.878828
O O3 0.609079 0.500000 0.809391
O O4 0.107029 0.290899 0.197637
O O5 0.154069 0.115872 0.978253
O O6 0.250000 0.250000 0.000000
O O7 0.172413 0.329833 0.888034
O O8 0.165236 0.500000 0.720491
O O9 0.275623 0.349106 0.581636
O O10 0.142520 0.283880 0.670155
O O11 0.632505 0.801250 0.421843
O O12 0.500000 0.139584 0.500000
O O13 0.389793 0.000000 0.688780
#
# Coordination Sequence:
#
# PCOD9221072 Si02
#       6
#     4   8   8   8   8   4
#     4  11  22  45  69  95 137 170 225 270 328 397
#     4  12  25  42  67  95 133 172 218 273 331 388
#     4  11  23  39  63  97 128 168 222 264 322 385
#     4  11  22  41  67  94 130 172 214 272 322 384
#     4  11  25  44  65  94 132 172 214 266 331 396
#     4  11  26  43  67  99 132 179 218 272 330 394
#
# _framework density 19.895693000000001
#
# number of rings (size 3 to 8) (size 9 to 14) (size 15 to 20)
#    0.000    0.800    5.000    2.400    2.800    0.800 
#    0.000    2.000    0.000    4.800    0.000    0.000 
#    0.000    0.000    0.000    0.000    0.000    0.000 
#
# Total GULP energy -111853.282021 kJ/mol
# GULP energy per Si atom -5592.664101 kJ/mol
# Density = 1.985041 g / cm^3
# Si number density = 19.895693 Si / 1000 Ang^3
#
#
#
# Elastic Constant Matrix: (Units=GPa)
#
#
# Indices 1 2 3 4 5 6 
#
# 1 33.5627 14.8546 -2.7247 0.0000 5.7360 0.0000
# 2 14.8546 108.5949 12.6016 0.0000 -2.5059 0.0000
# 3 -2.7247 12.6016 87.8097 0.0000 12.3542 0.0000
# 4 0.0000 0.0000 0.0000 25.1908 0.0000 -4.9444
# 5 5.7360 -2.5059 12.3542 0.0000 29.2931 0.0000
# 6 0.0000 0.0000 0.0000 -4.9444 0.0000 15.8941
#
#
#
# Elastic Compliance Matrix: (Units=1/GPa)
#
#
# Indices 1 2 3 4 5 6 
#
# 1 0.033730 -0.005148 0.002952 0.000000 -0.008290 0.000000
# 2 -0.005148 0.010209 -0.002009 0.000000 0.002728 0.000000
# 3 0.002952 -0.002009 0.012623 0.000000 -0.006073 0.000000
# 4 0.000000 0.000000 0.000000 0.042279 0.000000 0.013152
# 5 -0.008290 0.002728 -0.006073 0.000000 0.038556 0.000000
# 6 0.000000 0.000000 0.000000 0.013152 0.000000 0.067008
#
#
# Mechanical properties :
#
#
# Convention : Reuss Voigt Hill
#
# Bulk Modulus (GPa) = 20.76769 31.04784 25.90776
# Shear Modulus (GPa) = 21.84711 27.75797 24.80254
#
# Velocity S-wave (km/s) = 3.31733 3.73926 3.53459
# Velocity P-wave (km/s) = 5.01336 5.85507 5.45049
#
# Compressibility (1/GPa) = 0.04815172
#
# Stress axis : x y z
#
# Youngs Moduli (GPa) = 29.64748 97.95534 79.22303
#
# Poissons Ratio (x) = 0.50424 -0.23384
# Poissons Ratio (y) = 0.15262 0.15913
# Poissons Ratio (z) = -0.08751 0.19676
#
# Static dielectric constant tensor:
#      x y z
#    x 1.694780 0.000000 -0.012270 
#    y 0.000000 1.664050 0.000000 
#    z -0.012270 0.000000 1.678410 
# 
# From -- ./inp_files/94146.got.cif
#   From: 2010.05.17/outbox.cif.g08.bks.cpg/sg12_48_cif.got.tgz:94146.got - 2010.06.03 13:09:07.
