data_PCOD9221493
_publ_section_title
;
Structure prediction by ZEFSAII (Michael W. Deem and Ramdas Pophale) SiO2 
 PCOD9221493
Probable space group: C 2/M
;
_chemical_formula_sum "Si O2"
_cell_formula_units_Z 64
_cell_length_a 21.349816
_cell_length_b 23.892912
_cell_length_c 18.778046
_cell_angle_alpha 90.000000
_cell_angle_beta 160.248114
_cell_angle_gamma 90.000000
_cell_volume 3237.152146
_symmetry_space_group_name_H-M "C 2/M"
_symmetry_group_IT_number 12
_symmetry_cell_setting 'monoclinic'
loop_
_space_group_symop_operation_xyz
x,y,z
-x,y,-z
-x,-y,-z
x,-y,z
1/2+x,1/2+y,z
1/2-x,1/2+y,-z
1/2-x,1/2-y,-z
1/2+x,1/2-y,z
loop_
_atom_site_type_symbol
_atom_site_label
_atom_site_fract_x
_atom_site_fract_y
_atom_site_fract_z
Si Si1 0.863967 0.182950 0.962686
Si Si2 0.245519 0.115820 0.019946
Si Si3 0.404308 0.132785 0.826283
Si Si4 0.145347 0.066654 0.440191
Si Si5 0.377852 0.064177 0.545957
Si Si6 0.801161 0.306704 0.957823
Si Si7 0.577983 0.716934 0.503823
Si Si8 0.276456 0.167289 0.344351
O O1 0.843444 0.243185 0.979173
O O2 0.743488 0.174625 0.762130
O O3 0.812306 0.136149 0.964068
O O4 0.074002 0.176559 0.161167
O O5 0.325492 0.169975 0.063175
O O6 0.062753 0.090387 0.787760
O O7 0.411675 0.071874 0.202668
O O8 0.270164 0.093359 0.636412
O O9 0.273508 0.185148 0.709354
O O10 0.500000 0.108863 0.000000
O O11 0.569166 0.155226 0.952933
O O12 0.246527 0.078694 0.472703
O O13 0.139794 0.000000 0.443081
O O14 0.346872 0.108467 0.449364
O O15 0.341695 0.000000 0.486369
O O16 0.582441 0.313608 0.710653
O O17 0.500000 0.717557 0.500000
O O18 0.600925 0.779976 0.500617
#
# Coordination Sequence:
#
# PCOD9221493 Si02
#       8
#     8   8   8   8   8   8   8   8
#     4  11  23  40  65 100 138 174 213 276 331 398
#     4  12  24  43  68  97 128 174 229 269 331 400
#     4  12  23  41  68 100 134 167 218 267 332 406
#     4  11  25  46  66  93 133 173 221 281 332 385
#     4  11  25  46  69  93 129 180 231 280 330 385
#     4  12  23  39  63 101 135 175 209 266 332 404
#     4  12  22  38  68  96 136 174 206 266 332 396
#     4  11  23  42  66  97 138 176 221 271 336 386
#
# _framework density 19.770464
#
# number of rings (size 3 to 8) (size 9 to 14) (size 15 to 20)
#    0.000    0.500    7.500    1.500    0.000    0.250 
#    0.000    5.625    0.000    1.125    0.000    0.000 
#    0.000    0.000    0.000    0.000    0.000    0.000 
#
# Total GULP energy -178770.208324 kJ/mol
# GULP energy per Si atom -5586.569010 kJ/mol
# Density = 1.972547 g / cm^3
# Si number density = 19.770464 Si / 1000 Ang^3
#
#
#
# Elastic Constant Matrix: (Units=GPa)
#
#
# Indices 1 2 3 4 5 6 
#
# 1 86.5000 39.8935 22.9141 0.0000 -1.5127 0.0001
# 2 39.8935 101.7240 40.3859 0.0000 -12.5606 0.0000
# 3 22.9141 40.3859 102.2414 0.0001 5.8975 0.0001
# 4 0.0000 0.0000 0.0001 29.8046 0.0000 0.8638
# 5 -1.5127 -12.5606 5.8975 0.0000 23.3441 0.0000
# 6 0.0001 0.0000 0.0001 0.8638 0.0000 20.1721
#
#
#
# Elastic Compliance Matrix: (Units=1/GPa)
#
#
# Indices 1 2 3 4 5 6 
#
# 1 0.014293 -0.005446 -0.000950 0.000000 -0.001764 0.000000
# 2 -0.005446 0.015210 -0.005317 0.000000 0.009174 0.000000
# 3 -0.000950 -0.005317 0.012444 0.000000 -0.006066 0.000000
# 4 0.000000 0.000000 0.000000 0.033594 0.000000 -0.001438
# 5 -0.001764 0.009174 -0.006066 0.000000 0.049192 0.000000
# 6 0.000000 0.000000 0.000000 -0.001438 0.000000 0.049635
#
#
# Mechanical properties :
#
#
# Convention : Reuss Voigt Hill
#
# Bulk Modulus (GPa) = 53.99309 55.20584 54.59947
# Shear Modulus (GPa) = 24.51377 27.14894 25.83136
#
# Velocity S-wave (km/s) = 3.52507 3.70970 3.61856
# Velocity P-wave (km/s) = 6.62853 6.80685 6.71828
#
# Compressibility (1/GPa) = 0.01852089
#
# Stress axis : x y z
#
# Youngs Moduli (GPa) = 69.96311 65.74695 80.36139
#
# Poissons Ratio (x) = 0.35805 0.07638
# Poissons Ratio (y) = 0.38101 0.42725
# Poissons Ratio (z) = 0.06650 0.34955
#
# Static dielectric constant tensor:
#      x y z
#    x 1.685390 0.000000 -0.011920 
#    y 0.000000 1.671590 0.000000 
#    z -0.011920 0.000000 1.730820 
# 
# From -- ./inp_files/286442.got.cif
#   From: 2010.05.17/outbox.cif.g08.bks.cpg/sg12_144_cif.got.tgz:286442.got - 2010.06.03 13:09:07.
