data_PCOD9221217
_publ_section_title
;
Structure prediction by ZEFSAII (Michael W. Deem and Ramdas Pophale) SiO2 
 PCOD9221217
Probable space group: C 2/M
;
_chemical_formula_sum "Si O2"
_cell_formula_units_Z 36
_cell_length_a 9.391422
_cell_length_b 17.501886
_cell_length_c 10.316080
_cell_angle_alpha 90.000000
_cell_angle_beta 73.375171
_cell_angle_gamma 90.000000
_cell_volume 1624.749744
_symmetry_space_group_name_H-M "C 2/M"
_symmetry_group_IT_number 12
_symmetry_cell_setting 'monoclinic'
loop_
_space_group_symop_operation_xyz
x,y,z
-x,y,-z
-x,-y,-z
x,-y,z
1/2+x,1/2+y,z
1/2-x,1/2+y,-z
1/2-x,1/2-y,-z
1/2+x,1/2-y,z
loop_
_atom_site_type_symbol
_atom_site_label
_atom_site_fract_x
_atom_site_fract_y
_atom_site_fract_z
Si Si1 0.726954 0.000000 0.340702
Si Si2 0.500000 0.128599 0.000000
Si Si3 0.424614 0.500000 0.748414
Si Si4 0.101045 0.277185 0.725205
Si Si5 0.915085 0.161112 0.656583
Si Si6 0.000000 0.626926 0.500000
Si Si7 0.772487 0.500000 0.970287
O O1 0.635977 0.927366 0.419044
O O2 0.900765 0.000000 0.331051
O O3 0.727482 0.000000 0.184383
O O4 0.458844 0.180237 0.133087
O O5 0.635144 0.073630 0.005524
O O6 0.358080 0.577079 0.705801
O O7 0.382001 0.500000 0.910948
O O8 0.278169 0.280841 0.685065
O O9 0.052910 0.322574 0.607856
O O10 0.031106 0.193306 0.731282
O O11 0.000000 0.157375 0.500000
#
# Coordination Sequence:
#
# PCOD9221217 Si02
#       7
#     4   4   4   8   8   4   4
#     4  11  24  41  72 109 142 188 240 296 344 440
#     4  11  24  46  74  99 140 192 244 285 358 430
#     4  12  26  46  70 108 147 183 239 296 363 415
#     4  12  26  47  74 104 143 189 241 294 358 418
#     4  12  27  46  74 106 146 186 237 297 359 424
#     4  11  24  44  74 105 144 190 236 291 360 426
#     4  11  22  45  70 100 143 195 234 290 356 433
#
# _framework density 22.157259
#
# number of rings (size 3 to 8) (size 9 to 14) (size 15 to 20)
#    0.000    0.444    5.556    2.667    3.111    2.667 
#    4.000    0.000    0.000    0.000    0.000    0.000 
#    0.000    0.000    0.000    0.000    0.000    0.000 
#
# Total GULP energy -100818.791182 kJ/mol
# GULP energy per Si atom -5601.043955 kJ/mol
# Density = 2.210683 g / cm^3
# Si number density = 22.157259 Si / 1000 Ang^3
#
#
#
# Elastic Constant Matrix: (Units=GPa)
#
#
# Indices 1 2 3 4 5 6 
#
# 1 73.3054 2.1095 12.5437 0.0000 -15.5650 0.0000
# 2 2.1095 83.6228 23.8967 0.0000 2.7125 0.0000
# 3 12.5437 23.8967 154.5760 0.0000 -6.7603 0.0000
# 4 0.0000 0.0000 0.0000 -37.5594 0.0000 -5.4470
# 5 -15.5650 2.7125 -6.7603 0.0000 39.9633 0.0000
# 6 0.0000 0.0000 0.0000 -5.4470 0.0000 -65.7462
#
#
#
# Elastic Compliance Matrix: (Units=1/GPa)
#
#
# Indices 1 2 3 4 5 6 
#
# 1 0.015022 -0.000301 -0.000923 0.000000 0.005715 0.000000
# 2 -0.000301 0.012573 -0.001976 0.000000 -0.001305 0.000000
# 3 -0.000923 -0.001976 0.006891 0.000000 0.000941 0.000000
# 4 0.000000 0.000000 0.000000 -0.026948 0.000000 0.002233
# 5 0.005715 -0.001305 0.000941 0.000000 0.027497 0.000000
# 6 0.000000 0.000000 0.000000 0.002233 0.000000 -0.015395
#
#
# Mechanical properties :
#
#
# Convention : Reuss Voigt Hill
#
# Bulk Modulus (GPa) = 35.60459 43.17820 39.39139
# Shear Modulus (GPa) = 141.24201 5.52848 73.38524
#
# Velocity S-wave (km/s) = 7.99272 1.58131 5.76126
# Velocity P-wave (km/s) = 10.06390 4.78158 7.87863
#
# Compressibility (1/GPa) = 0.02808627
#
# Stress axis : x y z
#
# Youngs Moduli (GPa) = 66.57106 79.53446 145.11998
#
# Poissons Ratio (x) = 0.02391 0.13388
# Poissons Ratio (y) = 0.02002 0.28682
# Poissons Ratio (z) = 0.06142 0.15719
#
# Static dielectric constant tensor:
#      x y z
#    x 1.819740 0.000000 -0.007860 
#    y 0.000000 1.834610 0.000000 
#    z -0.007860 0.000000 1.758310 
# 
# From -- ./inp_files/118850.got.cif
#   From: 2010.05.17/outbox.cif.g08.bks.cpg/sg12_60_cif.got.tgz:118850.got - 2010.06.03 13:09:07.
