data_PCOD9221327
_publ_section_title
;
Structure prediction by ZEFSAII (Michael W. Deem and Ramdas Pophale) SiO2 
 PCOD9221327
Probable space group: C 2/M
;
_chemical_formula_sum "Si O2"
_cell_formula_units_Z 40
_cell_length_a 29.667549
_cell_length_b 8.880411
_cell_length_c 14.754084
_cell_angle_alpha 90.000000
_cell_angle_beta 31.286390
_cell_angle_gamma 90.000000
_cell_volume 2018.639643
_symmetry_space_group_name_H-M "C 2/M"
_symmetry_group_IT_number 12
_symmetry_cell_setting 'monoclinic'
loop_
_space_group_symop_operation_xyz
x,y,z
-x,y,-z
-x,-y,-z
x,-y,z
1/2+x,1/2+y,z
1/2-x,1/2+y,-z
1/2-x,1/2-y,-z
1/2+x,1/2-y,z
loop_
_atom_site_type_symbol
_atom_site_label
_atom_site_fract_x
_atom_site_fract_y
_atom_site_fract_z
Si Si1 0.714430 0.821714 0.775014
Si Si2 0.971798 0.823483 0.944156
Si Si3 0.390982 0.179292 0.429337
Si Si4 0.495691 0.678984 0.614824
Si Si5 0.689210 0.820986 0.027813
O O1 0.794029 0.743071 0.587493
O O2 0.725932 0.799728 0.863598
O O3 0.714849 0.000000 0.756494
O O4 0.621499 0.752945 0.909472
O O5 0.043757 0.745249 0.757744
O O6 0.966145 0.000000 0.929415
O O7 0.000000 0.811200 0.000000
O O8 0.429630 0.236814 0.458496
O O9 0.391070 0.000000 0.425657
O O10 0.500000 0.705608 0.500000
O O11 0.502630 0.500000 0.618659
O O12 0.404027 0.741463 0.807174
O O13 0.679710 0.000000 0.059281
O O14 0.750000 0.750000 0.000000
#
# Coordination Sequence:
#
# PCOD9221327 Si02
#       5
#     8   8   8   8   8
#     4  11  24  43  67  97 133 174 221 272 329 393
#     4  11  25  46  72 100 131 171 220 276 337 396
#     4  12  25  42  67  98 133 176 220 270 331 394
#     4  11  23  39  61  91 130 174 220 272 327 387
#     4  11  23  38  60  92 129 173 220 269 327 389
#
# _framework density 19.815324
#
# number of rings (size 3 to 8) (size 9 to 14) (size 15 to 20)
#    0.000    0.800    2.000    5.400    0.000   11.200 
#    0.000    0.000    0.000    0.000    0.000    0.000 
#    0.000    0.000    0.000    0.000    0.000    0.000 
#
# Total GULP energy -111959.886898 kJ/mol
# GULP energy per Si atom -5597.994345 kJ/mol
# Density = 1.977022 g / cm^3
# Si number density = 19.815324 Si / 1000 Ang^3
#
#
#
# Elastic Constant Matrix: (Units=GPa)
#
#
# Indices 1 2 3 4 5 6 
#
# 1 80.2490 64.6386 49.9728 0.0000 -5.0424 0.0000
# 2 64.6386 162.5478 94.5316 0.0000 -1.5062 0.0000
# 3 49.9728 94.5316 170.4234 0.0000 -23.4839 0.0000
# 4 0.0000 0.0000 0.0000 32.4125 0.0000 -9.6040
# 5 -5.0424 -1.5062 -23.4839 0.0000 24.3631 0.0000
# 6 0.0000 0.0000 0.0000 -9.6040 0.0000 23.6839
#
#
#
# Elastic Compliance Matrix: (Units=1/GPa)
#
#
# Indices 1 2 3 4 5 6 
#
# 1 0.018864 -0.006525 -0.001649 0.000000 0.001912 0.000000
# 2 -0.006525 0.011888 -0.005496 0.000000 -0.005913 0.000000
# 3 -0.001649 -0.005496 0.010731 0.000000 0.009663 0.000000
# 4 0.000000 0.000000 0.000000 0.035066 0.000000 0.014219
# 5 0.001912 -0.005913 0.009663 0.000000 0.050390 0.000000
# 6 0.000000 0.000000 0.000000 0.014219 0.000000 0.047989
#
#
# Mechanical properties :
#
#
# Convention : Reuss Voigt Hill
#
# Bulk Modulus (GPa) = 70.69946 92.38957 81.54452
# Shear Modulus (GPa) = 24.15700 29.69705 26.92702
#
# Velocity S-wave (km/s) = 3.49536 3.87549 3.69032
# Velocity P-wave (km/s) = 7.21434 8.17022 7.70711
#
# Compressibility (1/GPa) = 0.01414438
#
# Stress axis : x y z
#
# Youngs Moduli (GPa) = 53.01242 84.11941 93.18783
#
# Poissons Ratio (x) = 0.54885 0.15364
# Poissons Ratio (y) = 0.34589 0.51212
# Poissons Ratio (z) = 0.08740 0.46228
#
# Static dielectric constant tensor:
#      x y z
#    x 1.692920 0.000000 0.006830 
#    y 0.000000 1.659230 0.000000 
#    z 0.006830 0.000000 1.683900 
# 
# From -- ./inp_files/211253.got.cif
#   From: 2010.05.17/outbox.cif.g08.bks.cpg/sg12_106_cif.got.tgz:211253.got - 2010.06.03 13:09:07.
