data_PCOD9221507
_publ_section_title
;
Structure prediction by ZEFSAII (Michael W. Deem and Ramdas Pophale) SiO2 
 PCOD9221507
Probable space group: C 2/M
;
_chemical_formula_sum "Si O2"
_cell_formula_units_Z 40
_cell_length_a 16.997523
_cell_length_b 14.946343
_cell_length_c 20.813835
_cell_angle_alpha 90.000000
_cell_angle_beta 20.082268
_cell_angle_gamma 90.000000
_cell_volume 1815.657094
_symmetry_space_group_name_H-M "C 2/M"
_symmetry_group_IT_number 12
_symmetry_cell_setting 'monoclinic'
loop_
_space_group_symop_operation_xyz
x,y,z
-x,y,-z
-x,-y,-z
x,-y,z
1/2+x,1/2+y,z
1/2-x,1/2+y,-z
1/2-x,1/2-y,-z
1/2+x,1/2-y,z
loop_
_atom_site_type_symbol
_atom_site_label
_atom_site_fract_x
_atom_site_fract_y
_atom_site_fract_z
Si Si1 0.491905 0.896460 0.350680
Si Si2 0.744238 0.245089 0.806682
Si Si3 0.273231 0.099487 0.287193
Si Si4 0.337837 0.149710 0.919021
Si Si5 0.046481 0.098643 0.258256
O O1 0.568151 0.822338 0.343651
O O2 0.640036 0.874386 0.172696
O O3 0.223594 0.884271 0.540890
O O4 0.526197 0.000000 0.342332
O O5 0.688492 0.177279 0.792421
O O6 0.835085 0.177678 0.792404
O O7 0.500000 0.293281 0.000000
O O8 0.409321 0.128492 0.246382
O O9 0.000000 0.094258 0.500000
O O10 0.358119 0.000000 0.203960
O O11 0.250000 0.250000 0.000000
O O12 0.163415 0.096348 0.098546
O O13 0.075457 0.000000 0.267051
#
# Coordination Sequence:
#
# PCOD9221507 Si02
#       5
#     8   8   8   8   8
#     4  11  25  44  66  92 127 172 217 262 311 376
#     4  12  23  40  63  94 128 166 205 262 322 377
#     4  11  24  40  64  96 131 166 205 263 326 378
#     4  12  23  41  66  96 130 168 211 260 318 379
#     4  11  23  40  66  94 126 166 212 262 315 377
#
# _framework density 22.030591999999999
#
# number of rings (size 3 to 8) (size 9 to 14) (size 15 to 20)
#    0.000    0.600    4.000    4.200    2.800    4.400 
#    0.000    0.000    0.000    0.600    0.000    0.000 
#    0.000    0.000    0.000    0.000    0.000    0.000 
#
# Total GULP energy -111677.137326 kJ/mol
# GULP energy per Si atom -5583.856866 kJ/mol
# Density = 2.198045 g / cm^3
# Si number density = 22.030592 Si / 1000 Ang^3
#
#
#
# Elastic Constant Matrix: (Units=GPa)
#
#
# Indices 1 2 3 4 5 6 
#
# 1 39.4543 35.5833 -4.8966 0.0128 -17.8952 -0.0371
# 2 35.5833 141.9308 18.2746 0.0300 -34.9676 -0.0831
# 3 -4.8966 18.2746 76.3998 0.0054 -27.5315 -0.1628
# 4 0.0128 0.0300 0.0054 50.6761 -0.0297 -46.9538
# 5 -17.8952 -34.9676 -27.5315 -0.0297 30.1874 0.1296
# 6 -0.0371 -0.0831 -0.1628 -46.9538 0.1296 82.1526
#
#
#
# Elastic Compliance Matrix: (Units=1/GPa)
#
#
# Indices 1 2 3 4 5 6 
#
# 1 0.052085 -0.004911 0.020242 0.000008 0.043649 -0.000006
# 2 -0.004911 0.010687 0.000806 -0.000010 0.010203 -0.000012
# 3 0.020242 0.000806 0.028084 0.000039 0.038546 0.000027
# 4 0.000008 -0.000010 0.000039 0.041947 -0.000033 0.023974
# 5 0.043649 0.010203 0.038546 -0.000033 0.105976 -0.000080
# 6 -0.000006 -0.000012 0.000027 0.023974 -0.000080 0.025875
#
#
# Mechanical properties :
#
#
# Convention : Reuss Voigt Hill
#
# Bulk Modulus (GPa) = 8.12145 39.52304 23.82225
# Shear Modulus (GPa) = 18.28675 46.52480 32.40577
#
# Velocity S-wave (km/s) = 2.88420 4.60045 3.83945
# Velocity P-wave (km/s) = 3.84525 6.79690 5.52195
#
# Compressibility (1/GPa) = 0.12313073
#
# Stress axis : x y z
#
# Youngs Moduli (GPa) = 19.19950 93.57384 35.60703
#
# Poissons Ratio (x) = 0.45950 -0.72077
# Poissons Ratio (y) = 0.09428 -0.02869
# Poissons Ratio (z) = -0.38864 -0.07540
#
# Static dielectric constant tensor:
#      x y z
#    x 1.787350 -0.000040 0.098510 
#    y -0.000040 1.847100 0.000080 
#    z 0.098510 0.000080 1.770500 
# 
# From -- ./inp_files/72823.got.cif
#   From: 2010.05.17/outbox.cif.g08.bks.cpg/sg12_37_cif.got.tgz:72823.got - 2010.06.03 13:09:07.
