data_PCOD9221267
_publ_section_title
;
Structure prediction by ZEFSAII (Michael W. Deem and Ramdas Pophale) SiO2 
 PCOD9221267
Probable space group: C 2/M
;
_chemical_formula_sum "Si O2"
_cell_formula_units_Z 48
_cell_length_a 14.469008
_cell_length_b 9.197418
_cell_length_c 19.705233
_cell_angle_alpha 90.000000
_cell_angle_beta 90.916148
_cell_angle_gamma 90.000000
_cell_volume 2621.988210
_symmetry_space_group_name_H-M "C 2/M"
_symmetry_group_IT_number 12
_symmetry_cell_setting 'monoclinic'
loop_
_space_group_symop_operation_xyz
x,y,z
-x,y,-z
-x,-y,-z
x,-y,z
1/2+x,1/2+y,z
1/2-x,1/2+y,-z
1/2-x,1/2-y,-z
1/2+x,1/2-y,z
loop_
_atom_site_type_symbol
_atom_site_label
_atom_site_fract_x
_atom_site_fract_y
_atom_site_fract_z
Si Si1 0.001352 0.825332 0.611165
Si Si2 0.107071 0.827437 0.864816
Si Si3 0.848521 0.174618 0.497482
Si Si4 0.979122 0.672378 0.754341
Si Si5 0.326067 0.171115 0.853946
Si Si6 0.348644 0.325942 0.987078
O O1 0.913603 0.788630 0.562521
O O2 0.092342 0.785252 0.568741
O O3 0.995392 0.749211 0.683187
O O4 0.002339 0.000000 0.619610
O O5 0.047732 0.734982 0.812179
O O6 0.216379 0.801351 0.851778
O O7 0.089462 0.000000 0.855232
O O8 0.092389 0.793475 0.944667
O O9 0.750000 0.250000 0.500000
O O10 0.837796 0.000000 0.496769
O O11 0.991454 0.500000 0.747688
O O12 0.876835 0.699968 0.783770
O O13 0.373915 0.263997 0.914039
O O14 0.337968 0.000000 0.870377
O O15 0.338987 0.500000 0.984035
O O16 0.250000 0.250000 0.000000
#
# Coordination Sequence:
#
# PCOD9221267 Si02
#       6
#     8   8   8   8   8   8
#     4   9  20  39  57  78 113 147 173 208 259 318
#     4   9  19  36  54  73 103 142 179 219 272 327
#     4   9  19  37  62  87 109 139 176 212 256 310
#     4  11  23  36  53  80 110 141 180 223 263 307
#     4   9  20  37  53  73 105 142 179 222 272 320
#     4   9  17  31  53  77 101 134 179 227 272 319
#
# _framework density 18.306719000000001
#
# number of rings (size 3 to 8) (size 9 to 14) (size 15 to 20)
#    0.000    2.667    0.000    3.000    0.000    8.000 
#    0.000   10.000    0.000    0.000    0.000    0.000 
#    0.000    0.000    0.000    0.000    0.000    0.000 
#
# Total GULP energy -133876.478508 kJ/mol
# GULP energy per Si atom -5578.186605 kJ/mol
# Density = 1.826505 g / cm^3
# Si number density = 18.306719 Si / 1000 Ang^3
#
#
#
# Elastic Constant Matrix: (Units=GPa)
#
#
# Indices 1 2 3 4 5 6 
#
# 1 79.7320 30.7359 36.1113 0.0000 -10.8681 0.0000
# 2 30.7359 36.6309 49.8364 0.0000 -6.3485 0.0000
# 3 36.1113 49.8364 134.3097 0.0000 -17.0802 0.0000
# 4 0.0000 0.0000 0.0000 36.1991 0.0000 -0.4261
# 5 -10.8681 -6.3485 -17.0802 0.0000 13.5725 0.0000
# 6 0.0000 0.0000 0.0000 -0.4261 0.0000 27.5498
#
#
#
# Elastic Compliance Matrix: (Units=1/GPa)
#
#
# Indices 1 2 3 4 5 6 
#
# 1 0.019996 -0.019105 0.003110 0.000000 0.010990 0.000000
# 2 -0.019105 0.073385 -0.023422 0.000000 -0.010448 0.000000
# 3 0.003110 -0.023422 0.016933 0.000000 0.012845 0.000000
# 4 0.000000 0.000000 0.000000 0.027630 0.000000 0.000427
# 5 0.010990 -0.010448 0.012845 0.000000 0.093756 0.000000
# 6 0.000000 0.000000 0.000000 0.000427 0.000000 0.036305
#
#
# Mechanical properties :
#
#
# Convention : Reuss Voigt Hill
#
# Bulk Modulus (GPa) = 31.76517 53.78221 42.77369
# Shear Modulus (GPa) = 13.99259 24.39687 19.19473
#
# Velocity S-wave (km/s) = 2.76767 3.65454 3.24158
# Velocity P-wave (km/s) = 5.25382 6.87384 6.11770
#
# Compressibility (1/GPa) = 0.03148102
#
# Stress axis : x y z
#
# Youngs Moduli (GPa) = 50.00952 13.62682 59.05464
#
# Poissons Ratio (x) = 0.26035 -0.18369
# Poissons Ratio (y) = 0.95545 1.38316
# Poissons Ratio (z) = -0.15555 0.31916
#
# Static dielectric constant tensor:
#      x y z
#    x 1.651470 0.000000 -0.027950 
#    y 0.000000 1.604050 0.000000 
#    z -0.027950 0.000000 1.627700 
# 
# From -- ./inp_files/267650.got.cif
#   From: 2010.05.17/outbox.cif.g08.bks.cpg/sg12_134_cif.got.tgz:267650.got - 2010.06.03 13:09:07.
