data_PCOD9221210
_publ_section_title
;
Structure prediction by ZEFSAII (Michael W. Deem and Ramdas Pophale) SiO2 
 PCOD9221210
Probable space group: C 2/M
;
_chemical_formula_sum "Si O2"
_cell_formula_units_Z 40
_cell_length_a 17.182272
_cell_length_b 25.466801
_cell_length_c 9.622340
_cell_angle_alpha 90.000000
_cell_angle_beta 151.328605
_cell_angle_gamma 90.000000
_cell_volume 2020.146292
_symmetry_space_group_name_H-M "C 2/M"
_symmetry_group_IT_number 12
_symmetry_cell_setting 'monoclinic'
loop_
_space_group_symop_operation_xyz
x,y,z
-x,y,-z
-x,-y,-z
x,-y,z
1/2+x,1/2+y,z
1/2-x,1/2+y,-z
1/2-x,1/2-y,-z
1/2+x,1/2-y,z
loop_
_atom_site_type_symbol
_atom_site_label
_atom_site_fract_x
_atom_site_fract_y
_atom_site_fract_z
Si Si1 0.695219 0.149688 0.793818
Si Si2 0.806035 0.059330 0.179953
Si Si3 0.505962 0.281388 0.666691
Si Si4 0.775579 0.639680 0.745558
Si Si5 0.603279 0.822517 0.364802
O O1 0.500000 0.154094 0.500000
O O2 0.707507 0.148357 0.645481
O O3 0.753348 0.100020 0.976091
O O4 0.813022 0.198716 0.016119
O O5 0.738192 0.080354 0.222131
O O6 0.000000 0.059666 0.500000
O O7 0.752103 0.000000 0.065677
O O8 0.500000 0.261538 0.500000
O O9 0.395037 0.333051 0.494565
O O10 0.416394 0.239235 0.627018
O O11 0.828185 0.657801 0.674864
O O12 0.913856 0.662452 0.063129
#
# Coordination Sequence:
#
# PCOD9221210 Si02
#       5
#     8   8   8   8   8
#     4  12  22  41  65  99 129 167 223 270 302 382
#     4  11  23  46  73  92 120 169 220 273 328 374
#     4  12  22  39  64  95 132 181 205 256 320 385
#     4  11  22  45  58  94 134 171 210 262 319 391
#     4  11  25  36  63  93 136 167 214 253 319 386
#
# _framework density 19.800547000000002
#
# number of rings (size 3 to 8) (size 9 to 14) (size 15 to 20)
#    0.000    0.600    6.000    2.400    0.000    5.200 
#    0.000    3.000    0.000    2.400    0.000    0.000 
#    0.000    0.000    0.000    0.000    0.000    0.000 
#
# Total GULP energy -111441.086160 kJ/mol
# GULP energy per Si atom -5572.054308 kJ/mol
# Density = 1.975548 g / cm^3
# Si number density = 19.800547 Si / 1000 Ang^3
#
#
#
# Elastic Constant Matrix: (Units=GPa)
#
#
# Indices 1 2 3 4 5 6 
#
# 1 67.6340 54.8648 50.4542 0.0000 -18.3255 0.0000
# 2 54.8648 133.1462 45.7712 0.0000 -18.9667 0.0000
# 3 50.4542 45.7712 138.0177 0.0000 -12.3338 0.0000
# 4 0.0000 0.0000 0.0000 103.2104 0.0000 90.0653
# 5 -18.3255 -18.9667 -12.3338 0.0000 41.5867 0.0000
# 6 0.0000 0.0000 0.0000 90.0653 0.0000 117.8700
#
#
#
# Elastic Compliance Matrix: (Units=1/GPa)
#
#
# Indices 1 2 3 4 5 6 
#
# 1 0.028767 -0.008453 -0.007113 0.000000 0.006712 0.000000
# 2 -0.008453 0.011372 -0.000566 0.000000 0.001294 0.000000
# 3 -0.007113 -0.000566 0.009995 0.000000 -0.000428 0.000000
# 4 0.000000 0.000000 0.000000 0.029077 0.000000 -0.022218
# 5 0.006712 0.001294 -0.000428 0.000000 0.027467 0.000000
# 6 0.000000 0.000000 0.000000 -0.022218 0.000000 0.025461
#
#
# Mechanical properties :
#
#
# Convention : Reuss Voigt Hill
#
# Bulk Modulus (GPa) = 55.95535 71.21983 63.58759
# Shear Modulus (GPa) = 29.34948 65.04727 47.19837
#
# Velocity S-wave (km/s) = 3.85418 5.73782 4.88760
# Velocity P-wave (km/s) = 6.93737 8.94111 8.00221
#
# Compressibility (1/GPa) = 0.01787139
#
# Stress axis : x y z
#
# Youngs Moduli (GPa) = 34.76190 87.93216 100.04806
#
# Poissons Ratio (x) = 0.74325 0.71167
# Poissons Ratio (y) = 0.29383 0.05662
# Poissons Ratio (z) = 0.24727 0.04976
#
# Static dielectric constant tensor:
#      x y z
#    x 1.782750 0.000000 -0.012420 
#    y 0.000000 1.714330 0.000000 
#    z -0.012420 0.000000 1.716710 
# 
# From -- ./inp_files/79933.got.cif
#   From: 2010.05.17/outbox.cif.g08.bks.cpg/sg12_40_cif.got.tgz:79933.got - 2010.06.03 13:09:07.
