data_PCOD9221057
_publ_section_title
;
Structure prediction by ZEFSAII (Michael W. Deem and Ramdas Pophale) SiO2 
 PCOD9221057
Probable space group: C 2/M
;
_chemical_formula_sum "Si O2"
_cell_formula_units_Z 48
_cell_length_a 26.873943
_cell_length_b 11.838438
_cell_length_c 7.578688
_cell_angle_alpha 90.000000
_cell_angle_beta 106.380133
_cell_angle_gamma 90.000000
_cell_volume 2313.262340
_symmetry_space_group_name_H-M "C 2/M"
_symmetry_group_IT_number 12
_symmetry_cell_setting 'monoclinic'
loop_
_space_group_symop_operation_xyz
x,y,z
-x,y,-z
-x,-y,-z
x,-y,z
1/2+x,1/2+y,z
1/2-x,1/2+y,-z
1/2-x,1/2-y,-z
1/2+x,1/2-y,z
loop_
_atom_site_type_symbol
_atom_site_label
_atom_site_fract_x
_atom_site_fract_y
_atom_site_fract_z
Si Si1 0.060236 0.000000 0.599543
Si Si2 0.942937 0.627917 0.481240
Si Si3 0.636277 0.694230 0.184271
Si Si4 0.636277 0.694230 0.588282
Si Si5 0.942937 0.627917 0.904634
Si Si6 0.216736 0.132314 0.966736
Si Si7 0.560236 0.500000 0.020930
O O1 0.088852 0.893206 0.545852
O O2 0.000000 0.000000 0.500000
O O3 0.068861 0.000000 0.818861
O O4 0.943612 0.500000 0.413204
O O5 0.892131 0.693748 0.367741
O O6 0.938644 0.625900 0.688644
O O7 0.000000 0.678668 0.500000
O O8 0.654143 0.709580 0.404143
O O9 0.607869 0.806252 0.083479
O O10 0.680481 0.646175 0.102838
O O11 0.588852 0.606794 0.131851
O O12 0.680481 0.646175 0.758125
O O13 0.943612 0.500000 0.974020
O O14 0.000000 0.678668 0.000000
O O15 0.237410 0.000000 0.987410
O O16 0.250000 0.250000 0.000000
O O17 0.500000 0.500000 0.000000
#
# Coordination Sequence:
#
# PCOD9221057 Si02
#       7
#     4   8   8   8   8   8   4
#     4  12  22  36  62 101 141 178 215 261 332 420
#     4   9  19  33  53  88 131 175 218 261 321 402
#     4  11  22  41  66  93 131 171 217 282 338 411
#     4  11  22  41  66  93 131 171 217 282 338 411
#     4   9  19  33  53  88 131 175 218 261 321 402
#     4  12  28  50  72  98 130 172 236 300 356 410
#     4  12  22  36  62 101 141 178 215 261 332 420
#
# _framework density 20.749918000000001
#
# number of rings (size 3 to 8) (size 9 to 14) (size 15 to 20)
#    0.000    1.333    3.333    2.500    2.333    4.667 
#    0.000    0.000    0.000    0.000    0.000    0.000 
#    0.000    0.000    0.000    0.000    0.000    0.000 
#
# Total GULP energy -133884.931651 kJ/mol
# GULP energy per Si atom -5578.538819 kJ/mol
# Density = 2.070269 g / cm^3
# Si number density = 20.749918 Si / 1000 Ang^3
#
#
#
# Elastic Constant Matrix: (Units=GPa)
#
#
# Indices 1 2 3 4 5 6 
#
# 1 61.5442 36.4278 18.9789 0.0000 -0.2102 0.0000
# 2 36.4278 106.2593 12.2907 0.0000 10.7549 0.0000
# 3 18.9789 12.2907 87.6720 0.0000 -11.4317 0.0000
# 4 0.0000 0.0000 0.0000 20.9032 0.0000 2.7014
# 5 -0.2102 10.7549 -11.4317 0.0000 26.5185 0.0000
# 6 0.0000 0.0000 0.0000 2.7014 0.0000 26.9659
#
#
#
# Elastic Compliance Matrix: (Units=1/GPa)
#
#
# Indices 1 2 3 4 5 6 
#
# 1 0.021551 -0.007148 -0.003457 0.000000 0.001579 0.000000
# 2 -0.007148 0.012530 -0.000932 0.000000 -0.005540 0.000000
# 3 -0.003457 -0.000932 0.013065 0.000000 0.005983 0.000000
# 4 0.000000 0.000000 0.000000 0.048467 0.000000 -0.004855
# 5 0.001579 -0.005540 0.005983 0.000000 0.042548 0.000000
# 6 0.000000 0.000000 0.000000 -0.004855 0.000000 0.037570
#
#
# Mechanical properties :
#
#
# Convention : Reuss Voigt Hill
#
# Bulk Modulus (GPa) = 41.54134 43.43004 42.48569
# Shear Modulus (GPa) = 24.17458 27.39606 25.78532
#
# Velocity S-wave (km/s) = 3.41698 3.63753 3.52898
# Velocity P-wave (km/s) = 5.96918 6.21433 6.09299
#
# Compressibility (1/GPa) = 0.02407240
#
# Stress axis : x y z
#
# Youngs Moduli (GPa) = 46.40170 79.80915 76.53902
#
# Poissons Ratio (x) = 0.57048 0.26461
# Poissons Ratio (y) = 0.33168 0.07130
# Poissons Ratio (z) = 0.16042 0.07434
#
# Static dielectric constant tensor:
#      x y z
#    x 1.723320 0.000000 -0.009880 
#    y 0.000000 1.651360 0.000000 
#    z -0.009880 0.000000 1.745480 
# 
# From -- ./inp_files/95026.got.cif
#   From: 2010.05.17/outbox.cif.g08.bks.cpg/sg12_48_cif.got.tgz:95026.got - 2010.06.03 13:09:07.
