data_PCOD9221077
_publ_section_title
;
Structure prediction by ZEFSAII (Michael W. Deem and Ramdas Pophale) SiO2 
 PCOD9221077
Probable space group: C 2/M
;
_chemical_formula_sum "Si O2"
_cell_formula_units_Z 38
_cell_length_a 23.934797
_cell_length_b 7.675818
_cell_length_c 8.199516
_cell_angle_alpha 90.000000
_cell_angle_beta 78.065645
_cell_angle_gamma 90.000000
_cell_volume 1473.847316
_symmetry_space_group_name_H-M "C 2/M"
_symmetry_group_IT_number 12
_symmetry_cell_setting 'monoclinic'
loop_
_space_group_symop_operation_xyz
x,y,z
-x,y,-z
-x,-y,-z
x,-y,z
1/2+x,1/2+y,z
1/2-x,1/2+y,-z
1/2-x,1/2-y,-z
1/2+x,1/2-y,z
loop_
_atom_site_type_symbol
_atom_site_label
_atom_site_fract_x
_atom_site_fract_y
_atom_site_fract_z
Si Si1 0.000000 0.000000 0.500000
Si Si2 0.825740 0.293863 0.598919
Si Si3 0.393423 0.796153 0.240779
Si Si4 0.067207 0.690986 0.277587
Si Si5 0.219910 0.208771 0.848125
Si Si6 0.500000 0.745847 0.000000
O O1 0.964053 0.847312 0.616694
O O2 0.818717 0.500000 0.570714
O O3 0.863304 0.227788 0.424581
O O4 0.865680 0.276193 0.734484
O O5 0.763579 0.223846 0.681185
O O6 0.342148 0.787167 0.142759
O O7 0.411687 0.000000 0.249827
O O8 0.449067 0.687337 0.154522
O O9 0.056928 0.500000 0.360138
O O10 0.043322 0.680463 0.109358
O O11 0.214673 0.000000 0.837069
O O12 0.250000 0.250000 0.000000
#
# Coordination Sequence:
#
# PCOD9221077 Si02
#       6
#     2   8   8   8   8   4
#     4  12  26  42  64 106 136 190 238 286 356 420
#     4   9  21  43  72  96 133 181 233 280 351 425
#     4  11  22  41  68 101 132 181 231 285 348 424
#     4  11  23  45  70 100 141 189 239 298 357 426
#     4  11  23  43  68 100 133 177 226 288 353 419
#     4  12  25  45  76 101 143 198 243 285 364 439
#
# _framework density 25.782861
#
# number of rings (size 3 to 8) (size 9 to 14) (size 15 to 20)
#    0.000    1.263    0.000    6.000    0.000    3.789 
#   17.053    0.000    0.000    0.000    0.000    0.000 
#    0.000    0.000    0.000    0.000    0.000    0.000 
#
# Total GULP energy -105837.512402 kJ/mol
# GULP energy per Si atom -5570.395390 kJ/mol
# Density = 2.572418 g / cm^3
# Si number density = 25.782861 Si / 1000 Ang^3
#
#
#
# Elastic Constant Matrix: (Units=GPa)
#
#
# Indices 1 2 3 4 5 6 
#
# 1 189.0703 13.8937 68.1911 0.0000 -21.1272 0.0000
# 2 13.8937 141.5910 4.7015 0.0000 -16.0652 0.0000
# 3 68.1911 4.7015 104.5505 0.0000 -24.1278 0.0000
# 4 0.0000 0.0000 0.0000 -15.3221 0.0000 12.0458
# 5 -21.1272 -16.0652 -24.1278 0.0000 66.3498 0.0000
# 6 0.0000 0.0000 0.0000 12.0458 0.0000 -1.6281
#
#
#
# Elastic Compliance Matrix: (Units=1/GPa)
#
#
# Indices 1 2 3 4 5 6 
#
# 1 0.006971 -0.000481 -0.004409 0.000000 0.000500 0.000000
# 2 -0.000481 0.007296 0.000391 0.000000 0.001756 0.000000
# 3 -0.004409 0.000391 0.013231 0.000000 0.003502 0.000000
# 4 0.000000 0.000000 0.000000 0.013550 0.000000 0.100252
# 5 0.000500 0.001756 0.003502 0.000000 0.016929 0.000000
# 6 0.000000 0.000000 0.000000 0.100252 0.000000 0.127518
#
#
# Mechanical properties :
#
#
# Convention : Reuss Voigt Hill
#
# Bulk Modulus (GPa) = 54.05823 67.64271 60.85047
# Shear Modulus (GPa) = 24.91762 33.10828 29.01295
#
# Velocity S-wave (km/s) = 3.11214 3.58735 3.35816
# Velocity P-wave (km/s) = 5.82461 6.59176 6.22002
#
# Compressibility (1/GPa) = 0.01849857
#
# Stress axis : x y z
#
# Youngs Moduli (GPa) = 143.46066 137.06157 75.57796
#
# Poissons Ratio (x) = 0.06591 0.33326
# Poissons Ratio (y) = 0.06899 -0.02953
# Poissons Ratio (z) = 0.63259 -0.05355
#
# Static dielectric constant tensor:
#      x y z
#    x 1.996440 0.000000 0.009600 
#    y 0.000000 1.998580 0.000000 
#    z 0.009600 0.000000 2.105250 
# 
# From -- ./inp_files/92872.got.cif
#   From: 2010.05.17/outbox.cif.g08.bks.cpg/sg12_47_cif.got.tgz:92872.got - 2010.06.03 13:09:07.
