data_PCOD9221046
_publ_section_title
;
Structure prediction by ZEFSAII (Michael W. Deem and Ramdas Pophale) SiO2 
 PCOD9221046
Probable space group: C 2/M
;
_chemical_formula_sum "Si O2"
_cell_formula_units_Z 64
_cell_length_a 18.387673
_cell_length_b 22.289498
_cell_length_c 14.579598
_cell_angle_alpha 90.000000
_cell_angle_beta 32.917660
_cell_angle_gamma 90.000000
_cell_volume 3247.272905
_symmetry_space_group_name_H-M "C 2/M"
_symmetry_group_IT_number 12
_symmetry_cell_setting 'monoclinic'
loop_
_space_group_symop_operation_xyz
x,y,z
-x,y,-z
-x,-y,-z
x,-y,z
1/2+x,1/2+y,z
1/2-x,1/2+y,-z
1/2-x,1/2-y,-z
1/2+x,1/2-y,z
loop_
_atom_site_type_symbol
_atom_site_label
_atom_site_fract_x
_atom_site_fract_y
_atom_site_fract_z
Si Si1 0.764101 0.569473 0.983682
Si Si2 0.700181 0.816586 0.401236
Si Si3 0.228492 0.831409 0.871628
Si Si4 0.872567 0.890140 0.689002
Si Si5 0.041965 0.762768 0.325351
Si Si6 0.851882 0.431100 0.198772
Si Si7 0.449101 0.126133 0.269308
Si Si8 0.974110 0.760507 0.185929
O O1 0.771128 0.500000 0.949085
O O2 0.713054 0.612980 0.956786
O O3 0.911607 0.593827 0.855042
O O4 0.673205 0.576066 0.170655
O O5 0.730267 0.850087 0.274595
O O6 0.592480 0.765159 0.490145
O O7 0.628837 0.855559 0.555716
O O8 0.832748 0.786169 0.302249
O O9 0.342786 0.787738 0.792630
O O10 0.095115 0.791443 0.004220
O O11 0.908507 0.823216 0.681900
O O12 0.749779 0.890127 0.748753
O O13 0.000000 0.915920 0.500000
O O14 0.003029 0.776365 0.261496
O O15 0.810009 0.500000 0.229418
O O16 0.861990 0.414734 0.294399
O O17 0.000000 0.424795 0.000000
O O18 0.475372 0.188268 0.186132
#
# Coordination Sequence:
#
# PCOD9221046 Si02
#       8
#     8   8   8   8   8   8   8   8
#     4  12  25  45  70  93 131 186 232 277 328 390
#     4  11  25  41  66 101 143 171 214 279 343 400
#     4  12  23  43  66 101 138 172 220 280 331 400
#     4  12  26  41  68 101 136 172 221 280 343 400
#     4  11  22  41  65 100 137 171 212 273 341 398
#     4  11  25  43  63  92 133 178 223 267 318 395
#     4  11  23  41  68  98 134 175 227 272 325 405
#     4  11  23  40  67  99 135 175 211 271 350 402
#
# _framework density 19.708845
#
# number of rings (size 3 to 8) (size 9 to 14) (size 15 to 20)
#    0.000    0.625    5.000    4.875    5.250    1.000 
#    0.000    1.875    0.000    2.250    0.000    0.000 
#    0.000    0.000    0.000    0.000    0.000    0.000 
#
# Total GULP energy -178982.217189 kJ/mol
# GULP energy per Si atom -5593.194287 kJ/mol
# Density = 1.966399 g / cm^3
# Si number density = 19.708845 Si / 1000 Ang^3
#
#
#
# Elastic Constant Matrix: (Units=GPa)
#
#
# Indices 1 2 3 4 5 6 
#
# 1 85.1878 36.3378 39.5692 -0.0014 -0.1146 0.0025
# 2 36.3378 69.2591 41.5440 -0.0006 -4.0684 0.0003
# 3 39.5692 41.5440 107.5992 -0.0029 -1.7527 0.0010
# 4 -0.0014 -0.0006 -0.0029 12.4115 0.0014 0.1428
# 5 -0.1146 -4.0684 -1.7527 0.0014 42.9814 -0.0007
# 6 0.0025 0.0003 0.0010 0.1428 -0.0007 1.7339
#
#
#
# Elastic Compliance Matrix: (Units=1/GPa)
#
#
# Indices 1 2 3 4 5 6 
#
# 1 0.016072 -0.006405 -0.003449 0.000001 -0.000704 -0.000020
# 2 -0.006405 0.021438 -0.005893 -0.000001 0.001772 0.000009
# 3 -0.003449 -0.005893 0.012837 0.000002 -0.000044 -0.000002
# 4 0.000001 -0.000001 0.000002 0.080647 -0.000003 -0.006641
# 5 -0.000704 0.001772 -0.000044 -0.000003 0.023430 0.000010
# 6 -0.000020 0.000009 -0.000002 -0.006641 0.000010 0.577293
#
#
# Mechanical properties :
#
#
# Convention : Reuss Voigt Hill
#
# Bulk Modulus (GPa) = 53.04231 55.21645 54.12938
# Shear Modulus (GPa) = 6.49778 21.06505 13.78141
#
# Velocity S-wave (km/s) = 1.81770 3.27282 2.64720
# Velocity P-wave (km/s) = 5.60150 6.50835 6.07188
#
# Compressibility (1/GPa) = 0.01885287
#
# Stress axis : x y z
#
# Youngs Moduli (GPa) = 62.22041 46.64659 77.90229
#
# Poissons Ratio (x) = 0.29877 0.26868
# Poissons Ratio (y) = 0.39852 0.45907
# Poissons Ratio (z) = 0.21459 0.27488
#
# Static dielectric constant tensor:
#      x y z
#    x 1.694340 0.000000 0.028720 
#    y 0.000000 1.663400 0.000000 
#    z 0.028720 0.000000 1.729560 
# 
# From -- ./inp_files/228117.got.cif
#   From: 2010.05.17/outbox.cif.g08.bks.cpg/sg12_115_cif.got.tgz:228117.got - 2010.06.03 13:09:07.
