data_PCOD9221198
_publ_section_title
;
Structure prediction by ZEFSAII (Michael W. Deem and Ramdas Pophale) SiO2 
 PCOD9221198
Probable space group: C 2/M
;
_chemical_formula_sum "Si O2"
_cell_formula_units_Z 40
_cell_length_a 15.532424
_cell_length_b 17.314066
_cell_length_c 15.762849
_cell_angle_alpha 90.000000
_cell_angle_beta 154.425497
_cell_angle_gamma 90.000000
_cell_volume 1829.950576
_symmetry_space_group_name_H-M "C 2/M"
_symmetry_group_IT_number 12
_symmetry_cell_setting 'monoclinic'
loop_
_space_group_symop_operation_xyz
x,y,z
-x,y,-z
-x,-y,-z
x,-y,z
1/2+x,1/2+y,z
1/2-x,1/2+y,-z
1/2-x,1/2-y,-z
1/2+x,1/2-y,z
loop_
_atom_site_type_symbol
_atom_site_label
_atom_site_fract_x
_atom_site_fract_y
_atom_site_fract_z
Si Si1 0.153523 0.000000 0.750738
Si Si2 0.500000 0.374972 0.500000
Si Si3 0.004558 0.749506 0.374270
Si Si4 0.676703 0.000000 0.902937
Si Si5 0.908421 0.165899 0.704039
Si Si6 0.295498 0.500000 0.542735
Si Si7 0.844924 0.136569 0.931386
O O1 0.162110 0.074258 0.696263
O O2 0.917871 0.000000 0.564502
O O3 0.260488 0.000000 0.939451
O O4 0.588461 0.314811 0.511248
O O5 0.832716 0.693097 0.256735
O O6 0.950148 0.799596 0.243044
O O7 0.185809 0.697472 0.504625
O O8 0.437592 0.000000 0.682457
O O9 0.753144 0.073551 0.915119
O O10 0.872128 0.075006 0.660243
O O11 0.008565 0.187112 0.880850
O O12 0.000000 0.102811 0.000000
#
# Coordination Sequence:
#
# PCOD9221198 Si02
#       7
#     4   4   8   4   8   4   8
#     4  11  24  45  70  94 136 180 225 282 329 401
#     4  11  22  44  68  97 138 176 214 285 342 388
#     4  11  23  41  65  98 134 177 228 273 338 414
#     4  12  24  44  69 100 130 182 238 272 334 407
#     4  11  23  42  68  93 133 185 222 278 337 404
#     4  12  21  45  70  96 127 182 236 268 330 409
#     4  12  24  41  64 100 136 174 224 284 342 399
#
# _framework density 21.858512999999999
#
# number of rings (size 3 to 8) (size 9 to 14) (size 15 to 20)
#    0.000    0.600    6.000    2.100    0.000    0.000 
#    0.000    5.000    0.000    0.000    0.000    0.700 
#    0.000    0.000    0.000    0.000    0.000    0.000 
#
# Total GULP energy -111369.991698 kJ/mol
# GULP energy per Si atom -5568.499585 kJ/mol
# Density = 2.180876 g / cm^3
# Si number density = 21.858513 Si / 1000 Ang^3
#
#
#
# Elastic Constant Matrix: (Units=GPa)
#
#
# Indices 1 2 3 4 5 6 
#
# 1 70.4145 12.3900 26.3850 -0.0296 -2.8913 -0.0098
# 2 12.3900 117.8076 19.1422 0.0070 2.2878 -0.0004
# 3 26.3850 19.1422 88.6918 0.0508 12.6152 0.0138
# 4 -0.0296 0.0070 0.0508 -46.7625 0.0547 -36.0875
# 5 -2.8913 2.2878 12.6152 0.0547 32.0337 0.0181
# 6 -0.0098 -0.0004 0.0138 -36.0875 0.0181 7.1008
#
#
#
# Elastic Compliance Matrix: (Units=1/GPa)
#
#
# Indices 1 2 3 4 5 6 
#
# 1 0.016468 -0.000956 -0.005206 -0.000006 0.003605 -0.000008
# 2 -0.000956 0.008853 -0.001614 0.000000 -0.000083 0.000001
# 3 -0.005206 -0.001614 0.014007 0.000005 -0.005871 0.000008
# 4 -0.000006 0.000000 0.000005 -0.004345 0.000017 -0.022081
# 5 0.003605 -0.000083 -0.005871 0.000017 0.033860 0.000018
# 6 -0.000008 0.000001 0.000008 -0.022081 0.000018 0.028612
#
#
# Mechanical properties :
#
#
# Convention : Reuss Voigt Hill
#
# Bulk Modulus (GPa) = 42.05922 43.63870 42.84896
# Shear Modulus (GPa) = 41.34485 13.07417 27.20951
#
# Velocity S-wave (km/s) = 4.35383 2.44832 3.53200
# Velocity P-wave (km/s) = 6.67516 5.29149 6.02319
#
# Compressibility (1/GPa) = 0.02377600
#
# Stress axis : x y z
#
# Youngs Moduli (GPa) = 60.72211 112.95709 71.39244
#
# Poissons Ratio (x) = 0.10801 0.37164
# Poissons Ratio (y) = 0.05806 0.11526
# Poissons Ratio (z) = 0.31609 0.18237
#
# Static dielectric constant tensor:
#      x y z
#    x 1.864520 0.000000 -0.076120 
#    y 0.000000 1.887140 -0.000020 
#    z -0.076120 -0.000020 1.801160 
# 
# From -- ./inp_files/216698.got.cif
#   From: 2010.05.17/outbox.cif.g08.bks.cpg/sg12_109_cif.got.tgz:216698.got - 2010.06.03 13:09:07.
