data_PCOD9221570
_publ_section_title
;
Structure prediction by ZEFSAII (Michael W. Deem and Ramdas Pophale) SiO2 
 PCOD9221570
Probable space group: C 2/M
;
_chemical_formula_sum "Si O2"
_cell_formula_units_Z 52
_cell_length_a 8.832218
_cell_length_b 24.560554
_cell_length_c 17.013108
_cell_angle_alpha 90.000000
_cell_angle_beta 39.352743
_cell_angle_gamma 90.000000
_cell_volume 2340.154468
_symmetry_space_group_name_H-M "C 2/M"
_symmetry_group_IT_number 12
_symmetry_cell_setting 'monoclinic'
loop_
_space_group_symop_operation_xyz
x,y,z
-x,y,-z
-x,-y,-z
x,-y,z
1/2+x,1/2+y,z
1/2-x,1/2+y,-z
1/2-x,1/2-y,-z
1/2+x,1/2-y,z
loop_
_atom_site_type_symbol
_atom_site_label
_atom_site_fract_x
_atom_site_fract_y
_atom_site_fract_z
Si Si1 0.342906 0.559191 0.719503
Si Si2 0.500000 0.649734 0.000000
Si Si3 0.113175 0.439448 0.208924
Si Si4 0.429663 0.201427 0.437881
Si Si5 0.630088 0.918290 0.532810
Si Si6 0.059355 0.774314 0.830107
Si Si7 0.795890 0.670616 0.144807
O O1 0.300745 0.500000 0.777022
O O2 0.138617 0.564581 0.735658
O O3 0.608714 0.556590 0.578098
O O4 0.318443 0.614258 0.780277
O O5 0.540246 0.690936 0.056595
O O6 0.285341 0.608851 0.110610
O O7 0.213159 0.500000 0.151599
O O8 0.048355 0.437299 0.327332
O O9 0.500000 0.200779 0.500000
O O10 0.250000 0.250000 0.500000
O O11 0.314276 0.143950 0.467034
O O12 0.671016 0.206745 0.292629
O O13 0.500000 0.922564 0.500000
O O14 0.084742 0.710163 0.838055
O O15 0.899953 0.791536 0.820052
O O16 0.000000 0.657151 0.000000
#
# Coordination Sequence:
#
# PCOD9221570 Si02
#       7
#     8   4   8   8   8   8   8
#     4  11  26  46  69 103 144 188 241 293 353 422
#     4  12  25  46  72 104 143 182 238 292 354 424
#     4  11  25  46  72 101 140 189 239 291 352 423
#     4  11  23  41  64  99 137 174 225 283 349 415
#     4  11  23  44  70 102 140 184 236 295 356 417
#     4  12  25  45  71 104 142 183 233 289 354 422
#     4  12  26  45  71 104 143 191 234 291 354 424
#
# _framework density 22.220755
#
# number of rings (size 3 to 8) (size 9 to 14) (size 15 to 20)
#    0.000    0.615    2.308    6.231    2.154    5.231 
#    0.000    0.769    0.000    0.000    0.000    0.000 
#    0.000    0.000    0.000    0.000    0.000    0.000 
#
# Total GULP energy -145401.229235 kJ/mol
# GULP energy per Si atom -5592.354971 kJ/mol
# Density = 2.217018 g / cm^3
# Si number density = 22.220755 Si / 1000 Ang^3
#
#
#
# Elastic Constant Matrix: (Units=GPa)
#
#
# Indices 1 2 3 4 5 6 
#
# 1 59.3395 25.7971 32.6353 -0.0003 -6.7237 0.0002
# 2 25.7971 165.7162 55.5194 0.0000 -1.1656 0.0000
# 3 32.6353 55.5194 121.2792 0.0003 -12.0417 -0.0001
# 4 -0.0003 0.0000 0.0003 46.1839 0.0002 -28.3333
# 5 -6.7237 -1.1656 -12.0417 0.0002 35.4541 -0.0001
# 6 0.0002 0.0000 -0.0001 -28.3333 -0.0001 19.4737
#
#
#
# Elastic Compliance Matrix: (Units=1/GPa)
#
#
# Indices 1 2 3 4 5 6 
#
# 1 0.020288 -0.001640 -0.004483 0.000001 0.002271 0.000001
# 2 -0.001640 0.007288 -0.003003 0.000000 -0.001092 0.000000
# 3 -0.004483 -0.003003 0.011107 -0.000001 0.002823 -0.000001
# 4 0.000001 0.000000 -0.000001 0.201608 0.000000 0.293331
# 5 0.002271 -0.001092 0.002823 0.000000 0.029559 0.000000
# 6 0.000001 0.000000 -0.000001 0.293331 0.000000 0.478135
#
#
# Mechanical properties :
#
#
# Convention : Reuss Voigt Hill
#
# Bulk Modulus (GPa) = 48.94769 63.80428 56.37598
# Shear Modulus (GPa) = 6.46789 35.71453 21.09121
#
# Velocity S-wave (km/s) = 1.70794 4.01341 3.08420
# Velocity P-wave (km/s) = 5.09560 7.08892 6.17325
#
# Compressibility (1/GPa) = 0.02042997
#
# Stress axis : x y z
#
# Youngs Moduli (GPa) = 49.28977 137.20570 90.03309
#
# Poissons Ratio (x) = 0.22507 0.40362
# Poissons Ratio (y) = 0.08085 0.27041
# Poissons Ratio (z) = 0.22096 0.41209
#
# Static dielectric constant tensor:
#      x y z
#    x 1.817430 0.000000 0.018100 
#    y 0.000000 2.115640 0.000000 
#    z 0.018100 0.000000 1.802580 
# 
# From -- ./inp_files/259668.got.cif
#   From: 2010.05.17/outbox.cif.g08.bks.cpg/sg12_130_cif.got.tgz:259668.got - 2010.06.03 13:09:07.
