data_PCOD9221322
_publ_section_title
;
Structure prediction by ZEFSAII (Michael W. Deem and Ramdas Pophale) SiO2 
 PCOD9221322
Probable space group: C 2/M
;
_chemical_formula_sum "Si O2"
_cell_formula_units_Z 56
_cell_length_a 21.544074
_cell_length_b 28.289748
_cell_length_c 9.276073
_cell_angle_alpha 90.000000
_cell_angle_beta 151.288284
_cell_angle_gamma 90.000000
_cell_volume 2715.980470
_symmetry_space_group_name_H-M "C 2/M"
_symmetry_group_IT_number 12
_symmetry_cell_setting 'monoclinic'
loop_
_space_group_symop_operation_xyz
x,y,z
-x,y,-z
-x,-y,-z
x,-y,z
1/2+x,1/2+y,z
1/2-x,1/2+y,-z
1/2-x,1/2-y,-z
1/2+x,1/2-y,z
loop_
_atom_site_type_symbol
_atom_site_label
_atom_site_fract_x
_atom_site_fract_y
_atom_site_fract_z
Si Si1 0.791707 0.697409 0.128294
Si Si2 0.612239 0.900241 0.122642
Si Si3 0.630326 0.614942 0.175046
Si Si4 0.129087 0.227575 0.172434
Si Si5 0.633854 0.943523 0.849591
Si Si6 0.545952 0.191842 0.817057
Si Si7 0.864278 0.106525 0.146205
O O1 0.872576 0.677185 0.157091
O O2 0.895451 0.696566 0.469861
O O3 0.750000 0.750000 0.000000
O O4 0.675434 0.661748 0.920101
O O5 0.745591 0.900727 0.481410
O O6 0.500000 0.918423 0.000000
O O7 0.627805 0.927333 0.003446
O O8 0.572641 0.846794 0.993903
O O9 0.641715 0.671777 0.182293
O O10 0.500000 0.604931 0.000000
O O11 0.628875 0.594894 0.009866
O O12 0.250000 0.250000 0.500000
O O13 0.102969 0.257433 0.976554
O O14 0.000000 0.236298 0.000000
O O15 0.500000 0.929067 0.500000
O O16 0.643773 0.000000 0.864349
O O17 0.752231 0.921487 0.001539
O O18 0.000000 0.098247 0.500000
#
# Coordination Sequence:
#
# PCOD9221322 Si02
#       7
#     8   8   8   8   8   8   8
#     4  11  25  37  60  92 134 182 233 283 331 388
#     4  12  23  41  70  99 135 175 222 279 338 402
#     4  11  25  41  62  95 137 180 226 276 331 395
#     4  11  24  37  56  85 128 182 228 272 332 389
#     4  11  25  49  78 106 136 173 221 281 352 424
#     4  11  23  38  59  88 132 181 231 283 326 392
#     4  12  26  45  71 100 139 180 233 283 343 410
#
# _framework density 20.618704999999999
#
# number of rings (size 3 to 8) (size 9 to 14) (size 15 to 20)
#    0.000    0.714    2.857    4.714    8.000    0.571 
#    0.000    0.714    0.000    1.714    0.000    0.000 
#    0.000    0.000    0.000    0.000    0.000    0.000 
#
# Total GULP energy -156669.825861 kJ/mol
# GULP energy per Si atom -5595.350924 kJ/mol
# Density = 2.057178 g / cm^3
# Si number density = 20.618705 Si / 1000 Ang^3
#
#
#
# Elastic Constant Matrix: (Units=GPa)
#
#
# Indices 1 2 3 4 5 6 
#
# 1 187.6275 45.5783 97.5909 0.0000 -1.9934 0.0000
# 2 45.5783 64.1334 43.5565 0.0000 3.2310 0.0000
# 3 97.5909 43.5565 214.0686 0.0000 1.2483 0.0000
# 4 0.0000 0.0000 0.0000 18.6454 0.0000 -2.0965
# 5 -1.9934 3.2310 1.2483 0.0000 39.2051 0.0000
# 6 0.0000 0.0000 0.0000 -2.0965 0.0000 19.1414
#
#
#
# Elastic Compliance Matrix: (Units=1/GPa)
#
#
# Indices 1 2 3 4 5 6 
#
# 1 0.007647 -0.003600 -0.002758 0.000000 0.000773 0.000000
# 2 -0.003600 0.019862 -0.002390 0.000000 -0.001744 0.000000
# 3 -0.002758 -0.002390 0.006416 0.000000 -0.000148 0.000000
# 4 0.000000 0.000000 0.000000 0.054301 0.000000 0.005947
# 5 0.000773 -0.001744 -0.000148 0.000000 0.025695 0.000000
# 6 0.000000 0.000000 0.000000 0.005947 0.000000 0.052894
#
#
# Mechanical properties :
#
#
# Convention : Reuss Voigt Hill
#
# Bulk Modulus (GPa) = 60.86997 93.25341 77.06169
# Shear Modulus (GPa) = 26.34520 34.00532 30.17526
#
# Velocity S-wave (km/s) = 3.57842 4.06550 3.82971
# Velocity P-wave (km/s) = 6.83076 8.20752 7.55059
#
# Compressibility (1/GPa) = 0.01642846
#
# Stress axis : x y z
#
# Youngs Moduli (GPa) = 130.76787 50.34705 155.86232
#
# Poissons Ratio (x) = 0.18127 0.42989
# Poissons Ratio (y) = 0.47082 0.37248
# Poissons Ratio (z) = 0.36068 0.12032
#
# Static dielectric constant tensor:
#      x y z
#    x 1.746230 0.000000 -0.008890 
#    y 0.000000 1.721480 0.000000 
#    z -0.008890 0.000000 1.694000 
# 
# From -- ./inp_files/91617.got.cif
#   From: 2010.05.17/outbox.cif.g08.bks.cpg/sg12_46_cif.got.tgz:91617.got - 2010.06.03 13:09:07.
