data_PCOD9221931
_publ_section_title
;
Structure prediction by ZEFSAII (Michael W. Deem and Ramdas Pophale) SiO2 
 PCOD9221931
Probable space group: C 2/M
;
_chemical_formula_sum "Si O2"
_cell_formula_units_Z 48
_cell_length_a 18.937348
_cell_length_b 8.688417
_cell_length_c 15.931988
_cell_angle_alpha 90.000000
_cell_angle_beta 89.917187
_cell_angle_gamma 90.000000
_cell_volume 2621.376089
_symmetry_space_group_name_H-M "C 2/M"
_symmetry_group_IT_number 12
_symmetry_cell_setting 'monoclinic'
loop_
_space_group_symop_operation_xyz
x,y,z
-x,y,-z
-x,-y,-z
x,-y,z
1/2+x,1/2+y,z
1/2-x,1/2+y,-z
1/2-x,1/2-y,-z
1/2+x,1/2-y,z
loop_
_atom_site_type_symbol
_atom_site_label
_atom_site_fract_x
_atom_site_fract_y
_atom_site_fract_z
Si Si1 0.047609 0.684226 0.079769
Si Si2 0.205368 0.183242 0.077607
Si Si3 0.292711 0.685266 0.422156
Si Si4 0.708916 0.685622 0.766846
Si Si5 0.458128 0.685631 0.232629
Si Si6 0.955826 0.812585 0.420814
O O1 0.054427 0.500000 0.079012
O O2 0.125290 0.756190 0.075128
O O3 0.006232 0.737430 0.162727
O O4 0.000000 0.731084 0.000000
O O5 0.243735 0.237107 0.162715
O O6 0.205182 0.000000 0.072504
O O7 0.250000 0.250000 0.000000
O O8 0.289922 0.500000 0.424301
O O9 0.250000 0.750000 0.500000
O O10 0.269718 0.731912 0.328108
O O11 0.374378 0.731963 0.430460
O O12 0.715153 0.500000 0.773301
O O13 0.625385 0.722077 0.778186
O O14 0.464401 0.500000 0.226555
O O15 0.479381 0.733406 0.327301
O O16 0.000000 0.756181 0.500000
O O17 0.958186 0.000000 0.421304
#
# Coordination Sequence:
#
# PCOD9221931 Si02
#       6
#     8   8   8   8   8   8
#     4  11  24  40  58  82 112 144 178 219 270 328
#     4  12  25  40  60  84 110 142 182 227 276 330
#     4   9  18  32  52  79 111 147 184 226 273 320
#     4   9  19  37  57  79 113 151 187 230 277 325
#     4   9  18  34  57  82 108 144 185 224 270 320
#     4   8  15  30  52  77 106 140 179 220 263 315
#
# _framework density 18.310994000000001
#
# number of rings (size 3 to 8) (size 9 to 14) (size 15 to 20)
#    0.000    2.333    0.000    5.000    0.000    6.667 
#    0.000    4.167    0.000    1.000    0.000    0.000 
#    0.000    0.000    0.000    0.000    0.000    0.000 
#
# Total GULP energy -133954.987456 kJ/mol
# GULP energy per Si atom -5581.457811 kJ/mol
# Density = 1.826932 g / cm^3
# Si number density = 18.310994 Si / 1000 Ang^3
#
#
#
# Elastic Constant Matrix: (Units=GPa)
#
#
# Indices 1 2 3 4 5 6 
#
# 1 123.2453 52.9082 123.2218 0.0000 1.5448 0.0000
# 2 52.9082 51.2465 59.7317 0.0000 2.6263 0.0000
# 3 123.2218 59.7317 216.8453 0.0000 0.9182 0.0000
# 4 0.0000 0.0000 0.0000 27.8266 0.0000 -10.5100
# 5 1.5448 2.6263 0.9182 0.0000 41.0471 0.0000
# 6 0.0000 0.0000 0.0000 -10.5100 0.0000 24.0356
#
#
#
# Elastic Compliance Matrix: (Units=1/GPa)
#
#
# Indices 1 2 3 4 5 6 
#
# 1 0.023318 -0.012721 -0.009747 0.000000 0.000154 0.000000
# 2 -0.012721 0.035796 -0.002624 0.000000 -0.001753 0.000000
# 3 -0.009747 -0.002624 0.010872 0.000000 0.000292 0.000000
# 4 0.000000 0.000000 0.000000 0.043046 0.000000 0.018823
# 5 0.000154 -0.001753 0.000292 0.000000 0.024462 0.000000
# 6 0.000000 0.000000 0.000000 0.018823 0.000000 0.049835
#
#
# Mechanical properties :
#
#
# Convention : Reuss Voigt Hill
#
# Bulk Modulus (GPa) = 50.50209 95.89561 73.19885
# Shear Modulus (GPa) = 20.48222 28.94691 24.71457
#
# Velocity S-wave (km/s) = 3.34814 3.98030 3.67783
# Velocity P-wave (km/s) = 6.52586 8.57951 7.62216
#
# Compressibility (1/GPa) = 0.01980116
#
# Stress axis : x y z
#
# Youngs Moduli (GPa) = 42.88478 27.93642 91.98100
#
# Poissons Ratio (x) = 0.35539 0.89654
# Poissons Ratio (y) = 0.54556 0.24134
# Poissons Ratio (z) = 0.41800 0.07330
#
# Static dielectric constant tensor:
#      x y z
#    x 1.600590 0.000000 0.011640 
#    y 0.000000 1.617930 0.000000 
#    z 0.011640 0.000000 1.630390 
# 
# From -- ./inp_files/221657.got.cif
#   From: 2010.05.17/outbox.cif.g08.bks.cpg/sg12_111_cif.got.tgz:221657.got - 2010.06.03 13:09:07.
