data_PCOD9221441
_publ_section_title
;
Structure prediction by ZEFSAII (Michael W. Deem and Ramdas Pophale) SiO2 
 PCOD9221441
Probable space group: C 2/M
;
_chemical_formula_sum "Si O2"
_cell_formula_units_Z 32
_cell_length_a 11.224254
_cell_length_b 15.871799
_cell_length_c 10.253145
_cell_angle_alpha 90.000000
_cell_angle_beta 53.746033
_cell_angle_gamma 90.000000
_cell_volume 1472.967727
_symmetry_space_group_name_H-M "C 2/M"
_symmetry_group_IT_number 12
_symmetry_cell_setting 'monoclinic'
loop_
_space_group_symop_operation_xyz
x,y,z
-x,y,-z
-x,-y,-z
x,-y,z
1/2+x,1/2+y,z
1/2-x,1/2+y,-z
1/2-x,1/2-y,-z
1/2+x,1/2-y,z
loop_
_atom_site_type_symbol
_atom_site_label
_atom_site_fract_x
_atom_site_fract_y
_atom_site_fract_z
Si Si1 0.871224 0.901234 0.236167
Si Si2 0.674163 0.660523 0.024302
Si Si3 0.880378 0.686244 0.463632
Si Si4 0.027323 0.595292 0.124745
O O1 0.019511 0.857382 0.196246
O O2 0.720448 0.888218 0.411226
O O3 0.151568 0.854024 0.885776
O O4 0.901075 0.000000 0.197569
O O5 0.465471 0.848944 0.282363
O O6 0.750000 0.750000 0.000000
O O7 0.796739 0.592850 0.981403
O O8 0.750000 0.750000 0.500000
O O9 0.000000 0.712284 0.500000
O O10 0.966478 0.500000 0.169621
O O11 0.000000 0.633809 0.000000
#
# Coordination Sequence:
#
# PCOD9221441 Si02
#       4
#     8   8   8   8
#     4  11  24  43  70 101 138 187 243 293 350 433
#     4  11  23  39  68 101 140 180 229 289 356 421
#     4  12  27  46  72 106 143 188 243 302 367 431
#     4  11  25  44  70 101 141 186 235 293 360 431
#
# _framework density 21.724848000000001
#
# number of rings (size 3 to 8) (size 9 to 14) (size 15 to 20)
#    0.000    0.750    2.500    5.250    7.000    1.000 
#    0.000    0.000    0.000    6.000    0.000    0.000 
#    0.000    0.000    0.000    0.000    0.000    0.000 
#
# Total GULP energy -89297.830394 kJ/mol
# GULP energy per Si atom -5581.114400 kJ/mol
# Density = 2.167540 g / cm^3
# Si number density = 21.724848 Si / 1000 Ang^3
#
#
#
# Elastic Constant Matrix: (Units=GPa)
#
#
# Indices 1 2 3 4 5 6 
#
# 1 145.9789 43.5007 68.0185 0.0000 -6.8568 0.0000
# 2 43.5007 133.1635 17.7086 0.0000 -7.4233 0.0000
# 3 68.0185 17.7086 115.5670 0.0000 -15.3621 0.0000
# 4 0.0000 0.0000 0.0000 35.0008 0.0000 -4.9446
# 5 -6.8568 -7.4233 -15.3621 0.0000 40.9689 0.0000
# 6 0.0000 0.0000 0.0000 -4.9446 0.0000 28.2187
#
#
#
# Elastic Compliance Matrix: (Units=1/GPa)
#
#
# Indices 1 2 3 4 5 6 
#
# 1 0.010283 -0.002643 -0.005770 0.000000 -0.000921 0.000000
# 2 -0.002643 0.008384 0.000436 0.000000 0.001240 0.000000
# 3 -0.005770 0.000436 0.012487 0.000000 0.003795 0.000000
# 4 0.000000 0.000000 0.000000 0.029296 0.000000 0.005133
# 5 -0.000921 0.001240 0.003795 0.000000 0.025902 0.000000
# 6 0.000000 0.000000 0.000000 0.005133 0.000000 0.036337
#
#
# Mechanical properties :
#
#
# Convention : Reuss Voigt Hill
#
# Bulk Modulus (GPa) = 65.79100 72.57387 69.18244
# Shear Modulus (GPa) = 34.79232 38.53645 36.66439
#
# Velocity S-wave (km/s) = 4.00621 4.21627 4.11258
# Velocity P-wave (km/s) = 7.19369 7.56181 7.38005
#
# Compressibility (1/GPa) = 0.01519965
#
# Stress axis : x y z
#
# Youngs Moduli (GPa) = 97.24729 119.27164 80.08627
#
# Poissons Ratio (x) = 0.31527 0.46207
# Poissons Ratio (y) = 0.25705 -0.03491
# Poissons Ratio (z) = 0.56108 -0.05198
#
# Static dielectric constant tensor:
#      x y z
#    x 1.681250 0.000000 -0.048460 
#    y 0.000000 1.854120 0.000000 
#    z -0.048460 0.000000 1.834770 
# 
# From -- ./inp_files/127688.got.cif
#   From: 2010.05.17/outbox.cif.g08.bks.cpg/sg12_64_cif.got.tgz:127688.got - 2010.06.03 13:09:07.
