data_PCOD9221055
_publ_section_title
;
Structure prediction by ZEFSAII (Michael W. Deem and Ramdas Pophale) SiO2 
 PCOD9221055
Probable space group: C 2/M
;
_chemical_formula_sum "Si O2"
_cell_formula_units_Z 32
_cell_length_a 9.524200
_cell_length_b 21.861045
_cell_length_c 8.645879
_cell_angle_alpha 90.000000
_cell_angle_beta 63.085773
_cell_angle_gamma 90.000000
_cell_volume 1605.166608
_symmetry_space_group_name_H-M "C 2/M"
_symmetry_group_IT_number 12
_symmetry_cell_setting 'monoclinic'
loop_
_space_group_symop_operation_xyz
x,y,z
-x,y,-z
-x,-y,-z
x,-y,z
1/2+x,1/2+y,z
1/2-x,1/2+y,-z
1/2-x,1/2-y,-z
1/2+x,1/2-y,z
loop_
_atom_site_type_symbol
_atom_site_label
_atom_site_fract_x
_atom_site_fract_y
_atom_site_fract_z
Si Si1 0.722675 0.758201 0.329662
Si Si2 0.089360 0.133502 0.257640
Si Si3 0.227231 0.071571 0.457521
Si Si4 0.000000 0.812577 0.000000
Si Si5 0.000000 0.364710 0.500000
O O1 0.750000 0.750000 0.500000
O O2 0.634891 0.698814 0.309030
O O3 0.616257 0.817892 0.355396
O O4 0.884082 0.770726 0.159076
O O5 0.204660 0.086714 0.287464
O O6 0.093828 0.144697 0.073368
O O7 0.914203 0.109696 0.389342
O O8 0.391462 0.095301 0.442305
O O9 0.205323 0.000000 0.496932
#
# Coordination Sequence:
#
# PCOD9221055 Si02
#       5
#     8   8   8   4   4
#     4  12  23  42  71 102 138 175 218 282 349 405
#     4  11  22  41  65  97 132 171 223 276 335 403
#     4  11  23  43  69  95 130 184 234 276 327 393
#     4  12  24  42  65 110 137 176 214 284 348 404
#     4  12  21  40  70  98 131 174 234 276 340 394
#
# _framework density 19.935625999999999
#
# number of rings (size 3 to 8) (size 9 to 14) (size 15 to 20)
#    0.000    0.500    5.000    7.125    0.000    0.000 
#    0.000    2.500    0.000    1.500    0.000    0.000 
#    0.000    0.000    0.000    0.000    0.000    0.000 
#
# Total GULP energy -89408.061467 kJ/mol
# GULP energy per Si atom -5588.003842 kJ/mol
# Density = 1.989025 g / cm^3
# Si number density = 19.935626 Si / 1000 Ang^3
#
#
#
# Elastic Constant Matrix: (Units=GPa)
#
#
# Indices 1 2 3 4 5 6 
#
# 1 155.4882 57.8641 53.7884 0.0000 16.8529 0.0000
# 2 57.8641 126.5443 39.3137 0.0000 3.0683 0.0000
# 3 53.7884 39.3137 116.0438 0.0000 4.6782 0.0000
# 4 0.0000 0.0000 0.0000 13.3096 0.0000 -3.9172
# 5 16.8529 3.0683 4.6782 0.0000 41.9186 0.0000
# 6 0.0000 0.0000 0.0000 -3.9172 0.0000 22.8336
#
#
#
# Elastic Compliance Matrix: (Units=1/GPa)
#
#
# Indices 1 2 3 4 5 6 
#
# 1 0.008939 -0.003090 -0.002974 0.000000 -0.003036 0.000000
# 2 -0.003090 0.009904 -0.001953 0.000000 0.000735 0.000000
# 3 -0.002974 -0.001953 0.010652 0.000000 0.000150 0.000000
# 4 0.000000 0.000000 0.000000 0.079129 0.000000 0.013575
# 5 -0.003036 0.000735 0.000150 0.000000 0.025006 0.000000
# 6 0.000000 0.000000 0.000000 0.013575 0.000000 0.046124
#
#
# Mechanical properties :
#
#
# Convention : Reuss Voigt Hill
#
# Bulk Modulus (GPa) = 74.28888 77.77877 76.03383
# Shear Modulus (GPa) = 24.96570 32.08637 28.52603
#
# Velocity S-wave (km/s) = 3.54265 4.01621 3.78684
# Velocity P-wave (km/s) = 7.35385 7.78500 7.57249
#
# Compressibility (1/GPa) = 0.01346096
#
# Stress axis : x y z
#
# Youngs Moduli (GPa) = 111.86687 100.96804 93.88283
#
# Poissons Ratio (x) = 0.31199 0.27923
# Poissons Ratio (y) = 0.34566 0.18333
# Poissons Ratio (z) = 0.33272 0.19717
#
# Static dielectric constant tensor:
#      x y z
#    x 1.758430 0.000000 0.002550 
#    y 0.000000 1.682610 0.000000 
#    z 0.002550 0.000000 1.726920 
# 
# From -- ./inp_files/38365.got.cif
#   From: 2010.05.17/outbox.cif.g08.bks.cpg/sg12_20_cif.got.tgz:38365.got - 2010.06.03 13:09:07.
