data_PCOD9221486
_publ_section_title
;
Structure prediction by ZEFSAII (Michael W. Deem and Ramdas Pophale) SiO2 
 PCOD9221486
Probable space group: C 2/M
;
_chemical_formula_sum "Si O2"
_cell_formula_units_Z 48
_cell_length_a 15.468139
_cell_length_b 8.704093
_cell_length_c 16.614786
_cell_angle_alpha 90.000000
_cell_angle_beta 95.234988
_cell_angle_gamma 90.000000
_cell_volume 2227.619712
_symmetry_space_group_name_H-M "C 2/M"
_symmetry_group_IT_number 12
_symmetry_cell_setting 'monoclinic'
loop_
_space_group_symop_operation_xyz
x,y,z
-x,y,-z
-x,-y,-z
x,-y,z
1/2+x,1/2+y,z
1/2-x,1/2+y,-z
1/2-x,1/2-y,-z
1/2+x,1/2-y,z
loop_
_atom_site_type_symbol
_atom_site_label
_atom_site_fract_x
_atom_site_fract_y
_atom_site_fract_z
Si Si1 0.716102 0.316436 0.581150
Si Si2 0.049038 0.319791 0.647691
Si Si3 0.847872 0.322180 0.177636
Si Si4 0.665539 0.820466 0.149577
Si Si5 0.375675 0.317492 0.691115
Si Si6 0.599629 0.324485 0.981634
O O1 0.714466 0.500000 0.579549
O O2 0.750000 0.250000 0.500000
O O3 0.621050 0.252975 0.595586
O O4 0.787125 0.257543 0.651310
O O5 0.037985 0.500000 0.628519
O O6 0.089670 0.305702 0.740832
O O7 0.956219 0.237782 0.643817
O O8 0.818053 0.500000 0.173020
O O9 0.765513 0.211908 0.178934
O O10 0.891409 0.276336 0.097386
O O11 0.611702 0.738272 0.215860
O O12 0.645128 0.000000 0.146846
O O13 0.650518 0.747255 0.060990
O O14 0.367722 0.500000 0.688244
O O15 0.629067 0.500000 0.968692
O O16 0.500000 0.328338 0.000000
#
# Coordination Sequence:
#
# PCOD9221486 Si02
#       6
#     8   8   8   8   8   8
#     4  12  26  47  74 104 139 177 221 274 336 402
#     4  11  24  44  71 103 138 179 226 277 336 400
#     4  11  23  40  64  92 129 172 221 275 333 396
#     4  12  24  40  64  92 128 173 224 276 335 396
#     4  12  25  44  70 102 139 179 226 277 335 401
#     4  11  24  40  59  87 126 170 222 277 333 394
#
# _framework density 21.547664999999999
#
# number of rings (size 3 to 8) (size 9 to 14) (size 15 to 20)
#    0.000    0.500    1.667    7.500    0.000    6.667 
#    0.000    3.333    0.000    0.000    0.000    0.000 
#    0.000    0.000    0.000    0.000    0.000    0.000 
#
# Total GULP energy -134430.207977 kJ/mol
# GULP energy per Si atom -5601.258666 kJ/mol
# Density = 2.149862 g / cm^3
# Si number density = 21.547665 Si / 1000 Ang^3
#
#
#
# Elastic Constant Matrix: (Units=GPa)
#
#
# Indices 1 2 3 4 5 6 
#
# 1 64.6839 3.4709 -10.4074 0.0000 -29.7406 0.0000
# 2 3.4709 127.1059 12.2217 0.0000 -10.8490 0.0000
# 3 -10.4074 12.2217 76.7286 0.0000 -27.0233 0.0000
# 4 0.0000 0.0000 0.0000 216.9772 0.0000 182.5899
# 5 -29.7406 -10.8490 -27.0233 0.0000 35.9876 0.0000
# 6 0.0000 0.0000 0.0000 182.5899 0.0000 230.2122
#
#
#
# Elastic Compliance Matrix: (Units=1/GPa)
#
#
# Indices 1 2 3 4 5 6 
#
# 1 0.047543 0.001205 0.027494 0.000000 0.060299 0.000000
# 2 0.001205 0.008125 0.000112 0.000000 0.003529 0.000000
# 3 0.027494 0.000112 0.033660 0.000000 0.048031 0.000000
# 4 0.000000 0.000000 0.000000 0.013858 0.000000 -0.010992
# 5 0.060299 0.003529 0.048031 0.000000 0.114749 0.000000
# 6 0.000000 0.000000 0.000000 -0.010992 0.000000 0.013062
#
#
# Mechanical properties :
#
#
# Convention : Reuss Voigt Hill
#
# Bulk Modulus (GPa) = 6.80505 31.00988 18.90747
# Shear Modulus (GPa) = 22.48606 114.18427 68.33517
#
# Velocity S-wave (km/s) = 3.23391 7.28742 5.63758
# Velocity P-wave (km/s) = 4.13633 9.23208 7.15334
#
# Compressibility (1/GPa) = 0.14694972
#
# Stress axis : x y z
#
# Youngs Moduli (GPa) = 21.03357 123.07683 29.70849
#
# Poissons Ratio (x) = -0.14828 -0.81679
# Poissons Ratio (y) = -0.02534 -0.00333
# Poissons Ratio (z) = -0.57829 -0.01381
#
# Static dielectric constant tensor:
#      x y z
#    x 1.789790 0.000000 0.013320 
#    y 0.000000 1.728320 0.000000 
#    z 0.013320 0.000000 1.820010 
# 
# From -- ./inp_files/267725.got.cif
#   From: 2010.05.17/outbox.cif.g08.bks.cpg/sg12_134_cif.got.tgz:267725.got - 2010.06.03 13:09:07.
