data_PCOD9221024
_publ_section_title
;
Structure prediction by ZEFSAII (Michael W. Deem and Ramdas Pophale) SiO2 
 PCOD9221024
Probable space group: C 2/M
;
_chemical_formula_sum "Si O2"
_cell_formula_units_Z 40
_cell_length_a 14.447178
_cell_length_b 18.076029
_cell_length_c 13.870420
_cell_angle_alpha 90.000000
_cell_angle_beta 30.234119
_cell_angle_gamma 90.000000
_cell_volume 1823.916352
_symmetry_space_group_name_H-M "C 2/M"
_symmetry_group_IT_number 12
_symmetry_cell_setting 'monoclinic'
loop_
_space_group_symop_operation_xyz
x,y,z
-x,y,-z
-x,-y,-z
x,-y,z
1/2+x,1/2+y,z
1/2-x,1/2+y,-z
1/2-x,1/2-y,-z
1/2+x,1/2-y,z
loop_
_atom_site_type_symbol
_atom_site_label
_atom_site_fract_x
_atom_site_fract_y
_atom_site_fract_z
Si Si1 0.207146 0.654181 0.617456
Si Si2 0.296253 0.500000 0.458512
Si Si3 0.711638 0.160454 0.830392
Si Si4 0.864027 0.000000 0.717350
Si Si5 0.512784 0.238406 0.310510
Si Si6 0.207210 0.000000 0.768865
Si Si7 0.500000 0.128112 0.500000
O O1 0.200440 0.570697 0.590923
O O2 0.283856 0.664286 0.655649
O O3 0.369958 0.695644 0.414829
O O4 0.012298 0.689689 0.763336
O O5 0.502551 0.500000 0.311860
O O6 0.298252 0.500000 0.342368
O O7 0.747469 0.075234 0.825906
O O8 0.808727 0.219881 0.811137
O O9 0.500000 0.175153 0.000000
O O10 0.000000 0.000000 0.500000
O O11 0.458021 0.181450 0.446425
O O12 0.330558 0.926699 0.681033
O O13 0.000000 0.000000 0.000000
#
# Coordination Sequence:
#
# PCOD9221024 Si02
#       7
#     8   4   8   4   8   4   4
#     4  11  22  40  70  95 130 183 233 272 343 415
#     4  12  21  41  74  96 129 181 234 280 342 419
#     4  12  24  40  62 100 144 178 226 292 343 406
#     4  12  21  41  68  92 129 181 232 272 332 425
#     4  11  22  41  68  95 128 183 232 270 347 416
#     4  11  27  48  70 102 129 180 238 289 343 413
#     4  11  22  46  72  91 138 180 222 289 346 408
#
# _framework density 21.930828999999999
#
# number of rings (size 3 to 8) (size 9 to 14) (size 15 to 20)
#    0.000    0.600    8.000    0.300    0.000    1.600 
#    3.600    0.000    0.000    0.000    0.000    0.000 
#    0.000    0.000    0.000    0.000    0.000    0.000 
#
# Total GULP energy -111528.589964 kJ/mol
# GULP energy per Si atom -5576.429498 kJ/mol
# Density = 2.188091 g / cm^3
# Si number density = 21.930829 Si / 1000 Ang^3
#
#
#
# Elastic Constant Matrix: (Units=GPa)
#
#
# Indices 1 2 3 4 5 6 
#
# 1 138.3990 56.3423 12.0133 -0.0230 -29.4276 0.0037
# 2 56.3423 168.1571 47.0090 -0.0146 -34.3250 0.0007
# 3 12.0133 47.0090 73.5385 0.0578 -24.7225 -0.0063
# 4 -0.0230 -0.0146 0.0578 -73.5403 -0.0025 -1.8717
# 5 -29.4276 -34.3250 -24.7225 -0.0025 27.6931 0.0018
# 6 0.0037 0.0007 -0.0063 -1.8717 0.0018 44.1181
#
#
#
# Elastic Compliance Matrix: (Units=1/GPa)
#
#
# Indices 1 2 3 4 5 6 
#
# 1 0.010180 -0.002063 0.003476 0.000000 0.011363 -0.000001
# 2 -0.002063 0.008723 -0.003345 -0.000004 0.005634 -0.000001
# 3 0.003476 -0.003345 0.021456 0.000016 0.018702 0.000003
# 4 0.000000 -0.000004 0.000016 -0.013583 0.000008 -0.000576
# 5 0.011363 0.005634 0.018702 0.000008 0.071864 -0.000001
# 6 -0.000001 -0.000001 0.000003 -0.000576 -0.000001 0.022642
#
#
# Mechanical properties :
#
#
# Convention : Reuss Voigt Hill
#
# Bulk Modulus (GPa) = 27.40133 67.86930 47.63532
# Shear Modulus (GPa) = 36.41371 17.30285 26.85828
#
# Velocity S-wave (km/s) = 4.07921 2.81192 3.50334
# Velocity P-wave (km/s) = 5.89136 6.44645 6.17514
#
# Compressibility (1/GPa) = 0.03649458
#
# Stress axis : x y z
#
# Youngs Moduli (GPa) = 98.23366 114.63713 46.60663
#
# Poissons Ratio (x) = 0.23649 -0.16200
# Poissons Ratio (y) = 0.20265 0.15591
# Poissons Ratio (z) = -0.34146 0.38350
#
# Static dielectric constant tensor:
#      x y z
#    x 1.894380 -0.000030 0.119230 
#    y -0.000030 1.863580 -0.000040 
#    z 0.119230 -0.000040 1.986210 
# 
# From -- ./inp_files/216697.got.cif
#   From: 2010.05.17/outbox.cif.g08.bks.cpg/sg12_109_cif.got.tgz:216697.got - 2010.06.03 13:09:07.
