data_PCOD9221744
_publ_section_title
;
Structure prediction by ZEFSAII (Michael W. Deem and Ramdas Pophale) SiO2 
 PCOD9221744
Probable space group: C 2/M
;
_chemical_formula_sum "Si O2"
_cell_formula_units_Z 40
_cell_length_a 8.849968
_cell_length_b 15.075936
_cell_length_c 14.786300
_cell_angle_alpha 90.000000
_cell_angle_beta 74.938727
_cell_angle_gamma 90.000000
_cell_volume 1905.042040
_symmetry_space_group_name_H-M "C 2/M"
_symmetry_group_IT_number 12
_symmetry_cell_setting 'monoclinic'
loop_
_space_group_symop_operation_xyz
x,y,z
-x,y,-z
-x,-y,-z
x,-y,z
1/2+x,1/2+y,z
1/2-x,1/2+y,-z
1/2-x,1/2-y,-z
1/2+x,1/2-y,z
loop_
_atom_site_type_symbol
_atom_site_label
_atom_site_fract_x
_atom_site_fract_y
_atom_site_fract_z
Si Si1 0.650251 0.647613 0.685458
Si Si2 0.790349 0.500000 0.787769
Si Si3 0.178982 0.000000 0.004404
Si Si4 0.850262 0.500000 0.326344
Si Si5 0.179450 0.675789 0.945579
Si Si6 0.662810 0.500000 0.530979
Si Si7 0.713712 0.681993 0.268235
O O1 0.704245 0.586078 0.760614
O O2 0.668037 0.585760 0.594703
O O3 0.469585 0.673927 0.722067
O O4 0.750734 0.737173 0.669945
O O5 0.782265 0.500000 0.896884
O O6 0.966613 0.500000 0.723647
O O7 0.221982 0.086457 0.054601
O O8 0.000000 0.000000 0.000000
O O9 0.804717 0.500000 0.438547
O O10 0.774753 0.588335 0.295763
O O11 0.196411 0.702977 0.838890
O O12 0.250000 0.750000 0.000000
O O13 0.000000 0.659972 0.000000
O O14 0.500000 0.500000 0.500000
#
# Coordination Sequence:
#
# PCOD9221744 Si02
#       7
#     8   4   4   4   8   4   8
#     4  11  24  42  68  92 132 164 218 263 324 389
#     4  11  23  43  64  98 129 176 216 264 320 376
#     4  12  23  40  65  95 133 177 219 263 311 372
#     4  12  24  43  70  91 134 162 219 267 324 385
#     4  12  24  40  62  94 133 169 219 264 312 382
#     4  11  23  49  67  98 123 165 211 275 327 384
#     4  12  23  42  65  96 127 177 207 266 325 379
#
# _framework density 20.996912999999999
#
# number of rings (size 3 to 8) (size 9 to 14) (size 15 to 20)
#    0.000    0.400    2.000    8.100    0.000    2.400 
#    0.000    0.000    0.000    0.000    0.000    0.000 
#    0.000    0.000    0.000    0.000    0.000    0.000 
#
# Total GULP energy -112044.037129 kJ/mol
# GULP energy per Si atom -5602.201856 kJ/mol
# Density = 2.094912 g / cm^3
# Si number density = 20.996913 Si / 1000 Ang^3
#
#
#
# Elastic Constant Matrix: (Units=GPa)
#
#
# Indices 1 2 3 4 5 6 
#
# 1 106.4846 31.9462 -12.1331 0.0000 -14.4422 0.0000
# 2 31.9462 155.8831 -3.3406 0.0000 22.5734 0.0000
# 3 -12.1331 -3.3406 96.4438 0.0000 0.1066 0.0000
# 4 0.0000 0.0000 0.0000 15.3545 0.0000 16.9091
# 5 -14.4422 22.5734 0.1066 0.0000 40.1127 0.0000
# 6 0.0000 0.0000 0.0000 16.9091 0.0000 39.9986
#
#
#
# Elastic Compliance Matrix: (Units=1/GPa)
#
#
# Indices 1 2 3 4 5 6 
#
# 1 0.011264 -0.003122 0.001302 0.000000 0.005809 0.000000
# 2 -0.003122 0.007855 -0.000114 0.000000 -0.005544 0.000000
# 3 0.001302 -0.000114 0.010528 0.000000 0.000505 0.000000
# 4 0.000000 0.000000 0.000000 0.121857 0.000000 -0.051514
# 5 0.005809 -0.005544 0.000505 0.000000 0.030140 0.000000
# 6 0.000000 0.000000 0.000000 -0.051514 0.000000 0.046778
#
#
# Mechanical properties :
#
#
# Convention : Reuss Voigt Hill
#
# Bulk Modulus (GPa) = 38.79008 43.52851 41.15930
# Shear Modulus (GPa) = 20.75702 41.91576 31.33639
#
# Velocity S-wave (km/s) = 3.14757 4.47282 3.86739
# Velocity P-wave (km/s) = 5.63240 6.88845 6.29185
#
# Compressibility (1/GPa) = 0.02577979
#
# Stress axis : x y z
#
# Youngs Moduli (GPa) = 88.78042 127.30460 94.98420
#
# Poissons Ratio (x) = 0.39739 -0.12372
# Poissons Ratio (y) = 0.27714 0.01088
# Poissons Ratio (z) = -0.11564 0.01458
#
# Static dielectric constant tensor:
#      x y z
#    x 1.724460 0.000000 -0.006930 
#    y 0.000000 1.732030 0.000000 
#    z -0.006930 0.000000 1.734530 
# 
# From -- ./inp_files/194523.got.cif
#   From: 2010.05.17/outbox.cif.g08.bks.cpg/sg12_98_cif.got.tgz:194523.got - 2010.06.03 13:09:07.
