data_PCOD9221192
_publ_section_title
;
Structure prediction by ZEFSAII (Michael W. Deem and Ramdas Pophale) SiO2 
 PCOD9221192
Probable space group: C 2/M
;
_chemical_formula_sum "Si O2"
_cell_formula_units_Z 48
_cell_length_a 18.129377
_cell_length_b 19.798512
_cell_length_c 8.662823
_cell_angle_alpha 90.000000
_cell_angle_beta 126.112338
_cell_angle_gamma 90.000000
_cell_volume 2511.959216
_symmetry_space_group_name_H-M "C 2/M"
_symmetry_group_IT_number 12
_symmetry_cell_setting 'monoclinic'
loop_
_space_group_symop_operation_xyz
x,y,z
-x,y,-z
-x,-y,-z
x,-y,z
1/2+x,1/2+y,z
1/2-x,1/2+y,-z
1/2-x,1/2-y,-z
1/2+x,1/2-y,z
loop_
_atom_site_type_symbol
_atom_site_label
_atom_site_fract_x
_atom_site_fract_y
_atom_site_fract_z
Si Si1 0.429206 0.827169 0.285149
Si Si2 0.462295 0.421396 0.628064
Si Si3 0.254697 0.791080 0.269421
Si Si4 0.950055 0.795748 0.099625
Si Si5 0.597877 0.921421 0.039357
Si Si6 0.735370 0.642940 0.572279
O O1 0.500000 0.852966 0.500000
O O2 0.336153 0.808761 0.256321
O O3 0.471496 0.760686 0.254604
O O4 0.407026 0.879582 0.123692
O O5 0.500000 0.414411 0.500000
O O6 0.472311 0.500000 0.685507
O O7 0.517217 0.368645 0.801908
O O8 0.356647 0.398820 0.509271
O O9 0.272104 0.716292 0.357191
O O10 0.248714 0.841736 0.407600
O O11 0.157641 0.792927 0.064389
O O12 0.000000 0.779180 0.000000
O O13 0.677088 0.893006 0.246668
O O14 0.614646 0.000000 0.029601
O O15 0.500000 0.913915 0.000000
#
# Coordination Sequence:
#
# PCOD9221192 Si02
#       6
#     8   8   8   8   8   8
#     4  12  25  41  67  98 126 166 215 275 323 380
#     4  11  25  43  66  94 133 177 216 263 324 394
#     4  11  24  39  68  98 130 163 216 272 318 379
#     4  12  23  42  65  97 133 170 214 267 321 385
#     4  11  25  44  66  91 127 172 217 266 324 387
#     4  11  22  44  66  95 128 170 215 265 324 387
#
# _framework density 19.10859
#
# number of rings (size 3 to 8) (size 9 to 14) (size 15 to 20)
#    0.000    0.667    3.333    5.000    4.667    0.667 
#    0.000    1.667    0.000    0.000    0.000    0.000 
#    0.000    0.000    0.000    0.000    0.000    0.000 
#
# Total GULP energy -134314.148178 kJ/mol
# GULP energy per Si atom -5596.422841 kJ/mol
# Density = 1.906510 g / cm^3
# Si number density = 19.108590 Si / 1000 Ang^3
#
#
#
# Elastic Constant Matrix: (Units=GPa)
#
#
# Indices 1 2 3 4 5 6 
#
# 1 90.8931 47.2969 5.1375 0.0000 -3.0388 0.0000
# 2 47.2969 97.0631 17.6459 0.0000 -21.3295 0.0000
# 3 5.1375 17.6459 62.3021 0.0000 -11.3693 0.0000
# 4 0.0000 0.0000 0.0000 -4.1112 0.0000 28.2123
# 5 -3.0388 -21.3295 -11.3693 0.0000 19.1588 0.0000
# 6 0.0000 0.0000 0.0000 28.2123 0.0000 -3.3144
#
#
#
# Elastic Compliance Matrix: (Units=1/GPa)
#
#
# Indices 1 2 3 4 5 6 
#
# 1 0.015599 -0.009337 -0.000098 0.000000 -0.007978 0.000000
# 2 -0.009337 0.019311 -0.001174 0.000000 0.019322 0.000000
# 3 -0.000098 -0.001174 0.018111 0.000000 0.009425 0.000000
# 4 0.000000 0.000000 0.000000 0.004237 0.000000 0.036063
# 5 -0.007978 0.019322 0.009425 0.000000 0.078034 0.000000
# 6 0.000000 0.000000 0.000000 0.036063 0.000000 0.005255
#
#
# Mechanical properties :
#
#
# Convention : Reuss Voigt Hill
#
# Bulk Modulus (GPa) = 31.44089 43.37989 37.41039
# Shear Modulus (GPa) = 29.00797 14.35850 21.68323
#
# Velocity S-wave (km/s) = 3.90045 2.74417 3.37224
# Velocity P-wave (km/s) = 6.06418 5.72640 5.89771
#
# Compressibility (1/GPa) = 0.03180571
#
# Stress axis : x y z
#
# Youngs Moduli (GPa) = 64.10635 51.78265 55.21401
#
# Poissons Ratio (x) = 0.48347 0.00540
# Poissons Ratio (y) = 0.59853 0.06480
# Poissons Ratio (z) = 0.00627 0.06078
#
# Static dielectric constant tensor:
#      x y z
#    x 1.639950 0.000000 -0.002500 
#    y 0.000000 1.645160 0.000000 
#    z -0.002500 0.000000 1.634840 
# 
# From -- ./inp_files/77711.got.cif
#   From: 2010.05.17/outbox.cif.g08.bks.cpg/sg12_39_cif.got.tgz:77711.got - 2010.06.03 13:09:07.
