data_PCOD9221863
_publ_section_title
;
Structure prediction by ZEFSAII (Michael W. Deem and Ramdas Pophale) SiO2 
 PCOD9221863
Probable space group: C 2/M
;
_chemical_formula_sum "Si O2"
_cell_formula_units_Z 36
_cell_length_a 12.057202
_cell_length_b 24.209138
_cell_length_c 8.612699
_cell_angle_alpha 90.000000
_cell_angle_beta 140.583060
_cell_angle_gamma 90.000000
_cell_volume 1596.286285
_symmetry_space_group_name_H-M "C 2/M"
_symmetry_group_IT_number 12
_symmetry_cell_setting 'monoclinic'
loop_
_space_group_symop_operation_xyz
x,y,z
-x,y,-z
-x,-y,-z
x,-y,z
1/2+x,1/2+y,z
1/2-x,1/2+y,-z
1/2-x,1/2-y,-z
1/2+x,1/2-y,z
loop_
_atom_site_type_symbol
_atom_site_label
_atom_site_fract_x
_atom_site_fract_y
_atom_site_fract_z
Si Si1 0.500000 0.194223 0.500000
Si Si2 0.593074 0.500000 0.345397
Si Si3 0.706002 0.227269 0.281133
Si Si4 0.260740 0.599847 0.325540
Si Si5 0.069079 0.403164 0.810187
Si Si6 0.723595 0.000000 0.779538
O O1 0.672095 0.232532 0.688948
O O2 0.479007 0.153693 0.329070
O O3 0.608544 0.554725 0.466420
O O4 0.738281 0.500000 0.362946
O O5 0.411992 0.500000 0.061547
O O6 0.750000 0.250000 0.500000
O O7 0.782207 0.165310 0.368069
O O8 0.500000 0.226570 0.000000
O O9 0.092705 0.585090 0.251110
O O10 0.223709 0.596089 0.103070
O O11 0.125498 0.447115 0.743066
#
# Coordination Sequence:
#
# PCOD9221863 Si02
#       6
#     4   4   8   8   8   4
#     4  12  26  45  80 105 146 204 246 300 374 436
#     4  11  26  45  70 103 142 188 234 313 362 432
#     4  12  26  49  73 110 152 194 252 308 363 440
#     4  11  23  46  69 102 145 182 235 304 366 429
#     4  11  23  45  70 103 139 189 236 294 370 438
#     4  11  26  43  70 106 141 184 249 293 370 449
#
# _framework density 22.552347000000001
#
# number of rings (size 3 to 8) (size 9 to 14) (size 15 to 20)
#    0.000    0.667    4.444    2.667    0.000   12.000 
#    0.000    0.000    0.000    0.000    0.000    0.000 
#    0.000    0.000    0.000    0.000    0.000    0.000 
#
# Total GULP energy -100476.754398 kJ/mol
# GULP energy per Si atom -5582.041911 kJ/mol
# Density = 2.250102 g / cm^3
# Si number density = 22.552347 Si / 1000 Ang^3
#
#
#
# Elastic Constant Matrix: (Units=GPa)
#
#
# Indices 1 2 3 4 5 6 
#
# 1 106.7195 54.1888 47.3967 0.0000 -7.9646 0.0000
# 2 54.1888 172.9586 93.6836 0.0000 -8.0575 0.0000
# 3 47.3967 93.6836 156.3471 0.0000 -25.6945 0.0000
# 4 0.0000 0.0000 0.0000 86.1134 0.0000 -24.0555
# 5 -7.9646 -8.0575 -25.6945 0.0000 46.4295 0.0000
# 6 0.0000 0.0000 0.0000 -24.0555 0.0000 28.2444
#
#
#
# Elastic Compliance Matrix: (Units=1/GPa)
#
#
# Indices 1 2 3 4 5 6 
#
# 1 0.011550 -0.002581 -0.001873 0.000000 0.000497 0.000000
# 2 -0.002581 0.009231 -0.005015 0.000000 -0.001616 0.000000
# 3 -0.001873 -0.005015 0.010751 0.000000 0.004758 0.000000
# 4 0.000000 0.000000 0.000000 0.015238 0.000000 0.012978
# 5 0.000497 -0.001616 0.004758 0.000000 0.023976 0.000000
# 6 0.000000 0.000000 0.000000 0.012978 0.000000 0.046458
#
#
# Mechanical properties :
#
#
# Convention : Reuss Voigt Hill
#
# Bulk Modulus (GPa) = 79.40071 91.84039 85.62055
# Shear Modulus (GPa) = 35.62796 48.20786 41.91791
#
# Velocity S-wave (km/s) = 3.97897 4.62843 4.31593
# Velocity P-wave (km/s) = 7.50955 8.32915 7.92995
#
# Compressibility (1/GPa) = 0.01259435
#
# Stress axis : x y z
#
# Youngs Moduli (GPa) = 86.58111 108.32868 93.01860
#
# Poissons Ratio (x) = 0.27958 0.17425
# Poissons Ratio (y) = 0.22345 0.46644
# Poissons Ratio (z) = 0.16219 0.54321
#
# Static dielectric constant tensor:
#      x y z
#    x 1.909130 0.000000 0.024650 
#    y 0.000000 1.828260 0.000000 
#    z 0.024650 0.000000 1.885410 
# 
# From -- ./inp_files/52962.got.cif
#   From: 2010.05.17/outbox.cif.g08.bks.cpg/sg12_27_cif.got.tgz:52962.got - 2010.06.03 13:09:07.
