data_PCOD9221379
_publ_section_title
;
Structure prediction by ZEFSAII (Michael W. Deem and Ramdas Pophale) SiO2 
 PCOD9221379
Probable space group: C 2/M
;
_chemical_formula_sum "Si O2"
_cell_formula_units_Z 48
_cell_length_a 28.261034
_cell_length_b 15.341402
_cell_length_c 12.818748
_cell_angle_alpha 90.000000
_cell_angle_beta 26.192524
_cell_angle_gamma 90.000000
_cell_volume 2453.126766
_symmetry_space_group_name_H-M "C 2/M"
_symmetry_group_IT_number 12
_symmetry_cell_setting 'monoclinic'
loop_
_space_group_symop_operation_xyz
x,y,z
-x,y,-z
-x,-y,-z
x,-y,z
1/2+x,1/2+y,z
1/2-x,1/2+y,-z
1/2-x,1/2-y,-z
1/2+x,1/2-y,z
loop_
_atom_site_type_symbol
_atom_site_label
_atom_site_fract_x
_atom_site_fract_y
_atom_site_fract_z
Si Si1 0.060820 0.500000 0.136845
Si Si2 0.230416 0.327707 0.121725
Si Si3 0.278330 0.000000 0.371297
Si Si4 0.216933 0.330671 0.495875
Si Si5 0.946750 0.315519 0.354348
Si Si6 0.469608 0.500000 0.186467
Si Si7 0.600220 0.653552 0.039875
Si Si8 0.871877 0.500000 0.774879
O O1 0.140420 0.500000 0.076844
O O2 0.989566 0.413273 0.285233
O O3 0.129458 0.500000 0.896742
O O4 0.142750 0.296386 0.380811
O O5 0.336286 0.358415 0.976427
O O6 0.180087 0.412868 0.167863
O O7 0.250000 0.250000 0.000000
O O8 0.290213 0.915673 0.419747
O O9 0.159141 0.000000 0.558265
O O10 0.250000 0.250000 0.500000
O O11 0.108226 0.312002 0.649606
O O12 0.307125 0.344071 0.230054
O O13 0.040425 0.245265 0.171038
O O14 0.500000 0.500000 0.000000
O O15 0.518325 0.582234 0.154074
O O16 0.000000 0.500000 0.500000
#
# Coordination Sequence:
#
# PCOD9221379 Si02
#       8
#     4   8   4   8   8   4   8   4
#     4  12  25  42  67 100 131 169 231 287 345 410
#     4  11  25  44  71 103 138 179 237 296 349 417
#     4  12  25  40  63  98 131 171 229 285 334 410
#     4  11  23  39  60  90 129 173 219 268 336 407
#     4  11  24  42  66  97 135 178 228 284 344 417
#     4  12  23  43  67  89 135 188 224 277 350 413
#     4  11  24  41  65  95 130 179 230 272 347 422
#     4  12  23  45  75  95 135 186 228 281 361 411
#
# _framework density 19.566865
#
# number of rings (size 3 to 8) (size 9 to 14) (size 15 to 20)
#    0.000    0.667    3.333    4.000    0.000    9.333 
#    0.000    0.000    0.000    3.000    0.000    0.000 
#    0.000    0.000    0.000    0.000    0.000    0.000 
#
# Total GULP energy -134157.152573 kJ/mol
# GULP energy per Si atom -5589.881357 kJ/mol
# Density = 1.952233 g / cm^3
# Si number density = 19.566865 Si / 1000 Ang^3
#
#
#
# Elastic Constant Matrix: (Units=GPa)
#
#
# Indices 1 2 3 4 5 6 
#
# 1 168.2438 74.7815 35.6929 0.0000 -3.5034 0.0000
# 2 74.7815 139.3299 29.8617 0.0000 7.2669 0.0000
# 3 35.6929 29.8617 79.1322 0.0000 6.0591 0.0000
# 4 0.0000 0.0000 0.0000 21.1494 0.0000 -4.9163
# 5 -3.5034 7.2669 6.0591 0.0000 33.9894 0.0000
# 6 0.0000 0.0000 0.0000 -4.9163 0.0000 36.4939
#
#
#
# Elastic Compliance Matrix: (Units=1/GPa)
#
#
# Indices 1 2 3 4 5 6 
#
# 1 0.008295 -0.004055 -0.002375 0.000000 0.002145 0.000000
# 2 -0.004055 0.009836 -0.001713 0.000000 -0.002215 0.000000
# 3 -0.002375 -0.001713 0.014544 0.000000 -0.002471 0.000000
# 4 0.000000 0.000000 0.000000 0.048811 0.000000 0.006576
# 5 0.002145 -0.002215 -0.002471 0.000000 0.030556 0.000000
# 6 0.000000 0.000000 0.000000 0.006576 0.000000 0.028288
#
#
# Mechanical properties :
#
#
# Convention : Reuss Voigt Hill
#
# Bulk Modulus (GPa) = 61.01964 74.15313 67.58638
# Shear Modulus (GPa) = 30.84896 34.75120 32.80008
#
# Velocity S-wave (km/s) = 3.97494 4.21886 4.09871
# Velocity P-wave (km/s) = 7.23324 7.85565 7.55086
#
# Compressibility (1/GPa) = 0.01638817
#
# Stress axis : x y z
#
# Youngs Moduli (GPa) = 120.55998 101.66522 68.75528
#
# Poissons Ratio (x) = 0.41222 0.16333
# Poissons Ratio (y) = 0.48883 0.11780
# Poissons Ratio (z) = 0.28639 0.17419
#
# Static dielectric constant tensor:
#      x y z
#    x 1.695370 0.000000 0.002780 
#    y 0.000000 1.695410 0.000000 
#    z 0.002780 0.000000 1.668210 
# 
# From -- ./inp_files/183719.got.cif
#   From: 2010.05.17/outbox.cif.g08.bks.cpg/sg12_92_cif.got.tgz:183719.got - 2010.06.03 13:09:07.
