data_PCOD9221902
_publ_section_title
;
Structure prediction by ZEFSAII (Michael W. Deem and Ramdas Pophale) SiO2 
 PCOD9221902
Probable space group: C 2/M
;
_chemical_formula_sum "Si O2"
_cell_formula_units_Z 44
_cell_length_a 11.556358
_cell_length_b 30.602663
_cell_length_c 8.171636
_cell_angle_alpha 90.000000
_cell_angle_beta 44.999156
_cell_angle_gamma 90.000000
_cell_volume 2043.467923
_symmetry_space_group_name_H-M "C 2/M"
_symmetry_group_IT_number 12
_symmetry_cell_setting 'monoclinic'
loop_
_space_group_symop_operation_xyz
x,y,z
-x,y,-z
-x,-y,-z
x,-y,z
1/2+x,1/2+y,z
1/2-x,1/2+y,-z
1/2-x,1/2-y,-z
1/2+x,1/2-y,z
loop_
_atom_site_type_symbol
_atom_site_label
_atom_site_fract_x
_atom_site_fract_y
_atom_site_fract_z
Si Si1 0.738156 0.582397 0.350264
Si Si2 0.500000 0.750001 0.500000
Si Si3 0.263079 0.000000 0.814250
Si Si4 0.088422 0.417603 0.173417
Si Si5 0.077337 0.000000 0.659592
Si Si6 0.760948 0.819622 0.648511
Si Si7 0.090541 0.319622 0.170404
O O1 0.620205 0.543519 0.517586
O O2 0.671163 0.631358 0.443011
O O3 0.902552 0.578748 0.295902
O O4 0.801535 0.578747 0.101016
O O5 0.606837 0.718005 0.506902
O O6 0.613740 0.781996 0.279423
O O7 0.362214 0.043519 0.757997
O O8 0.195763 0.000000 0.699065
O O9 0.105161 0.000000 0.090571
O O10 0.114176 0.368642 0.214655
O O11 0.598042 0.815880 0.702292
O O12 0.699668 0.815880 0.898373
#
# Coordination Sequence:
#
# PCOD9221902 Si02
#       7
#     8   4   4   8   4   8   8
#     4   9  19  37  59  80 106 144 187 223 260 317
#     4  12  20  32  60  86 108 144 184 224 284 326
#     4  11  24  37  52  82 118 143 172 221 274 322
#     4   9  19  37  59  80 106 144 187 223 260 317
#     4  11  24  37  52  82 118 143 172 221 274 322
#     4   9  20  37  55  81 114 144 182 228 267 318
#     4   9  20  37  55  81 114 144 182 228 267 318
#
# _framework density 21.532025999999998
#
# number of rings (size 3 to 8) (size 9 to 14) (size 15 to 20)
#    0.000    2.364    0.000    4.364    0.000   10.182 
#    0.000    0.000    0.000    4.364    0.000    0.000 
#    0.000    0.000    0.000    0.000    0.000    0.000 
#
# Total GULP energy -123040.264377 kJ/mol
# GULP energy per Si atom -5592.739290 kJ/mol
# Density = 2.148302 g / cm^3
# Si number density = 21.532026 Si / 1000 Ang^3
#
#
#
# Elastic Constant Matrix: (Units=GPa)
#
#
# Indices 1 2 3 4 5 6 
#
# 1 67.9048 55.7398 7.7555 0.0000 -3.5268 0.0000
# 2 55.7398 200.7512 55.7369 0.0000 0.0073 0.0000
# 3 7.7555 55.7369 67.8916 0.0000 3.5359 0.0000
# 4 0.0000 0.0000 0.0000 -16.2771 0.0000 -0.0019
# 5 -3.5268 0.0073 3.5359 0.0000 12.3070 0.0000
# 6 0.0000 0.0000 0.0000 -0.0019 0.0000 -16.2683
#
#
#
# Elastic Compliance Matrix: (Units=1/GPa)
#
#
# Indices 1 2 3 4 5 6 
#
# 1 0.019786 -0.006211 0.002582 0.000000 0.004932 0.000000
# 2 -0.006211 0.008430 -0.006212 0.000000 0.000000 0.000000
# 3 0.002582 -0.006212 0.019791 0.000000 -0.004943 0.000000
# 4 0.000000 0.000000 0.000000 -0.061436 0.000000 0.000007
# 5 0.004932 0.000000 -0.004943 0.000000 0.084088 0.000000
# 6 0.000000 0.000000 0.000000 0.000007 0.000000 -0.061469
#
#
# Mechanical properties :
#
#
# Convention : Reuss Voigt Hill
#
# Bulk Modulus (GPa) = 35.30270 63.89023 49.59646
# Shear Modulus (GPa) = 130.50252 10.44000 70.47126
#
# Velocity S-wave (km/s) = 7.79360 2.20434 5.72710
# Velocity P-wave (km/s) = 9.87005 6.01793 8.17415
#
# Compressibility (1/GPa) = 0.02832645
#
# Stress axis : x y z
#
# Youngs Moduli (GPa) = 50.54132 118.61997 50.52709
#
# Poissons Ratio (x) = 0.73670 -0.13044
# Poissons Ratio (y) = 0.31389 0.31385
# Poissons Ratio (z) = -0.13048 0.73681
#
# Static dielectric constant tensor:
#      x y z
#    x 1.776510 0.000000 -0.000010 
#    y 0.000000 1.766570 0.000000 
#    z -0.000010 0.000000 1.776510 
# 
# From -- ./inp_files/53045.got.cif
#   From: 2010.05.17/outbox.cif.g08.bks.cpg/sg12_27_cif.got.tgz:53045.got - 2010.06.03 13:09:07.
