data_PCOD9221409
_publ_section_title
;
Structure prediction by ZEFSAII (Michael W. Deem and Ramdas Pophale) SiO2 
 PCOD9221409
Probable space group: C 2/M
;
_chemical_formula_sum "Si O2"
_cell_formula_units_Z 36
_cell_length_a 14.353982
_cell_length_b 7.399147
_cell_length_c 14.522438
_cell_angle_alpha 90.000000
_cell_angle_beta 59.217233
_cell_angle_gamma 90.000000
_cell_volume 1325.086754
_symmetry_space_group_name_H-M "C 2/M"
_symmetry_group_IT_number 12
_symmetry_cell_setting 'monoclinic'
loop_
_space_group_symop_operation_xyz
x,y,z
-x,y,-z
-x,-y,-z
x,-y,z
1/2+x,1/2+y,z
1/2-x,1/2+y,-z
1/2-x,1/2-y,-z
1/2+x,1/2-y,z
loop_
_atom_site_type_symbol
_atom_site_label
_atom_site_fract_x
_atom_site_fract_y
_atom_site_fract_z
Si Si1 0.159899 0.714030 0.969898
Si Si2 0.483694 0.701785 0.689875
Si Si3 0.576706 0.217071 0.828807
Si Si4 0.666128 0.000000 0.292241
Si Si5 0.831378 0.787517 0.542909
O O1 0.159651 0.500000 0.956162
O O2 0.157876 0.793703 0.866377
O O3 0.250000 0.750000 0.000000
O O4 0.043141 0.761178 0.071482
O O5 0.440024 0.500000 0.708194
O O6 0.569758 0.710490 0.729850
O O7 0.389588 0.844753 0.747993
O O8 0.551436 0.745501 0.563919
O O9 0.588178 0.000000 0.815631
O O10 0.313495 0.841142 0.638359
O O11 0.750000 0.750000 0.500000
O O12 0.823696 0.000000 0.571144
#
# Coordination Sequence:
#
# PCOD9221409 Si02
#       5
#     8   8   8   4   8
#     4   9  19  37  62  88 120 163 203 247 311 374
#     4  11  23  39  63  93 121 161 214 255 308 375
#     4   9  19  39  61  84 124 167 201 252 312 370
#     4  12  23  42  68  85 123 171 204 255 316 374
#     4  11  23  40  62  91 124 164 209 257 314 368
#
# _framework density 27.168033000000001
#
# number of rings (size 3 to 8) (size 9 to 14) (size 15 to 20)
#    0.000    1.778    2.222    4.000    0.000    3.556 
#    4.000    2.222    0.000    0.000    0.000    0.000 
#    0.000    0.000    0.000    0.000    0.000    0.000 
#
# Total GULP energy -100407.493159 kJ/mol
# GULP energy per Si atom -5578.194064 kJ/mol
# Density = 2.710620 g / cm^3
# Si number density = 27.168033 Si / 1000 Ang^3
#
#
#
# Elastic Constant Matrix: (Units=GPa)
#
#
# Indices 1 2 3 4 5 6 
#
# 1 209.3260 16.6505 47.5394 0.0000 37.0438 0.0000
# 2 16.6505 99.8394 -5.5679 0.0000 12.1148 0.0000
# 3 47.5394 -5.5679 112.2631 0.0000 36.1033 0.0000
# 4 0.0000 0.0000 0.0000 -16.7828 0.0000 15.0126
# 5 37.0438 12.1148 36.1033 0.0000 59.8829 0.0000
# 6 0.0000 0.0000 0.0000 15.0126 0.0000 28.8978
#
#
#
# Elastic Compliance Matrix: (Units=1/GPa)
#
#
# Indices 1 2 3 4 5 6 
#
# 1 0.005628 -0.000750 -0.001674 0.000000 -0.002320 0.000000
# 2 -0.000750 0.010565 0.001712 0.000000 -0.002705 0.000000
# 3 -0.001674 0.001712 0.011760 0.000000 -0.006401 0.000000
# 4 0.000000 0.000000 0.000000 -0.040680 0.000000 0.021134
# 5 -0.002320 -0.002705 -0.006401 0.000000 0.022541 0.000000
# 6 0.000000 0.000000 0.000000 0.021134 0.000000 0.023626
#
#
# Mechanical properties :
#
#
# Convention : Reuss Voigt Hill
#
# Bulk Modulus (GPa) = 37.69759 59.85250 48.77505
# Shear Modulus (GPa) = 114.39878 38.58668 76.49273
#
# Velocity S-wave (km/s) = 6.49610 3.77277 5.31192
# Velocity P-wave (km/s) = 8.37685 6.40755 7.45749
#
# Compressibility (1/GPa) = 0.02652689
#
# Stress axis : x y z
#
# Youngs Moduli (GPa) = 177.69114 94.65261 85.03438
#
# Poissons Ratio (x) = 0.07103 0.14237
# Poissons Ratio (y) = 0.13334 -0.14556
# Poissons Ratio (z) = 0.29749 -0.16202
#
# Static dielectric constant tensor:
#      x y z
#    x 2.137900 0.000000 -0.067030 
#    y 0.000000 2.131650 0.000000 
#    z -0.067030 0.000000 2.225920 
# 
# From -- ./inp_files/307838.got.cif
#   From: 2010.05.17/outbox.cif.g08.bks.cpg/sg12_154_cif.got.tgz:307838.got - 2010.06.03 13:09:07.
