data_PCOD9221740
_publ_section_title
;
Structure prediction by ZEFSAII (Michael W. Deem and Ramdas Pophale) SiO2 
 PCOD9221740
Probable space group: C 2/M
;
_chemical_formula_sum "Si O2"
_cell_formula_units_Z 64
_cell_length_a 9.711879
_cell_length_b 18.311622
_cell_length_c 29.360720
_cell_angle_alpha 90.000000
_cell_angle_beta 144.035221
_cell_angle_gamma 90.000000
_cell_volume 3066.533922
_symmetry_space_group_name_H-M "C 2/M"
_symmetry_group_IT_number 12
_symmetry_cell_setting 'monoclinic'
loop_
_space_group_symop_operation_xyz
x,y,z
-x,y,-z
-x,-y,-z
x,-y,z
1/2+x,1/2+y,z
1/2-x,1/2+y,-z
1/2-x,1/2-y,-z
1/2+x,1/2-y,z
loop_
_atom_site_type_symbol
_atom_site_label
_atom_site_fract_x
_atom_site_fract_y
_atom_site_fract_z
Si Si1 0.852782 0.587513 0.069397
Si Si2 0.839436 0.309813 0.640581
Si Si3 0.434365 0.416348 0.371751
Si Si4 0.158524 0.810055 0.189276
Si Si5 0.643800 0.412727 0.105898
Si Si6 0.296595 0.326410 0.168254
Si Si7 0.168838 0.582667 0.444329
Si Si8 0.681946 0.643913 0.348284
O O1 0.852536 0.500000 0.069286
O O2 0.824175 0.611606 0.114621
O O3 0.088706 0.615857 0.110387
O O4 0.615936 0.610958 0.980135
O O5 0.752146 0.357113 0.660373
O O6 0.779292 0.356770 0.579989
O O7 0.746762 0.227140 0.618950
O O8 0.120564 0.302551 0.717999
O O9 0.344817 0.500000 0.345506
O O10 0.641322 0.414004 0.464749
O O11 0.546308 0.392677 0.353997
O O12 0.188760 0.882250 0.167532
O O13 0.181263 0.745035 0.159429
O O14 0.921936 0.810440 0.154394
O O15 0.647529 0.500000 0.107341
O O16 0.500470 0.351403 0.257764
O O17 0.175535 0.500000 0.426641
O O18 0.913112 0.599715 0.396320
#
# Coordination Sequence:
#
# PCOD9221740 Si02
#       8
#     8   8   8   8   8   8   8   8
#     4   9  20  40  65  94 128 165 206 252 302 363
#     4  11  24  41  63  91 123 164 211 259 309 374
#     4  11  25  41  63  91 124 163 206 257 321 380
#     4  11  24  41  63  90 124 164 205 258 311 365
#     4   9  20  40  65  94 128 165 206 252 302 363
#     4  11  24  41  63  90 124 164 205 258 311 365
#     4  11  23  43  63  89 126 161 204 263 317 372
#     4  11  24  41  63  91 123 164 211 259 309 374
#
# _framework density 20.870469
#
# number of rings (size 3 to 8) (size 9 to 14) (size 15 to 20)
#    0.000    1.500    1.250    3.750    7.000    8.500 
#    0.000    1.250    0.000    0.000    0.000    0.000 
#    0.000    0.000    0.000    0.000    0.000    0.000 
#
# Total GULP energy -178919.592690 kJ/mol
# GULP energy per Si atom -5591.237272 kJ/mol
# Density = 2.082297 g / cm^3
# Si number density = 20.870469 Si / 1000 Ang^3
#
#
#
# Elastic Constant Matrix: (Units=GPa)
#
#
# Indices 1 2 3 4 5 6 
#
# 1 94.1448 -3.5133 11.4582 -0.0007 18.2713 -0.0002
# 2 -3.5133 63.0173 6.9272 -0.0006 5.8339 -0.0002
# 3 11.4582 6.9272 17.1785 -0.0008 9.8644 -0.0004
# 4 -0.0007 -0.0006 -0.0008 20.8596 -0.0006 -5.6189
# 5 18.2713 5.8339 9.8644 -0.0006 32.9061 -0.0002
# 6 -0.0002 -0.0002 -0.0004 -5.6189 -0.0002 26.3112
#
#
#
# Elastic Compliance Matrix: (Units=1/GPa)
#
#
# Indices 1 2 3 4 5 6 
#
# 1 0.012475 0.001854 -0.005922 0.000000 -0.005481 0.000000
# 2 0.001854 0.016915 -0.006939 0.000000 -0.001948 0.000000
# 3 -0.005922 -0.006939 0.075334 0.000002 -0.018065 0.000001
# 4 0.000000 0.000000 0.000002 0.050866 0.000000 0.010863
# 5 -0.005481 -0.001948 -0.018065 0.000000 0.039193 0.000000
# 6 0.000000 0.000000 0.000001 0.010863 0.000000 0.040326
#
#
# Mechanical properties :
#
#
# Convention : Reuss Voigt Hill
#
# Bulk Modulus (GPa) = 12.09030 22.67610 17.38320
# Shear Modulus (GPa) = 17.56274 26.64662 22.10468
#
# Velocity S-wave (km/s) = 2.90403 3.57706 3.25797
# Velocity P-wave (km/s) = 4.12918 5.28670 4.74338
#
# Compressibility (1/GPa) = 0.08271097
#
# Stress axis : x y z
#
# Youngs Moduli (GPa) = 80.15711 59.11875 13.27425
#
# Poissons Ratio (x) = -0.10960 0.07861
# Poissons Ratio (y) = -0.14860 0.09211
# Poissons Ratio (z) = 0.47467 0.41022
#
# Static dielectric constant tensor:
#      x y z
#    x 1.731590 0.000000 -0.002800 
#    y 0.000000 1.752410 0.000000 
#    z -0.002800 0.000000 1.734680 
# 
# From -- ./inp_files/373025.got.cif
#   From: 2010.05.17/outbox.cif.g08.bks.cpg/sg12_187_cif.got.tgz:373025.got - 2010.06.03 13:09:07.
