data_PCOD9221268
_publ_section_title
;
Structure prediction by ZEFSAII (Michael W. Deem and Ramdas Pophale) SiO2 
 PCOD9221268
Probable space group: C 2/M
;
_chemical_formula_sum "Si O2"
_cell_formula_units_Z 56
_cell_length_a 18.073520
_cell_length_b 15.419832
_cell_length_c 19.981916
_cell_angle_alpha 90.000000
_cell_angle_beta 29.020618
_cell_angle_gamma 90.000000
_cell_volume 2701.547228
_symmetry_space_group_name_H-M "C 2/M"
_symmetry_group_IT_number 12
_symmetry_cell_setting 'monoclinic'
loop_
_space_group_symop_operation_xyz
x,y,z
-x,y,-z
-x,-y,-z
x,-y,z
1/2+x,1/2+y,z
1/2-x,1/2+y,-z
1/2-x,1/2-y,-z
1/2+x,1/2-y,z
loop_
_atom_site_type_symbol
_atom_site_label
_atom_site_fract_x
_atom_site_fract_y
_atom_site_fract_z
Si Si1 0.996978 0.403438 0.583228
Si Si2 0.018580 0.725031 0.911339
Si Si3 0.403640 0.398877 0.957514
Si Si4 0.668334 0.902458 0.030099
Si Si5 0.945771 0.099367 0.704711
Si Si6 0.667801 0.603375 0.636734
Si Si7 0.362631 0.737564 0.661521
O O1 0.963533 0.500000 0.636594
O O2 0.877033 0.328012 0.690692
O O3 0.000000 0.412274 0.500000
O O4 0.162168 0.371126 0.477555
O O5 0.198260 0.734222 0.757990
O O6 0.934128 0.818084 0.981347
O O7 0.000000 0.683305 0.000000
O O8 0.944599 0.668455 0.910738
O O9 0.408124 0.500000 0.977367
O O10 0.247367 0.385731 0.039236
O O11 0.545349 0.387332 0.793134
O O12 0.811190 0.903661 0.865992
O O13 0.601817 0.000000 0.083612
O O14 0.889662 0.158338 0.689504
O O15 0.092084 0.137769 0.628528
O O16 0.975461 0.000000 0.659979
O O17 0.677913 0.500000 0.618463
O O18 0.500000 0.735605 0.500000
#
# Coordination Sequence:
#
# PCOD9221268 Si02
#       7
#     8   8   8   8   8   8   8
#     4   9  17  31  51  75 106 141 180 220 260 322
#     4  12  23  36  57  87 117 149 188 229 281 339
#     4   9  18  34  58  86 115 147 186 232 283 333
#     4   9  19  38  62  83 106 148 198 237 271 330
#     4   9  18  35  57  81 110 140 185 236 278 326
#     4   8  15  31  57  82 104 145 193 227 266 328
#     4  11  23  36  53  83 115 146 183 226 280 335
#
# _framework density 20.728863
#
# number of rings (size 3 to 8) (size 9 to 14) (size 15 to 20)
#    0.000    2.429    1.429    3.857    0.000    3.714 
#    0.000    0.000    0.000    0.000    0.000    0.000 
#    0.000    0.000    0.000    0.000    0.000    0.000 
#
# Total GULP energy -156119.906955 kJ/mol
# GULP energy per Si atom -5575.710963 kJ/mol
# Density = 2.068168 g / cm^3
# Si number density = 20.728863 Si / 1000 Ang^3
#
#
#
# Elastic Constant Matrix: (Units=GPa)
#
#
# Indices 1 2 3 4 5 6 
#
# 1 98.4350 57.1215 26.1336 0.0002 -42.1310 -0.0012
# 2 57.1215 91.3958 18.5860 -0.0036 -27.7635 0.0002
# 3 26.1336 18.5860 63.3041 -0.0030 -29.3755 0.0013
# 4 0.0002 -0.0036 -0.0030 24.5245 0.0015 -2.7433
# 5 -42.1310 -27.7635 -29.3755 0.0015 36.0294 -0.0012
# 6 -0.0012 0.0002 0.0013 -2.7433 -0.0012 31.9609
#
#
#
# Elastic Compliance Matrix: (Units=1/GPa)
#
#
# Indices 1 2 3 4 5 6 
#
# 1 0.025441 -0.008706 0.004416 -0.000002 0.026642 0.000002
# 2 -0.008706 0.017350 -0.000032 0.000002 0.003163 0.000000
# 3 0.004416 -0.000032 0.026329 0.000002 0.026606 0.000000
# 4 -0.000002 0.000002 0.000002 0.041171 -0.000001 0.003534
# 5 0.026642 0.003163 0.026606 -0.000001 0.083039 0.000003
# 6 0.000002 0.000000 0.000000 0.003534 0.000003 0.031592
#
#
# Mechanical properties :
#
#
# Convention : Reuss Voigt Hill
#
# Bulk Modulus (GPa) = 16.53517 50.75747 33.64632
# Shear Modulus (GPa) = 19.70646 28.58921 24.14783
#
# Velocity S-wave (km/s) = 3.08665 3.71778 3.41682
# Velocity P-wave (km/s) = 4.54944 6.55506 5.64208
#
# Compressibility (1/GPa) = 0.06047714
#
# Stress axis : x y z
#
# Youngs Moduli (GPa) = 39.30612 57.63764 37.98045
#
# Poissons Ratio (x) = 0.50177 -0.16772
# Poissons Ratio (y) = 0.34218 0.00122
# Poissons Ratio (z) = -0.17357 0.00185
#
# Static dielectric constant tensor:
#      x y z
#    x 1.765450 0.000000 0.002330 
#    y 0.000000 1.795140 0.000000 
#    z 0.002330 0.000000 1.761770 
# 
# From -- ./inp_files/316678.got.cif
#   From: 2010.05.17/outbox.cif.g08.bks.cpg/sg12_159_cif.got.tgz:316678.got - 2010.06.03 13:09:07.
