data_PCOD9221961
_publ_section_title
;
Structure prediction by ZEFSAII (Michael W. Deem and Ramdas Pophale) SiO2 
 PCOD9221961
Probable space group: C 2/M
;
_chemical_formula_sum "Si O2"
_cell_formula_units_Z 40
_cell_length_a 11.964213
_cell_length_b 27.664549
_cell_length_c 9.245456
_cell_angle_alpha 90.000000
_cell_angle_beta 142.033349
_cell_angle_gamma 90.000000
_cell_volume 1882.583753
_symmetry_space_group_name_H-M "C 2/M"
_symmetry_group_IT_number 12
_symmetry_cell_setting 'monoclinic'
loop_
_space_group_symop_operation_xyz
x,y,z
-x,y,-z
-x,-y,-z
x,-y,z
1/2+x,1/2+y,z
1/2-x,1/2+y,-z
1/2-x,1/2-y,-z
1/2+x,1/2-y,z
loop_
_atom_site_type_symbol
_atom_site_label
_atom_site_fract_x
_atom_site_fract_y
_atom_site_fract_z
Si Si1 0.532382 0.805737 0.362378
Si Si2 0.500000 0.371431 0.000000
Si Si3 0.052914 0.205128 0.280805
Si Si4 0.801562 0.554513 0.229429
Si Si5 0.000000 0.853670 0.500000
Si Si6 0.129631 0.605895 0.994074
O O1 0.500000 0.813096 0.500000
O O2 0.747302 0.794049 0.582151
O O3 0.460601 0.756610 0.211761
O O4 0.464724 0.849855 0.192998
O O5 0.453765 0.334966 0.083362
O O6 0.671915 0.407223 0.178832
O O7 0.081350 0.181337 0.463748
O O8 0.730357 0.500000 0.173597
O O9 0.830665 0.566702 0.090002
O O10 0.000000 0.557298 0.500000
O O11 0.171051 0.881805 0.739500
O O12 0.000000 0.594211 0.000000
#
# Coordination Sequence:
#
# PCOD9221961 Si02
#       6
#     8   4   8   8   4   8
#     4  11  24  41  64 100 139 185 227 273 327 399
#     4  12  23  44  72  98 136 180 223 280 332 406
#     4  11  24  40  66  99 137 183 228 269 336 395
#     4  11  26  48  74 101 129 172 228 286 347 405
#     4  12  24  44  61  98 136 180 225 268 328 408
#     4  12  25  43  69  97 139 177 221 278 336 396
#
# _framework density 21.247395999999998
#
# number of rings (size 3 to 8) (size 9 to 14) (size 15 to 20)
#    0.000    0.600    5.000    3.300    1.400    1.200 
#    0.000    0.500    0.000    0.000    0.000    0.000 
#    0.000    0.000    0.000    0.000    0.000    0.000 
#
# Total GULP energy -111625.233380 kJ/mol
# GULP energy per Si atom -5581.261669 kJ/mol
# Density = 2.119904 g / cm^3
# Si number density = 21.247396 Si / 1000 Ang^3
#
#
#
# Elastic Constant Matrix: (Units=GPa)
#
#
# Indices 1 2 3 4 5 6 
#
# 1 77.2754 -26.8625 1.3070 0.0000 -15.2225 0.0000
# 2 -26.8625 82.2474 11.5309 0.0000 -8.8003 0.0000
# 3 1.3070 11.5309 48.8028 0.0000 1.0976 0.0000
# 4 0.0000 0.0000 0.0000 8.4787 0.0000 -5.4082
# 5 -15.2225 -8.8003 1.0976 0.0000 42.0655 0.0000
# 6 0.0000 0.0000 0.0000 -5.4082 0.0000 0.9673
#
#
#
# Elastic Compliance Matrix: (Units=1/GPa)
#
#
# Indices 1 2 3 4 5 6 
#
# 1 0.016737 0.006572 -0.002169 0.000000 0.007488 0.000000
# 2 0.006572 0.015472 -0.003960 0.000000 0.005718 0.000000
# 3 -0.002169 -0.003960 0.021533 0.000000 -0.002175 0.000000
# 4 0.000000 0.000000 0.000000 -0.045960 0.000000 -0.256956
# 5 0.007488 0.005718 -0.002175 0.000000 0.027735 0.000000
# 6 0.000000 0.000000 0.000000 -0.256956 0.000000 -0.402839
#
#
# Mechanical properties :
#
#
# Convention : Reuss Voigt Hill
#
# Bulk Modulus (GPa) = 18.30612 20.03071 19.16842
# Shear Modulus (GPa) = -14.28585 25.12565 5.41990
#
# Velocity S-wave (km/s) = -2.59580 3.44252 1.59887
# Velocity P-wave (km/s) = 0.59146 5.02485 3.52841
#
# Compressibility (1/GPa) = 0.05462653
#
# Stress axis : x y z
#
# Youngs Moduli (GPa) = 59.74780 64.63333 46.43961
#
# Poissons Ratio (x) = -0.42476 0.10075
# Poissons Ratio (y) = -0.39265 0.18391
# Poissons Ratio (z) = 0.12962 0.25596
#
# Static dielectric constant tensor:
#      x y z
#    x 3.484630 0.000000 0.873600 
#    y 0.000000 1.819240 0.000000 
#    z 0.873600 0.000000 2.248170 
# 
# From -- ./inp_files/54495.got.cif
#   From: 2010.05.17/outbox.cif.g08.bks.cpg/sg12_28_cif.got.tgz:54495.got - 2010.06.03 13:09:07.
