data_PCOD9221254
_publ_section_title
;
Structure prediction by ZEFSAII (Michael W. Deem and Ramdas Pophale) SiO2 
 PCOD9221254
Probable space group: C 2/M
;
_chemical_formula_sum "Si O2"
_cell_formula_units_Z 56
_cell_length_a 24.583568
_cell_length_b 15.299252
_cell_length_c 7.663569
_cell_angle_alpha 90.000000
_cell_angle_beta 72.609004
_cell_angle_gamma 90.000000
_cell_volume 2750.586675
_symmetry_space_group_name_H-M "C 2/M"
_symmetry_group_IT_number 12
_symmetry_cell_setting 'monoclinic'
loop_
_space_group_symop_operation_xyz
x,y,z
-x,y,-z
-x,-y,-z
x,-y,z
1/2+x,1/2+y,z
1/2-x,1/2+y,-z
1/2-x,1/2-y,-z
1/2+x,1/2-y,z
loop_
_atom_site_type_symbol
_atom_site_label
_atom_site_fract_x
_atom_site_fract_y
_atom_site_fract_z
Si Si1 0.361699 0.259273 0.578036
Si Si2 0.745810 0.647204 0.199735
Si Si3 0.789469 0.595074 0.513792
Si Si4 0.296837 0.657075 0.128363
Si Si5 0.974120 0.256994 0.334157
Si Si6 0.063234 0.402906 0.860707
Si Si7 0.905955 0.246657 0.926419
O O1 0.315316 0.332970 0.655638
O O2 0.330035 0.175911 0.524938
O O3 0.414226 0.292711 0.410580
O O4 0.383144 0.234138 0.752671
O O5 0.779585 0.596612 0.315754
O O6 0.775636 0.741960 0.152511
O O7 0.732320 0.615494 0.017061
O O8 0.811272 0.500000 0.547720
O O9 0.730567 0.613025 0.676118
O O10 0.364764 0.670512 0.039672
O O11 0.951371 0.352922 0.303561
O O12 0.000000 0.258539 0.500000
O O13 0.026240 0.227338 0.161304
O O14 0.087952 0.500000 0.823743
O O15 0.096166 0.333079 0.950429
O O16 0.000000 0.411453 0.000000
#
# Coordination Sequence:
#
# PCOD9221254 Si02
#       7
#     8   8   8   8   8   8   8
#     4   9  18  34  52  72 103 135 172 219 262 308
#     4   9  19  35  55  75  99 138 180 221 268 309
#     4  11  23  35  52  80 109 141 179 219 268 317
#     4   9  18  36  57  75 102 137 176 227 267 306
#     4   9  18  31  48  73 102 133 174 214 252 309
#     4   9  18  29  41  64 100 139 171 203 244 295
#     4   9  18  32  52  75  99 136 179 213 258 309
#
# _framework density 20.359293000000001
#
# number of rings (size 3 to 8) (size 9 to 14) (size 15 to 20)
#    0.000    2.714    0.000    2.571    4.000    2.000 
#    0.000    2.857    0.000    0.000    0.000    2.000 
#    0.000    5.714    0.000    0.000    0.000    0.000 
#
# Total GULP energy -155889.373431 kJ/mol
# GULP energy per Si atom -5567.477623 kJ/mol
# Density = 2.031295 g / cm^3
# Si number density = 20.359293 Si / 1000 Ang^3
#
#
#
# Elastic Constant Matrix: (Units=GPa)
#
#
# Indices 1 2 3 4 5 6 
#
# 1 84.3854 2.8887 46.0281 0.0000 -16.3183 0.0000
# 2 2.8887 13.3348 6.6490 0.0000 4.4678 0.0000
# 3 46.0281 6.6490 81.1712 0.0000 -10.2648 0.0000
# 4 0.0000 0.0000 0.0000 -3.4669 0.0000 -10.0118
# 5 -16.3183 4.4678 -10.2648 0.0000 48.6929 0.0000
# 6 0.0000 0.0000 0.0000 -10.0118 0.0000 -6.7732
#
#
#
# Elastic Compliance Matrix: (Units=1/GPa)
#
#
# Indices 1 2 3 4 5 6 
#
# 1 0.017872 -0.000431 -0.009592 0.000000 0.004007 0.000000
# 2 -0.000431 0.082008 -0.007647 0.000000 -0.009281 0.000000
# 3 -0.009592 -0.007647 0.018562 0.000000 0.001400 0.000000
# 4 0.000000 0.000000 0.000000 0.088245 0.000000 -0.130440
# 5 0.004007 -0.009281 0.001400 0.000000 0.023026 0.000000
# 6 0.000000 0.000000 0.000000 -0.130440 0.000000 0.045169
#
#
# Mechanical properties :
#
#
# Convention : Reuss Voigt Hill
#
# Bulk Modulus (GPa) = 12.03345 32.22480 22.12912
# Shear Modulus (GPa) = 14.79624 15.91226 15.35425
#
# Velocity S-wave (km/s) = 2.69877 2.79869 2.74918
# Velocity P-wave (km/s) = 3.95405 5.12894 4.57933
#
# Compressibility (1/GPa) = 0.08310168
#
# Stress axis : x y z
#
# Youngs Moduli (GPa) = 55.95293 12.19398 53.87226
#
# Poissons Ratio (x) = 0.00526 0.51676
# Poissons Ratio (y) = 0.02413 0.41195
# Poissons Ratio (z) = 0.53672 0.09324
#
# Static dielectric constant tensor:
#      x y z
#    x 1.804730 0.000000 -0.039850 
#    y 0.000000 1.712280 0.000000 
#    z -0.039850 0.000000 1.804440 
# 
# From -- ./inp_files/97321.got.cif
#   From: 2010.05.17/outbox.cif.g08.bks.cpg/sg12_49_cif.got.tgz:97321.got - 2010.06.03 13:09:07.
