data_PCOD9221080
_publ_section_title
;
Structure prediction by ZEFSAII (Michael W. Deem and Ramdas Pophale) SiO2 
 PCOD9221080
Probable space group: C 2/M
;
_chemical_formula_sum "Si O2"
_cell_formula_units_Z 56
_cell_length_a 17.600850
_cell_length_b 26.909659
_cell_length_c 9.565363
_cell_angle_alpha 90.000000
_cell_angle_beta 143.589471
_cell_angle_gamma 90.000000
_cell_volume 2689.136733
_symmetry_space_group_name_H-M "C 2/M"
_symmetry_group_IT_number 12
_symmetry_cell_setting 'monoclinic'
loop_
_space_group_symop_operation_xyz
x,y,z
-x,y,-z
-x,-y,-z
x,-y,z
1/2+x,1/2+y,z
1/2-x,1/2+y,-z
1/2-x,1/2-y,-z
1/2+x,1/2-y,z
loop_
_atom_site_type_symbol
_atom_site_label
_atom_site_fract_x
_atom_site_fract_y
_atom_site_fract_z
Si Si1 0.742203 0.600989 0.931090
Si Si2 0.850468 0.500000 0.627815
Si Si3 0.398689 0.354565 0.022603
Si Si4 0.009651 0.670887 0.675414
Si Si5 0.688873 0.245467 0.064334
Si Si6 0.773693 0.611025 0.456004
Si Si7 0.170621 0.839232 0.565230
Si Si8 0.343454 0.000000 0.950249
O O1 0.664746 0.608176 0.958531
O O2 0.661716 0.627406 0.690172
O O3 0.784133 0.547421 0.939818
O O4 0.871492 0.632917 0.140382
O O5 0.798767 0.552298 0.494421
O O6 0.818811 0.500000 0.747032
O O7 0.002089 0.500000 0.818655
O O8 0.536909 0.339909 0.286918
O O9 0.329784 0.301027 0.913362
O O10 0.360849 0.378765 0.819695
O O11 0.000000 0.687833 0.500000
O O12 0.885628 0.640824 0.541444
O O13 0.055320 0.716011 0.841935
O O14 0.775989 0.213220 0.298771
O O15 0.750000 0.250000 0.000000
O O16 0.768475 0.633727 0.604130
#
# Coordination Sequence:
#
# PCOD9221080 Si02
#       8
#     8   4   8   8   8   8   8   4
#     4  11  22  41  70 100 135 176 231 291 339 410
#     4  11  24  41  76  98 145 180 229 294 369 420
#     4  12  26  45  66 101 144 185 229 285 347 415
#     4  11  22  41  68 104 140 168 229 294 348 411
#     4  11  24  41  72  99 132 191 228 280 348 411
#     4  12  25  47  69 105 141 181 229 300 352 412
#     4  11  26  46  68  98 143 183 236 281 338 431
#     4  11  22  41  70 110 129 180 235 296 363 402
#
# _framework density 20.824528000000001
#
# number of rings (size 3 to 8) (size 9 to 14) (size 15 to 20)
#    0.000    0.714    7.143    0.857    4.000    3.429 
#    2.571    5.714    0.000    0.000    0.000    0.000 
#    0.000    0.000    0.000    0.000    0.000    0.000 
#
# Total GULP energy -156420.517755 kJ/mol
# GULP energy per Si atom -5586.447063 kJ/mol
# Density = 2.077713 g / cm^3
# Si number density = 20.824528 Si / 1000 Ang^3
#
#
#
# Elastic Constant Matrix: (Units=GPa)
#
#
# Indices 1 2 3 4 5 6 
#
# 1 60.7902 24.3683 24.8976 0.0000 -7.0552 0.0000
# 2 24.3683 137.0468 53.8692 0.0000 2.4742 0.0000
# 3 24.8976 53.8692 134.1333 0.0000 -0.0179 0.0000
# 4 0.0000 0.0000 0.0000 -1.2111 0.0000 -5.3536
# 5 -7.0552 2.4742 -0.0179 0.0000 32.0210 0.0000
# 6 0.0000 0.0000 0.0000 -5.3536 0.0000 16.5458
#
#
#
# Elastic Compliance Matrix: (Units=1/GPa)
#
#
# Indices 1 2 3 4 5 6 
#
# 1 0.018981 -0.002457 -0.002536 0.000000 0.004370 0.000000
# 2 -0.002457 0.008997 -0.003157 0.000000 -0.001238 0.000000
# 3 -0.002536 -0.003157 0.009194 0.000000 -0.000310 0.000000
# 4 0.000000 0.000000 0.000000 -0.339757 0.000000 -0.109932
# 5 0.004370 -0.001238 -0.000310 0.000000 0.032288 0.000000
# 6 0.000000 0.000000 0.000000 -0.109932 0.000000 0.024868
#
#
# Mechanical properties :
#
#
# Convention : Reuss Voigt Hill
#
# Bulk Modulus (GPa) = 47.91288 59.80449 53.85868
# Shear Modulus (GPa) = -22.50520 24.72683 1.11081
#
# Velocity S-wave (km/s) = -3.29098 3.44959 0.73115
# Velocity P-wave (km/s) = 2.93550 6.68183 5.16062
#
# Compressibility (1/GPa) = 0.02087122
#
# Stress axis : x y z
#
# Youngs Moduli (GPa) = 52.68487 111.14664 108.76708
#
# Poissons Ratio (x) = 0.27310 0.27581
# Poissons Ratio (y) = 0.12945 0.34342
# Poissons Ratio (z) = 0.13360 0.35093
#
# Static dielectric constant tensor:
#      x y z
#    x 1.801200 0.000000 0.033390 
#    y 0.000000 1.711110 0.000000 
#    z 0.033390 0.000000 1.788040 
# 
# From -- ./inp_files/80160.got.cif
#   From: 2010.05.17/outbox.cif.g08.bks.cpg/sg12_41_cif.got.tgz:80160.got - 2010.06.03 13:09:07.
