data_PCOD9221316
_publ_section_title
;
Structure prediction by ZEFSAII (Michael W. Deem and Ramdas Pophale) SiO2 
 PCOD9221316
Probable space group: C 2/M
;
_chemical_formula_sum "Si O2"
_cell_formula_units_Z 48
_cell_length_a 29.292088
_cell_length_b 19.511340
_cell_length_c 10.231816
_cell_angle_alpha 90.000000
_cell_angle_beta 29.012027
_cell_angle_gamma 90.000000
_cell_volume 2836.127818
_symmetry_space_group_name_H-M "C 2/M"
_symmetry_group_IT_number 12
_symmetry_cell_setting 'monoclinic'
loop_
_space_group_symop_operation_xyz
x,y,z
-x,y,-z
-x,-y,-z
x,-y,z
1/2+x,1/2+y,z
1/2-x,1/2+y,-z
1/2-x,1/2-y,-z
1/2+x,1/2-y,z
loop_
_atom_site_type_symbol
_atom_site_label
_atom_site_fract_x
_atom_site_fract_y
_atom_site_fract_z
Si Si1 0.694084 0.921698 0.418077
Si Si2 0.000000 0.637979 0.500000
Si Si3 0.291952 0.286204 0.266682
Si Si4 0.803543 0.579088 0.901794
Si Si5 0.500000 0.866319 0.000000
Si Si6 0.204069 0.789050 0.237943
Si Si7 0.506902 0.233571 0.229307
O O1 0.755568 0.862923 0.332315
O O2 0.691359 0.908605 0.268071
O O3 0.589899 0.911206 0.736976
O O4 0.725513 0.000000 0.359651
O O5 0.906185 0.594670 0.705905
O O6 0.987399 0.686617 0.656521
O O7 0.250000 0.250000 0.500000
O O8 0.254376 0.240908 0.239823
O O9 0.404402 0.283732 0.991250
O O10 0.778780 0.500000 0.984274
O O11 0.730242 0.631915 0.148924
O O12 0.482634 0.816500 0.920740
O O13 0.093873 0.770991 0.521404
O O14 0.250000 0.750000 0.000000
#
# Coordination Sequence:
#
# PCOD9221316 Si02
#       7
#     8   4   8   8   4   8   8
#     4  11  23  39  58  87 126 158 191 245 307 357
#     4  12  19  36  58  88 117 148 194 258 291 338
#     4  12  22  38  61  88 119 155 201 244 287 355
#     4  11  23  38  58  88 124 158 195 246 304 352
#     4  12  19  40  58  90 119 158 190 244 309 352
#     4  12  20  40  59  83 121 158 196 244 292 344
#     4  12  22  34  64  89 116 149 207 244 286 349
#
# _framework density 16.924485000000001
#
# number of rings (size 3 to 8) (size 9 to 14) (size 15 to 20)
#    0.000    0.333   10.000    0.500    0.000    0.000 
#    0.000    3.333    0.000    2.000    0.000    3.500 
#    0.000    0.000    0.000    0.000    0.000    0.000 
#
# Total GULP energy -134076.139145 kJ/mol
# GULP energy per Si atom -5586.505798 kJ/mol
# Density = 1.688596 g / cm^3
# Si number density = 16.924485 Si / 1000 Ang^3
#
#
#
# Elastic Constant Matrix: (Units=GPa)
#
#
# Indices 1 2 3 4 5 6 
#
# 1 95.9004 41.5778 40.9939 0.0000 12.3856 0.0000
# 2 41.5778 127.3819 39.4646 0.0000 0.9263 0.0000
# 3 40.9939 39.4646 87.5729 0.0000 -8.6565 0.0000
# 4 0.0000 0.0000 0.0000 29.9050 0.0000 0.3944
# 5 12.3856 0.9263 -8.6565 0.0000 40.5799 0.0000
# 6 0.0000 0.0000 0.0000 0.3944 0.0000 24.6330
#
#
#
# Elastic Compliance Matrix: (Units=1/GPa)
#
#
# Indices 1 2 3 4 5 6 
#
# 1 0.015192 -0.002942 -0.006372 0.000000 -0.005929 0.000000
# 2 -0.002942 0.009743 -0.003010 0.000000 0.000033 0.000000
# 3 -0.006372 -0.003010 0.016301 0.000000 0.005491 0.000000
# 4 0.000000 0.000000 0.000000 0.033446 0.000000 -0.000535
# 5 -0.005929 0.000033 0.005491 0.000000 0.027623 0.000000
# 6 0.000000 0.000000 0.000000 -0.000535 0.000000 0.040605
#
#
# Mechanical properties :
#
#
# Convention : Reuss Voigt Hill
#
# Bulk Modulus (GPa) = 60.28298 61.65865 60.97082
# Shear Modulus (GPa) = 28.88697 31.61151 30.24924
#
# Velocity S-wave (km/s) = 4.13584 4.32649 4.23224
# Velocity P-wave (km/s) = 7.64873 7.84020 7.74506
#
# Compressibility (1/GPa) = 0.01658843
#
# Stress axis : x y z
#
# Youngs Moduli (GPa) = 65.82220 102.63830 61.34448
#
# Poissons Ratio (x) = 0.30191 0.39090
# Poissons Ratio (y) = 0.19362 0.18467
# Poissons Ratio (z) = 0.41944 0.30898
#
# Static dielectric constant tensor:
#      x y z
#    x 1.575190 0.000000 0.000750 
#    y 0.000000 1.563400 0.000000 
#    z 0.000750 0.000000 1.571490 
# 
# From -- ./inp_files/89457.got.cif
#   From: 2010.05.17/outbox.cif.g08.bks.cpg/sg12_45_cif.got.tgz:89457.got - 2010.06.03 13:09:07.
