data_PCOD9221300
_publ_section_title
;
Structure prediction by ZEFSAII (Michael W. Deem and Ramdas Pophale) SiO2 
 PCOD9221300
Probable space group: C 2/M
;
_chemical_formula_sum "Si O2"
_cell_formula_units_Z 52
_cell_length_a 17.377258
_cell_length_b 25.331599
_cell_length_c 5.402526
_cell_angle_alpha 90.000000
_cell_angle_beta 84.765388
_cell_angle_gamma 90.000000
_cell_volume 2368.239891
_symmetry_space_group_name_H-M "C 2/M"
_symmetry_group_IT_number 12
_symmetry_cell_setting 'monoclinic'
loop_
_space_group_symop_operation_xyz
x,y,z
-x,y,-z
-x,-y,-z
x,-y,z
1/2+x,1/2+y,z
1/2-x,1/2+y,-z
1/2-x,1/2-y,-z
1/2+x,1/2-y,z
loop_
_atom_site_type_symbol
_atom_site_label
_atom_site_fract_x
_atom_site_fract_y
_atom_site_fract_z
Si Si1 0.803054 0.795992 0.373342
Si Si2 0.592545 0.118195 0.484251
Si Si3 0.846468 0.698044 0.193426
Si Si4 0.344910 0.938316 0.032525
Si Si5 0.708563 0.628010 0.014956
Si Si6 0.063011 0.827263 0.308511
Si Si7 0.500000 0.233781 0.000000
O O1 0.750000 0.750000 0.500000
O O2 0.833983 0.760074 0.139772
O O3 0.872502 0.803925 0.533891
O O4 0.781710 0.852154 0.270122
O O5 0.500000 0.122059 0.500000
O O6 0.630227 0.175413 0.541441
O O7 0.622384 0.091544 0.221779
O O8 0.619445 0.084635 0.721182
O O9 0.769914 0.667142 0.137069
O O10 0.928107 0.693729 0.033758
O O11 0.361496 0.000000 0.010679
O O12 0.252178 0.926589 0.053184
O O13 0.618768 0.636767 0.115575
O O14 0.000000 0.856555 0.500000
O O15 0.017866 0.777055 0.207535
#
# Coordination Sequence:
#
# PCOD9221300 Si02
#       7
#     8   8   8   8   8   8   4
#     4  12  21  36  61  87 129 175 218 260 320 398
#     4  11  26  43  68 105 138 179 224 276 333 403
#     4  11  23  37  60  91 138 178 217 258 318 395
#     4  11  26  48  72  97 129 175 232 292 352 401
#     4  11  24  42  61  91 129 172 229 277 340 400
#     4  12  23  38  59  91 127 177 224 272 325 397
#     4  12  24  38  56  94 134 188 220 258 316 398
#
# _framework density 21.957236999999999
#
# number of rings (size 3 to 8) (size 9 to 14) (size 15 to 20)
#    0.000    0.615    4.615    3.231    8.615    1.846 
#    0.000    0.000    0.000    0.462    0.000    3.769 
#    0.000    0.000    0.000    0.000    0.000    0.000 
#
# Total GULP energy -144737.929093 kJ/mol
# GULP energy per Si atom -5566.843427 kJ/mol
# Density = 2.190726 g / cm^3
# Si number density = 21.957237 Si / 1000 Ang^3
#
#
#
# Elastic Constant Matrix: (Units=GPa)
#
#
# Indices 1 2 3 4 5 6 
#
# 1 117.6152 16.4004 47.6559 0.0000 -11.7591 0.0000
# 2 16.4004 68.3378 14.7520 0.0000 11.7046 0.0000
# 3 47.6559 14.7520 99.9890 0.0000 8.9704 0.0000
# 4 0.0000 0.0000 0.0000 18.6038 0.0000 1.3741
# 5 -11.7591 11.7046 8.9704 0.0000 54.2396 0.0000
# 6 0.0000 0.0000 0.0000 1.3741 0.0000 19.9540
#
#
#
# Elastic Compliance Matrix: (Units=1/GPa)
#
#
# Indices 1 2 3 4 5 6 
#
# 1 0.011408 -0.002220 -0.005455 0.000000 0.003855 0.000000
# 2 -0.002220 0.016022 -0.000967 0.000000 -0.003779 0.000000
# 3 -0.005455 -0.000967 0.013024 0.000000 -0.003128 0.000000
# 4 0.000000 0.000000 0.000000 0.054027 0.000000 -0.003721
# 5 0.003855 -0.003779 -0.003128 0.000000 0.020605 0.000000
# 6 0.000000 0.000000 0.000000 -0.003721 0.000000 0.050372
#
#
# Mechanical properties :
#
#
# Convention : Reuss Voigt Hill
#
# Bulk Modulus (GPa) = 43.15975 49.28428 46.22201
# Shear Modulus (GPa) = 26.25148 32.36839 29.30994
#
# Velocity S-wave (km/s) = 3.46146 3.84364 3.65754
# Velocity P-wave (km/s) = 5.97282 6.49557 6.23967
#
# Compressibility (1/GPa) = 0.02316974
#
# Stress axis : x y z
#
# Youngs Moduli (GPa) = 87.66034 62.41450 76.77904
#
# Poissons Ratio (x) = 0.13858 0.41885
# Poissons Ratio (y) = 0.19463 0.07421
# Poissons Ratio (z) = 0.47821 0.06033
#
# Static dielectric constant tensor:
#      x y z
#    x 2.052500 0.000000 -0.236490 
#    y 0.000000 1.859730 0.000000 
#    z -0.236490 0.000000 2.156950 
# 
# From -- ./inp_files/17425.got.cif
#   From: 2010.05.17/outbox.cif.g08.bks.cpg/sg12_9_cif.got.tgz:17425.got - 2010.06.03 13:09:07.
