data_PCOD9221094
_publ_section_title
;
Structure prediction by ZEFSAII (Michael W. Deem and Ramdas Pophale) SiO2 
 PCOD9221094
Probable space group: C 2/M
;
_chemical_formula_sum "Si O2"
_cell_formula_units_Z 64
_cell_length_a 14.597913
_cell_length_b 18.842098
_cell_length_c 15.962144
_cell_angle_alpha 90.000000
_cell_angle_beta 137.464908
_cell_angle_gamma 90.000000
_cell_volume 2968.142186
_symmetry_space_group_name_H-M "C 2/M"
_symmetry_group_IT_number 12
_symmetry_cell_setting 'monoclinic'
loop_
_space_group_symop_operation_xyz
x,y,z
-x,y,-z
-x,-y,-z
x,-y,z
1/2+x,1/2+y,z
1/2-x,1/2+y,-z
1/2-x,1/2-y,-z
1/2+x,1/2-y,z
loop_
_atom_site_type_symbol
_atom_site_label
_atom_site_fract_x
_atom_site_fract_y
_atom_site_fract_z
Si Si1 0.305163 0.077032 0.545706
Si Si2 0.659930 0.612198 0.618498
Si Si3 0.805205 0.329261 0.043524
Si Si4 0.481750 0.788680 0.696495
Si Si5 0.838269 0.581386 0.903493
Si Si6 0.371081 0.647649 0.701845
Si Si7 0.362372 0.776638 0.362038
Si Si8 0.916793 0.084611 0.029157
O O1 0.236869 0.081612 0.590476
O O2 0.394559 0.147917 0.598958
O O3 0.191505 0.087322 0.398674
O O4 0.373591 0.000000 0.582472
O O5 0.500000 0.593464 0.500000
O O6 0.741930 0.590055 0.757307
O O7 0.666018 0.697907 0.622126
O O8 0.958802 0.320138 0.177548
O O9 0.750000 0.250000 0.000000
O O10 0.792420 0.367128 0.946322
O O11 0.726185 0.375788 0.059304
O O12 0.406537 0.715622 0.667578
O O13 0.601222 0.771903 0.711217
O O14 0.826269 0.500000 0.923939
O O15 0.000000 0.594611 0.000000
O O16 0.260909 0.673766 0.695306
O O17 0.498913 0.618226 0.837572
O O18 0.500000 0.801468 0.500000
O O19 0.902008 0.000000 0.027513
O O20 0.000000 0.098639 0.000000
#
# Coordination Sequence:
#
# PCOD9221094 Si02
#       8
#     8   8   8   8   8   8   8   8
#     4  12  26  43  68 103 143 183 225 283 358 420
#     4  11  24  42  69 105 136 180 236 292 349 417
#     4  12  25  44  69 102 135 184 236 282 339 415
#     4  12  24  45  70 103 138 181 240 286 341 412
#     4  11  26  46  67  97 143 186 224 282 357 422
#     4  12  23  46  72 102 138 182 235 290 345 414
#     4  11  22  41  70 101 138 178 230 291 344 406
#     4  11  26  47  71 102 140 183 232 291 352 407
#
# _framework density 21.562308000000002
#
# number of rings (size 3 to 8) (size 9 to 14) (size 15 to 20)
#    0.000    0.500    3.750    5.250    1.750    3.500 
#    0.000    1.875    0.000    0.000    0.000    0.000 
#    0.000    0.000    0.000    0.000    0.000    0.000 
#
# Total GULP energy -178966.077961 kJ/mol
# GULP energy per Si atom -5592.689936 kJ/mol
# Density = 2.151323 g / cm^3
# Si number density = 21.562308 Si / 1000 Ang^3
#
#
#
# Elastic Constant Matrix: (Units=GPa)
#
#
# Indices 1 2 3 4 5 6 
#
# 1 82.0417 49.5435 4.5633 0.0001 -15.8262 -0.0002
# 2 49.5435 119.1631 17.1778 0.0001 -3.9184 0.0000
# 3 4.5633 17.1778 84.7242 0.0000 2.6991 -0.0002
# 4 0.0001 0.0001 0.0000 0.7642 0.0001 18.5346
# 5 -15.8262 -3.9184 2.6991 0.0001 32.4017 -0.0002
# 6 -0.0002 0.0000 -0.0002 18.5346 -0.0002 14.8859
#
#
#
# Elastic Compliance Matrix: (Units=1/GPa)
#
#
# Indices 1 2 3 4 5 6 
#
# 1 0.018122 -0.007309 0.000253 0.000000 0.007946 0.000000
# 2 -0.007309 0.011639 -0.001902 0.000000 -0.002004 0.000000
# 3 0.000253 -0.001902 0.012211 0.000000 -0.001124 0.000000
# 4 0.000000 0.000000 0.000000 -0.044816 0.000001 0.055801
# 5 0.007946 -0.002004 -0.001124 0.000001 0.034595 0.000000
# 6 0.000000 0.000000 0.000000 0.055801 0.000000 -0.002301
#
#
# Mechanical properties :
#
#
# Convention : Reuss Voigt Hill
#
# Bulk Modulus (GPa) = 41.57334 47.61091 44.59212
# Shear Modulus (GPa) = 90.27523 23.91998 57.09760
#
# Velocity S-wave (km/s) = 6.47750 3.33429 5.15148
# Velocity P-wave (km/s) = 8.67562 6.07881 7.49061
#
# Compressibility (1/GPa) = 0.02405388
#
# Stress axis : x y z
#
# Youngs Moduli (GPa) = 55.18210 85.91666 81.89424
#
# Poissons Ratio (x) = 0.62801 -0.02070
# Poissons Ratio (y) = 0.40335 0.15579
# Poissons Ratio (z) = -0.01395 0.16344
#
# Static dielectric constant tensor:
#      x y z
#    x 1.792490 0.000000 0.014900 
#    y 0.000000 1.761420 0.000000 
#    z 0.014900 0.000000 1.834870 
# 
# From -- ./inp_files/216822.got.cif
#   From: 2010.05.17/outbox.cif.g08.bks.cpg/sg12_109_cif.got.tgz:216822.got - 2010.06.03 13:09:07.
