data_PCOD9221578
_publ_section_title
;
Structure prediction by ZEFSAII (Michael W. Deem and Ramdas Pophale) SiO2 
 PCOD9221578
Probable space group: C 2/M
;
_chemical_formula_sum "Si O2"
_cell_formula_units_Z 64
_cell_length_a 18.529380
_cell_length_b 14.674995
_cell_length_c 22.952846
_cell_angle_alpha 90.000000
_cell_angle_beta 30.019219
_cell_angle_gamma 90.000000
_cell_volume 3122.465296
_symmetry_space_group_name_H-M "C 2/M"
_symmetry_group_IT_number 12
_symmetry_cell_setting 'monoclinic'
loop_
_space_group_symop_operation_xyz
x,y,z
-x,y,-z
-x,-y,-z
x,-y,z
1/2+x,1/2+y,z
1/2-x,1/2+y,-z
1/2-x,1/2-y,-z
1/2+x,1/2-y,z
loop_
_atom_site_type_symbol
_atom_site_label
_atom_site_fract_x
_atom_site_fract_y
_atom_site_fract_z
Si Si1 0.576345 0.832241 0.331377
Si Si2 0.975862 0.838733 0.338469
Si Si3 0.259557 0.739431 0.304790
Si Si4 0.843866 0.099397 0.078743
Si Si5 0.318505 0.607340 0.905716
Si Si6 0.880513 0.900127 0.532291
Si Si7 0.735384 0.896045 0.420904
Si Si8 0.417194 0.255403 0.935277
O O1 0.525655 0.763791 0.316416
O O2 0.635327 0.771781 0.343815
O O3 0.712569 0.890223 0.215297
O O4 0.434729 0.886714 0.448600
O O5 0.945880 0.882821 0.422628
O O6 0.829857 0.843921 0.402932
O O7 0.100359 0.885947 0.213105
O O8 0.223293 0.818172 0.376423
O O9 0.263599 0.646359 0.338234
O O10 0.414745 0.757008 0.168331
O O11 0.832022 0.000000 0.057764
O O12 0.839624 0.184282 0.038525
O O13 0.000000 0.102285 0.000000
O O14 0.313353 0.500000 0.925909
O O15 0.405181 0.677786 0.887416
O O16 0.163871 0.658972 0.013576
O O17 0.000000 0.901732 0.500000
O O18 0.809572 0.000000 0.581475
O O19 0.782311 0.000000 0.390657
#
# Coordination Sequence:
#
# PCOD9221578 Si02
#       8
#     8   8   8   8   8   8   8   8
#     4  12  24  43  67  97 136 176 219 277 337 394
#     4  12  23  44  70  94 132 176 223 278 329 396
#     4  12  24  43  67  96 137 173 219 277 335 397
#     4  11  23  41  67  95 128 171 216 267 328 397
#     4  11  24  44  68  97 131 174 224 275 332 391
#     4  11  23  41  65  94 129 174 219 268 333 397
#     4  12  26  42  66 100 134 175 225 274 335 400
#     4  11  24  42  68  96 132 176 219 275 329 396
#
# _framework density 20.496625000000002
#
# number of rings (size 3 to 8) (size 9 to 14) (size 15 to 20)
#    0.000    0.500    6.250    2.625    0.000    2.500 
#    0.000    0.000    0.000    1.125    0.000    0.000 
#    0.000    0.000    0.000    0.000    0.000    0.000 
#
# Total GULP energy -178741.805508 kJ/mol
# GULP energy per Si atom -5585.681422 kJ/mol
# Density = 2.044997 g / cm^3
# Si number density = 20.496625 Si / 1000 Ang^3
#
#
#
# Elastic Constant Matrix: (Units=GPa)
#
#
# Indices 1 2 3 4 5 6 
#
# 1 63.5264 9.0012 25.6207 -0.0013 -7.1052 0.0009
# 2 9.0012 102.5534 27.7156 -0.0026 -2.9036 0.0010
# 3 25.6207 27.7156 103.6444 -0.0090 -2.8156 0.0037
# 4 -0.0013 -0.0026 -0.0090 5.9810 0.0010 0.3848
# 5 -7.1052 -2.9036 -2.8156 0.0010 33.5386 0.0000
# 6 0.0009 0.0010 0.0037 0.3848 0.0000 10.3567
#
#
#
# Elastic Compliance Matrix: (Units=1/GPa)
#
#
# Indices 1 2 3 4 5 6 
#
# 1 0.017878 -0.000327 -0.004240 -0.000003 0.003403 0.000000
# 2 -0.000327 0.010532 -0.002719 0.000000 0.000614 0.000000
# 3 -0.004240 -0.002719 0.011419 0.000015 -0.000175 -0.000004
# 4 -0.000003 0.000000 0.000015 0.167597 -0.000004 -0.006227
# 5 0.003403 0.000614 -0.000175 -0.000004 0.030576 0.000000
# 6 0.000000 0.000000 -0.000004 -0.006227 0.000000 0.096787
#
#
# Mechanical properties :
#
#
# Convention : Reuss Voigt Hill
#
# Bulk Modulus (GPa) = 39.59143 43.82217 41.70680
# Shear Modulus (GPa) = 13.97509 23.80104 18.88807
#
# Velocity S-wave (km/s) = 2.61401 3.41136 3.03895
# Velocity P-wave (km/s) = 5.33561 6.07808 5.71891
#
# Compressibility (1/GPa) = 0.02525799
#
# Stress axis : x y z
#
# Youngs Moduli (GPa) = 55.93360 94.94977 87.57586
#
# Poissons Ratio (x) = 0.03106 0.37128
# Poissons Ratio (y) = 0.01829 0.23810
# Poissons Ratio (z) = 0.23713 0.25815
#
# Static dielectric constant tensor:
#      x y z
#    x 1.734830 0.000000 0.005460 
#    y 0.000000 1.737570 0.000000 
#    z 0.005460 0.000000 1.726130 
# 
# From -- ./inp_files/344037.got.cif
#   From: 2010.05.17/outbox.cif.g08.bks.cpg/sg12_173_cif.got.tgz:344037.got - 2010.06.03 13:09:07.
