data_PCOD9221591
_publ_section_title
;
Structure prediction by ZEFSAII (Michael W. Deem and Ramdas Pophale) SiO2 
 PCOD9221591
Probable space group: C 2/M
;
_chemical_formula_sum "Si O2"
_cell_formula_units_Z 34
_cell_length_a 14.899986
_cell_length_b 12.184468
_cell_length_c 13.183209
_cell_angle_alpha 90.000000
_cell_angle_beta 45.139073
_cell_angle_gamma 90.000000
_cell_volume 1696.485578
_symmetry_space_group_name_H-M "C 2/M"
_symmetry_group_IT_number 12
_symmetry_cell_setting 'monoclinic'
loop_
_space_group_symop_operation_xyz
x,y,z
-x,y,-z
-x,-y,-z
x,-y,z
1/2+x,1/2+y,z
1/2-x,1/2+y,-z
1/2-x,1/2-y,-z
1/2+x,1/2-y,z
loop_
_atom_site_type_symbol
_atom_site_label
_atom_site_fract_x
_atom_site_fract_y
_atom_site_fract_z
Si Si1 0.895125 0.372704 0.495031
Si Si2 0.763570 0.124647 0.900806
Si Si3 0.000000 0.000000 0.000000
Si Si4 0.334951 0.710363 0.192411
Si Si5 0.464670 0.219825 0.810942
O O1 0.869524 0.500000 0.492322
O O2 0.769836 0.317817 0.639543
O O3 0.000000 0.367415 0.500000
O O4 0.953195 0.316091 0.349949
O O5 0.727328 0.211103 0.842053
O O6 0.896111 0.164007 0.843013
O O7 0.769427 0.000000 0.860622
O O8 0.652633 0.139072 0.072462
O O9 0.891625 0.902319 0.103070
O O10 0.448463 0.771862 0.159777
#
# Coordination Sequence:
#
# PCOD9221591 Si02
#       5
#     8   8   2   8   8
#     4  11  23  41  66  94 131 172 224 279 327 396
#     4  11  25  43  68  99 137 173 223 280 332 402
#     4  12  24  44  72 100 134 170 230 276 330 402
#     4  12  24  44  69  99 134 174 222 278 337 400
#     4  11  24  42  66  98 130 180 223 267 341 398
#
# _framework density 20.041432
#
# number of rings (size 3 to 8) (size 9 to 14) (size 15 to 20)
#    0.000    0.706    5.882    1.412    1.647    2.824 
#    0.000    2.353    0.000    0.000    0.000    0.000 
#    0.000    0.000    0.000    0.000    0.000    0.000 
#
# Total GULP energy -94800.560097 kJ/mol
# GULP energy per Si atom -5576.503535 kJ/mol
# Density = 1.999582 g / cm^3
# Si number density = 20.041432 Si / 1000 Ang^3
#
#
#
# Elastic Constant Matrix: (Units=GPa)
#
#
# Indices 1 2 3 4 5 6 
#
# 1 72.3116 7.7709 4.2727 0.0000 4.2762 0.0000
# 2 7.7709 92.3458 26.6184 0.0000 12.8078 0.0000
# 3 4.2727 26.6184 129.2839 0.0000 6.4067 0.0000
# 4 0.0000 0.0000 0.0000 15.0746 0.0000 -4.5541
# 5 4.2762 12.8078 6.4067 0.0000 30.4877 0.0000
# 6 0.0000 0.0000 0.0000 -4.5541 0.0000 14.8828
#
#
#
# Elastic Compliance Matrix: (Units=1/GPa)
#
#
# Indices 1 2 3 4 5 6 
#
# 1 0.014030 -0.000909 -0.000200 0.000000 -0.001544 0.000000
# 2 -0.000909 0.012181 -0.002254 0.000000 -0.004516 0.000000
# 3 -0.000200 -0.002254 0.008243 0.000000 -0.000757 0.000000
# 4 0.000000 0.000000 0.000000 0.073094 0.000000 0.022366
# 5 -0.001544 -0.004516 -0.000757 0.000000 0.035073 0.000000
# 6 0.000000 0.000000 0.000000 0.022366 0.000000 0.074036
#
#
# Mechanical properties :
#
#
# Convention : Reuss Voigt Hill
#
# Bulk Modulus (GPa) = 36.06419 41.25171 38.65795
# Shear Modulus (GPa) = 21.49374 29.10765 25.30070
#
# Velocity S-wave (km/s) = 3.27840 3.81514 3.55691
# Velocity P-wave (km/s) = 5.68898 6.32732 6.01662
#
# Compressibility (1/GPa) = 0.02772834
#
# Stress axis : x y z
#
# Youngs Moduli (GPa) = 71.27673 82.09179 121.31256
#
# Poissons Ratio (x) = 0.07461 0.02427
# Poissons Ratio (y) = 0.06478 0.27346
# Poissons Ratio (z) = 0.01426 0.18505
#
# Static dielectric constant tensor:
#      x y z
#    x 1.714380 0.000000 -0.000090 
#    y 0.000000 1.673640 0.000000 
#    z -0.000090 0.000000 1.716580 
# 
# From -- ./inp_files/140085.got.cif
#   From: 2010.05.17/outbox.cif.g08.bks.cpg/sg12_71_cif.got.tgz:140085.got - 2010.06.03 13:09:07.
