data_PCOD9221047
_publ_section_title
;
Structure prediction by ZEFSAII (Michael W. Deem and Ramdas Pophale) SiO2 
 PCOD9221047
Probable space group: C 2/M
;
_chemical_formula_sum "Si O2"
_cell_formula_units_Z 58
_cell_length_a 10.465841
_cell_length_b 14.703725
_cell_length_c 16.612138
_cell_angle_alpha 90.000000
_cell_angle_beta 97.648547
_cell_angle_gamma 90.000000
_cell_volume 2533.645671
_symmetry_space_group_name_H-M "C 2/M"
_symmetry_group_IT_number 12
_symmetry_cell_setting 'monoclinic'
loop_
_space_group_symop_operation_xyz
x,y,z
-x,y,-z
-x,-y,-z
x,-y,z
1/2+x,1/2+y,z
1/2-x,1/2+y,-z
1/2-x,1/2-y,-z
1/2+x,1/2-y,z
loop_
_atom_site_type_symbol
_atom_site_label
_atom_site_fract_x
_atom_site_fract_y
_atom_site_fract_z
Si Si1 0.646466 0.402036 0.723187
Si Si2 0.670174 0.854718 0.585505
Si Si3 0.287340 0.754405 0.162303
Si Si4 0.639650 0.357929 0.543886
Si Si5 0.951850 0.400068 0.127634
Si Si6 0.000000 0.500000 0.500000
Si Si7 0.286661 0.898480 0.953636
Si Si8 0.351346 0.394226 0.753896
O O1 0.684811 0.500000 0.760608
O O2 0.721621 0.319913 0.768648
O O3 0.667517 0.403482 0.630574
O O4 0.495850 0.386463 0.731311
O O5 0.639464 0.749515 0.565704
O O6 0.759676 0.882345 0.516871
O O7 0.751678 0.869061 0.673765
O O8 0.548259 0.919863 0.567696
O O9 0.417112 0.814837 0.179346
O O10 0.290048 0.689891 0.083337
O O11 0.176407 0.827890 0.173057
O O12 0.500000 0.383504 0.500000
O O13 0.942869 0.500000 0.165115
O O14 0.086719 0.395677 0.092863
O O15 0.842978 0.392468 0.048308
O O16 0.226472 0.000000 0.941983
O O17 0.333482 0.500000 0.774697
#
# Coordination Sequence:
#
# PCOD9221047 Si02
#       8
#     8   8   8   8   8   2   8   8
#     4  11  25  39  57  87 117 154 203 248 294 352
#     4  11  23  39  62  89 116 147 196 260 310 346
#     4  12  21  37  59  87 120 158 191 238 296 355
#     4  11  22  41  65  85 112 156 207 248 297 363
#     4   9  19  37  61  89 115 153 198 235 284 350
#     4  12  24  40  62  92 114 140 196 266 316 344
#     4   9  19  37  61  87 119 151 193 244 284 335
#     4  11  23  39  57  83 119 158 193 240 300 359
#
# _framework density 22.891915000000001
#
# number of rings (size 3 to 8) (size 9 to 14) (size 15 to 20)
#    0.000    1.379    4.138    2.897    0.966    0.276 
#    0.000    0.000    3.034    0.000    0.000   11.586 
#    0.000    0.000    0.000    0.000    0.000    0.000 
#
# Total GULP energy -161754.083126 kJ/mol
# GULP energy per Si atom -5577.727004 kJ/mol
# Density = 2.283981 g / cm^3
# Si number density = 22.891915 Si / 1000 Ang^3
#
#
#
# Elastic Constant Matrix: (Units=GPa)
#
#
# Indices 1 2 3 4 5 6 
#
# 1 25.4154 6.4878 -4.7072 0.0000 -9.1958 0.0000
# 2 6.4878 156.5688 15.4073 0.0000 0.8113 0.0000
# 3 -4.7072 15.4073 52.7117 0.0000 2.2612 0.0000
# 4 0.0000 0.0000 0.0000 21.4704 0.0000 -8.3224
# 5 -9.1958 0.8113 2.2612 0.0000 29.5732 0.0000
# 6 0.0000 0.0000 0.0000 -8.3224 0.0000 4.9080
#
#
#
# Elastic Compliance Matrix: (Units=1/GPa)
#
#
# Indices 1 2 3 4 5 6 
#
# 1 0.045789 -0.002382 0.004185 0.000000 0.013983 0.000000
# 2 -0.002382 0.006700 -0.002138 0.000000 -0.000761 0.000000
# 3 0.004185 -0.002138 0.019977 0.000000 -0.000167 0.000000
# 4 0.000000 0.000000 0.000000 0.135904 0.000000 0.230452
# 5 0.013983 -0.000761 -0.000167 0.000000 0.038196 0.000000
# 6 0.000000 0.000000 0.000000 0.230452 0.000000 0.594525
#
#
# Mechanical properties :
#
#
# Convention : Reuss Voigt Hill
#
# Bulk Modulus (GPa) = 13.92831 29.89686 21.91258
# Shear Modulus (GPa) = 5.77572 25.69085 15.73329
#
# Velocity S-wave (km/s) = 1.59013 3.35366 2.62446
# Velocity P-wave (km/s) = 3.07716 5.29947 4.33321
#
# Compressibility (1/GPa) = 0.07179624
#
# Stress axis : x y z
#
# Youngs Moduli (GPa) = 21.83939 149.25300 50.05735
#
# Poissons Ratio (x) = 0.35547 -0.20950
# Poissons Ratio (y) = 0.05201 0.10704
# Poissons Ratio (z) = -0.09140 0.31917
#
# Static dielectric constant tensor:
#      x y z
#    x 1.855960 0.000000 0.017320 
#    y 0.000000 1.939340 0.000000 
#    z 0.017320 0.000000 1.857020 
# 
# From -- ./inp_files/262953.got.cif
#   From: 2010.05.17/outbox.cif.g08.bks.cpg/sg12_132_cif.got.tgz:262953.got - 2010.06.03 13:09:07.
