data_PCOD9221951
_publ_section_title
;
Structure prediction by ZEFSAII (Michael W. Deem and Ramdas Pophale) SiO2 
 PCOD9221951
Probable space group: C 2/M
;
_chemical_formula_sum "Si O2"
_cell_formula_units_Z 40
_cell_length_a 12.246552
_cell_length_b 29.047461
_cell_length_c 5.134622
_cell_angle_alpha 90.000000
_cell_angle_beta 99.799593
_cell_angle_gamma 90.000000
_cell_volume 1799.894531
_symmetry_space_group_name_H-M "C 2/M"
_symmetry_group_IT_number 12
_symmetry_cell_setting 'monoclinic'
loop_
_space_group_symop_operation_xyz
x,y,z
-x,y,-z
-x,-y,-z
x,-y,z
1/2+x,1/2+y,z
1/2-x,1/2+y,-z
1/2-x,1/2-y,-z
1/2+x,1/2-y,z
loop_
_atom_site_type_symbol
_atom_site_label
_atom_site_fract_x
_atom_site_fract_y
_atom_site_fract_z
Si Si1 0.091243 0.835067 0.733903
Si Si2 0.079744 0.000000 0.782111
Si Si3 0.269081 0.412328 0.057240
Si Si4 0.500000 0.751567 0.000000
Si Si5 0.688808 0.202644 0.408635
Si Si6 0.127856 0.391305 0.516879
O O1 0.136431 0.872462 0.954202
O O2 0.204386 0.825167 0.635795
O O3 0.000000 0.853897 0.500000
O O4 0.050446 0.785502 0.818392
O O5 0.160096 0.955933 0.826438
O O6 0.000000 0.000000 0.500000
O O7 0.000000 0.000000 0.000000
O O8 0.178136 0.401564 0.249386
O O9 0.202760 0.416196 0.762131
O O10 0.595288 0.782335 0.165493
O O11 0.750000 0.250000 0.500000
O O12 0.634441 0.164617 0.575161
O O13 0.000000 0.404505 0.500000
#
# Coordination Sequence:
#
# PCOD9221951 Si02
#       6
#     8   4   8   4   8   8
#     4  11  24  40  62  94 136 182 229 296 356 420
#     4  12  26  48  83 114 147 180 228 292 362 444
#     4  11  26  47  72 108 140 181 239 286 368 432
#     4  12  24  38  66  87 138 181 242 288 352 404
#     4  11  24  40  61  97 131 187 245 294 342 419
#     4  11  26  46  72  99 146 191 237 295 358 415
#
# _framework density 22.223524000000001
#
# number of rings (size 3 to 8) (size 9 to 14) (size 15 to 20)
#    0.000    0.800    2.000    4.200   12.600    0.000 
#    0.000    3.000    0.000    0.000    0.000    0.000 
#    0.000    0.000    0.000    0.000    0.000    0.000 
#
# Total GULP energy -111569.909940 kJ/mol
# GULP energy per Si atom -5578.495497 kJ/mol
# Density = 2.217294 g / cm^3
# Si number density = 22.223524 Si / 1000 Ang^3
#
#
#
# Elastic Constant Matrix: (Units=GPa)
#
#
# Indices 1 2 3 4 5 6 
#
# 1 122.8470 -4.9947 36.5689 0.0000 24.6868 0.0000
# 2 -4.9947 43.2451 -9.1863 0.0000 16.9324 0.0000
# 3 36.5689 -9.1863 103.1107 0.0000 28.9448 0.0000
# 4 0.0000 0.0000 0.0000 25.7519 0.0000 7.8358
# 5 24.6868 16.9324 28.9448 0.0000 55.5345 0.0000
# 6 0.0000 0.0000 0.0000 7.8358 0.0000 35.6535
#
#
#
# Elastic Compliance Matrix: (Units=1/GPa)
#
#
# Indices 1 2 3 4 5 6 
#
# 1 0.009636 0.002149 -0.002155 0.000000 -0.003816 0.000000
# 2 0.002149 0.029552 0.005468 0.000000 -0.012816 0.000000
# 3 -0.002155 0.005468 0.013060 0.000000 -0.007516 0.000000
# 4 0.000000 0.000000 0.000000 0.041615 0.000000 -0.009146
# 5 -0.003816 -0.012816 -0.007516 0.000000 0.027528 0.000000
# 6 0.000000 0.000000 0.000000 -0.009146 0.000000 0.030058
#
#
# Mechanical properties :
#
#
# Convention : Reuss Voigt Hill
#
# Bulk Modulus (GPa) = 15.82979 34.88651 25.35815
# Shear Modulus (GPa) = 30.94437 39.84230 35.39333
#
# Velocity S-wave (km/s) = 3.73556 4.23874 3.99508
# Velocity P-wave (km/s) = 5.07388 6.29984 5.71980
#
# Compressibility (1/GPa) = 0.06317205
#
# Stress axis : x y z
#
# Youngs Moduli (GPa) = 103.77972 33.83897 76.57213
#
# Poissons Ratio (x) = -0.07272 0.16500
# Poissons Ratio (y) = -0.22304 -0.41871
# Poissons Ratio (z) = 0.22363 -0.18504
#
# Static dielectric constant tensor:
#      x y z
#    x 1.867190 0.000000 -0.136390 
#    y 0.000000 1.952780 0.000000 
#    z -0.136390 0.000000 1.931970 
# 
# From -- ./inp_files/8559.got.cif
#   From: 2010.05.17/outbox.cif.g08.bks.cpg/sg12_5_cif.got.tgz:8559.got - 2010.06.03 13:09:07.
