data_PCOD9221888
_publ_section_title
;
Structure prediction by ZEFSAII (Michael W. Deem and Ramdas Pophale) SiO2 
 PCOD9221888
Probable space group: C 2/M
;
_chemical_formula_sum "Si O2"
_cell_formula_units_Z 36
_cell_length_a 16.078092
_cell_length_b 10.482842
_cell_length_c 10.236063
_cell_angle_alpha 90.000000
_cell_angle_beta 120.307498
_cell_angle_gamma 90.000000
_cell_volume 1489.440264
_symmetry_space_group_name_H-M "C 2/M"
_symmetry_group_IT_number 12
_symmetry_cell_setting 'monoclinic'
loop_
_space_group_symop_operation_xyz
x,y,z
-x,y,-z
-x,-y,-z
x,-y,z
1/2+x,1/2+y,z
1/2-x,1/2+y,-z
1/2-x,1/2-y,-z
1/2+x,1/2-y,z
loop_
_atom_site_type_symbol
_atom_site_label
_atom_site_fract_x
_atom_site_fract_y
_atom_site_fract_z
Si Si1 0.388723 0.000000 0.858642
Si Si2 0.042793 0.500000 0.672516
Si Si3 0.321649 0.500000 0.241509
Si Si4 0.548609 0.768687 0.243855
Si Si5 0.348789 0.314999 0.038203
Si Si6 0.642724 0.500000 0.416669
Si Si7 0.738040 0.500000 0.231167
O O1 0.294920 0.000000 0.876980
O O2 0.378654 0.133051 0.770755
O O3 0.500000 0.000000 0.000000
O O4 0.001119 0.370800 0.698894
O O5 0.157183 0.500000 0.749915
O O6 0.000000 0.500000 0.500000
O O7 0.366861 0.386602 0.191772
O O8 0.338892 0.500000 0.411471
O O9 0.452233 0.739328 0.086307
O O10 0.590767 0.635905 0.336121
O O11 0.250000 0.250000 0.000000
O O12 0.319508 0.385475 0.881634
O O13 0.732195 0.500000 0.383311
#
# Coordination Sequence:
#
# PCOD9221888 Si02
#       7
#     4   4   4   8   8   4   4
#     4  11  26  47  74 105 141 193 242 313 357 433
#     4  11  26  48  73 103 141 203 242 296 355 457
#     4  11  28  46  72 106 151 188 247 293 376 438
#     4  11  27  46  73 105 148 186 251 296 371 438
#     4  11  23  46  76 105 135 196 247 301 351 439
#     4  12  30  47  70 115 152 195 226 318 384 429
#     4  11  26  46  73 105 151 186 250 298 370 435
#
# _framework density 24.170155999999999
#
# number of rings (size 3 to 8) (size 9 to 14) (size 15 to 20)
#    0.000    0.889    2.222    2.667   15.556    2.667 
#    0.000    0.000    0.000    0.000    0.000    0.000 
#    0.000    0.000    0.000    0.000    0.000    0.000 
#
# Total GULP energy -100209.865799 kJ/mol
# GULP energy per Si atom -5567.214767 kJ/mol
# Density = 2.411514 g / cm^3
# Si number density = 24.170156 Si / 1000 Ang^3
#
#
#
# Elastic Constant Matrix: (Units=GPa)
#
#
# Indices 1 2 3 4 5 6 
#
# 1 123.2833 45.4083 16.2801 0.0000 -29.2664 0.0000
# 2 45.4083 162.1932 43.8961 0.0000 -10.2542 0.0000
# 3 16.2801 43.8961 100.6313 0.0000 -35.4013 0.0000
# 4 0.0000 0.0000 0.0000 -556.7992 0.0000 125.6021
# 5 -29.2664 -10.2542 -35.4013 0.0000 39.1122 0.0000
# 6 0.0000 0.0000 0.0000 125.6021 0.0000 26.7592
#
#
#
# Elastic Compliance Matrix: (Units=1/GPa)
#
#
# Indices 1 2 3 4 5 6 
#
# 1 0.011506 -0.003474 0.003466 0.000000 0.010835 0.000000
# 2 -0.003474 0.008089 -0.004600 0.000000 -0.004642 0.000000
# 3 0.003466 -0.004600 0.017417 0.000000 0.017152 0.000000
# 4 0.000000 0.000000 0.000000 -0.000872 0.000000 0.004095
# 5 0.010835 -0.004642 0.017152 0.000000 0.047983 0.000000
# 6 0.000000 0.000000 0.000000 0.004095 0.000000 0.018151
#
#
# Mechanical properties :
#
#
# Convention : Reuss Voigt Hill
#
# Bulk Modulus (GPa) = 35.97620 66.36410 51.17015
# Shear Modulus (GPa) = 41.40621 -79.48400 -19.03889
#
# Velocity S-wave (km/s) = 4.14347 -5.74078 -2.80965
# Velocity P-wave (km/s) = 6.14882 4.05283 3.26975
#
# Compressibility (1/GPa) = 0.02779615
#
# Stress axis : x y z
#
# Youngs Moduli (GPa) = 86.91456 123.61710 57.41563
#
# Poissons Ratio (x) = 0.42946 -0.19900
# Poissons Ratio (y) = 0.30195 0.26409
# Poissons Ratio (z) = -0.30124 0.56860
#
# Static dielectric constant tensor:
#      x y z
#    x 0.807970 0.000000 -0.111660 
#    y 0.000000 1.996140 0.000000 
#    z -0.111660 0.000000 1.888310 
# 
# From -- ./inp_files/140620.got.cif
#   From: 2010.05.17/outbox.cif.g08.bks.cpg/sg12_71_cif.got.tgz:140620.got - 2010.06.03 13:09:07.
