data_PCOD9221721
_publ_section_title
;
Structure prediction by ZEFSAII (Michael W. Deem and Ramdas Pophale) SiO2 
 PCOD9221721
Probable space group: C 2/M
;
_chemical_formula_sum "Si O2"
_cell_formula_units_Z 50
_cell_length_a 19.105189
_cell_length_b 17.206647
_cell_length_c 9.315457
_cell_angle_alpha 90.000000
_cell_angle_beta 57.286389
_cell_angle_gamma 90.000000
_cell_volume 2576.589228
_symmetry_space_group_name_H-M "C 2/M"
_symmetry_group_IT_number 12
_symmetry_cell_setting 'monoclinic'
loop_
_space_group_symop_operation_xyz
x,y,z
-x,y,-z
-x,-y,-z
x,-y,z
1/2+x,1/2+y,z
1/2-x,1/2+y,-z
1/2-x,1/2-y,-z
1/2+x,1/2-y,z
loop_
_atom_site_type_symbol
_atom_site_label
_atom_site_fract_x
_atom_site_fract_y
_atom_site_fract_z
Si Si1 0.222576 0.813488 0.651704
Si Si2 0.443477 0.408019 0.205397
Si Si3 0.000000 0.500000 0.500000
Si Si4 0.827625 0.276335 0.009835
Si Si5 0.496158 0.273581 0.673831
Si Si6 0.904605 0.411081 0.090771
Si Si7 0.605834 0.875623 0.575056
O O1 0.250000 0.750000 0.500000
O O2 0.150422 0.874696 0.694299
O O3 0.184460 0.767772 0.827283
O O4 0.307047 0.858518 0.599200
O O5 0.443388 0.500000 0.228086
O O6 0.484242 0.357597 0.285195
O O7 0.500000 0.392484 0.000000
O O8 0.953636 0.431855 0.450752
O O9 0.848125 0.363573 0.042106
O O10 0.750000 0.250000 0.000000
O O11 0.907802 0.251474 0.832258
O O12 0.500000 0.274575 0.500000
O O13 0.561300 0.207381 0.649000
O O14 0.910985 0.500000 0.034209
O O15 0.873091 0.407636 0.289506
O O16 0.000000 0.380282 0.000000
#
# Coordination Sequence:
#
# PCOD9221721 Si02
#       7
#     8   8   2   8   8   8   8
#     4  12  24  42  73 104 136 181 239 294 361 435
#     4  11  25  47  72 101 136 186 249 300 353 431
#     4  12  28  44  66 112 156 184 234 304 374 442
#     4  12  26  44  67 103 143 185 241 296 352 442
#     4  12  24  44  71  97 137 192 235 292 365 431
#     4  11  23  42  71 100 137 190 238 289 363 438
#     4  12  24  42  70 106 142 184 235 292 366 444
#
# _framework density 19.405498000000001
#
# number of rings (size 3 to 8) (size 9 to 14) (size 15 to 20)
#    0.000    0.320    8.000    0.960    1.120    0.320 
#    0.000    1.600    0.000    0.000    0.000    0.000 
#    0.000    0.000    0.000    0.000    0.000    0.000 
#
# Total GULP energy -139320.578774 kJ/mol
# GULP energy per Si atom -5572.823151 kJ/mol
# Density = 1.936133 g / cm^3
# Si number density = 19.405498 Si / 1000 Ang^3
#
#
#
# Elastic Constant Matrix: (Units=GPa)
#
#
# Indices 1 2 3 4 5 6 
#
# 1 107.6422 56.7085 36.3310 0.0000 -4.2166 0.0000
# 2 56.7085 118.0889 44.2697 0.0000 8.6745 0.0000
# 3 36.3310 44.2697 121.4959 0.0000 -5.3948 0.0000
# 4 0.0000 0.0000 0.0000 25.1862 0.0000 2.7650
# 5 -4.2166 8.6745 -5.3948 0.0000 38.6815 0.0000
# 6 0.0000 0.0000 0.0000 2.7650 0.0000 28.5653
#
#
#
# Elastic Compliance Matrix: (Units=1/GPa)
#
#
# Indices 1 2 3 4 5 6 
#
# 1 0.013008 -0.005805 -0.001664 0.000000 0.002488 0.000000
# 2 -0.005805 0.012691 -0.003062 0.000000 -0.003906 0.000000
# 3 -0.001664 -0.003062 0.009928 0.000000 0.001890 0.000000
# 4 0.000000 0.000000 0.000000 0.040131 0.000000 -0.003885
# 5 0.002488 -0.003906 0.001890 0.000000 0.027263 0.000000
# 6 0.000000 0.000000 0.000000 -0.003885 0.000000 0.035384
#
#
# Mechanical properties :
#
#
# Convention : Reuss Voigt Hill
#
# Bulk Modulus (GPa) = 68.66119 69.09390 68.87755
# Shear Modulus (GPa) = 30.42852 32.48111 31.45482
#
# Velocity S-wave (km/s) = 3.96414 4.09566 4.03044
# Velocity P-wave (km/s) = 7.51077 7.61896 7.56506
#
# Compressibility (1/GPa) = 0.01456427
#
# Stress axis : x y z
#
# Youngs Moduli (GPa) = 76.87864 78.79771 100.72794
#
# Poissons Ratio (x) = 0.45746 0.16760
# Poissons Ratio (y) = 0.44631 0.30839
# Poissons Ratio (z) = 0.12791 0.24124
#
# Static dielectric constant tensor:
#      x y z
#    x 1.718880 0.000000 0.010920 
#    y 0.000000 1.691050 0.000000 
#    z 0.010920 0.000000 1.692750 
# 
# From -- ./inp_files/75791.got.cif
#   From: 2010.05.17/outbox.cif.g08.bks.cpg/sg12_38_cif.got.tgz:75791.got - 2010.06.03 13:09:07.
