data_PCOD9221051
_publ_section_title
;
Structure prediction by ZEFSAII (Michael W. Deem and Ramdas Pophale) SiO2 
 PCOD9221051
Probable space group: C 2/M
;
_chemical_formula_sum "Si O2"
_cell_formula_units_Z 48
_cell_length_a 14.575723
_cell_length_b 28.027218
_cell_length_c 11.313582
_cell_angle_alpha 90.000000
_cell_angle_beta 151.478769
_cell_angle_gamma 90.000000
_cell_volume 2206.832597
_symmetry_space_group_name_H-M "C 2/M"
_symmetry_group_IT_number 12
_symmetry_cell_setting 'monoclinic'
loop_
_space_group_symop_operation_xyz
x,y,z
-x,y,-z
-x,-y,-z
x,-y,z
1/2+x,1/2+y,z
1/2-x,1/2+y,-z
1/2-x,1/2-y,-z
1/2+x,1/2-y,z
loop_
_atom_site_type_symbol
_atom_site_label
_atom_site_fract_x
_atom_site_fract_y
_atom_site_fract_z
Si Si1 0.302260 0.654182 0.517499
Si Si2 0.268850 0.701821 0.237147
Si Si3 0.855744 0.446934 0.012060
Si Si4 0.795038 0.945601 0.413351
Si Si5 0.904172 0.352688 0.184814
Si Si6 0.377787 0.692382 0.968094
O O1 0.215912 0.674206 0.297472
O O2 0.379708 0.600850 0.574341
O O3 0.469368 0.688879 0.751634
O O4 0.131501 0.652549 0.420154
O O5 0.500000 0.703746 0.500000
O O6 0.192508 0.674994 0.035168
O O7 0.182756 0.754657 0.136049
O O8 0.817902 0.500000 0.012006
O O9 0.720685 0.437460 0.745634
O O10 0.846507 0.407311 0.100198
O O11 0.073552 0.445591 0.208062
O O12 0.867503 0.000000 0.515285
O O13 0.812414 0.333100 0.199935
O O14 0.500000 0.669736 0.000000
#
# Coordination Sequence:
#
# PCOD9221051 Si02
#       6
#     8   8   8   8   8   8
#     4  11  23  42  67  93 131 164 201 261 314 374
#     4  12  25  42  66  92 126 161 207 261 322 374
#     4   8  14  28  58  97 129 156 194 243 310 384
#     4   8  14  29  59  98 130 157 190 243 315 380
#     4  11  22  41  65  93 128 168 201 253 317 369
#     4  12  29  44  61  88 122 169 225 258 304 366
#
# _framework density 21.750630999999998
#
# number of rings (size 3 to 8) (size 9 to 14) (size 15 to 20)
#    0.000    1.667    3.333    3.000    2.333    1.333 
#    0.000    0.833    0.000    5.000    0.000    4.667 
#    0.000    0.000    0.000    0.000    0.000    0.000 
#
# Total GULP energy -134163.530011 kJ/mol
# GULP energy per Si atom -5590.147084 kJ/mol
# Density = 2.170113 g / cm^3
# Si number density = 21.750631 Si / 1000 Ang^3
#
#
#
# Elastic Constant Matrix: (Units=GPa)
#
#
# Indices 1 2 3 4 5 6 
#
# 1 92.8912 40.9686 -1.4399 0.0000 4.5453 0.0000
# 2 40.9686 109.4301 7.9169 0.0000 11.3774 0.0000
# 3 -1.4399 7.9169 75.3558 -0.0001 16.9593 0.0000
# 4 0.0000 0.0000 -0.0001 -71.6424 0.0000 4.5604
# 5 4.5453 11.3774 16.9593 0.0000 24.0309 0.0000
# 6 0.0000 0.0000 0.0000 4.5604 0.0000 10.0184
#
#
#
# Elastic Compliance Matrix: (Units=1/GPa)
#
#
# Indices 1 2 3 4 5 6 
#
# 1 0.012951 -0.004831 0.000941 0.000000 -0.000827 0.000000
# 2 -0.004831 0.011413 -0.000334 0.000000 -0.004254 0.000000
# 3 0.000941 -0.000334 0.015844 0.000000 -0.011202 0.000000
# 4 0.000000 0.000000 0.000000 -0.013565 0.000000 0.006175
# 5 -0.000827 -0.004254 -0.011202 0.000000 0.051689 0.000000
# 6 0.000000 0.000000 0.000000 0.006175 0.000000 0.097005
#
#
# Mechanical properties :
#
#
# Convention : Reuss Voigt Hill
#
# Bulk Modulus (GPa) = 31.48485 41.39648 36.44067
# Shear Modulus (GPa) = 25.72384 7.83014 16.77699
#
# Velocity S-wave (km/s) = 3.44273 1.89941 2.78030
# Velocity P-wave (km/s) = 5.50545 4.88713 5.20548
#
# Compressibility (1/GPa) = 0.03176130
#
# Stress axis : x y z
#
# Youngs Moduli (GPa) = 77.21502 87.61750 63.11347
#
# Poissons Ratio (x) = 0.42325 -0.05939
# Poissons Ratio (y) = 0.37300 0.02108
# Poissons Ratio (z) = -0.07266 0.02926
#
# Static dielectric constant tensor:
#      x y z
#    x 1.821390 0.000000 0.047910 
#    y 0.000000 1.797950 0.000000 
#    z 0.047910 0.000000 1.829940 
# 
# From -- ./inp_files/149839.got.cif
#   From: 2010.05.17/outbox.cif.g08.bks.cpg/sg12_75_cif.got.tgz:149839.got - 2010.06.03 13:09:07.
