data_PCOD9221674
_publ_section_title
;
Structure prediction by ZEFSAII (Michael W. Deem and Ramdas Pophale) SiO2 
 PCOD9221674
Probable space group: C 2/M
;
_chemical_formula_sum "Si O2"
_cell_formula_units_Z 32
_cell_length_a 14.157162
_cell_length_b 17.466663
_cell_length_c 9.169943
_cell_angle_alpha 90.000000
_cell_angle_beta 44.410745
_cell_angle_gamma 90.000000
_cell_volume 1586.810451
_symmetry_space_group_name_H-M "C 2/M"
_symmetry_group_IT_number 12
_symmetry_cell_setting 'monoclinic'
loop_
_space_group_symop_operation_xyz
x,y,z
-x,y,-z
-x,-y,-z
x,-y,z
1/2+x,1/2+y,z
1/2-x,1/2+y,-z
1/2-x,1/2-y,-z
1/2+x,1/2-y,z
loop_
_atom_site_type_symbol
_atom_site_label
_atom_site_fract_x
_atom_site_fract_y
_atom_site_fract_z
Si Si1 0.091842 0.500000 0.631233
Si Si2 0.300343 0.000000 0.817879
Si Si3 0.960395 0.913132 0.880674
Si Si4 0.087814 0.784716 0.540287
Si Si5 0.122399 0.340213 0.752742
O O1 0.157134 0.500000 0.398175
O O2 0.132156 0.425151 0.676599
O O3 0.930594 0.500000 0.776239
O O4 0.200256 0.927876 0.953106
O O5 0.016929 0.855497 0.700952
O O6 0.018158 0.000000 0.800486
O O7 0.000000 0.887143 0.000000
O O8 0.098518 0.716063 0.642949
O O9 0.237167 0.812582 0.332423
O O10 0.000000 0.761126 0.500000
O O11 0.000000 0.335615 0.000000
#
# Coordination Sequence:
#
# PCOD9221674 Si02
#       5
#     4   4   8   8   8
#     4  11  23  42  66  98 139 171 214 272 336 398
#     4   9  21  36  68 101 122 179 218 262 328 393
#     4   9  19  39  67  96 125 171 221 273 314 378
#     4  11  26  45  69  99 130 175 227 271 323 394
#     4  11  27  46  66  98 137 174 215 277 335 389
#
# _framework density 20.166239999999998
#
# number of rings (size 3 to 8) (size 9 to 14) (size 15 to 20)
#    0.750    1.000    0.000    2.625    8.750    3.500 
#    0.000    0.000    0.000    0.000    0.000    0.000 
#    0.000    0.000    0.000    0.000    0.000    0.000 
#
# Total GULP energy -89418.972739 kJ/mol
# GULP energy per Si atom -5588.685796 kJ/mol
# Density = 2.012034 g / cm^3
# Si number density = 20.166240 Si / 1000 Ang^3
#
#
#
# Elastic Constant Matrix: (Units=GPa)
#
#
# Indices 1 2 3 4 5 6 
#
# 1 103.0755 18.2778 15.2863 0.0000 -11.6615 0.0000
# 2 18.2778 78.8149 32.7604 0.0000 -10.9474 0.0000
# 3 15.2863 32.7604 84.7487 0.0000 -22.6506 0.0000
# 4 0.0000 0.0000 0.0000 -17.8778 0.0000 -7.8365
# 5 -11.6615 -10.9474 -22.6506 0.0000 22.0804 0.0000
# 6 0.0000 0.0000 0.0000 -7.8365 0.0000 13.3245
#
#
#
# Elastic Compliance Matrix: (Units=1/GPa)
#
#
# Indices 1 2 3 4 5 6 
#
# 1 0.010550 -0.001816 0.000065 0.000000 0.004739 0.000000
# 2 -0.001816 0.015498 -0.005326 0.000000 0.001261 0.000000
# 3 0.000065 -0.005326 0.018117 0.000000 0.015979 0.000000
# 4 0.000000 0.000000 0.000000 -0.044471 0.000000 -0.026154
# 5 0.004739 0.001261 0.015979 0.000000 0.064809 0.000000
# 6 0.000000 0.000000 0.000000 -0.026154 0.000000 0.059668
#
#
# Mechanical properties :
#
#
# Convention : Reuss Voigt Hill
#
# Bulk Modulus (GPa) = 33.31951 44.36533 38.84242
# Shear Modulus (GPa) = 33.70901 16.85974 25.28437
#
# Velocity S-wave (km/s) = 4.09290 2.89457 3.54474
# Velocity P-wave (km/s) = 6.23651 5.76359 6.00471
#
# Compressibility (1/GPa) = 0.03001245
#
# Stress axis : x y z
#
# Youngs Moduli (GPa) = 94.78674 64.52375 55.19534
#
# Poissons Ratio (x) = 0.11715 -0.00361
# Poissons Ratio (y) = 0.17210 0.29399
# Poissons Ratio (z) = -0.00620 0.34368
#
# Static dielectric constant tensor:
#      x y z
#    x 1.709570 0.000000 -0.034800 
#    y 0.000000 1.695950 0.000000 
#    z -0.034800 0.000000 1.693100 
# 
# From -- ./inp_files/60042.got.cif
#   From: 2010.05.17/outbox.cif.g08.bks.cpg/sg12_31_cif.got.tgz:60042.got - 2010.06.03 13:09:07.
