data_PCOD9221354
_publ_section_title
;
Structure prediction by ZEFSAII (Michael W. Deem and Ramdas Pophale) SiO2 
 PCOD9221354
Probable space group: C 2/M
;
_chemical_formula_sum "Si O2"
_cell_formula_units_Z 40
_cell_length_a 14.415618
_cell_length_b 8.921516
_cell_length_c 16.722297
_cell_angle_alpha 90.000000
_cell_angle_beta 114.710141
_cell_angle_gamma 90.000000
_cell_volume 1953.715554
_symmetry_space_group_name_H-M "C 2/M"
_symmetry_group_IT_number 12
_symmetry_cell_setting 'monoclinic'
loop_
_space_group_symop_operation_xyz
x,y,z
-x,y,-z
-x,-y,-z
x,-y,z
1/2+x,1/2+y,z
1/2-x,1/2+y,-z
1/2-x,1/2-y,-z
1/2+x,1/2-y,z
loop_
_atom_site_type_symbol
_atom_site_label
_atom_site_fract_x
_atom_site_fract_y
_atom_site_fract_z
Si Si1 0.654115 0.681918 0.205951
Si Si2 0.457768 0.317504 0.239741
Si Si3 0.209234 0.672942 0.607036
Si Si4 0.086487 0.827176 0.431683
Si Si5 0.757796 0.679417 0.089829
O O1 0.660468 0.500000 0.212735
O O2 0.548924 0.721426 0.210699
O O3 0.748083 0.739724 0.294769
O O4 0.667078 0.723377 0.118485
O O5 0.447273 0.500000 0.237060
O O6 0.497207 0.267264 0.341753
O O7 0.358114 0.238641 0.170883
O O8 0.181207 0.500000 0.608800
O O9 0.119500 0.750513 0.525605
O O10 0.311103 0.676738 0.587323
O O11 0.064045 0.000000 0.439506
O O12 0.759708 0.500000 0.083606
O O13 0.750000 0.750000 0.000000
#
# Coordination Sequence:
#
# PCOD9221354 Si02
#       5
#     8   8   8   8   8
#     4   8  17  35  57  77 103 142 178 207 251 314
#     4   9  18  36  58  78 104 140 177 210 252 309
#     4   8  13  25  47  73 100 134 174 206 237 292
#     4   8  14  25  45  74 105 134 165 205 251 294
#     4  11  23  39  57  78 103 132 172 221 269 313
#
# _framework density 20.47381
#
# number of rings (size 3 to 8) (size 9 to 14) (size 15 to 20)
#    0.000    3.200    0.000    3.000    0.000    1.600 
#    0.000   12.000    0.000    6.000    0.000    0.000 
#    0.000    0.000    0.000    0.000    0.000    0.000 
#
# Total GULP energy -111535.494972 kJ/mol
# GULP energy per Si atom -5576.774749 kJ/mol
# Density = 2.042721 g / cm^3
# Si number density = 20.473810 Si / 1000 Ang^3
#
#
#
# Elastic Constant Matrix: (Units=GPa)
#
#
# Indices 1 2 3 4 5 6 
#
# 1 56.2187 2.0215 23.5477 0.0000 -13.4323 0.0000
# 2 2.0215 26.7943 20.3895 0.0000 -3.9822 0.0000
# 3 23.5477 20.3895 81.4735 0.0000 -19.7392 0.0000
# 4 0.0000 0.0000 0.0000 37.9653 0.0000 5.6264
# 5 -13.4323 -3.9822 -19.7392 0.0000 36.7269 0.0000
# 6 0.0000 0.0000 0.0000 5.6264 0.0000 13.8515
#
#
#
# Elastic Compliance Matrix: (Units=1/GPa)
#
#
# Indices 1 2 3 4 5 6 
#
# 1 0.021307 0.003580 -0.005832 0.000000 0.005047 0.000000
# 2 0.003580 0.046763 -0.012868 0.000000 -0.000536 0.000000
# 3 -0.005832 -0.012868 0.018769 0.000000 0.006559 0.000000
# 4 0.000000 0.000000 0.000000 0.028027 0.000000 -0.011384
# 5 0.005047 -0.000536 0.006559 0.000000 0.032541 0.000000
# 6 0.000000 0.000000 0.000000 -0.011384 0.000000 0.076819
#
#
# Mechanical properties :
#
#
# Convention : Reuss Voigt Hill
#
# Bulk Modulus (GPa) = 17.66736 28.48934 23.07835
# Shear Modulus (GPa) = 18.29281 25.61059 21.95170
#
# Velocity S-wave (km/s) = 2.99235 3.54064 3.27797
# Velocity P-wave (km/s) = 4.53727 5.53715 5.06196
#
# Compressibility (1/GPa) = 0.05660156
#
# Stress axis : x y z
#
# Youngs Moduli (GPa) = 46.93205 21.38430 53.27986
#
# Poissons Ratio (x) = -0.07656 0.31070
# Poissons Ratio (y) = -0.16802 0.68558
# Poissons Ratio (z) = 0.27369 0.27516
#
# Static dielectric constant tensor:
#      x y z
#    x 1.794510 0.000000 -0.024390 
#    y 0.000000 1.692160 0.000000 
#    z -0.024390 0.000000 1.734590 
# 
# From -- ./inp_files/211833.got.cif
#   From: 2010.05.17/outbox.cif.g08.bks.cpg/sg12_106_cif.got.tgz:211833.got - 2010.06.03 13:09:07.
