data_PCOD9221112
_publ_section_title
;
Structure prediction by ZEFSAII (Michael W. Deem and Ramdas Pophale) SiO2 
 PCOD9221112
Probable space group: C 2/M
;
_chemical_formula_sum "Si O2"
_cell_formula_units_Z 48
_cell_length_a 11.884277
_cell_length_b 18.284857
_cell_length_c 11.335067
_cell_angle_alpha 90.000000
_cell_angle_beta 102.385070
_cell_angle_gamma 90.000000
_cell_volume 2405.814580
_symmetry_space_group_name_H-M "C 2/M"
_symmetry_group_IT_number 12
_symmetry_cell_setting 'monoclinic'
loop_
_space_group_symop_operation_xyz
x,y,z
-x,y,-z
-x,-y,-z
x,-y,z
1/2+x,1/2+y,z
1/2-x,1/2+y,-z
1/2-x,1/2-y,-z
1/2+x,1/2-y,z
loop_
_atom_site_type_symbol
_atom_site_label
_atom_site_fract_x
_atom_site_fract_y
_atom_site_fract_z
Si Si1 0.645084 0.194740 0.867437
Si Si2 0.764150 0.584134 0.915453
Si Si3 0.689139 0.701288 0.308981
Si Si4 0.969255 0.151499 0.124885
Si Si5 0.452997 0.918937 0.753308
Si Si6 0.378891 0.165612 0.534533
O O1 0.737162 0.220355 0.790905
O O2 0.580218 0.266001 0.899892
O O3 0.550620 0.141701 0.788651
O O4 0.703944 0.144408 0.979420
O O5 0.770689 0.500000 0.959906
O O6 0.634240 0.602630 0.848120
O O7 0.856656 0.591351 0.831899
O O8 0.578887 0.657607 0.235469
O O9 0.650601 0.771750 0.375704
O O10 0.777394 0.660550 0.416491
O O11 0.000000 0.124953 0.000000
O O12 0.396610 0.907379 0.613470
O O13 0.501913 0.000000 0.778234
O O14 0.500000 0.184865 0.500000
#
# Coordination Sequence:
#
# PCOD9221112 Si02
#       6
#     8   8   8   8   8   8
#     4  12  22  41  66  98 127 165 214 271 322 379
#     4  11  25  43  63  93 135 173 208 261 327 387
#     4  11  23  40  64  98 126 165 212 262 326 374
#     4  12  23  38  66  96 127 165 210 264 316 388
#     4  11  23  41  65  94 127 169 218 267 320 378
#     4  11  22  42  64  92 131 169 213 268 318 372
#
# _framework density 19.951663
#
# number of rings (size 3 to 8) (size 9 to 14) (size 15 to 20)
#    0.000    0.667    5.000    3.500    0.000    3.333 
#    0.000    0.833    0.000    2.000    0.000    0.000 
#    0.000    0.000    0.000    0.000    0.000    0.000 
#
# Total GULP energy -134148.327002 kJ/mol
# GULP energy per Si atom -5589.513625 kJ/mol
# Density = 1.990625 g / cm^3
# Si number density = 19.951663 Si / 1000 Ang^3
#
#
#
# Elastic Constant Matrix: (Units=GPa)
#
#
# Indices 1 2 3 4 5 6 
#
# 1 110.6288 30.3555 48.4260 0.0000 6.0943 0.0000
# 2 30.3555 60.8721 18.0272 0.0000 -5.3084 0.0000
# 3 48.4260 18.0272 92.5376 0.0000 13.7944 0.0000
# 4 0.0000 0.0000 0.0000 4.7043 0.0000 -16.0973
# 5 6.0943 -5.3084 13.7944 0.0000 51.3594 0.0000
# 6 0.0000 0.0000 0.0000 -16.0973 0.0000 16.5433
#
#
#
# Elastic Compliance Matrix: (Units=1/GPa)
#
#
# Indices 1 2 3 4 5 6 
#
# 1 0.012888 -0.004768 -0.005744 0.000000 -0.000479 0.000000
# 2 -0.004768 0.019601 -0.001781 0.000000 0.003070 0.000000
# 3 -0.005744 -0.001781 0.014673 0.000000 -0.003443 0.000000
# 4 0.000000 0.000000 0.000000 -0.091248 0.000000 -0.088788
# 5 -0.000479 0.003070 -0.003443 0.000000 0.020770 0.000000
# 6 0.000000 0.000000 0.000000 -0.088788 0.000000 -0.025947
#
#
# Mechanical properties :
#
#
# Convention : Reuss Voigt Hill
#
# Bulk Modulus (GPa) = 44.29582 50.85066 47.57324
# Shear Modulus (GPa) = -291.49377 25.67004 -132.91187
#
# Velocity S-wave (km/s) = -12.10030 3.59083 -8.17077
# Velocity P-wave (km/s) = 13.15192 6.53715 8.06966
#
# Compressibility (1/GPa) = 0.02257549
#
# Stress axis : x y z
#
# Youngs Moduli (GPa) = 77.58924 51.01882 68.15342
#
# Poissons Ratio (x) = 0.24324 0.39150
# Poissons Ratio (y) = 0.36992 0.12138
# Poissons Ratio (z) = 0.44570 0.09086
#
# Static dielectric constant tensor:
#      x y z
#    x 1.721160 0.000000 0.033880 
#    y 0.000000 1.688730 0.000000 
#    z 0.033880 0.000000 1.733470 
# 
# From -- ./inp_files/131233.got.cif
#   From: 2010.05.17/outbox.cif.g08.bks.cpg/sg12_66_cif.got.tgz:131233.got - 2010.06.03 13:09:07.
