data_PCOD9221318
_publ_section_title
;
Structure prediction by ZEFSAII (Michael W. Deem and Ramdas Pophale) SiO2 
 PCOD9221318
Probable space group: C 2/M
;
_chemical_formula_sum "Si O2"
_cell_formula_units_Z 48
_cell_length_a 8.807856
_cell_length_b 25.228131
_cell_length_c 19.902682
_cell_angle_alpha 90.000000
_cell_angle_beta 146.916125
_cell_angle_gamma 90.000000
_cell_volume 2414.087861
_symmetry_space_group_name_H-M "C 2/M"
_symmetry_group_IT_number 12
_symmetry_cell_setting 'monoclinic'
loop_
_space_group_symop_operation_xyz
x,y,z
-x,y,-z
-x,-y,-z
x,-y,z
1/2+x,1/2+y,z
1/2-x,1/2+y,-z
1/2-x,1/2-y,-z
1/2+x,1/2-y,z
loop_
_atom_site_type_symbol
_atom_site_label
_atom_site_fract_x
_atom_site_fract_y
_atom_site_fract_z
Si Si1 0.286554 0.755627 0.093414
Si Si2 0.885245 0.608800 0.380525
Si Si3 0.244643 0.636027 0.136842
Si Si4 0.306711 0.308191 0.495464
Si Si5 0.831331 0.440930 0.635798
Si Si6 0.836163 0.649566 0.744024
O O1 0.287345 0.697886 0.128972
O O2 0.526467 0.792444 0.211942
O O3 0.250000 0.750000 0.000000
O O4 0.000000 0.786159 0.000000
O O5 0.551084 0.610613 0.252045
O O6 0.000000 0.605001 0.500000
O O7 0.014569 0.661524 0.392297
O O8 0.013766 0.565151 0.377971
O O9 0.109918 0.633370 0.160326
O O10 0.000000 0.613125 0.000000
O O11 0.500000 0.307493 0.500000
O O12 0.250000 0.250000 0.500000
O O13 0.506171 0.340808 0.618676
O O14 0.500000 0.434248 0.500000
O O15 0.876007 0.500000 0.679817
O O16 0.914882 0.394452 0.718636
#
# Coordination Sequence:
#
# PCOD9221318 Si02
#       6
#     8   8   8   8   8   8
#     4  11  23  38  58  96 135 185 220 256 317 406
#     4  12  22  42  67  97 132 170 218 278 337 396
#     4  11  24  41  62  97 138 177 215 260 327 406
#     4  12  24  37  57  97 135 176 206 264 325 399
#     4  11  24  45  70  97 127 171 231 287 343 392
#     4  12  22  41  62  91 135 173 222 272 322 385
#
# _framework density 19.883285000000001
#
# number of rings (size 3 to 8) (size 9 to 14) (size 15 to 20)
#    0.000    0.500    8.333    1.500    4.667    0.333 
#    0.000    0.833    0.000    5.500    0.000    0.000 
#    0.000    0.000    0.000    0.000    0.000    0.000 
#
# Total GULP energy -133721.984526 kJ/mol
# GULP energy per Si atom -5571.749355 kJ/mol
# Density = 1.983803 g / cm^3
# Si number density = 19.883285 Si / 1000 Ang^3
#
#
#
# Elastic Constant Matrix: (Units=GPa)
#
#
# Indices 1 2 3 4 5 6 
#
# 1 114.0303 26.4489 41.9781 0.0001 -19.7708 0.0002
# 2 26.4489 80.3454 15.5794 -0.0004 -13.4215 -0.0001
# 3 41.9781 15.5794 103.8570 0.0072 0.5256 -0.0037
# 4 0.0001 -0.0004 0.0072 9.6599 -0.0011 -2.4102
# 5 -19.7708 -13.4215 0.5256 -0.0011 43.0414 0.0010
# 6 0.0002 -0.0001 -0.0037 -2.4102 0.0010 18.7456
#
#
#
# Elastic Compliance Matrix: (Units=1/GPa)
#
#
# Indices 1 2 3 4 5 6 
#
# 1 0.011741 -0.002210 -0.004438 0.000003 0.004758 -0.000001
# 2 -0.002210 0.013971 -0.001220 0.000002 0.003356 0.000000
# 3 -0.004438 -0.001220 0.011618 -0.000009 -0.002561 0.000001
# 4 0.000003 0.000002 -0.000009 0.106951 0.000005 0.013751
# 5 0.004758 0.003356 -0.002561 0.000005 0.026497 -0.000001
# 6 -0.000001 0.000000 0.000001 0.013751 -0.000001 0.055114
#
#
# Mechanical properties :
#
#
# Convention : Reuss Voigt Hill
#
# Bulk Modulus (GPa) = 46.30626 51.80507 49.05566
# Shear Modulus (GPa) = 20.09436 28.57114 24.33275
#
# Velocity S-wave (km/s) = 3.18247 3.79481 3.50205
# Velocity P-wave (km/s) = 6.06990 6.73142 6.40920
#
# Compressibility (1/GPa) = 0.02159535
#
# Stress axis : x y z
#
# Youngs Moduli (GPa) = 85.17197 71.57788 86.07007
#
# Poissons Ratio (x) = 0.15815 0.38200
# Poissons Ratio (y) = 0.18819 0.10497
# Poissons Ratio (z) = 0.37801 0.08730
#
# Static dielectric constant tensor:
#      x y z
#    x 1.720400 0.000000 -0.001590 
#    y 0.000000 1.741850 0.000000 
#    z -0.001590 0.000000 1.754710 
# 
# From -- ./inp_files/302719.got.cif
#   From: 2010.05.17/outbox.cif.g08.bks.cpg/sg12_152_cif.got.tgz:302719.got - 2010.06.03 13:09:07.
