data_PCOD9221088
_publ_section_title
;
Structure prediction by ZEFSAII (Michael W. Deem and Ramdas Pophale) SiO2 
 PCOD9221088
Probable space group: C 2/M
;
_chemical_formula_sum "Si O2"
_cell_formula_units_Z 40
_cell_length_a 14.771674
_cell_length_b 8.523189
_cell_length_c 25.080859
_cell_angle_alpha 90.000000
_cell_angle_beta 137.732386
_cell_angle_gamma 90.000000
_cell_volume 2123.867628
_symmetry_space_group_name_H-M "C 2/M"
_symmetry_group_IT_number 12
_symmetry_cell_setting 'monoclinic'
loop_
_space_group_symop_operation_xyz
x,y,z
-x,y,-z
-x,-y,-z
x,-y,z
1/2+x,1/2+y,z
1/2-x,1/2+y,-z
1/2-x,1/2-y,-z
1/2+x,1/2-y,z
loop_
_atom_site_type_symbol
_atom_site_label
_atom_site_fract_x
_atom_site_fract_y
_atom_site_fract_z
Si Si1 0.647758 0.685045 0.589136
Si Si2 0.632124 0.814016 0.700817
Si Si3 0.840009 0.816201 0.587519
Si Si4 0.852622 0.188022 0.999818
Si Si5 0.152619 0.687921 0.121255
O O1 0.500000 0.715224 0.500000
O O2 0.675858 0.500000 0.594350
O O3 0.650472 0.731040 0.651852
O O4 0.754669 0.786054 0.603238
O O5 0.480124 0.774471 0.651608
O O6 0.736657 0.747129 0.789076
O O7 0.649580 0.000000 0.702865
O O8 0.750000 0.750000 0.500000
O O9 0.865782 0.000000 0.589797
O O10 0.005069 0.250150 0.074113
O O11 0.853135 0.000000 0.000671
O O12 0.750000 0.250000 0.000000
O O13 0.816249 0.247365 0.924457
O O14 0.149272 0.500000 0.117758
#
# Coordination Sequence:
#
# PCOD9221088 Si02
#       5
#     8   8   8   8   8
#     4  11  23  40  63  89 120 160 209 260 313 370
#     4  12  25  42  64  92 127 166 210 262 315 371
#     4  12  24  40  62  89 120 161 209 259 313 371
#     4  11  22  41  68  98 130 167 208 252 308 373
#     4  11  23  42  65  95 130 166 208 257 313 371
#
# _framework density 18.833566000000001
#
# number of rings (size 3 to 8) (size 9 to 14) (size 15 to 20)
#    0.000    0.600    2.000    9.000    0.000    2.400 
#    0.000    8.000    0.000    0.000    0.000    0.000 
#    0.000    0.000    0.000    0.000    0.000    0.000 
#
# Total GULP energy -111923.107145 kJ/mol
# GULP energy per Si atom -5596.155357 kJ/mol
# Density = 1.879070 g / cm^3
# Si number density = 18.833566 Si / 1000 Ang^3
#
#
#
# Elastic Constant Matrix: (Units=GPa)
#
#
# Indices 1 2 3 4 5 6 
#
# 1 114.9303 12.3782 56.1542 0.0000 -3.3670 0.0000
# 2 12.3782 117.3290 37.7045 0.0000 -0.6220 0.0000
# 3 56.1542 37.7045 168.2848 0.0000 -3.2404 0.0000
# 4 0.0000 0.0000 0.0000 29.4070 0.0000 -0.5205
# 5 -3.3670 -0.6220 -3.2404 0.0000 14.4897 0.0000
# 6 0.0000 0.0000 0.0000 -0.5205 0.0000 38.3501
#
#
#
# Elastic Compliance Matrix: (Units=1/GPa)
#
#
# Indices 1 2 3 4 5 6 
#
# 1 0.010435 0.000018 -0.003454 0.000000 0.001653 0.000000
# 2 0.000018 0.009184 -0.002065 0.000000 -0.000063 0.000000
# 3 -0.003454 -0.002065 0.007573 0.000000 0.000802 0.000000
# 4 0.000000 0.000000 0.000000 0.034014 0.000000 0.000462
# 5 0.001653 -0.000063 0.000802 0.000000 0.069576 0.000000
# 6 0.000000 0.000000 0.000000 0.000462 0.000000 0.026082
#
#
# Mechanical properties :
#
#
# Convention : Reuss Voigt Hill
#
# Bulk Modulus (GPa) = 61.76660 68.11309 64.93985
# Shear Modulus (GPa) = 28.85788 36.06983 32.46385
#
# Velocity S-wave (km/s) = 3.91865 4.38103 4.15628
# Velocity P-wave (km/s) = 7.30354 7.86356 7.58872
#
# Compressibility (1/GPa) = 0.01618998
#
# Stress axis : x y z
#
# Youngs Moduli (GPa) = 95.82999 108.88009 132.04723
#
# Poissons Ratio (x) = -0.00195 0.45612
# Poissons Ratio (y) = -0.00172 0.27267
# Poissons Ratio (z) = 0.33102 0.22484
#
# Static dielectric constant tensor:
#      x y z
#    x 1.636900 0.000000 -0.004890 
#    y 0.000000 1.627380 0.000000 
#    z -0.004890 0.000000 1.616640 
# 
# From -- ./inp_files/338314.got.cif
#   From: 2010.05.17/outbox.cif.g08.bks.cpg/sg12_170_cif.got.tgz:338314.got - 2010.06.03 13:09:07.
