data_PCOD9221753
_publ_section_title
;
Structure prediction by ZEFSAII (Michael W. Deem and Ramdas Pophale) SiO2 
 PCOD9221753
Probable space group: C 2/M
;
_chemical_formula_sum "Si O2"
_cell_formula_units_Z 44
_cell_length_a 12.509204
_cell_length_b 17.363188
_cell_length_c 9.339236
_cell_angle_alpha 90.000000
_cell_angle_beta 80.045282
_cell_angle_gamma 90.000000
_cell_volume 1997.939499
_symmetry_space_group_name_H-M "C 2/M"
_symmetry_group_IT_number 12
_symmetry_cell_setting 'monoclinic'
loop_
_space_group_symop_operation_xyz
x,y,z
-x,y,-z
-x,-y,-z
x,-y,z
1/2+x,1/2+y,z
1/2-x,1/2+y,-z
1/2-x,1/2-y,-z
1/2+x,1/2-y,z
loop_
_atom_site_type_symbol
_atom_site_label
_atom_site_fract_x
_atom_site_fract_y
_atom_site_fract_z
Si Si1 0.987171 0.873092 0.669792
Si Si2 0.610134 0.000000 0.281083
Si Si3 0.198067 0.000000 0.315311
Si Si4 0.500000 0.873272 0.500000
Si Si5 0.687761 0.000000 0.981660
Si Si6 0.833120 0.000000 0.347792
Si Si7 0.973989 0.291771 0.228619
Si Si8 0.320375 0.827000 0.001677
O O1 0.000000 0.850742 0.500000
O O2 0.088390 0.927496 0.681697
O O3 0.997779 0.798459 0.764620
O O4 0.879089 0.926030 0.701382
O O5 0.571756 0.071722 0.384198
O O6 0.585555 0.000000 0.116502
O O7 0.739995 0.000000 0.253911
O O8 0.217813 0.000000 0.480385
O O9 0.305965 0.000000 0.194225
O O10 0.442426 0.821242 0.393915
O O11 0.732903 0.087905 0.995152
O O12 0.881347 0.315339 0.139028
O O13 0.085444 0.325933 0.139759
O O14 0.250000 0.750000 0.000000
#
# Coordination Sequence:
#
# PCOD9221753 Si02
#       8
#     8   4   4   4   4   4   8   8
#     4   9  18  39  65  93 132 164 211 269 336 383
#     4  11  25  42  64  93 125 161 232 272 311 401
#     4   9  20  38  63  96 127 171 210 263 334 409
#     4  11  24  44  64  93 126 170 218 265 332 384
#     4  12  24  43  66  89 134 172 215 270 334 377
#     4   9  21  38  64  96 123 168 218 269 322 396
#     4  11  23  43  67  93 134 172 214 275 324 392
#     4  11  27  45  66  99 132 172 225 265 327 399
#
# _framework density 22.022687999999999
#
# number of rings (size 3 to 8) (size 9 to 14) (size 15 to 20)
#    0.000    1.636    2.727    2.182    5.091    2.182 
#    0.000    2.727    0.000    0.000    0.000    0.000 
#    0.000    0.000    0.000    0.000    0.000    0.000 
#
# Total GULP energy -122593.698640 kJ/mol
# GULP energy per Si atom -5572.440847 kJ/mol
# Density = 2.197256 g / cm^3
# Si number density = 22.022688 Si / 1000 Ang^3
#
#
#
# Elastic Constant Matrix: (Units=GPa)
#
#
# Indices 1 2 3 4 5 6 
#
# 1 54.6057 23.3783 30.2230 0.0000 6.5478 0.0000
# 2 23.3783 174.0830 47.1358 0.0000 11.9227 0.0000
# 3 30.2230 47.1358 151.0261 0.0000 -7.8826 0.0000
# 4 0.0000 0.0000 0.0000 43.1239 0.0000 4.7272
# 5 6.5478 11.9227 -7.8826 0.0000 18.4554 0.0000
# 6 0.0000 0.0000 0.0000 4.7272 0.0000 -1.4443
#
#
#
# Elastic Compliance Matrix: (Units=1/GPa)
#
#
# Indices 1 2 3 4 5 6 
#
# 1 0.022461 -0.001134 -0.004622 0.000000 -0.009210 0.000000
# 2 -0.001134 0.006818 -0.002158 0.000000 -0.004924 0.000000
# 3 -0.004622 -0.002158 0.008569 0.000000 0.006694 0.000000
# 4 0.000000 0.000000 0.000000 0.017066 0.000000 0.055858
# 5 -0.009210 -0.004924 0.006694 0.000000 0.063493 0.000000
# 6 0.000000 0.000000 0.000000 0.055858 0.000000 -0.509568
#
#
# Mechanical properties :
#
#
# Convention : Reuss Voigt Hill
#
# Bulk Modulus (GPa) = 45.41167 64.57658 54.99413
# Shear Modulus (GPa) = -13.58722 30.62552 8.51915
#
# Velocity S-wave (km/s) = -2.48657 3.73317 1.96895
# Velocity P-wave (km/s) = 3.52436 6.92593 5.49498
#
# Compressibility (1/GPa) = 0.02202077
#
# Stress axis : x y z
#
# Youngs Moduli (GPa) = 44.52158 146.66461 116.69778
#
# Poissons Ratio (x) = 0.16635 0.53933
# Poissons Ratio (y) = 0.05050 0.25184
# Poissons Ratio (z) = 0.20576 0.31651
#
# Static dielectric constant tensor:
#      x y z
#    x 1.787820 0.000000 -0.003490 
#    y 0.000000 1.882600 0.000000 
#    z -0.003490 0.000000 1.819720 
# 
# From -- ./inp_files/61138.got.cif
#   From: 2010.05.17/outbox.cif.g08.bks.cpg/sg12_31_cif.got.tgz:61138.got - 2010.06.03 13:09:07.
