data_PCOD9221861
_publ_section_title
;
Structure prediction by ZEFSAII (Michael W. Deem and Ramdas Pophale) SiO2 
 PCOD9221861
Probable space group: C 2/M
;
_chemical_formula_sum "Si O2"
_cell_formula_units_Z 64
_cell_length_a 10.040393
_cell_length_b 26.094967
_cell_length_c 19.163878
_cell_angle_alpha 90.000000
_cell_angle_beta 40.949266
_cell_angle_gamma 90.000000
_cell_volume 3290.720528
_symmetry_space_group_name_H-M "C 2/M"
_symmetry_group_IT_number 12
_symmetry_cell_setting 'monoclinic'
loop_
_space_group_symop_operation_xyz
x,y,z
-x,y,-z
-x,-y,-z
x,-y,z
1/2+x,1/2+y,z
1/2-x,1/2+y,-z
1/2-x,1/2-y,-z
1/2+x,1/2-y,z
loop_
_atom_site_type_symbol
_atom_site_label
_atom_site_fract_x
_atom_site_fract_y
_atom_site_fract_z
Si Si1 0.056834 0.059497 0.896897
Si Si2 0.765034 0.400813 0.084042
Si Si3 0.608537 0.208190 0.023319
Si Si4 0.937471 0.629909 0.706471
Si Si5 0.837451 0.309993 0.262860
Si Si6 0.991317 0.875586 0.678944
Si Si7 0.311890 0.199823 0.626196
Si Si8 0.679545 0.439775 0.486019
O O1 0.238183 0.096746 0.802044
O O2 0.866298 0.068496 0.920587
O O3 0.119967 0.000000 0.867478
O O4 0.000000 0.070157 0.000000
O O5 0.650557 0.398440 0.203595
O O6 0.780231 0.342566 0.048620
O O7 0.000000 0.417995 0.000000
O O8 0.445333 0.193177 0.145498
O O9 0.500000 0.232404 0.000000
O O10 0.750000 0.250000 0.000000
O O11 0.889534 0.668649 0.662620
O O12 0.012648 0.662158 0.743050
O O13 0.122838 0.592647 0.612825
O O14 0.639196 0.343929 0.326142
O O15 0.781925 0.253855 0.312930
O O16 0.147225 0.835988 0.652879
O O17 0.104183 0.919484 0.590805
O O18 0.500000 0.209171 0.500000
O O19 0.500000 0.432209 0.500000
O O20 0.725758 0.500000 0.469777
#
# Coordination Sequence:
#
# PCOD9221861 Si02
#       8
#     8   8   8   8   8   8   8   8
#     4  11  26  46  73 105 137 176 227 289 353 407
#     4  11  23  45  69  97 137 179 226 282 336 414
#     4  11  24  40  62  95 134 180 226 273 327 402
#     4  12  25  47  71 100 139 185 226 284 346 408
#     4  12  26  41  68  99 137 187 223 279 337 408
#     4  12  23  46  66 100 136 176 229 281 344 399
#     4  12  27  43  68 103 138 180 231 281 342 411
#     4  11  25  45  72 102 132 177 235 289 345 413
#
# _framework density 19.448629
#
# number of rings (size 3 to 8) (size 9 to 14) (size 15 to 20)
#    0.000    0.500    6.250    2.625    3.500    2.250 
#    0.000    0.625    0.000    0.000    0.000    0.000 
#    0.000    0.000    0.000    0.000    0.000    0.000 
#
# Total GULP energy -179000.124515 kJ/mol
# GULP energy per Si atom -5593.753891 kJ/mol
# Density = 1.940436 g / cm^3
# Si number density = 19.448629 Si / 1000 Ang^3
#
#
#
# Elastic Constant Matrix: (Units=GPa)
#
#
# Indices 1 2 3 4 5 6 
#
# 1 139.1626 54.1600 39.2156 0.0000 5.6812 0.0000
# 2 54.1600 87.5135 51.0477 0.0000 4.3073 0.0000
# 3 39.2156 51.0477 126.1313 0.0002 13.4637 0.0000
# 4 0.0000 0.0000 0.0002 9.9589 -0.0002 -0.9225
# 5 5.6812 4.3073 13.4637 -0.0002 32.3955 0.0000
# 6 0.0000 0.0000 0.0000 -0.9225 0.0000 33.4796
#
#
#
# Elastic Compliance Matrix: (Units=1/GPa)
#
#
# Indices 1 2 3 4 5 6 
#
# 1 0.009534 -0.005471 -0.000679 0.000000 -0.000662 0.000000
# 2 -0.005471 0.018108 -0.005727 0.000000 0.000932 0.000000
# 3 -0.000679 -0.005727 0.010844 0.000000 -0.003626 0.000000
# 4 0.000000 0.000000 0.000000 0.100669 0.000001 0.002774
# 5 -0.000662 0.000932 -0.003626 0.000001 0.032368 0.000000
# 6 0.000000 0.000000 0.000000 0.002774 0.000000 0.029945
#
#
# Mechanical properties :
#
#
# Convention : Reuss Voigt Hill
#
# Bulk Modulus (GPa) = 67.88488 71.29488 69.58988
# Shear Modulus (GPa) = 21.72657 29.05908 25.39283
#
# Velocity S-wave (km/s) = 3.34597 3.86961 3.61728
# Velocity P-wave (km/s) = 7.06455 7.53013 7.30105
#
# Compressibility (1/GPa) = 0.01473082
#
# Stress axis : x y z
#
# Youngs Moduli (GPa) = 104.89185 55.22530 92.21504
#
# Poissons Ratio (x) = 0.30216 0.06262
# Poissons Ratio (y) = 0.57391 0.52810
# Poissons Ratio (z) = 0.07122 0.31627
#
# Static dielectric constant tensor:
#      x y z
#    x 1.689620 0.000000 -0.036730 
#    y 0.000000 1.581770 0.000000 
#    z -0.036730 0.000000 1.692680 
# 
# From -- ./inp_files/260289.got.cif
#   From: 2010.05.17/outbox.cif.g08.bks.cpg/sg12_131_cif.got.tgz:260289.got - 2010.06.03 13:09:07.
