data_PCOD9221279
_publ_section_title
;
Structure prediction by ZEFSAII (Michael W. Deem and Ramdas Pophale) SiO2 
 PCOD9221279
Probable space group: C 2/M
;
_chemical_formula_sum "Si O2"
_cell_formula_units_Z 52
_cell_length_a 17.257346
_cell_length_b 14.052432
_cell_length_c 18.339488
_cell_angle_alpha 90.000000
_cell_angle_beta 140.556031
_cell_angle_gamma 90.000000
_cell_volume 2825.579337
_symmetry_space_group_name_H-M "C 2/M"
_symmetry_group_IT_number 12
_symmetry_cell_setting 'monoclinic'
loop_
_space_group_symop_operation_xyz
x,y,z
-x,y,-z
-x,-y,-z
x,-y,z
1/2+x,1/2+y,z
1/2-x,1/2+y,-z
1/2-x,1/2-y,-z
1/2+x,1/2-y,z
loop_
_atom_site_type_symbol
_atom_site_label
_atom_site_fract_x
_atom_site_fract_y
_atom_site_fract_z
Si Si1 0.351360 0.385493 0.662949
Si Si2 0.076155 0.889348 0.439366
Si Si3 0.795602 0.107288 0.179618
Si Si4 0.889761 0.887785 0.086723
Si Si5 0.685203 0.110509 0.676041
Si Si6 0.500000 0.746385 0.500000
Si Si7 0.856774 0.791891 0.912226
O O1 0.366931 0.500000 0.668821
O O2 0.349927 0.354183 0.577964
O O3 0.475000 0.351867 0.792491
O O4 0.238214 0.369564 0.633564
O O5 0.932878 0.885764 0.311802
O O6 0.087010 0.822685 0.516967
O O7 0.105310 0.000000 0.476478
O O8 0.811593 0.117715 0.103822
O O9 0.708901 0.190325 0.144566
O O10 0.751758 0.000000 0.163402
O O11 0.898842 0.000000 0.073232
O O12 0.840847 0.829663 0.982956
O O13 0.574698 0.183031 0.606559
O O14 0.791348 0.134904 0.809959
O O15 0.650376 0.000000 0.655743
O O16 0.000000 0.786803 0.000000
#
# Coordination Sequence:
#
# PCOD9221279 Si02
#       7
#     8   8   8   8   8   4   8
#     4   8  16  33  54  77 104 137 173 215 261 306
#     4   9  18  35  59  80 101 134 181 225 257 301
#     4   9  19  36  53  76 109 142 173 212 264 317
#     4   9  17  31  54  79 106 138 173 214 258 306
#     4  11  23  37  52  77 112 142 174 214 262 316
#     4  12  22  36  56  80 106 140 176 216 272 308
#     4  12  21  32  55  84 107 139 176 215 259 309
#
# _framework density 18.403306000000001
#
# number of rings (size 3 to 8) (size 9 to 14) (size 15 to 20)
#    0.000    2.154    3.077    3.231    0.000    1.538 
#    0.000    0.000    0.000    0.000    0.000    1.077 
#    0.000    0.000    0.000    0.000    0.000    0.000 
#
# Total GULP energy -144973.767796 kJ/mol
# GULP energy per Si atom -5575.914146 kJ/mol
# Density = 1.836142 g / cm^3
# Si number density = 18.403306 Si / 1000 Ang^3
#
#
#
# Elastic Constant Matrix: (Units=GPa)
#
#
# Indices 1 2 3 4 5 6 
#
# 1 18.9788 16.8295 -2.1899 0.0000 -10.1511 0.0000
# 2 16.8295 93.5295 14.3341 0.0000 -5.4181 0.0000
# 3 -2.1899 14.3341 20.8079 0.0000 -0.8017 0.0000
# 4 0.0000 0.0000 0.0000 25.2174 0.0000 -3.0469
# 5 -10.1511 -5.4181 -0.8017 0.0000 22.5243 0.0000
# 6 0.0000 0.0000 0.0000 -3.0469 0.0000 19.5434
#
#
#
# Elastic Compliance Matrix: (Units=1/GPa)
#
#
# Indices 1 2 3 4 5 6 
#
# 1 0.091379 -0.017837 0.023358 0.000000 0.037723 0.000000
# 2 -0.017837 0.015588 -0.012798 0.000000 -0.004745 0.000000
# 3 0.023358 -0.012798 0.059702 0.000000 0.009573 0.000000
# 4 0.000000 0.000000 0.000000 0.040416 0.000000 0.006301
# 5 0.037723 -0.004745 0.009573 0.000000 0.060596 0.000000
# 6 0.000000 0.000000 0.000000 0.006301 0.000000 0.052151
#
#
# Mechanical properties :
#
#
# Convention : Reuss Voigt Hill
#
# Bulk Modulus (GPa) = 6.57401 21.25153 13.91277
# Shear Modulus (GPa) = 12.98392 20.41320 16.69856
#
# Velocity S-wave (km/s) = 2.65905 3.33410 3.01552
# Velocity P-wave (km/s) = 3.60657 5.13754 4.43856
#
# Compressibility (1/GPa) = 0.15211411
#
# Stress axis : x y z
#
# Youngs Moduli (GPa) = 10.94344 64.15217 16.74985
#
# Poissons Ratio (x) = 1.14428 -0.39124
# Poissons Ratio (y) = 0.19520 0.21437
# Poissons Ratio (z) = -0.25562 0.82103
#
# Static dielectric constant tensor:
#      x y z
#    x 1.650800 0.000000 -0.008740 
#    y 0.000000 1.621430 0.000000 
#    z -0.008740 0.000000 1.633790 
# 
# From -- ./inp_files/277661.got.cif
#   From: 2010.05.17/outbox.cif.g08.bks.cpg/sg12_139_cif.got.tgz:277661.got - 2010.06.03 13:09:07.
