data_PCOD9221864
_publ_section_title
;
Structure prediction by ZEFSAII (Michael W. Deem and Ramdas Pophale) SiO2 
 PCOD9221864
Probable space group: C 2/M
;
_chemical_formula_sum "Si O2"
_cell_formula_units_Z 52
_cell_length_a 12.702594
_cell_length_b 33.187497
_cell_length_c 8.480771
_cell_angle_alpha 90.000000
_cell_angle_beta 138.625688
_cell_angle_gamma 90.000000
_cell_volume 2363.129986
_symmetry_space_group_name_H-M "C 2/M"
_symmetry_group_IT_number 12
_symmetry_cell_setting 'monoclinic'
loop_
_space_group_symop_operation_xyz
x,y,z
-x,y,-z
-x,-y,-z
x,-y,z
1/2+x,1/2+y,z
1/2-x,1/2+y,-z
1/2-x,1/2-y,-z
1/2+x,1/2-y,z
loop_
_atom_site_type_symbol
_atom_site_label
_atom_site_fract_x
_atom_site_fract_y
_atom_site_fract_z
Si Si1 0.365380 0.890323 0.750932
Si Si2 0.267711 0.692592 0.877679
Si Si3 0.155195 0.874428 0.782514
Si Si4 0.428070 0.186626 0.650217
Si Si5 0.702495 0.046059 0.904458
Si Si6 0.184976 0.545189 0.519283
Si Si7 0.000000 0.256477 0.000000
O O1 0.281167 0.863286 0.787189
O O2 0.443893 0.859909 0.717039
O O3 0.255619 0.921172 0.534204
O O4 0.500000 0.913837 0.000000
O O5 0.211924 0.684484 0.635312
O O6 0.096634 0.700686 0.767061
O O7 0.342380 0.656816 0.068761
O O8 0.390986 0.728601 0.989466
O O9 0.000000 0.875854 0.500000
O O10 0.209544 0.918435 0.904753
O O11 0.399637 0.215152 0.768487
O O12 0.739186 0.050928 0.759416
O O13 0.508990 0.049061 0.697857
O O14 0.743739 0.000000 0.997584
O O15 0.225273 0.500000 0.514611
#
# Coordination Sequence:
#
# PCOD9221864 Si02
#       7
#     8   8   8   8   8   8   4
#     4  12  21  38  66  90 127 169 212 267 309 374
#     4  11  25  44  68  96 128 172 205 260 322 380
#     4  12  26  42  60  93 135 171 213 262 319 383
#     4  11  23  45  70  96 128 162 218 260 315 380
#     4   9  18  37  62  91 128 168 212 265 318 370
#     4   9  18  34  63  98 124 159 219 272 310 367
#     4  12  24  44  68 102 128 160 206 266 326 382
#
# _framework density 22.004714
#
# number of rings (size 3 to 8) (size 9 to 14) (size 15 to 20)
#    0.000    1.231    3.846    2.769    2.154    3.692 
#    5.538    0.000    0.000    1.846    0.000    0.000 
#    0.000    0.000    0.000    0.000    0.000    0.000 
#
# Total GULP energy -144980.116329 kJ/mol
# GULP energy per Si atom -5576.158320 kJ/mol
# Density = 2.195463 g / cm^3
# Si number density = 22.004714 Si / 1000 Ang^3
#
#
#
# Elastic Constant Matrix: (Units=GPa)
#
#
# Indices 1 2 3 4 5 6 
#
# 1 36.7633 37.2096 16.0687 0.0000 -22.2786 0.0000
# 2 37.2096 129.0621 67.6662 0.0000 -25.9934 0.0000
# 3 16.0687 67.6662 132.8281 0.0000 -15.2057 0.0000
# 4 0.0000 0.0000 0.0000 27.8516 0.0000 -31.4748
# 5 -22.2786 -25.9934 -15.2057 0.0000 25.2527 0.0000
# 6 0.0000 0.0000 0.0000 -31.4748 0.0000 -4.4128
#
#
#
# Elastic Compliance Matrix: (Units=1/GPa)
#
#
# Indices 1 2 3 4 5 6 
#
# 1 0.067124 -0.010984 0.003179 0.000000 0.049827 0.000000
# 2 -0.010984 0.014231 -0.005749 0.000000 0.001496 0.000000
# 3 0.003179 -0.005749 0.010436 0.000000 0.003171 0.000000
# 4 0.000000 0.000000 0.000000 0.003963 0.000000 -0.028265
# 5 0.049827 0.001496 0.003171 0.000000 0.087007 0.000000
# 6 0.000000 0.000000 0.000000 -0.028265 0.000000 -0.025011
#
#
# Mechanical properties :
#
#
# Convention : Reuss Voigt Hill
#
# Bulk Modulus (GPa) = 15.46030 60.06027 37.76029
# Shear Modulus (GPa) = 24.22278 21.58556 22.90417
#
# Velocity S-wave (km/s) = 3.32143 3.13541 3.22976
# Velocity P-wave (km/s) = 4.66373 6.36092 5.57726
#
# Compressibility (1/GPa) = 0.06468180
#
# Stress axis : x y z
#
# Youngs Moduli (GPa) = 14.89789 70.27114 95.82392
#
# Poissons Ratio (x) = 0.77186 -0.30466
# Poissons Ratio (y) = 0.16364 0.55094
# Poissons Ratio (z) = -0.04737 0.40402
#
# Static dielectric constant tensor:
#      x y z
#    x 1.907350 0.000000 0.066390 
#    y 0.000000 1.784690 0.000000 
#    z 0.066390 0.000000 1.898610 
# 
# From -- ./inp_files/68673.got.cif
#   From: 2010.05.17/outbox.cif.g08.bks.cpg/sg12_35_cif.got.tgz:68673.got - 2010.06.03 13:09:07.
