data_PCOD9221320
_publ_section_title
;
Structure prediction by ZEFSAII (Michael W. Deem and Ramdas Pophale) SiO2 
 PCOD9221320
Probable space group: C 2/M
;
_chemical_formula_sum "Si O2"
_cell_formula_units_Z 48
_cell_length_a 20.831608
_cell_length_b 8.936419
_cell_length_c 14.252545
_cell_angle_alpha 90.000000
_cell_angle_beta 89.818984
_cell_angle_gamma 90.000000
_cell_volume 2653.240215
_symmetry_space_group_name_H-M "C 2/M"
_symmetry_group_IT_number 12
_symmetry_cell_setting 'monoclinic'
loop_
_space_group_symop_operation_xyz
x,y,z
-x,y,-z
-x,-y,-z
x,-y,z
1/2+x,1/2+y,z
1/2-x,1/2+y,-z
1/2-x,1/2-y,-z
1/2+x,1/2-y,z
loop_
_atom_site_type_symbol
_atom_site_label
_atom_site_fract_x
_atom_site_fract_y
_atom_site_fract_z
Si Si1 0.075465 0.179025 0.608605
Si Si2 0.499980 0.325462 0.887658
Si Si3 0.623444 0.821924 0.792572
Si Si4 0.423471 0.321103 0.607275
Si Si5 0.755712 0.821129 0.102877
Si Si6 0.877724 0.322296 0.791260
O O1 0.115719 0.265422 0.685932
O O2 0.091388 0.217039 0.500716
O O3 0.999381 0.211001 0.622569
O O4 0.083513 0.000000 0.619989
O O5 0.506568 0.500000 0.860538
O O6 0.559451 0.234682 0.845474
O O7 0.434004 0.261283 0.847203
O O8 0.500000 0.315180 0.000000
O O9 0.684150 0.748176 0.842945
O O10 0.627814 0.000000 0.796614
O O11 0.415486 0.500000 0.618263
O O12 0.382789 0.234920 0.684670
O O13 0.690543 0.790868 0.160835
O O14 0.763627 0.000000 0.094722
O O15 0.750000 0.750000 0.000000
O O16 0.889008 0.500000 0.794766
#
# Coordination Sequence:
#
# PCOD9221320 Si02
#       6
#     8   8   8   8   8   8
#     4   9  18  35  59  89 121 156 196 240 292 349
#     4  11  23  38  59  85 115 153 196 244 297 352
#     4  12  24  38  60  90 120 155 199 246 295 351
#     4   9  18  34  60  89 120 157 195 238 293 354
#     4  11  25  44  63  85 119 161 201 246 298 355
#     4  11  23  38  59  89 120 151 194 247 298 350
#
# _framework density 18.091087000000002
#
# number of rings (size 3 to 8) (size 9 to 14) (size 15 to 20)
#    0.000    1.500    1.667    5.000    0.000    7.333 
#    0.000    2.500    0.000    0.000    0.000    0.000 
#    0.000    0.000    0.000    0.000    0.000    0.000 
#
# Total GULP energy -134162.454465 kJ/mol
# GULP energy per Si atom -5590.102269 kJ/mol
# Density = 1.804991 g / cm^3
# Si number density = 18.091087 Si / 1000 Ang^3
#
#
#
# Elastic Constant Matrix: (Units=GPa)
#
#
# Indices 1 2 3 4 5 6 
#
# 1 116.6532 80.7255 74.6587 0.0000 15.9735 0.0000
# 2 80.7255 103.8109 80.9598 0.0000 1.9609 0.0000
# 3 74.6587 80.9598 147.7529 0.0000 8.8166 0.0000
# 4 0.0000 0.0000 0.0000 32.5397 0.0000 -0.5586
# 5 15.9735 1.9609 8.8166 0.0000 30.2999 0.0000
# 6 0.0000 0.0000 0.0000 -0.5586 0.0000 29.6669
#
#
#
# Elastic Compliance Matrix: (Units=1/GPa)
#
#
# Indices 1 2 3 4 5 6 
#
# 1 0.021661 -0.014982 -0.002150 0.000000 -0.009824 0.000000
# 2 -0.014982 0.027262 -0.007870 0.000000 0.008424 0.000000
# 3 -0.002150 -0.007870 0.012282 0.000000 -0.001931 0.000000
# 4 0.000000 0.000000 0.000000 0.030742 0.000000 0.000579
# 5 -0.009824 0.008424 -0.001931 0.000000 0.038199 0.000000
# 6 0.000000 0.000000 0.000000 0.000579 0.000000 0.033718
#
#
# Mechanical properties :
#
#
# Convention : Reuss Voigt Hill
#
# Bulk Modulus (GPa) = 89.27787 93.43386 91.35587
# Shear Modulus (GPa) = 22.97761 27.29284 25.13522
#
# Velocity S-wave (km/s) = 3.56772 3.88833 3.73147
# Velocity P-wave (km/s) = 8.15032 8.48040 8.31700
#
# Compressibility (1/GPa) = 0.01120098
#
# Stress axis : x y z
#
# Youngs Moduli (GPa) = 46.16498 36.68101 81.42001
#
# Poissons Ratio (x) = 0.54956 0.17504
# Poissons Ratio (y) = 0.69165 0.64079
# Poissons Ratio (z) = 0.09925 0.28869
#
# Static dielectric constant tensor:
#      x y z
#    x 1.584640 0.000000 -0.004440 
#    y 0.000000 1.602390 0.000000 
#    z -0.004440 0.000000 1.622560 
# 
# From -- ./inp_files/229288.got.cif
#   From: 2010.05.17/outbox.cif.g08.bks.cpg/sg12_115_cif.got.tgz:229288.got - 2010.06.03 13:09:07.
