data_PCOD9221607
_publ_section_title
;
Structure prediction by ZEFSAII (Michael W. Deem and Ramdas Pophale) SiO2 
 PCOD9221607
Probable space group: C 2/M
;
_chemical_formula_sum "Si O2"
_cell_formula_units_Z 64
_cell_length_a 9.312815
_cell_length_b 17.356673
_cell_length_c 30.074004
_cell_angle_alpha 90.000000
_cell_angle_beta 39.170594
_cell_angle_gamma 90.000000
_cell_volume 3070.453229
_symmetry_space_group_name_H-M "C 2/M"
_symmetry_group_IT_number 12
_symmetry_cell_setting 'monoclinic'
loop_
_space_group_symop_operation_xyz
x,y,z
-x,y,-z
-x,-y,-z
x,-y,z
1/2+x,1/2+y,z
1/2-x,1/2+y,-z
1/2-x,1/2-y,-z
1/2+x,1/2-y,z
loop_
_atom_site_type_symbol
_atom_site_label
_atom_site_fract_x
_atom_site_fract_y
_atom_site_fract_z
Si Si1 0.245094 0.590513 0.070622
Si Si2 0.626547 0.831678 0.780401
Si Si3 0.530554 0.331607 0.217827
Si Si4 0.257511 0.626816 0.423593
Si Si5 0.742235 0.809652 0.578840
Si Si6 0.359343 0.914477 0.642568
Si Si7 0.404225 0.090418 0.070074
Si Si8 0.218344 0.912774 0.346186
O O1 0.257382 0.500000 0.080490
O O2 0.102223 0.635962 0.141744
O O3 0.100913 0.595349 0.059870
O O4 0.500000 0.618436 0.000000
O O5 0.575296 0.749456 0.770835
O O6 0.814611 0.826113 0.774589
O O7 0.703479 0.886620 0.721575
O O8 0.322568 0.389257 0.277059
O O9 0.692347 0.362948 0.140109
O O10 0.300845 0.718551 0.409466
O O11 0.275572 0.589179 0.371142
O O12 0.444407 0.591871 0.410946
O O13 0.000000 0.614214 0.500000
O O14 0.559219 0.851580 0.591596
O O15 0.707464 0.851606 0.634416
O O16 0.000000 0.820809 0.500000
O O17 0.450186 0.000000 0.627993
O O18 0.341655 0.000000 0.080544
O O19 0.500000 0.117925 0.000000
O O20 0.291585 0.000000 0.338111
#
# Coordination Sequence:
#
# PCOD9221607 Si02
#       8
#     8   8   8   8   8   8   8   8
#     4   9  19  38  63  91 125 164 207 257 312 370
#     4  11  24  41  64  91 126 167 210 262 316 374
#     4  11  24  41  64  91 126 167 210 262 316 374
#     4  11  23  41  67  93 122 163 210 255 309 379
#     4  11  25  45  65  91 128 167 204 257 323 381
#     4  12  25  41  64  93 126 164 210 262 315 374
#     4   9  19  38  63  91 125 164 207 257 312 370
#     4  12  25  41  64  93 126 164 210 262 315 374
#
# _framework density 20.843827999999998
#
# number of rings (size 3 to 8) (size 9 to 14) (size 15 to 20)
#    0.000    1.250    1.250    4.500    1.750    7.500 
#    0.000    2.500    0.000    0.000    0.000    0.000 
#    0.000    0.000    0.000    0.000    0.000    0.000 
#
# Total GULP energy -178992.107268 kJ/mol
# GULP energy per Si atom -5593.503352 kJ/mol
# Density = 2.079639 g / cm^3
# Si number density = 20.843828 Si / 1000 Ang^3
#
#
#
# Elastic Constant Matrix: (Units=GPa)
#
#
# Indices 1 2 3 4 5 6 
#
# 1 32.1172 0.4926 -0.8444 -0.0019 5.2960 0.0307
# 2 0.4926 84.8126 29.9292 -0.0053 3.0305 0.0802
# 3 -0.8444 29.9292 88.2333 -0.1655 5.7118 1.4429
# 4 -0.0019 -0.0053 -0.1655 21.8056 -0.0067 -45.6907
# 5 5.2960 3.0305 5.7118 -0.0067 38.1376 0.0358
# 6 0.0307 0.0802 1.4429 -45.6907 0.0358 465.5362
#
#
#
# Elastic Compliance Matrix: (Units=1/GPa)
#
#
# Indices 1 2 3 4 5 6 
#
# 1 0.031902 -0.000267 0.000688 -0.000002 -0.004512 -0.000004
# 2 -0.000267 0.013402 -0.004526 -0.000008 -0.000350 0.000011
# 3 0.000688 -0.004526 0.012985 0.000018 -0.001681 -0.000038
# 4 -0.000002 -0.000008 0.000018 0.057733 0.000003 0.005666
# 5 -0.004512 -0.000350 -0.001681 0.000003 0.027127 0.000004
# 6 -0.000004 0.000011 -0.000038 0.005666 0.000004 0.002704
#
#
# Mechanical properties :
#
#
# Convention : Reuss Voigt Hill
#
# Bulk Modulus (GPa) = 19.96841 29.36864 24.66853
# Shear Modulus (GPa) = 29.28158 116.80158 73.04158
#
# Velocity S-wave (km/s) = 3.75214 7.49388 5.92608
# Velocity P-wave (km/s) = 5.32656 9.43388 7.66062
#
# Compressibility (1/GPa) = 0.05007910
#
# Stress axis : x y z
#
# Youngs Moduli (GPa) = 31.34580 74.61608 77.01256
#
# Poissons Ratio (x) = 0.01991 -0.05298
# Poissons Ratio (y) = 0.00836 0.34857
# Poissons Ratio (z) = -0.02157 0.33772
#
# Static dielectric constant tensor:
#      x y z
#    x 1.745350 0.000000 -0.002920 
#    y 0.000000 1.723880 0.000000 
#    z -0.002920 0.000000 1.740510 
# 
# From -- ./inp_files/372919.got.cif
#   From: 2010.05.17/outbox.cif.g08.bks.cpg/sg12_187_cif.got.tgz:372919.got - 2010.06.03 13:09:07.
