data_PCOD9221841
_publ_section_title
;
Structure prediction by ZEFSAII (Michael W. Deem and Ramdas Pophale) SiO2 
 PCOD9221841
Probable space group: C 2/M
;
_chemical_formula_sum "Si O2"
_cell_formula_units_Z 38
_cell_length_a 8.891859
_cell_length_b 29.593968
_cell_length_c 12.508451
_cell_angle_alpha 90.000000
_cell_angle_beta 33.337414
_cell_angle_gamma 90.000000
_cell_volume 1808.927312
_symmetry_space_group_name_H-M "C 2/M"
_symmetry_group_IT_number 12
_symmetry_cell_setting 'monoclinic'
loop_
_space_group_symop_operation_xyz
x,y,z
-x,y,-z
-x,-y,-z
x,-y,z
1/2+x,1/2+y,z
1/2-x,1/2+y,-z
1/2-x,1/2-y,-z
1/2+x,1/2-y,z
loop_
_atom_site_type_symbol
_atom_site_label
_atom_site_fract_x
_atom_site_fract_y
_atom_site_fract_z
Si Si1 0.333741 0.666062 0.707139
Si Si2 0.753493 0.948701 0.268987
Si Si3 0.500000 0.500000 0.500000
Si Si4 0.000000 0.128927 0.000000
Si Si5 0.712603 0.302186 0.050167
Si Si6 0.820691 0.935365 0.797854
O O1 0.500000 0.669971 0.500000
O O2 0.347671 0.616591 0.749866
O O3 0.018634 0.677837 0.873386
O O4 0.426550 0.697138 0.750520
O O5 0.500000 0.943325 0.500000
O O6 0.769468 0.907525 0.175446
O O7 0.021311 0.945264 0.185469
O O8 0.735288 0.000000 0.233446
O O9 0.454028 0.461857 0.620876
O O10 0.062938 0.163367 0.058911
O O11 0.750000 0.250000 0.000000
O O12 0.500000 0.946545 0.000000
#
# Coordination Sequence:
#
# PCOD9221841 Si02
#       6
#     8   8   2   4   8   8
#     4  11  23  44  72  98 136 179 228 289 349 413
#     4  11  26  44  62 101 144 180 229 285 346 420
#     4  12  26  36  74 102 134 184 246 288 328 420
#     4  12  23  42  74  94 136 192 219 282 364 422
#     4  11  25  46  70 103 136 175 233 296 355 425
#     4  12  23  45  68 101 136 184 238 286 340 408
#
# _framework density 21.006924000000001
#
# number of rings (size 3 to 8) (size 9 to 14) (size 15 to 20)
#    0.000    0.632    6.316    1.895    2.947    2.526 
#    0.000    2.105    0.000    0.000    0.000    0.000 
#    0.000    0.000    0.000    0.000    0.000    0.000 
#
# Total GULP energy -105856.849827 kJ/mol
# GULP energy per Si atom -5571.413149 kJ/mol
# Density = 2.095911 g / cm^3
# Si number density = 21.006924 Si / 1000 Ang^3
#
#
#
# Elastic Constant Matrix: (Units=GPa)
#
#
# Indices 1 2 3 4 5 6 
#
# 1 56.1138 8.6831 17.3480 0.0000 12.4069 0.0000
# 2 8.6831 174.2213 22.6619 0.0000 23.2734 0.0000
# 3 17.3480 22.6619 86.3309 0.0000 23.4889 0.0000
# 4 0.0000 0.0000 0.0000 25.2803 0.0000 34.5831
# 5 12.4069 23.2734 23.4889 0.0000 38.0413 0.0000
# 6 0.0000 0.0000 0.0000 34.5831 0.0000 22.4422
#
#
#
# Elastic Compliance Matrix: (Units=1/GPa)
#
#
# Indices 1 2 3 4 5 6 
#
# 1 0.019700 0.000003 -0.002657 0.000000 -0.004786 0.000000
# 2 0.000003 0.006288 -0.000726 0.000000 -0.003400 0.000000
# 3 -0.002657 -0.000726 0.014364 0.000000 -0.007558 0.000000
# 4 0.000000 0.000000 0.000000 -0.035699 0.000000 0.055012
# 5 -0.004786 -0.003400 -0.007558 0.000000 0.034595 0.000000
# 6 0.000000 0.000000 0.000000 0.055012 0.000000 -0.040214
#
#
# Mechanical properties :
#
#
# Convention : Reuss Voigt Hill
#
# Bulk Modulus (GPa) = 29.76896 46.00579 37.88737
# Shear Modulus (GPa) = 294.22801 35.01763 164.62282
#
# Velocity S-wave (km/s) = 11.84764 4.08727 8.86206
# Velocity P-wave (km/s) = 14.19003 6.64998 11.08105
#
# Compressibility (1/GPa) = 0.03359204
#
# Stress axis : x y z
#
# Youngs Moduli (GPa) = 50.76089 159.02568 69.61618
#
# Poissons Ratio (x) = -0.00050 0.18499
# Poissons Ratio (y) = -0.00016 0.05056
# Poissons Ratio (z) = 0.13489 0.11551
#
# Static dielectric constant tensor:
#      x y z
#    x 1.777770 0.000000 0.018860 
#    y 0.000000 1.774080 0.000000 
#    z 0.018860 0.000000 1.747140 
# 
# From -- ./inp_files/125043.got.cif
#   From: 2010.05.17/outbox.cif.g08.bks.cpg/sg12_63_cif.got.tgz:125043.got - 2010.06.03 13:09:07.
