data_PCOD9221868
_publ_section_title
;
Structure prediction by ZEFSAII (Michael W. Deem and Ramdas Pophale) SiO2 
 PCOD9221868
Probable space group: C 2/M
;
_chemical_formula_sum "Si O2"
_cell_formula_units_Z 64
_cell_length_a 16.928741
_cell_length_b 22.585530
_cell_length_c 20.090322
_cell_angle_alpha 90.000000
_cell_angle_beta 20.257492
_cell_angle_gamma 90.000000
_cell_volume 2659.614839
_symmetry_space_group_name_H-M "C 2/M"
_symmetry_group_IT_number 12
_symmetry_cell_setting 'monoclinic'
loop_
_space_group_symop_operation_xyz
x,y,z
-x,y,-z
-x,-y,-z
x,-y,z
1/2+x,1/2+y,z
1/2-x,1/2+y,-z
1/2-x,1/2-y,-z
1/2+x,1/2-y,z
loop_
_atom_site_type_symbol
_atom_site_label
_atom_site_fract_x
_atom_site_fract_y
_atom_site_fract_z
Si Si1 0.833652 0.930859 0.939423
Si Si2 0.416683 0.685023 0.496654
Si Si3 0.973372 0.630725 0.715323
Si Si4 0.656682 0.102721 0.435276
Si Si5 0.862513 0.235916 0.805765
Si Si6 0.936226 0.219520 0.215043
Si Si7 0.150255 0.566892 0.940764
Si Si8 0.161984 0.934062 0.481714
O O1 0.699674 0.912127 0.977397
O O2 0.109856 0.928323 0.723380
O O3 0.774195 0.000000 0.997772
O O4 0.742809 0.889354 0.070547
O O5 0.500000 0.710714 0.500000
O O6 0.583715 0.696597 0.301760
O O7 0.192647 0.721819 0.660187
O O8 0.347894 0.617247 0.564632
O O9 0.994436 0.701519 0.692912
O O10 0.981796 0.607961 0.634212
O O11 0.180378 0.597037 0.588002
O O12 0.500000 0.078238 0.500000
O O13 0.760596 0.167812 0.335462
O O14 0.934120 0.203459 0.818040
O O15 0.606568 0.259107 0.022466
O O16 0.054110 0.500000 0.024415
O O17 0.405629 0.561965 0.710860
O O18 0.000000 0.596051 0.000000
O O19 0.236370 0.000000 0.404991
#
# Coordination Sequence:
#
# PCOD9221868 Si02
#       8
#     8   8   8   8   8   8   8   8
#     4  11  25  45  72 106 148 199 250 306 375 450
#     4  12  26  44  67 106 149 186 236 303 371 447
#     4  12  23  44  75 107 144 192 252 308 375 446
#     4  12  26  45  73 107 147 197 250 314 380 438
#     4  11  24  43  75 103 137 190 244 309 378 446
#     4  11  23  45  72 104 140 187 250 305 378 441
#     4   9  20  42  71 101 140 192 248 303 361 436
#     4  11  24  45  73 103 147 200 244 296 368 451
#
# _framework density 24.063634
#
# number of rings (size 3 to 8) (size 9 to 14) (size 15 to 20)
#    0.000    0.875    5.000    1.875    0.000    3.000 
#    2.250    1.875    0.000    0.000    0.000    0.000 
#    0.000    0.000    0.000    0.000    0.000    0.000 
#
# Total GULP energy -178651.211001 kJ/mol
# GULP energy per Si atom -5582.850344 kJ/mol
# Density = 2.400886 g / cm^3
# Si number density = 24.063634 Si / 1000 Ang^3
#
#
#
# Elastic Constant Matrix: (Units=GPa)
#
#
# Indices 1 2 3 4 5 6 
#
# 1 110.1036 -9.9138 47.5197 1.3596 66.7022 0.0082
# 2 -9.9138 108.2418 21.0524 0.7789 52.3875 0.0699
# 3 47.5197 21.0524 95.1230 -0.3656 -9.3325 -0.0672
# 4 1.3596 0.7789 -0.3656 68.7533 -1.8602 -7.9375
# 5 66.7022 52.3875 -9.3325 -1.8602 -104.3785 -0.0826
# 6 0.0082 0.0699 -0.0672 -7.9375 -0.0826 18.9092
#
#
#
# Elastic Compliance Matrix: (Units=1/GPa)
#
#
# Indices 1 2 3 4 5 6 
#
# 1 0.007537 -0.000943 -0.003103 -0.000030 0.004622 -0.000003
# 2 -0.000943 0.007708 -0.000907 0.000016 0.003347 -0.000010
# 3 -0.003103 -0.000907 0.011920 0.000046 -0.003505 0.000051
# 4 -0.000030 0.000016 0.000046 0.015278 -0.000293 0.006412
# 5 0.004622 0.003347 -0.003505 -0.000293 -0.004628 -0.000170
# 6 -0.000003 -0.000010 0.000051 0.006412 -0.000170 0.055575
#
#
# Mechanical properties :
#
#
# Convention : Reuss Voigt Hill
#
# Bulk Modulus (GPa) = 57.93602 47.86501 52.90051
# Shear Modulus (GPa) = 45.85063 13.64413 29.74738
#
# Velocity S-wave (km/s) = 4.36981 2.38376 3.51977
# Velocity P-wave (km/s) = 7.04193 5.24506 6.20884
#
# Compressibility (1/GPa) = 0.01726042
#
# Stress axis : x y z
#
# Youngs Moduli (GPa) = 132.67111 129.72794 83.89199
#
# Poissons Ratio (x) = 0.12229 0.26036
# Poissons Ratio (y) = 0.12506 0.07606
# Poissons Ratio (z) = 0.41174 0.11762
#
# Static dielectric constant tensor:
#      x y z
#    x 1.984020 0.000070 -0.030550 
#    y 0.000070 1.983700 0.000140 
#    z -0.030550 0.000140 1.955040 
# 
# From -- ./inp_files/318330.got.cif
#   From: 2010.05.17/outbox.cif.g08.bks.cpg/sg12_160_cif.got.tgz:318330.got - 2010.06.03 13:09:07.
