data_PCOD9221569
_publ_section_title
;
Structure prediction by ZEFSAII (Michael W. Deem and Ramdas Pophale) SiO2 
 PCOD9221569
Probable space group: C 2/M
;
_chemical_formula_sum "Si O2"
_cell_formula_units_Z 40
_cell_length_a 14.614976
_cell_length_b 19.292449
_cell_length_c 22.068763
_cell_angle_alpha 90.000000
_cell_angle_beta 161.757443
_cell_angle_gamma 90.000000
_cell_volume 1947.887605
_symmetry_space_group_name_H-M "C 2/M"
_symmetry_group_IT_number 12
_symmetry_cell_setting 'monoclinic'
loop_
_space_group_symop_operation_xyz
x,y,z
-x,y,-z
-x,-y,-z
x,-y,z
1/2+x,1/2+y,z
1/2-x,1/2+y,-z
1/2-x,1/2-y,-z
1/2+x,1/2-y,z
loop_
_atom_site_type_symbol
_atom_site_label
_atom_site_fract_x
_atom_site_fract_y
_atom_site_fract_z
Si Si1 0.844947 0.580627 0.212299
Si Si2 0.652181 0.703786 0.285023
Si Si3 0.811354 0.420712 0.819382
Si Si4 0.320606 0.672032 0.563237
Si Si5 0.396244 0.142306 0.114444
O O1 0.901011 0.500000 0.259045
O O2 0.938865 0.601475 0.203450
O O3 0.027167 0.627457 0.372911
O O4 0.500000 0.593307 0.000000
O O5 0.563218 0.676850 0.295579
O O6 0.568676 0.784650 0.226197
O O7 0.000000 0.695092 0.500000
O O8 0.445171 0.662444 0.108673
O O9 0.703303 0.500000 0.745311
O O10 0.553464 0.365631 0.666854
O O11 0.992591 0.399797 0.873909
O O12 0.000000 0.417998 0.000000
O O13 0.250000 0.750000 0.500000
#
# Coordination Sequence:
#
# PCOD9221569 Si02
#       5
#     8   8   8   8   8
#     4  11  25  44  66  98 136 177 222 275 341 406
#     4  11  23  41  64  99 133 172 232 276 333 393
#     4  11  24  43  68  98 135 177 225 276 336 402
#     4  12  23  42  67  96 134 173 221 281 333 400
#     4  11  23  43  67  97 134 177 226 283 332 396
#
# _framework density 20.535066
#
# number of rings (size 3 to 8) (size 9 to 14) (size 15 to 20)
#    0.000    0.800    4.000    3.600    0.000    2.400 
#    0.000    2.000    0.000    4.800    0.000    0.000 
#    0.000    0.000    0.000    0.000    0.000    0.000 
#
# Total GULP energy -111854.087934 kJ/mol
# GULP energy per Si atom -5592.704397 kJ/mol
# Density = 2.048833 g / cm^3
# Si number density = 20.535066 Si / 1000 Ang^3
#
#
#
# Elastic Constant Matrix: (Units=GPa)
#
#
# Indices 1 2 3 4 5 6 
#
# 1 76.0836 18.0748 -3.7961 0.0206 -3.9276 -0.0078
# 2 18.0748 105.0596 35.7638 -0.0178 6.0962 0.0500
# 3 -3.7961 35.7638 72.0086 -0.1536 3.4411 0.0748
# 4 0.0206 -0.0178 -0.1536 27.9618 0.0450 -6.5441
# 5 -3.9276 6.0962 3.4411 0.0450 41.6311 0.0052
# 6 -0.0078 0.0500 0.0748 -6.5441 0.0052 14.8259
#
#
#
# Elastic Compliance Matrix: (Units=1/GPa)
#
#
# Indices 1 2 3 4 5 6 
#
# 1 0.014130 -0.003312 0.002312 -0.000001 0.001627 0.000006
# 2 -0.003312 0.012293 -0.006204 -0.000027 -0.001600 -0.000023
# 3 0.002312 -0.006204 0.017104 0.000082 -0.000287 -0.000028
# 4 -0.000001 -0.000027 0.000082 0.039884 -0.000048 0.017604
# 5 0.001627 -0.001600 -0.000287 -0.000048 0.024432 -0.000022
# 6 0.000006 -0.000023 -0.000028 0.017604 -0.000022 0.075220
#
#
# Mechanical properties :
#
#
# Convention : Reuss Voigt Hill
#
# Bulk Modulus (GPa) = 34.34159 39.24854 36.79506
# Shear Modulus (GPa) = 24.13402 30.42438 27.27920
#
# Velocity S-wave (km/s) = 3.43192 3.85331 3.64870
# Velocity P-wave (km/s) = 5.69770 6.24113 5.97560
#
# Compressibility (1/GPa) = 0.02911921
#
# Stress axis : x y z
#
# Youngs Moduli (GPa) = 70.77288 81.34760 58.46533
#
# Poissons Ratio (x) = 0.26946 -0.13519
# Poissons Ratio (y) = 0.23443 0.36270
# Poissons Ratio (z) = -0.16365 0.50465
#
# Static dielectric constant tensor:
#      x y z
#    x 1.721520 -0.000060 0.010790 
#    y -0.000060 1.692830 -0.000020 
#    z 0.010790 -0.000020 1.749760 
# 
# From -- ./inp_files/311797.got.cif
#   From: 2010.05.17/outbox.cif.g08.bks.cpg/sg12_156_cif.got.tgz:311797.got - 2010.06.03 13:09:07.
