data_PCOD9221307
_publ_section_title
;
Structure prediction by ZEFSAII (Michael W. Deem and Ramdas Pophale) SiO2 
 PCOD9221307
Probable space group: C 2/M
;
_chemical_formula_sum "Si O2"
_cell_formula_units_Z 40
_cell_length_a 14.022649
_cell_length_b 7.516800
_cell_length_c 20.594818
_cell_angle_alpha 90.000000
_cell_angle_beta 49.054355
_cell_angle_gamma 90.000000
_cell_volume 1639.678440
_symmetry_space_group_name_H-M "C 2/M"
_symmetry_group_IT_number 12
_symmetry_cell_setting 'monoclinic'
loop_
_space_group_symop_operation_xyz
x,y,z
-x,y,-z
-x,-y,-z
x,-y,z
1/2+x,1/2+y,z
1/2-x,1/2+y,-z
1/2-x,1/2-y,-z
1/2+x,1/2-y,z
loop_
_atom_site_type_symbol
_atom_site_label
_atom_site_fract_x
_atom_site_fract_y
_atom_site_fract_z
Si Si1 0.195325 0.207566 0.594404
Si Si2 0.982715 0.286676 0.111084
Si Si3 0.919835 0.781577 0.748129
Si Si4 0.202589 0.286908 0.931282
Si Si5 0.758192 0.287576 0.290377
O O1 0.250000 0.250000 0.500000
O O2 0.280151 0.246780 0.619241
O O3 0.059640 0.289317 0.673213
O O4 0.173503 0.000000 0.602923
O O5 0.996677 0.500000 0.111947
O O6 0.888948 0.260903 0.090852
O O7 0.897815 0.215612 0.208212
O O8 0.119661 0.214360 0.028360
O O9 0.838957 0.719137 0.846815
O O10 0.840062 0.728512 0.720004
O O11 0.919092 0.000000 0.751247
O O12 0.212229 0.500000 0.935002
O O13 0.765582 0.500000 0.281239
#
# Coordination Sequence:
#
# PCOD9221307 Si02
#       5
#     8   8   8   8   8
#     4  11  23  38  53  72  97 128 165 210 256 298
#     4   7  10  18  40  72 101 124 154 194 232 270
#     4   8  16  31  52  74 100 133 167 198 238 292
#     4   7   9  18  39  70 100 126 157 193 227 272
#     4   9  17  33  55  78 101 129 163 201 242 290
#
# _framework density 24.395025
#
# number of rings (size 3 to 8) (size 9 to 14) (size 15 to 20)
#    0.000    3.600    0.000    4.200    0.000    0.800 
#    0.000    7.000    0.000    0.000    0.000   12.600 
#    0.000    0.000    0.000    0.000    0.000    0.000 
#
# Total GULP energy -111605.891399 kJ/mol
# GULP energy per Si atom -5580.294570 kJ/mol
# Density = 2.433950 g / cm^3
# Si number density = 24.395025 Si / 1000 Ang^3
#
#
#
# Elastic Constant Matrix: (Units=GPa)
#
#
# Indices 1 2 3 4 5 6 
#
# 1 61.4573 0.3944 52.8077 0.0000 9.1327 0.0001
# 2 0.3944 66.3434 8.0510 0.0000 -3.0697 0.0002
# 3 52.8077 8.0510 122.8114 0.0000 38.1825 0.0000
# 4 0.0000 0.0000 0.0000 9.3708 0.0000 3.3084
# 5 9.1327 -3.0697 38.1825 0.0000 41.6153 0.0000
# 6 0.0001 0.0002 0.0000 3.3084 0.0000 8.5922
#
#
#
# Elastic Compliance Matrix: (Units=1/GPa)
#
#
# Indices 1 2 3 4 5 6 
#
# 1 0.027276 0.001866 -0.014036 0.000000 0.007030 0.000000
# 2 0.001866 0.015567 -0.002872 0.000000 0.003374 0.000000
# 3 -0.014036 -0.002872 0.018852 0.000000 -0.014429 0.000000
# 4 0.000000 0.000000 0.000000 0.123505 0.000000 -0.047555
# 5 0.007030 0.003374 -0.014429 0.000000 0.035974 0.000000
# 6 0.000000 0.000000 0.000000 -0.047555 0.000000 0.134696
#
#
# Mechanical properties :
#
#
# Convention : Reuss Voigt Hill
#
# Bulk Modulus (GPa) = 31.63472 41.45758 36.54615
# Shear Modulus (GPa) = 12.61067 24.53959 18.57513
#
# Velocity S-wave (km/s) = 2.27609 3.17507 2.76240
# Velocity P-wave (km/s) = 4.46131 5.52020 5.01876
#
# Compressibility (1/GPa) = 0.03161084
#
# Stress axis : x y z
#
# Youngs Moduli (GPa) = 36.66277 64.24005 53.04408
#
# Poissons Ratio (x) = -0.11990 0.74455
# Poissons Ratio (y) = -0.06843 0.15234
# Poissons Ratio (z) = 0.51461 0.18449
#
# Static dielectric constant tensor:
#      x y z
#    x 1.971560 0.000000 -0.108740 
#    y 0.000000 1.953920 0.000000 
#    z -0.108740 0.000000 1.801150 
# 
# From -- ./inp_files/250231.got.cif
#   From: 2010.05.17/outbox.cif.g08.bks.cpg/sg12_126_cif.got.tgz:250231.got - 2010.06.03 13:09:07.
