data_PCOD9221066
_publ_section_title
;
Structure prediction by ZEFSAII (Michael W. Deem and Ramdas Pophale) SiO2 
 PCOD9221066
Probable space group: C 2/M
;
_chemical_formula_sum "Si O2"
_cell_formula_units_Z 48
_cell_length_a 22.915795
_cell_length_b 17.529172
_cell_length_c 11.326851
_cell_angle_alpha 90.000000
_cell_angle_beta 30.440722
_cell_angle_gamma 90.000000
_cell_volume 2305.211071
_symmetry_space_group_name_H-M "C 2/M"
_symmetry_group_IT_number 12
_symmetry_cell_setting 'monoclinic'
loop_
_space_group_symop_operation_xyz
x,y,z
-x,y,-z
-x,-y,-z
x,-y,z
1/2+x,1/2+y,z
1/2-x,1/2+y,-z
1/2-x,1/2-y,-z
1/2+x,1/2-y,z
loop_
_atom_site_type_symbol
_atom_site_label
_atom_site_fract_x
_atom_site_fract_y
_atom_site_fract_z
Si Si1 0.136708 0.838993 0.778853
Si Si2 0.756401 0.816659 0.655793
Si Si3 0.553973 0.872276 0.526994
Si Si4 0.993596 0.196591 0.377331
Si Si5 0.542326 0.088035 0.055425
Si Si6 0.817435 0.911598 0.071725
O O1 0.198447 0.850290 0.546637
O O2 0.198498 0.764835 0.728062
O O3 0.159693 0.907340 0.828037
O O4 0.000000 0.825688 0.000000
O O5 0.867542 0.812904 0.542969
O O6 0.658466 0.868024 0.881774
O O7 0.500000 0.906570 0.500000
O O8 0.495183 0.788531 0.641219
O O9 0.535857 0.905812 0.690907
O O10 0.690966 0.877312 0.267540
O O11 0.000000 0.170197 0.500000
O O12 0.087410 0.146634 0.145350
O O13 0.567474 0.000000 0.991426
O O14 0.500000 0.118906 0.000000
O O15 0.825279 0.000000 0.017970
#
# Coordination Sequence:
#
# PCOD9221066 Si02
#       6
#     8   8   8   8   8   8
#     4  11  22  41  67 100 133 175 226 278 334 406
#     4  11  23  40  70  99 129 177 227 277 337 403
#     4  11  26  47  74  99 133 180 238 279 334 403
#     4  11  26  45  70  98 135 179 226 279 336 403
#     4  11  25  43  66  99 139 176 221 283 343 402
#     4  12  26  45  69 101 140 176 221 284 345 406
#
# _framework density 20.822389999999999
#
# number of rings (size 3 to 8) (size 9 to 14) (size 15 to 20)
#    0.000    0.833    3.333    3.000    4.667    6.000 
#    0.000    0.000    0.000    0.000    0.000    0.000 
#    0.000    0.000    0.000    0.000    0.000    0.000 
#
# Total GULP energy -133972.724220 kJ/mol
# GULP energy per Si atom -5582.196843 kJ/mol
# Density = 2.077500 g / cm^3
# Si number density = 20.822390 Si / 1000 Ang^3
#
#
#
# Elastic Constant Matrix: (Units=GPa)
#
#
# Indices 1 2 3 4 5 6 
#
# 1 139.2584 8.0983 44.6450 0.0000 -6.3993 0.0000
# 2 8.0983 77.3464 27.1177 0.0000 1.2335 0.0000
# 3 44.6450 27.1177 100.5627 0.0000 -23.3148 0.0000
# 4 0.0000 0.0000 0.0000 -11.9338 0.0000 12.4533
# 5 -6.3993 1.2335 -23.3148 0.0000 36.6140 0.0000
# 6 0.0000 0.0000 0.0000 12.4533 0.0000 4.3394
#
#
#
# Elastic Compliance Matrix: (Units=1/GPa)
#
#
# Indices 1 2 3 4 5 6 
#
# 1 0.008433 0.000605 -0.004188 0.000000 -0.001213 0.000000
# 2 0.000605 0.014701 -0.005072 0.000000 -0.003619 0.000000
# 3 -0.004188 -0.005072 0.015300 0.000000 0.009181 0.000000
# 4 0.000000 0.000000 0.000000 -0.020977 0.000000 0.060199
# 5 -0.001213 -0.003619 0.009181 0.000000 0.033068 0.000000
# 6 0.000000 0.000000 0.000000 0.060199 0.000000 0.057687
#
#
# Mechanical properties :
#
#
# Convention : Reuss Voigt Hill
#
# Bulk Modulus (GPa) = 47.34127 52.98771 50.16449
# Shear Modulus (GPa) = 37.71748 21.62435 29.67092
#
# Velocity S-wave (km/s) = 4.26066 3.22609 3.77895
# Velocity P-wave (km/s) = 6.85488 6.27532 6.57149
#
# Compressibility (1/GPa) = 0.02112322
#
# Stress axis : x y z
#
# Youngs Moduli (GPa) = 118.58696 68.02030 65.36070
#
# Poissons Ratio (x) = -0.04114 0.27374
# Poissons Ratio (y) = -0.07172 0.33151
# Poissons Ratio (z) = 0.49665 0.34500
#
# Static dielectric constant tensor:
#      x y z
#    x 1.772300 0.000000 0.022450 
#    y 0.000000 1.756210 0.000000 
#    z 0.022450 0.000000 1.709220 
# 
# From -- ./inp_files/177296.got.cif
#   From: 2010.05.17/outbox.cif.g08.bks.cpg/sg12_89_cif.got.tgz:177296.got - 2010.06.03 13:09:07.
