data_PCOD9221446
_publ_section_title
;
Structure prediction by ZEFSAII (Michael W. Deem and Ramdas Pophale) SiO2 
 PCOD9221446
Probable space group: C 2/M
;
_chemical_formula_sum "Si O2"
_cell_formula_units_Z 64
_cell_length_a 19.247031
_cell_length_b 18.961361
_cell_length_c 15.055961
_cell_angle_alpha 90.000000
_cell_angle_beta 37.905590
_cell_angle_gamma 90.000000
_cell_volume 3375.718383
_symmetry_space_group_name_H-M "C 2/M"
_symmetry_group_IT_number 12
_symmetry_cell_setting 'monoclinic'
loop_
_space_group_symop_operation_xyz
x,y,z
-x,y,-z
-x,-y,-z
x,-y,z
1/2+x,1/2+y,z
1/2-x,1/2+y,-z
1/2-x,1/2-y,-z
1/2+x,1/2-y,z
loop_
_atom_site_type_symbol
_atom_site_label
_atom_site_fract_x
_atom_site_fract_y
_atom_site_fract_z
Si Si1 0.489220 0.206430 0.407509
Si Si2 0.694654 0.828514 0.550990
Si Si3 0.495778 0.157594 0.111912
Si Si4 0.229110 0.681653 0.084903
Si Si5 0.538086 0.372546 0.366325
Si Si6 0.449082 0.318771 0.954916
Si Si7 0.919831 0.080616 0.310439
Si Si8 0.272676 0.916412 0.068162
O O1 0.500000 0.185995 0.500000
O O2 0.384970 0.176329 0.456095
O O3 0.601640 0.182711 0.244176
O O4 0.494251 0.292032 0.400057
O O5 0.750000 0.750000 0.500000
O O6 0.618062 0.851785 0.714125
O O7 0.797609 0.882724 0.438559
O O8 0.518958 0.239888 0.106220
O O9 0.500000 0.148907 0.000000
O O10 0.601554 0.111101 0.037561
O O11 0.250000 0.750000 0.000000
O O12 0.314097 0.681533 0.081843
O O13 0.252555 0.611880 0.004676
O O14 0.500000 0.399290 0.500000
O O15 0.481663 0.414633 0.343184
O O16 0.674087 0.378377 0.224228
O O17 0.504010 0.373690 0.832691
O O18 0.500000 0.330870 0.000000
O O19 0.910926 0.000000 0.291007
O O20 0.264306 0.000000 0.086319
#
# Coordination Sequence:
#
# PCOD9221446 Si02
#       8
#     8   8   8   8   8   8   8   8
#     4  11  23  39  70  99 124 164 218 272 322 373
#     4  12  23  43  66  93 131 171 215 267 318 385
#     4  11  24  42  68  97 127 172 220 264 320 388
#     4  12  20  42  68  93 127 168 215 269 316 381
#     4  11  23  41  66  99 131 166 214 268 329 392
#     4  11  23  40  71 100 125 163 219 277 324 380
#     4  12  26  43  64  94 134 175 211 269 335 389
#     4  12  25  41  65  96 134 175 215 265 328 390
#
# _framework density 18.958928
#
# number of rings (size 3 to 8) (size 9 to 14) (size 15 to 20)
#    0.000    0.500    7.500    0.375    3.500    2.000 
#    0.000    0.000    0.000    0.750    0.000    0.000 
#    0.000    0.000    0.000    0.000    0.000    0.000 
#
# Total GULP energy -178665.552007 kJ/mol
# GULP energy per Si atom -5583.298500 kJ/mol
# Density = 1.891578 g / cm^3
# Si number density = 18.958928 Si / 1000 Ang^3
#
#
#
# Elastic Constant Matrix: (Units=GPa)
#
#
# Indices 1 2 3 4 5 6 
#
# 1 94.5247 27.3706 32.4604 0.0000 -15.1677 0.0000
# 2 27.3706 62.8848 7.3203 0.0000 4.0382 0.0000
# 3 32.4604 7.3203 83.9985 0.0000 -8.7440 0.0000
# 4 0.0000 0.0000 0.0000 5.8043 0.0000 -11.3188
# 5 -15.1677 4.0382 -8.7440 0.0000 31.6324 0.0000
# 6 0.0000 0.0000 0.0000 -11.3188 0.0000 12.0224
#
#
#
# Elastic Compliance Matrix: (Units=1/GPa)
#
#
# Indices 1 2 3 4 5 6 
#
# 1 0.015120 -0.006487 -0.004568 0.000000 0.006815 0.000000
# 2 -0.006487 0.019044 0.000278 0.000000 -0.005465 0.000000
# 3 -0.004568 0.000278 0.013812 0.000000 0.001592 0.000000
# 4 0.000000 0.000000 0.000000 -0.206098 0.000000 -0.194036
# 5 0.006815 -0.005465 0.001592 0.000000 0.036019 0.000000
# 6 0.000000 0.000000 0.000000 -0.194036 0.000000 -0.099502
#
#
# Mechanical properties :
#
#
# Convention : Reuss Voigt Hill
#
# Bulk Modulus (GPa) = 37.84691 41.74562 39.79626
# Shear Modulus (GPa) = -26.14450 21.50893 -2.31778
#
# Velocity S-wave (km/s) = -3.71753 3.37189 -1.10688
# Velocity P-wave (km/s) = 1.25668 6.10134 4.40486
#
# Compressibility (1/GPa) = 0.02642224
#
# Stress axis : x y z
#
# Youngs Moduli (GPa) = 66.13797 52.50993 72.40200
#
# Poissons Ratio (x) = 0.34062 0.33074
# Poissons Ratio (y) = 0.42902 -0.02015
# Poissons Ratio (z) = 0.30213 -0.01461
#
# Static dielectric constant tensor:
#      x y z
#    x 1.671560 0.000000 0.052070 
#    y 0.000000 1.651410 0.000000 
#    z 0.052070 0.000000 1.572190 
# 
# From -- ./inp_files/226841.got.cif
#   From: 2010.05.17/outbox.cif.g08.bks.cpg/sg12_114_cif.got.tgz:226841.got - 2010.06.03 13:09:07.
