data_PCOD9221362
_publ_section_title
;
Structure prediction by ZEFSAII (Michael W. Deem and Ramdas Pophale) SiO2 
 PCOD9221362
Probable space group: C 2/M
;
_chemical_formula_sum "Si O2"
_cell_formula_units_Z 52
_cell_length_a 18.924372
_cell_length_b 12.480732
_cell_length_c 12.403619
_cell_angle_alpha 90.000000
_cell_angle_beta 110.268720
_cell_angle_gamma 90.000000
_cell_volume 2748.204178
_symmetry_space_group_name_H-M "C 2/M"
_symmetry_group_IT_number 12
_symmetry_cell_setting 'monoclinic'
loop_
_space_group_symop_operation_xyz
x,y,z
-x,y,-z
-x,-y,-z
x,-y,z
1/2+x,1/2+y,z
1/2-x,1/2+y,-z
1/2-x,1/2-y,-z
1/2+x,1/2-y,z
loop_
_atom_site_type_symbol
_atom_site_label
_atom_site_fract_x
_atom_site_fract_y
_atom_site_fract_z
Si Si1 0.563684 0.624303 0.324909
Si Si2 0.012813 0.708710 0.125069
Si Si3 0.850985 0.376203 0.076190
Si Si4 0.368961 0.124421 0.322502
Si Si5 0.730958 0.703773 0.373579
Si Si6 0.000000 0.764422 0.500000
Si Si7 0.321737 0.873771 0.824503
O O1 0.544521 0.500000 0.303456
O O2 0.519364 0.700496 0.218422
O O3 0.651464 0.643223 0.342508
O O4 0.543657 0.665264 0.434056
O O5 0.090275 0.642601 0.160728
O O6 0.940977 0.634619 0.107955
O O7 0.000000 0.758321 0.000000
O O8 0.827836 0.500000 0.066888
O O9 0.840026 0.332671 0.190763
O O10 0.815376 0.333560 0.945787
O O11 0.299535 0.132682 0.367656
O O12 0.438770 0.191559 0.405447
O O13 0.391360 0.000000 0.320564
O O14 0.750000 0.750000 0.500000
O O15 0.722119 0.800776 0.283345
O O16 0.303025 0.000000 0.808921
#
# Coordination Sequence:
#
# PCOD9221362 Si02
#       7
#     8   8   8   8   8   4   8
#     4  11  23  39  59  83 116 154 193 236 285 346
#     4   9  17  33  57  85 118 149 185 240 285 337
#     4   9  17  33  58  87 115 147 189 242 292 331
#     4  11  23  39  62  87 117 151 190 241 291 341
#     4  11  23  41  56  84 120 156 193 231 287 350
#     4  12  22  42  60  88 114 148 198 238 290 338
#     4   9  19  34  57  87 116 151 194 236 285 340
#
# _framework density 18.921448000000002
#
# number of rings (size 3 to 8) (size 9 to 14) (size 15 to 20)
#    0.000    1.846    3.077    1.385    0.000    4.000 
#    0.000    0.000    0.000    0.000    0.000    0.000 
#    0.000    0.000    0.000    0.000    0.000    0.000 
#
# Total GULP energy -144970.020194 kJ/mol
# GULP energy per Si atom -5575.770007 kJ/mol
# Density = 1.887838 g / cm^3
# Si number density = 18.921448 Si / 1000 Ang^3
#
#
#
# Elastic Constant Matrix: (Units=GPa)
#
#
# Indices 1 2 3 4 5 6 
#
# 1 53.9424 7.6455 16.5080 0.0000 -12.5568 0.0000
# 2 7.6455 69.3919 34.5353 0.0000 -2.2990 0.0000
# 3 16.5080 34.5353 133.4727 0.0000 -16.4207 0.0000
# 4 0.0000 0.0000 0.0000 21.9846 0.0000 -3.2043
# 5 -12.5568 -2.2990 -16.4207 0.0000 33.2014 0.0000
# 6 0.0000 0.0000 0.0000 -3.2043 0.0000 12.1757
#
#
#
# Elastic Compliance Matrix: (Units=1/GPa)
#
#
# Indices 1 2 3 4 5 6 
#
# 1 0.020800 -0.001390 -0.001338 0.000000 0.007108 0.000000
# 2 -0.001390 0.016667 -0.004327 0.000000 -0.001511 0.000000
# 3 -0.001338 -0.004327 0.009240 0.000000 0.003764 0.000000
# 4 0.000000 0.000000 0.000000 0.047301 0.000000 0.012448
# 5 0.007108 -0.001511 0.003764 0.000000 0.034565 0.000000
# 6 0.000000 0.000000 0.000000 0.012448 0.000000 0.085407
#
#
# Mechanical properties :
#
#
# Convention : Reuss Voigt Hill
#
# Bulk Modulus (GPa) = 30.67760 41.57608 36.12684
# Shear Modulus (GPa) = 20.92446 26.68023 23.80235
#
# Velocity S-wave (km/s) = 3.32905 3.75914 3.55062
# Velocity P-wave (km/s) = 5.57002 6.39236 5.99530
#
# Compressibility (1/GPa) = 0.03259708
#
# Stress axis : x y z
#
# Youngs Moduli (GPa) = 48.07798 59.99791 108.22186
#
# Poissons Ratio (x) = 0.08340 0.14484
# Poissons Ratio (y) = 0.06683 0.46823
# Poissons Ratio (z) = 0.06434 0.25959
#
# Static dielectric constant tensor:
#      x y z
#    x 1.659960 0.000000 -0.020730 
#    y 0.000000 1.625910 0.000000 
#    z -0.020730 0.000000 1.682070 
# 
# From -- ./inp_files/165092.got.cif
#   From: 2010.05.17/outbox.cif.g08.bks.cpg/sg12_83_cif.got.tgz:165092.got - 2010.06.03 13:09:07.
