data_PCOD9221468
_publ_section_title
;
Structure prediction by ZEFSAII (Michael W. Deem and Ramdas Pophale) SiO2 
 PCOD9221468
Probable space group: C 2/M
;
_chemical_formula_sum "Si O2"
_cell_formula_units_Z 40
_cell_length_a 22.277156
_cell_length_b 8.392844
_cell_length_c 27.365626
_cell_angle_alpha 90.000000
_cell_angle_beta 22.456669
_cell_angle_gamma 90.000000
_cell_volume 1954.430194
_symmetry_space_group_name_H-M "C 2/M"
_symmetry_group_IT_number 12
_symmetry_cell_setting 'monoclinic'
loop_
_space_group_symop_operation_xyz
x,y,z
-x,y,-z
-x,-y,-z
x,-y,z
1/2+x,1/2+y,z
1/2-x,1/2+y,-z
1/2-x,1/2-y,-z
1/2+x,1/2-y,z
loop_
_atom_site_type_symbol
_atom_site_label
_atom_site_fract_x
_atom_site_fract_y
_atom_site_fract_z
Si Si1 0.460991 0.315100 0.974933
Si Si2 0.792202 0.810834 0.913002
Si Si3 0.858361 0.307654 0.373816
Si Si4 0.716910 0.686760 0.294020
Si Si5 0.392168 0.685802 0.512440
O O1 0.417892 0.500000 0.013530
O O2 0.332784 0.240099 0.034977
O O3 0.500000 0.246973 0.000000
O O4 0.629893 0.291988 0.823333
O O5 0.964822 0.754607 0.765481
O O6 0.790438 0.000000 0.917264
O O7 0.750000 0.750000 0.000000
O O8 0.868458 0.500000 0.366812
O O9 0.750000 0.250000 0.500000
O O10 0.752809 0.247106 0.408015
O O11 0.750512 0.500000 0.256266
O O12 0.568967 0.750480 0.373774
O O13 0.656385 0.687230 0.394842
O O14 0.407382 0.500000 0.486418
#
# Coordination Sequence:
#
# PCOD9221468 Si02
#       5
#     8   8   8   8   8
#     4  11  25  42  61  92 132 169 211 270 327 383
#     4  12  26  46  71  98 130 176 226 278 336 402
#     4  11  23  40  62  94 133 174 216 267 324 388
#     4   9  17  35  62  89 116 156 206 256 310 378
#     4   8  17  34  59  88 119 155 201 253 309 374
#
# _framework density 20.466325000000001
#
# number of rings (size 3 to 8) (size 9 to 14) (size 15 to 20)
#    0.000    1.800    0.000    5.400    2.800    3.200 
#    0.000    4.000    0.000    0.000    0.000    0.000 
#    0.000    0.000    0.000    0.000    0.000    0.000 
#
# Total GULP energy -111440.312264 kJ/mol
# GULP energy per Si atom -5572.015613 kJ/mol
# Density = 2.041974 g / cm^3
# Si number density = 20.466325 Si / 1000 Ang^3
#
#
#
# Elastic Constant Matrix: (Units=GPa)
#
#
# Indices 1 2 3 4 5 6 
#
# 1 141.7081 47.6748 87.1850 -0.0009 -27.4218 0.0002
# 2 47.6748 78.3340 38.8498 -0.0005 -4.9011 0.0008
# 3 87.1850 38.8498 158.7613 -0.0022 -35.4036 -0.0001
# 4 -0.0009 -0.0005 -0.0022 32.4930 0.0026 2.3905
# 5 -27.4218 -4.9011 -35.4036 0.0026 39.4725 -0.0007
# 6 0.0002 0.0008 -0.0001 2.3905 -0.0007 18.0028
#
#
#
# Elastic Compliance Matrix: (Units=1/GPa)
#
#
# Indices 1 2 3 4 5 6 
#
# 1 0.012358 -0.004932 -0.004752 0.000000 0.003710 0.000000
# 2 -0.004932 0.016593 -0.002071 0.000000 -0.003223 -0.000001
# 3 -0.004752 -0.002071 0.010777 0.000000 0.006108 0.000000
# 4 0.000000 0.000000 0.000000 0.031079 -0.000002 -0.004127
# 5 0.003710 -0.003223 0.006108 -0.000002 0.032990 0.000002
# 6 0.000000 -0.000001 0.000000 -0.004127 0.000002 0.056095
#
#
# Mechanical properties :
#
#
# Convention : Reuss Voigt Hill
#
# Bulk Modulus (GPa) = 61.65935 80.69140 71.17537
# Shear Modulus (GPa) = 26.48201 31.66658 29.07430
#
# Velocity S-wave (km/s) = 3.60103 3.93778 3.77316
# Velocity P-wave (km/s) = 6.89075 7.75802 7.33721
#
# Compressibility (1/GPa) = 0.01621814
#
# Stress axis : x y z
#
# Youngs Moduli (GPa) = 80.92123 60.26689 92.78923
#
# Poissons Ratio (x) = 0.29724 0.44093
# Poissons Ratio (y) = 0.39911 0.19214
# Poissons Ratio (z) = 0.38454 0.12479
#
# Static dielectric constant tensor:
#      x y z
#    x 2.125470 -0.000020 0.268260 
#    y -0.000020 1.765630 -0.000010 
#    z 0.268260 -0.000010 1.953110 
# 
# From -- ./inp_files/381962.got.cif
#   From: 2010.05.17/outbox.cif.g08.bks.cpg/sg12_191_cif.got.tgz:381962.got - 2010.06.03 13:09:07.
