data_PCOD9221980
_publ_section_title
;
Structure prediction by ZEFSAII (Michael W. Deem and Ramdas Pophale) SiO2 
 PCOD9221980
Probable space group: C 2/M
;
_chemical_formula_sum "Si O2"
_cell_formula_units_Z 40
_cell_length_a 27.908353
_cell_length_b 8.999280
_cell_length_c 7.233934
_cell_angle_alpha 90.000000
_cell_angle_beta 78.579098
_cell_angle_gamma 90.000000
_cell_volume 1780.864063
_symmetry_space_group_name_H-M "C 2/M"
_symmetry_group_IT_number 12
_symmetry_cell_setting 'monoclinic'
loop_
_space_group_symop_operation_xyz
x,y,z
-x,y,-z
-x,-y,-z
x,-y,z
1/2+x,1/2+y,z
1/2-x,1/2+y,-z
1/2-x,1/2-y,-z
1/2+x,1/2-y,z
loop_
_atom_site_type_symbol
_atom_site_label
_atom_site_fract_x
_atom_site_fract_y
_atom_site_fract_z
Si Si1 0.332852 0.326161 0.397898
Si Si2 0.433638 0.173029 0.222873
Si Si3 0.363001 0.674066 0.779850
Si Si4 0.459032 0.827530 0.766453
Si Si5 0.209302 0.674958 0.903883
O O1 0.326632 0.500000 0.363696
O O2 0.387603 0.274366 0.302194
O O3 0.331270 0.303549 0.618972
O O4 0.295529 0.235481 0.299879
O O5 0.483747 0.210829 0.292790
O O6 0.421236 0.000000 0.271843
O O7 0.447137 0.181149 0.995473
O O8 0.360910 0.500000 0.831793
O O9 0.418626 0.724495 0.703874
O O10 0.340728 0.776467 0.956105
O O11 0.452711 0.000000 0.715156
O O12 0.215735 0.500000 0.897875
O O13 0.250000 0.750000 0.000000
#
# Coordination Sequence:
#
# PCOD9221980 Si02
#       5
#     8   8   8   8   8
#     4  11  24  41  63  94 130 165 205 253 307 368
#     4   9  18  34  58  89 125 167 212 255 303 360
#     4  11  24  41  63  94 130 165 205 253 307 368
#     4   9  18  34  58  89 125 167 212 255 303 360
#     4  12  26  46  71  94 121 158 202 255 313 371
#
# _framework density 22.461005
#
# number of rings (size 3 to 8) (size 9 to 14) (size 15 to 20)
#    0.000    1.600    2.000    4.200    0.000    5.600 
#    0.000    6.000    0.000    0.000    0.000    0.000 
#    0.000    0.000    0.000    0.000    0.000    0.000 
#
# Total GULP energy -111926.124917 kJ/mol
# GULP energy per Si atom -5596.306246 kJ/mol
# Density = 2.240988 g / cm^3
# Si number density = 22.461005 Si / 1000 Ang^3
#
#
#
# Elastic Constant Matrix: (Units=GPa)
#
#
# Indices 1 2 3 4 5 6 
#
# 1 101.5031 40.3916 13.2708 0.0000 33.1515 0.0000
# 2 40.3916 116.7043 39.6593 0.0000 32.4185 0.0000
# 3 13.2708 39.6593 65.4681 0.0000 18.6808 0.0000
# 4 0.0000 0.0000 0.0000 19.6942 0.0000 12.5308
# 5 33.1515 32.4185 18.6808 0.0000 42.2451 0.0000
# 6 0.0000 0.0000 0.0000 12.5308 0.0000 34.3044
#
#
#
# Elastic Compliance Matrix: (Units=1/GPa)
#
#
# Indices 1 2 3 4 5 6 
#
# 1 0.013803 -0.002665 0.001515 0.000000 -0.009456 0.000000
# 2 -0.002665 0.012919 -0.005784 0.000000 -0.005265 0.000000
# 3 0.001515 -0.005784 0.020077 0.000000 -0.005629 0.000000
# 4 0.000000 0.000000 0.000000 0.066151 0.000000 -0.024164
# 5 -0.009456 -0.005265 -0.005629 0.000000 0.037622 0.000000
# 6 0.000000 0.000000 0.000000 -0.024164 0.000000 0.037977
#
#
# Mechanical properties :
#
#
# Convention : Reuss Voigt Hill
#
# Bulk Modulus (GPa) = 30.36609 52.25766 41.31187
# Shear Modulus (GPa) = 23.43082 31.93899 27.68491
#
# Velocity S-wave (km/s) = 3.23333 3.77500 3.51462
# Velocity P-wave (km/s) = 5.24290 6.50517 5.90785
#
# Compressibility (1/GPa) = 0.03293147
#
# Stress axis : x y z
#
# Youngs Moduli (GPa) = 72.44840 77.40535 49.80775
#
# Poissons Ratio (x) = 0.20630 -0.07545
# Poissons Ratio (y) = 0.19309 0.28806
# Poissons Ratio (z) = -0.10975 0.44768
#
# Static dielectric constant tensor:
#      x y z
#    x 1.875440 0.000000 -0.012920 
#    y 0.000000 1.745380 0.000000 
#    z -0.012920 0.000000 1.902120 
# 
# From -- ./inp_files/107454.got.cif
#   From: 2010.05.17/outbox.cif.g08.bks.cpg/sg12_54_cif.got.tgz:107454.got - 2010.06.03 13:09:07.
