data_PCOD9221837
_publ_section_title
;
Structure prediction by ZEFSAII (Michael W. Deem and Ramdas Pophale) SiO2 
 PCOD9221837
Probable space group: C 2/M
;
_chemical_formula_sum "Si O2"
_cell_formula_units_Z 48
_cell_length_a 11.195817
_cell_length_b 20.055248
_cell_length_c 14.476513
_cell_angle_alpha 90.000000
_cell_angle_beta 138.966790
_cell_angle_gamma 90.000000
_cell_volume 2133.929756
_symmetry_space_group_name_H-M "C 2/M"
_symmetry_group_IT_number 12
_symmetry_cell_setting 'monoclinic'
loop_
_space_group_symop_operation_xyz
x,y,z
-x,y,-z
-x,-y,-z
x,-y,z
1/2+x,1/2+y,z
1/2-x,1/2+y,-z
1/2-x,1/2-y,-z
1/2+x,1/2-y,z
loop_
_atom_site_type_symbol
_atom_site_label
_atom_site_fract_x
_atom_site_fract_y
_atom_site_fract_z
Si Si1 0.890688 0.578816 0.032879
Si Si2 0.988227 0.681429 0.751224
Si Si3 0.613022 0.365907 0.473426
Si Si4 0.544106 0.673413 0.803333
Si Si5 0.727538 0.000000 0.526680
Si Si6 0.175275 0.858829 0.161492
Si Si7 0.709540 0.000000 0.736951
O O1 0.858779 0.500000 0.031478
O O2 0.707668 0.623314 0.922160
O O3 0.002069 0.616565 0.177468
O O4 0.000000 0.583972 0.000000
O O5 0.138704 0.674700 0.759742
O O6 0.784404 0.681357 0.595230
O O7 0.050457 0.749383 0.837073
O O8 0.500000 0.379430 0.500000
O O9 0.487369 0.331142 0.323720
O O10 0.686541 0.434506 0.470690
O O11 0.369172 0.648864 0.757444
O O12 0.757195 0.000000 0.655034
O O13 0.509614 0.000000 0.384903
O O14 0.209106 0.936310 0.165584
O O15 0.000000 0.835955 0.000000
#
# Coordination Sequence:
#
# PCOD9221837 Si02
#       7
#     8   8   8   8   4   8   4
#     4  11  27  49  75 107 148 194 248 304 359 430
#     4  12  28  48  74 109 148 192 244 300 367 434
#     4  12  27  48  73 105 147 195 248 300 363 435
#     4  12  28  48  74 109 148 192 244 300 367 434
#     4  11  23  44  72 104 139 197 236 304 364 429
#     4  12  26  43  76 105 143 189 238 298 362 440
#     4  11  23  46  70 104 149 181 238 304 362 434
#
# _framework density 22.493711999999999
#
# number of rings (size 3 to 8) (size 9 to 14) (size 15 to 20)
#    0.000    0.333    5.000    2.500    9.333    0.667 
#    0.000    0.000    0.000    0.000    0.000    0.000 
#    0.000    0.000    0.000    0.000    0.000    0.000 
#
# Total GULP energy -134248.761473 kJ/mol
# GULP energy per Si atom -5593.698395 kJ/mol
# Density = 2.244251 g / cm^3
# Si number density = 22.493712 Si / 1000 Ang^3
#
#
#
# Elastic Constant Matrix: (Units=GPa)
#
#
# Indices 1 2 3 4 5 6 
#
# 1 115.0712 14.9755 -8.1094 0.0000 1.5952 0.0000
# 2 14.9755 136.0758 -5.7378 0.0000 8.2395 0.0000
# 3 -8.1094 -5.7378 63.8914 -0.0001 -3.1038 -0.0001
# 4 0.0000 0.0000 -0.0001 13.3352 0.0000 -9.9522
# 5 1.5952 8.2395 -3.1038 0.0000 30.3845 0.0000
# 6 0.0000 0.0000 -0.0001 -9.9522 0.0000 7.1195
#
#
#
# Elastic Compliance Matrix: (Units=1/GPa)
#
#
# Indices 1 2 3 4 5 6 
#
# 1 0.008886 -0.000927 0.001039 -0.000001 -0.000109 -0.000002
# 2 -0.000927 0.007589 0.000469 0.000000 -0.001962 0.000000
# 3 0.001039 0.000469 0.015896 -0.000005 0.001442 -0.000007
# 4 -0.000001 0.000000 -0.000005 -1.733443 -0.000004 -2.423150
# 5 -0.000109 -0.001962 0.001442 -0.000004 0.033597 -0.000005
# 6 -0.000002 0.000000 -0.000007 -2.423150 -0.000005 -3.246820
#
#
# Mechanical properties :
#
#
# Convention : Reuss Voigt Hill
#
# Bulk Modulus (GPa) = 29.82279 35.25500 32.53890
# Shear Modulus (GPa) = -1.01952 31.09517 15.03783
#
# Velocity S-wave (km/s) = -0.67397 3.72209 2.58841
# Velocity P-wave (km/s) = 3.56110 5.84630 4.84049
#
# Compressibility (1/GPa) = 0.03353140
#
# Stress axis : x y z
#
# Youngs Moduli (GPa) = 112.54010 131.76195 62.91048
#
# Poissons Ratio (x) = 0.12221 -0.06538
# Poissons Ratio (y) = 0.10438 -0.02948
# Poissons Ratio (z) = -0.11696 -0.06174
#
# Static dielectric constant tensor:
#      x y z
#    x 1.813030 0.000000 -0.013220 
#    y 0.000000 1.872370 0.000000 
#    z -0.013220 0.000000 1.834470 
# 
# From -- ./inp_files/208036.got.cif
#   From: 2010.05.17/outbox.cif.g08.bks.cpg/sg12_105_cif.got.tgz:208036.got - 2010.06.03 13:09:07.
