data_PCOD9221183
_publ_section_title
;
Structure prediction by ZEFSAII (Michael W. Deem and Ramdas Pophale) SiO2 
 PCOD9221183
Probable space group: C 2/M
;
_chemical_formula_sum "Si O2"
_cell_formula_units_Z 48
_cell_length_a 13.570904
_cell_length_b 24.581437
_cell_length_c 9.892006
_cell_angle_alpha 90.000000
_cell_angle_beta 45.313031
_cell_angle_gamma 90.000000
_cell_volume 2346.093071
_symmetry_space_group_name_H-M "C 2/M"
_symmetry_group_IT_number 12
_symmetry_cell_setting 'monoclinic'
loop_
_space_group_symop_operation_xyz
x,y,z
-x,y,-z
-x,-y,-z
x,-y,z
1/2+x,1/2+y,z
1/2-x,1/2+y,-z
1/2-x,1/2-y,-z
1/2+x,1/2-y,z
loop_
_atom_site_type_symbol
_atom_site_label
_atom_site_fract_x
_atom_site_fract_y
_atom_site_fract_z
Si Si1 0.335135 0.801356 0.197877
Si Si2 0.661876 0.199809 0.346913
Si Si3 0.714289 0.111351 0.516385
Si Si4 0.529823 0.941596 0.130758
Si Si5 0.508492 0.564178 0.155253
Si Si6 0.751127 0.853259 0.989088
O O1 0.266587 0.744392 0.307064
O O2 0.309584 0.845904 0.338331
O O3 0.500000 0.797183 0.000000
O O4 0.246572 0.820173 0.152539
O O5 0.500000 0.216786 0.500000
O O6 0.673104 0.144548 0.422410
O O7 0.718760 0.186729 0.143238
O O8 0.611184 0.062643 0.650760
O O9 0.865561 0.086635 0.354216
O O10 0.621306 0.892900 0.094674
O O11 0.598760 0.000000 0.084087
O O12 0.500000 0.935419 0.000000
O O13 0.531680 0.500000 0.166176
O O14 0.500000 0.567909 0.000000
O O15 0.623478 0.606273 0.098262
#
# Coordination Sequence:
#
# PCOD9221183 Si02
#       6
#     8   8   8   8   8   8
#     4  12  26  46  71  98 136 180 225 276 339 402
#     4  12  26  42  69 102 132 180 229 276 337 400
#     4  12  23  46  67  99 136 173 226 279 331 398
#     4  11  22  43  72  99 133 177 219 277 342 403
#     4  11  26  45  68 101 139 181 221 271 340 401
#     4  12  23  46  67  99 136 173 226 279 331 398
#
# _framework density 20.459546
#
# number of rings (size 3 to 8) (size 9 to 14) (size 15 to 20)
#    0.000    0.333    6.667    2.000    4.667    0.000 
#    0.000    1.667    0.000    0.000    0.000    0.000 
#    0.000    0.000    0.000    0.000    0.000    0.000 
#
# Total GULP energy -134114.588685 kJ/mol
# GULP energy per Si atom -5588.107862 kJ/mol
# Density = 2.041298 g / cm^3
# Si number density = 20.459546 Si / 1000 Ang^3
#
#
#
# Elastic Constant Matrix: (Units=GPa)
#
#
# Indices 1 2 3 4 5 6 
#
# 1 56.3256 13.1875 19.2465 0.0000 -10.2478 0.0000
# 2 13.1875 74.7974 1.2379 0.0000 -16.8430 0.0000
# 3 19.2465 1.2379 71.0175 0.0000 -23.0321 0.0000
# 4 0.0000 0.0000 0.0000 34.6940 0.0000 -13.7787
# 5 -10.2478 -16.8430 -23.0321 0.0000 45.4860 0.0000
# 6 0.0000 0.0000 0.0000 -13.7787 0.0000 52.4544
#
#
#
# Elastic Compliance Matrix: (Units=1/GPa)
#
#
# Indices 1 2 3 4 5 6 
#
# 1 0.020467 -0.003363 -0.005260 0.000000 0.000702 0.000000
# 2 -0.003363 0.015331 0.002680 0.000000 0.006276 0.000000
# 3 -0.005260 0.002680 0.018423 0.000000 0.009136 0.000000
# 4 0.000000 0.000000 0.000000 0.032181 0.000000 0.008453
# 5 0.000702 0.006276 0.009136 0.000000 0.029093 0.000000
# 6 0.000000 0.000000 0.000000 0.008453 0.000000 0.021285
#
#
# Mechanical properties :
#
#
# Convention : Reuss Voigt Hill
#
# Bulk Modulus (GPa) = 23.62234 29.94271 26.78253
# Shear Modulus (GPa) = 30.71678 37.75813 34.23745
#
# Velocity S-wave (km/s) = 3.87892 4.30059 4.09519
# Velocity P-wave (km/s) = 5.62426 6.27112 5.95648
#
# Compressibility (1/GPa) = 0.04233280
#
# Stress axis : x y z
#
# Youngs Moduli (GPa) = 48.86023 65.22574 54.28074
#
# Poissons Ratio (x) = 0.21937 0.28553
# Poissons Ratio (y) = 0.16433 -0.14546
# Poissons Ratio (z) = 0.25702 -0.17479
#
# Static dielectric constant tensor:
#      x y z
#    x 1.709110 0.000000 -0.049450 
#    y 0.000000 1.592770 0.000000 
#    z -0.049450 0.000000 1.611620 
# 
# From -- ./inp_files/67350.got.cif
#   From: 2010.05.17/outbox.cif.g08.bks.cpg/sg12_34_cif.got.tgz:67350.got - 2010.06.03 13:09:07.
