data_PCOD9221054
_publ_section_title
;
Structure prediction by ZEFSAII (Michael W. Deem and Ramdas Pophale) SiO2 
 PCOD9221054
Probable space group: C 2/M
;
_chemical_formula_sum "Si O2"
_cell_formula_units_Z 56
_cell_length_a 18.536878
_cell_length_b 14.407526
_cell_length_c 20.356923
_cell_angle_alpha 90.000000
_cell_angle_beta 29.755344
_cell_angle_gamma 90.000000
_cell_volume 2698.237703
_symmetry_space_group_name_H-M "C 2/M"
_symmetry_group_IT_number 12
_symmetry_cell_setting 'monoclinic'
loop_
_space_group_symop_operation_xyz
x,y,z
-x,y,-z
-x,-y,-z
x,-y,z
1/2+x,1/2+y,z
1/2-x,1/2+y,-z
1/2-x,1/2-y,-z
1/2+x,1/2-y,z
loop_
_atom_site_type_symbol
_atom_site_label
_atom_site_fract_x
_atom_site_fract_y
_atom_site_fract_z
Si Si1 0.108523 0.284210 0.353753
Si Si2 0.646616 0.393884 0.010703
Si Si3 0.529099 0.606795 0.582976
Si Si4 0.939586 0.748249 0.113096
Si Si5 0.082321 0.895909 0.695954
Si Si6 0.533112 0.889699 0.280013
Si Si7 0.167883 0.300421 0.668386
O O1 0.279804 0.294820 0.232254
O O2 0.055466 0.343030 0.333069
O O3 0.000000 0.304290 0.500000
O O4 0.092129 0.175724 0.347661
O O5 0.635229 0.500000 0.996614
O O6 0.558539 0.327341 0.032581
O O7 0.564490 0.387814 0.145098
O O8 0.815875 0.370641 0.877877
O O9 0.511225 0.500000 0.578266
O O10 0.542286 0.612483 0.651484
O O11 0.679950 0.650656 0.439083
O O12 0.927072 0.690611 0.190475
O O13 0.000000 0.699042 0.000000
O O14 0.179618 0.809489 0.642488
O O15 0.143626 0.000000 0.658704
O O16 0.406391 0.846210 0.336280
O O17 0.511883 0.000000 0.302744
#
# Coordination Sequence:
#
# PCOD9221054 Si02
#       7
#     8   8   8   8   8   8   8
#     4  12  25  44  65  99 134 175 227 274 336 398
#     4   9  20  38  62  95 132 173 219 270 334 401
#     4  11  23  41  65  91 130 178 222 271 331 400
#     4  11  23  41  66  97 129 179 222 272 336 395
#     4   9  19  35  62  94 122 164 218 271 325 383
#     4  11  24  41  67 100 136 175 223 278 336 398
#     4  11  22  41  65  95 137 171 226 276 331 394
#
# _framework density 20.754287000000001
#
# number of rings (size 3 to 8) (size 9 to 14) (size 15 to 20)
#    0.000    1.429    4.286    0.857    0.000    4.857 
#    0.000    0.000    0.000    3.000    0.000    0.000 
#    0.000    0.000    0.000    0.000    0.000    0.000 
#
# Total GULP energy -156448.889158 kJ/mol
# GULP energy per Si atom -5587.460327 kJ/mol
# Density = 2.070705 g / cm^3
# Si number density = 20.754287 Si / 1000 Ang^3
#
#
#
# Elastic Constant Matrix: (Units=GPa)
#
#
# Indices 1 2 3 4 5 6 
#
# 1 76.6604 19.6437 13.2902 -0.0003 12.8993 0.0001
# 2 19.6437 85.1013 16.5608 -0.0010 4.9912 0.0004
# 3 13.2902 16.5608 60.9345 -0.0009 12.6180 0.0005
# 4 -0.0003 -0.0010 -0.0009 22.4947 0.0005 -0.4658
# 5 12.8993 4.9912 12.6180 0.0005 42.7404 -0.0002
# 6 0.0001 0.0004 0.0005 -0.4658 -0.0002 9.5185
#
#
#
# Elastic Compliance Matrix: (Units=1/GPa)
#
#
# Indices 1 2 3 4 5 6 
#
# 1 0.014671 -0.002848 -0.001680 0.000000 -0.003599 0.000000
# 2 -0.002848 0.012969 -0.002948 0.000000 0.000215 0.000000
# 3 -0.001680 -0.002948 0.018536 0.000001 -0.004621 -0.000001
# 4 0.000000 0.000000 0.000001 0.044500 -0.000001 0.002177
# 5 -0.003599 0.000215 -0.004621 -0.000001 0.025822 0.000001
# 6 0.000000 0.000000 -0.000001 0.002177 0.000001 0.105165
#
#
# Mechanical properties :
#
#
# Convention : Reuss Voigt Hill
#
# Bulk Modulus (GPa) = 32.02852 35.74284 33.88568
# Shear Modulus (GPa) = 20.24086 26.49748 23.36917
#
# Velocity S-wave (km/s) = 3.12631 3.57700 3.35922
# Velocity P-wave (km/s) = 5.33830 5.85826 5.60431
#
# Compressibility (1/GPa) = 0.03122217
#
# Stress axis : x y z
#
# Youngs Moduli (GPa) = 68.15986 77.10528 53.95007
#
# Poissons Ratio (x) = 0.21963 0.09066
# Poissons Ratio (y) = 0.19415 0.15905
# Poissons Ratio (z) = 0.11454 0.22732
#
# Static dielectric constant tensor:
#      x y z
#    x 1.754730 0.000000 0.033240 
#    y 0.000000 1.736010 0.000000 
#    z 0.033240 0.000000 1.751900 
# 
# From -- ./inp_files/316706.got.cif
#   From: 2010.05.17/outbox.cif.g08.bks.cpg/sg12_159_cif.got.tgz:316706.got - 2010.06.03 13:09:07.
