data_PCOD9221235
_publ_section_title
;
Structure prediction by ZEFSAII (Michael W. Deem and Ramdas Pophale) SiO2 
 PCOD9221235
Probable space group: C 2/M
;
_chemical_formula_sum "Si O2"
_cell_formula_units_Z 32
_cell_length_a 17.674097
_cell_length_b 14.848945
_cell_length_c 12.667788
_cell_angle_alpha 90.000000
_cell_angle_beta 157.426362
_cell_angle_gamma 90.000000
_cell_volume 1276.198908
_symmetry_space_group_name_H-M "C 2/M"
_symmetry_group_IT_number 12
_symmetry_cell_setting 'monoclinic'
loop_
_space_group_symop_operation_xyz
x,y,z
-x,y,-z
-x,-y,-z
x,-y,z
1/2+x,1/2+y,z
1/2-x,1/2+y,-z
1/2-x,1/2-y,-z
1/2+x,1/2-y,z
loop_
_atom_site_type_symbol
_atom_site_label
_atom_site_fract_x
_atom_site_fract_y
_atom_site_fract_z
Si Si1 0.238907 0.500000 0.925680
Si Si2 0.000000 0.830296 0.500000
Si Si3 0.512023 0.000000 0.857371
Si Si4 0.617190 0.500000 0.515823
Si Si5 0.259780 0.663288 0.809354
Si Si6 0.271506 0.654226 0.580691
O O1 0.147427 0.500000 0.925683
O O2 0.179910 0.588664 0.786224
O O3 0.478332 0.500000 0.235129
O O4 0.042434 0.901769 0.462723
O O5 0.184521 0.762094 0.748570
O O6 0.361922 0.915898 0.656880
O O7 0.664650 0.000000 0.151486
O O8 0.199821 0.652473 0.609639
O O9 0.493135 0.646462 0.110441
O O10 0.250000 0.750000 0.500000
#
# Coordination Sequence:
#
# PCOD9221235 Si02
#       6
#     4   4   4   4   8   8
#     4  12  25  46  78 109 147 187 249 313 359 430
#     4  11  22  47  74 102 148 181 258 299 354 436
#     4  12  23  48  76 106 148 195 245 299 367 432
#     4  11  26  44  71 113 145 191 245 302 369 422
#     4  11  26  46  73 110 143 194 244 303 374 427
#     4  11  26  45  71 105 152 191 240 299 368 450
#
# _framework density 25.074460999999999
#
# number of rings (size 3 to 8) (size 9 to 14) (size 15 to 20)
#    0.000    0.750    2.500    4.500    3.500    4.500 
#    0.000    1.250    0.000    4.500    0.000    0.000 
#    0.000    0.000    0.000    0.000    0.000    0.000 
#
# Total GULP energy -89371.001535 kJ/mol
# GULP energy per Si atom -5585.687596 kJ/mol
# Density = 2.501739 g / cm^3
# Si number density = 25.074461 Si / 1000 Ang^3
#
#
#
# Elastic Constant Matrix: (Units=GPa)
#
#
# Indices 1 2 3 4 5 6 
#
# 1 87.6255 48.6434 75.3567 0.0000 13.8879 0.0000
# 2 48.6434 213.4363 79.8338 0.0000 -10.4171 0.0000
# 3 75.3567 79.8338 208.0327 0.0000 -5.5068 0.0000
# 4 0.0000 0.0000 0.0000 -3.6353 0.0000 29.7405
# 5 13.8879 -10.4171 -5.5068 0.0000 52.7270 0.0000
# 6 0.0000 0.0000 0.0000 29.7405 0.0000 16.9453
#
#
#
# Elastic Compliance Matrix: (Units=1/GPa)
#
#
# Indices 1 2 3 4 5 6 
#
# 1 0.018937 -0.002320 -0.006130 0.000000 -0.006086 0.000000
# 2 -0.002320 0.005794 -0.001340 0.000000 0.001616 0.000000
# 3 -0.006130 -0.001340 0.007599 0.000000 0.002143 0.000000
# 4 0.000000 0.000000 0.000000 -0.017911 0.000000 0.031435
# 5 -0.006086 0.001616 0.002143 0.000000 0.021112 0.000000
# 6 0.000000 0.000000 0.000000 0.031435 0.000000 0.003842
#
#
# Mechanical properties :
#
#
# Convention : Reuss Voigt Hill
#
# Bulk Modulus (GPa) = 78.44217 101.86249 90.15233
# Shear Modulus (GPa) = 79.10901 33.55810 56.33355
#
# Velocity S-wave (km/s) = 5.62300 3.66230 4.74503
# Velocity P-wave (km/s) = 8.57374 7.65477 8.12725
#
# Compressibility (1/GPa) = 0.01274825
#
# Stress axis : x y z
#
# Youngs Moduli (GPa) = 52.80754 172.58675 131.60096
#
# Poissons Ratio (x) = 0.40037 0.80677
# Poissons Ratio (y) = 0.12250 0.17641
# Poissons Ratio (z) = 0.32373 0.23135
#
# Static dielectric constant tensor:
#      x y z
#    x 2.130280 0.000000 0.035750 
#    y 0.000000 1.910670 0.000000 
#    z 0.035750 0.000000 2.217650 
# 
# From -- ./inp_files/233943.got.cif
#   From: 2010.05.17/outbox.cif.g08.bks.cpg/sg12_117_cif.got.tgz:233943.got - 2010.06.03 13:09:07.
