data_PCOD9221533
_publ_section_title
;
Structure prediction by ZEFSAII (Michael W. Deem and Ramdas Pophale) SiO2 
 PCOD9221533
Probable space group: C 2/M
;
_chemical_formula_sum "Si O2"
_cell_formula_units_Z 44
_cell_length_a 7.753794
_cell_length_b 16.502554
_cell_length_c 16.598260
_cell_angle_alpha 90.000000
_cell_angle_beta 120.591312
_cell_angle_gamma 90.000000
_cell_volume 1828.268312
_symmetry_space_group_name_H-M "C 2/M"
_symmetry_group_IT_number 12
_symmetry_cell_setting 'monoclinic'
loop_
_space_group_symop_operation_xyz
x,y,z
-x,y,-z
-x,-y,-z
x,-y,z
1/2+x,1/2+y,z
1/2-x,1/2+y,-z
1/2-x,1/2-y,-z
1/2+x,1/2-y,z
loop_
_atom_site_type_symbol
_atom_site_label
_atom_site_fract_x
_atom_site_fract_y
_atom_site_fract_z
Si Si1 0.280993 0.675434 0.799803
Si Si2 0.195361 0.302735 0.598317
Si Si3 0.280648 0.000000 0.773611
Si Si4 0.492392 0.845894 0.880810
Si Si5 0.863159 0.094729 0.047389
Si Si6 0.416863 0.626020 0.397735
O O1 0.187579 0.672377 0.689448
O O2 0.361776 0.764748 0.843123
O O3 0.120589 0.648615 0.827805
O O4 0.479377 0.619414 0.846813
O O5 0.392101 0.339872 0.605648
O O6 0.000000 0.324807 0.500000
O O7 0.206260 0.205188 0.603373
O O8 0.365271 0.072327 0.853296
O O9 0.203709 0.069596 0.690601
O O10 0.669194 0.849360 0.989752
O O11 0.813739 0.000000 0.035427
O O12 0.000000 0.108469 0.000000
O O13 0.500000 0.588354 0.500000
#
# Coordination Sequence:
#
# PCOD9221533 Si02
#       6
#     8   8   4   8   8   8
#     4  11  23  40  69  95 131 174 220 265 322 392
#     4  11  23  42  70  96 129 170 223 269 318 387
#     4  12  25  40  70  92 136 170 217 270 334 382
#     4  11  23  42  69  96 130 175 220 262 326 391
#     4   9  19  39  64  98 130 167 214 269 324 384
#     4  11  24  44  68  95 130 173 220 268 325 389
#
# _framework density 24.066490999999999
#
# number of rings (size 3 to 8) (size 9 to 14) (size 15 to 20)
#    0.000    1.273    2.727    4.091    3.818    0.000 
#    1.636    0.455    0.000    2.182    0.000    0.000 
#    0.000    0.000    0.000    0.000    0.000    0.000 
#
# Total GULP energy -122767.718489 kJ/mol
# GULP energy per Si atom -5580.350840 kJ/mol
# Density = 2.401171 g / cm^3
# Si number density = 24.066491 Si / 1000 Ang^3
#
#
#
# Elastic Constant Matrix: (Units=GPa)
#
#
# Indices 1 2 3 4 5 6 
#
# 1 106.7252 18.2156 2.4591 0.0000 8.2683 0.0000
# 2 18.2156 55.2577 -4.5122 0.0000 16.7173 0.0000
# 3 2.4591 -4.5122 156.1844 0.0000 13.5659 0.0000
# 4 0.0000 0.0000 0.0000 46.5121 0.0000 3.0922
# 5 8.2683 16.7173 13.5659 0.0000 27.3489 0.0000
# 6 0.0000 0.0000 0.0000 3.0922 0.0000 -7.7130
#
#
#
# Elastic Compliance Matrix: (Units=1/GPa)
#
#
# Indices 1 2 3 4 5 6 
#
# 1 0.009965 -0.002953 -0.000143 0.000000 -0.001137 0.000000
# 2 -0.002953 0.023632 0.001992 0.000000 -0.014541 0.000000
# 3 -0.000143 0.001992 0.006860 0.000000 -0.004577 0.000000
# 4 0.000000 0.000000 0.000000 0.020942 0.000000 0.008396
# 5 -0.001137 -0.014541 -0.004577 0.000000 0.048067 0.000000
# 6 0.000000 0.000000 0.000000 0.008396 0.000000 -0.126285
#
#
# Mechanical properties :
#
#
# Convention : Reuss Voigt Hill
#
# Bulk Modulus (GPa) = 26.14432 38.94359 32.54396
# Shear Modulus (GPa) = -2687.17093 33.36325 -1326.90384
#
# Velocity S-wave (km/s) = -33.45123 3.72734 -23.50630
# Velocity P-wave (km/s) = 38.48497 5.89414 26.89194
#
# Compressibility (1/GPa) = 0.03824923
#
# Stress axis : x y z
#
# Youngs Moduli (GPa) = 100.34908 42.31513 145.77112
#
# Poissons Ratio (x) = 0.12495 0.02092
# Poissons Ratio (y) = 0.29632 -0.29041
# Poissons Ratio (z) = 0.01440 -0.08430
#
# Static dielectric constant tensor:
#      x y z
#    x 1.981150 0.000000 -0.026490 
#    y 0.000000 1.798400 0.000000 
#    z -0.026490 0.000000 1.952430 
# 
# From -- ./inp_files/257292.got.cif
#   From: 2010.05.17/outbox.cif.g08.bks.cpg/sg12_129_cif.got.tgz:257292.got - 2010.06.03 13:09:07.
