data_PCOD9221697
_publ_section_title
;
Structure prediction by ZEFSAII (Michael W. Deem and Ramdas Pophale) SiO2 
 PCOD9221697
Probable space group: C 2/M
;
_chemical_formula_sum "Si O2"
_cell_formula_units_Z 50
_cell_length_a 10.905226
_cell_length_b 26.369398
_cell_length_c 9.094520
_cell_angle_alpha 90.000000
_cell_angle_beta 108.752326
_cell_angle_gamma 90.000000
_cell_volume 2476.433201
_symmetry_space_group_name_H-M "C 2/M"
_symmetry_group_IT_number 12
_symmetry_cell_setting 'monoclinic'
loop_
_space_group_symop_operation_xyz
x,y,z
-x,y,-z
-x,-y,-z
x,-y,z
1/2+x,1/2+y,z
1/2-x,1/2+y,-z
1/2-x,1/2-y,-z
1/2+x,1/2-y,z
loop_
_atom_site_type_symbol
_atom_site_label
_atom_site_fract_x
_atom_site_fract_y
_atom_site_fract_z
Si Si1 0.000000 0.500000 0.000000
Si Si2 0.142707 0.683396 0.016183
Si Si3 0.249906 0.426377 0.078807
Si Si4 0.126626 0.141195 0.314550
Si Si5 0.000000 0.792038 0.500000
Si Si6 0.788321 0.733987 0.255127
Si Si7 0.656341 0.557197 0.551587
Si Si8 0.000000 0.080355 0.000000
O O1 0.885771 0.456256 0.989818
O O2 0.230217 0.633329 0.037271
O O3 0.194040 0.721748 0.160783
O O4 0.138775 0.715283 0.863804
O O5 0.000000 0.665937 0.000000
O O6 0.289312 0.432457 0.265316
O O7 0.371798 0.444601 0.025421
O O8 0.219289 0.184407 0.289548
O O9 0.192967 0.099892 0.447383
O O10 0.057826 0.112857 0.155526
O O11 0.023036 0.171504 0.371652
O O12 0.120579 0.757245 0.585936
O O13 0.500000 0.558030 0.500000
O O14 0.695541 0.500000 0.522198
#
# Coordination Sequence:
#
# PCOD9221697 Si02
#       8
#     2   8   8   8   4   8   8   4
#     4  12  28  50  72 106 140 196 234 280 362 444
#     4  11  23  42  69 100 143 188 232 294 360 425
#     4  12  24  48  75 104 143 185 239 292 361 426
#     4  12  23  42  67 104 141 178 240 295 353 411
#     4  12  24  42  61  98 147 194 232 288 348 438
#     4  11  25  39  65 104 139 191 238 288 353 422
#     4  11  23  43  70 102 131 181 232 299 354 425
#     4  12  24  43  73 110 136 175 242 317 332 408
#
# _framework density 20.190327
#
# number of rings (size 3 to 8) (size 9 to 14) (size 15 to 20)
#    0.000    0.480    5.600    3.360    3.360    1.600 
#    1.440    0.000    0.000    0.960    0.000    0.000 
#    0.000    0.000    0.000    0.000    0.000    0.000 
#
# Total GULP energy -139395.931427 kJ/mol
# GULP energy per Si atom -5575.837257 kJ/mol
# Density = 2.014437 g / cm^3
# Si number density = 20.190327 Si / 1000 Ang^3
#
#
#
# Elastic Constant Matrix: (Units=GPa)
#
#
# Indices 1 2 3 4 5 6 
#
# 1 119.1602 41.2426 36.9935 0.0000 -3.5615 0.0000
# 2 41.2426 136.1633 35.4392 0.0000 -0.8066 0.0000
# 3 36.9935 35.4392 85.6721 0.0000 -6.3557 0.0000
# 4 0.0000 0.0000 0.0000 -51.4310 0.0000 68.6791
# 5 -3.5615 -0.8066 -6.3557 0.0000 13.9574 0.0000
# 6 0.0000 0.0000 0.0000 68.6791 0.0000 -74.3299
#
#
#
# Elastic Compliance Matrix: (Units=1/GPa)
#
#
# Indices 1 2 3 4 5 6 
#
# 1 0.010252 -0.002203 -0.003448 0.000000 0.000919 0.000000
# 2 -0.002203 0.008720 -0.002753 0.000000 -0.001312 0.000000
# 3 -0.003448 -0.002753 0.014720 0.000000 0.005664 0.000000
# 4 0.000000 0.000000 0.000000 0.083148 0.000000 0.076826
# 5 0.000919 -0.001312 0.005664 0.000000 0.074384 0.000000
# 6 0.000000 0.000000 0.000000 0.076826 0.000000 0.057532
#
#
# Mechanical properties :
#
#
# Convention : Reuss Voigt Hill
#
# Bulk Modulus (GPa) = 59.22292 63.14959 61.18626
# Shear Modulus (GPa) = 18.43709 -7.20602 5.61554
#
# Velocity S-wave (km/s) = 3.02514 -1.89124 1.66953
# Velocity P-wave (km/s) = 6.44965 5.15519 5.83841
#
# Compressibility (1/GPa) = 0.01688535
#
# Stress axis : x y z
#
# Youngs Moduli (GPa) = 97.54023 114.67737 67.93335
#
# Poissons Ratio (x) = 0.25258 0.23421
# Poissons Ratio (y) = 0.21484 0.18705
# Poissons Ratio (z) = 0.33629 0.31576
#
# Static dielectric constant tensor:
#      x y z
#    x 1.733670 0.000000 -0.018170 
#    y 0.000000 1.460400 0.000000 
#    z -0.018170 0.000000 1.698360 
# 
# From -- ./inp_files/52736.got.cif
#   From: 2010.05.17/outbox.cif.g08.bks.cpg/sg12_27_cif.got.tgz:52736.got - 2010.06.03 13:09:07.
