data_PCOD9221766
_publ_section_title
;
Structure prediction by ZEFSAII (Michael W. Deem and Ramdas Pophale) SiO2 
 PCOD9221766
Probable space group: C 2/M
;
_chemical_formula_sum "Si O2"
_cell_formula_units_Z 48
_cell_length_a 8.647470
_cell_length_b 27.442095
_cell_length_c 9.434682
_cell_angle_alpha 90.000000
_cell_angle_beta 90.930364
_cell_angle_gamma 90.000000
_cell_volume 2238.599160
_symmetry_space_group_name_H-M "C 2/M"
_symmetry_group_IT_number 12
_symmetry_cell_setting 'monoclinic'
loop_
_space_group_symop_operation_xyz
x,y,z
-x,y,-z
-x,-y,-z
x,-y,z
1/2+x,1/2+y,z
1/2-x,1/2+y,-z
1/2-x,1/2-y,-z
1/2+x,1/2-y,z
loop_
_atom_site_type_symbol
_atom_site_label
_atom_site_fract_x
_atom_site_fract_y
_atom_site_fract_z
Si Si1 0.155983 0.872597 0.292749
Si Si2 0.653942 0.907661 0.434590
Si Si3 0.378513 0.555220 0.205061
Si Si4 0.974663 0.226983 0.335457
Si Si5 0.825891 0.612030 0.009064
Si Si6 0.354638 0.815205 0.759119
O O1 0.232462 0.890220 0.439254
O O2 0.014474 0.908246 0.251126
O O3 0.087489 0.818548 0.307194
O O4 0.277575 0.875909 0.166978
O O5 0.500000 0.930031 0.500000
O O6 0.748764 0.940366 0.326076
O O7 0.604959 0.859643 0.345212
O O8 0.432209 0.500000 0.191438
O O9 0.296766 0.575236 0.062330
O O10 0.802449 0.208838 0.302036
O O11 0.000000 0.240925 0.500000
O O12 0.017791 0.273463 0.242196
O O13 0.824574 0.660144 0.910201
O O14 0.000000 0.592121 0.000000
#
# Coordination Sequence:
#
# PCOD9221766 Si02
#       6
#     8   8   8   8   8   8
#     4  12  23  43  69  97 137 175 221 279 329 393
#     4  11  23  43  69 100 138 174 216 274 334 392
#     4  11  25  47  72  99 130 172 224 276 337 402
#     4  12  23  40  65 101 132 177 229 273 324 388
#     4  11  26  46  65  97 136 176 220 274 339 399
#     4  11  25  41  64  96 136 182 225 269 324 394
#
# _framework density 21.441980999999998
#
# number of rings (size 3 to 8) (size 9 to 14) (size 15 to 20)
#    0.000    0.667    5.000    4.000    4.667    4.000 
#    0.000    1.667    0.000    0.000    0.000    0.000 
#    0.000    0.000    0.000    0.000    0.000    0.000 
#
# Total GULP energy -134421.651424 kJ/mol
# GULP energy per Si atom -5600.902143 kJ/mol
# Density = 2.139318 g / cm^3
# Si number density = 21.441981 Si / 1000 Ang^3
#
#
#
# Elastic Constant Matrix: (Units=GPa)
#
#
# Indices 1 2 3 4 5 6 
#
# 1 65.3649 -8.0681 -1.1013 0.0000 2.9044 0.0000
# 2 -8.0681 90.2052 10.2806 0.0000 2.7387 0.0000
# 3 -1.1013 10.2806 75.1710 0.0000 -2.3623 0.0000
# 4 0.0000 0.0000 0.0000 -2.3837 0.0000 -2.1942
# 5 2.9044 2.7387 -2.3623 0.0000 40.1758 0.0000
# 6 0.0000 0.0000 0.0000 -2.1942 0.0000 11.0199
#
#
#
# Elastic Compliance Matrix: (Units=1/GPa)
#
#
# Indices 1 2 3 4 5 6 
#
# 1 0.015529 0.001427 -0.000006 0.000000 -0.001220 0.000000
# 2 0.001427 0.011422 -0.001572 0.000000 -0.000974 0.000000
# 3 -0.000006 -0.001572 0.013546 0.000000 0.000904 0.000000
# 4 0.000000 0.000000 0.000000 -0.354534 0.000000 -0.070592
# 5 -0.001220 -0.000974 0.000904 0.000000 0.025098 0.000000
# 6 0.000000 0.000000 0.000000 -0.070592 0.000000 0.076689
#
#
# Mechanical properties :
#
#
# Convention : Reuss Voigt Hill
#
# Bulk Modulus (GPa) = 24.87863 25.88483 25.38173
# Shear Modulus (GPa) = -25.18280 25.07107 -0.05586
#
# Velocity S-wave (km/s) = -3.43076 3.42314 -0.16159
# Velocity P-wave (km/s) = 2.01632 5.26518 3.43923
#
# Compressibility (1/GPa) = 0.04019514
#
# Stress axis : x y z
#
# Youngs Moduli (GPa) = 64.39585 87.54917 73.82092
#
# Poissons Ratio (x) = -0.12490 0.00044
# Poissons Ratio (y) = -0.09187 0.11603
# Poissons Ratio (z) = 0.00038 0.13761
#
# Static dielectric constant tensor:
#      x y z
#    x 1.789040 0.000000 -0.016710 
#    y 0.000000 1.730800 0.000000 
#    z -0.016710 0.000000 1.753340 
# 
# From -- ./inp_files/42247.got.cif
#   From: 2010.05.17/outbox.cif.g08.bks.cpg/sg12_22_cif.got.tgz:42247.got - 2010.06.03 13:09:07.
