data_PCOD9221092
_publ_section_title
;
Structure prediction by ZEFSAII (Michael W. Deem and Ramdas Pophale) SiO2 
 PCOD9221092
Probable space group: C 2/M
;
_chemical_formula_sum "Si O2"
_cell_formula_units_Z 44
_cell_length_a 19.676564
_cell_length_b 18.636487
_cell_length_c 8.515527
_cell_angle_alpha 90.000000
_cell_angle_beta 39.310418
_cell_angle_gamma 90.000000
_cell_volume 1978.273113
_symmetry_space_group_name_H-M "C 2/M"
_symmetry_group_IT_number 12
_symmetry_cell_setting 'monoclinic'
loop_
_space_group_symop_operation_xyz
x,y,z
-x,y,-z
-x,-y,-z
x,-y,z
1/2+x,1/2+y,z
1/2-x,1/2+y,-z
1/2-x,1/2-y,-z
1/2+x,1/2-y,z
loop_
_atom_site_type_symbol
_atom_site_label
_atom_site_fract_x
_atom_site_fract_y
_atom_site_fract_z
Si Si1 0.756344 0.734401 0.244451
Si Si2 0.535245 0.146360 0.102893
Si Si3 0.840005 0.500000 0.153669
Si Si4 0.213875 0.500000 0.096620
Si Si5 0.694725 0.500000 0.712767
Si Si6 0.385147 0.152087 0.638817
Si Si7 0.876027 0.157404 0.259948
O O1 0.697273 0.783138 0.221861
O O2 0.801449 0.794269 0.282752
O O3 0.670908 0.680857 0.484125
O O4 0.864367 0.691384 0.006871
O O5 0.423520 0.139043 0.392194
O O6 0.500000 0.177327 0.000000
O O7 0.586080 0.068928 0.992853
O O8 0.792977 0.500000 0.413102
O O9 0.760571 0.500000 0.139447
O O10 0.285083 0.500000 0.132924
O O11 0.151448 0.575642 0.228088
O O12 0.638720 0.574233 0.761252
O O13 0.500000 0.174306 0.500000
O O14 0.000000 0.172564 0.000000
#
# Coordination Sequence:
#
# PCOD9221092 Si02
#       7
#     8   8   4   4   4   8   8
#     4  11  23  41  63 101 139 172 232 280 337 424
#     4  12  23  41  67  97 134 177 224 286 344 403
#     4  12  24  44  69 104 136 181 230 293 342 402
#     4  12  24  48  69 101 143 174 232 299 333 410
#     4  12  23  45  74  99 133 187 235 273 347 406
#     4  12  24  42  66  96 134 180 221 281 353 397
#     4  11  22  41  69  99 134 180 228 283 337 406
#
# _framework density 22.241622
#
# number of rings (size 3 to 8) (size 9 to 14) (size 15 to 20)
#    0.000    0.364    5.455    6.273    0.000    0.727 
#    0.000    0.000    0.000    1.091    0.000    0.000 
#    0.000    0.000    0.000    0.000    0.000    0.000 
#
# Total GULP energy -122662.340619 kJ/mol
# GULP energy per Si atom -5575.560937 kJ/mol
# Density = 2.219100 g / cm^3
# Si number density = 22.241622 Si / 1000 Ang^3
#
#
#
# Elastic Constant Matrix: (Units=GPa)
#
#
# Indices 1 2 3 4 5 6 
#
# 1 114.0290 53.9746 19.1529 0.0000 -12.2709 0.0000
# 2 53.9746 169.7850 26.4467 0.0000 -24.1123 0.0000
# 3 19.1529 26.4467 78.6645 0.0000 -12.0961 0.0000
# 4 0.0000 0.0000 0.0000 30.6203 0.0000 16.4027
# 5 -12.2709 -24.1123 -12.0961 0.0000 30.8222 0.0000
# 6 0.0000 0.0000 0.0000 16.4027 0.0000 70.2967
#
#
#
# Elastic Compliance Matrix: (Units=1/GPa)
#
#
# Indices 1 2 3 4 5 6 
#
# 1 0.010539 -0.002945 -0.001368 0.000000 0.001355 0.000000
# 2 -0.002945 0.007625 -0.001181 0.000000 0.004329 0.000000
# 3 -0.001368 -0.001181 0.014065 0.000000 0.004052 0.000000
# 4 0.000000 0.000000 0.000000 0.037323 0.000000 -0.008709
# 5 0.001355 0.004329 0.004052 0.000000 0.037960 0.000000
# 6 0.000000 0.000000 0.000000 -0.008709 0.000000 0.016257
#
#
# Mechanical properties :
#
#
# Convention : Reuss Voigt Hill
#
# Bulk Modulus (GPa) = 47.07501 62.40297 54.73899
# Shear Modulus (GPa) = 35.25160 43.87477 39.56319
#
# Velocity S-wave (km/s) = 3.98545 4.44626 4.22215
# Velocity P-wave (km/s) = 6.51073 7.38084 6.95940
#
# Compressibility (1/GPa) = 0.02124269
#
# Stress axis : x y z
#
# Youngs Moduli (GPa) = 94.88383 131.15276 71.09768
#
# Poissons Ratio (x) = 0.38623 0.09723
# Poissons Ratio (y) = 0.27942 0.08395
# Poissons Ratio (z) = 0.12976 0.15485
#
# Static dielectric constant tensor:
#      x y z
#    x 1.972780 0.000000 0.139450 
#    y 0.000000 1.820480 0.000000 
#    z 0.139450 0.000000 1.933340 
# 
# From -- ./inp_files/75726.got.cif
#   From: 2010.05.17/outbox.cif.g08.bks.cpg/sg12_38_cif.got.tgz:75726.got - 2010.06.03 13:09:07.
