data_PCOD9221520
_publ_section_title
;
Structure prediction by ZEFSAII (Michael W. Deem and Ramdas Pophale) SiO2 
 PCOD9221520
Probable space group: C 2/M
;
_chemical_formula_sum "Si O2"
_cell_formula_units_Z 36
_cell_length_a 17.184266
_cell_length_b 14.454155
_cell_length_c 17.235890
_cell_angle_alpha 90.000000
_cell_angle_beta 156.157380
_cell_angle_gamma 90.000000
_cell_volume 1730.539123
_symmetry_space_group_name_H-M "C 2/M"
_symmetry_group_IT_number 12
_symmetry_cell_setting 'monoclinic'
loop_
_space_group_symop_operation_xyz
x,y,z
-x,y,-z
-x,-y,-z
x,-y,z
1/2+x,1/2+y,z
1/2-x,1/2+y,-z
1/2-x,1/2-y,-z
1/2+x,1/2-y,z
loop_
_atom_site_type_symbol
_atom_site_label
_atom_site_fract_x
_atom_site_fract_y
_atom_site_fract_z
Si Si1 0.525147 0.000000 0.755121
Si Si2 0.707067 0.500000 0.583855
Si Si3 0.420666 0.201674 0.604919
Si Si4 0.708337 0.802719 0.092282
Si Si5 0.234362 0.299008 0.298994
Si Si6 0.166574 0.000000 0.850234
O O1 0.452856 0.093508 0.648866
O O2 0.417863 0.000000 0.739846
O O3 0.750505 0.000000 0.986174
O O4 0.691426 0.403798 0.616033
O O5 0.559877 0.500000 0.376898
O O6 0.250000 0.250000 0.500000
O O7 0.630741 0.247115 0.808395
O O8 0.360709 0.227946 0.462933
O O9 0.730900 0.783228 0.204368
O O10 0.755843 0.909035 0.120611
O O11 0.484581 0.788356 0.869635
#
# Coordination Sequence:
#
# PCOD9221520 Si02
#       6
#     4   4   8   8   8   4
#     4  12  26  42  60  98 134 170 211 262 326 387
#     4  12  21  39  63 101 128 164 210 271 329 379
#     4  12  24  43  65  92 133 174 217 262 320 395
#     4  11  23  40  67  96 131 170 213 274 323 385
#     4  11  23  41  65  98 130 169 219 266 329 381
#     4  12  21  37  65  97 130 166 205 272 331 379
#
# _framework density 20.802765000000001
#
# number of rings (size 3 to 8) (size 9 to 14) (size 15 to 20)
#    0.000    0.444    6.667    1.333    0.000    8.000 
#    0.000    2.222    0.000    2.667    0.000    0.000 
#    0.000    0.000    0.000    0.000    0.000    0.000 
#
# Total GULP energy -100569.226542 kJ/mol
# GULP energy per Si atom -5587.179252 kJ/mol
# Density = 2.075542 g / cm^3
# Si number density = 20.802765 Si / 1000 Ang^3
#
#
#
# Elastic Constant Matrix: (Units=GPa)
#
#
# Indices 1 2 3 4 5 6 
#
# 1 49.8333 48.1682 31.6279 0.0128 6.7103 0.0041
# 2 48.1682 114.3573 65.6041 0.0429 6.8458 0.0352
# 3 31.6279 65.6041 152.8442 0.0605 6.1951 0.0391
# 4 0.0128 0.0429 0.0605 16.6160 0.0213 -21.8901
# 5 6.7103 6.8458 6.1951 0.0213 49.1667 0.0102
# 6 0.0041 0.0352 0.0391 -21.8901 0.0102 3.7903
#
#
#
# Elastic Compliance Matrix: (Units=1/GPa)
#
#
# Indices 1 2 3 4 5 6 
#
# 1 0.034343 -0.013654 -0.001139 -0.000024 -0.002643 -0.000031
# 2 -0.013654 0.017078 -0.004507 0.000022 0.000053 0.000030
# 3 -0.001139 -0.004507 0.008726 0.000012 -0.000316 0.000023
# 4 -0.000024 0.000022 0.000012 -0.009107 0.000014 -0.052595
# 5 -0.002643 0.000053 -0.000316 0.000014 0.020732 0.000028
# 6 -0.000031 0.000030 0.000023 -0.052595 0.000028 -0.039923
#
#
# Mechanical properties :
#
#
# Convention : Reuss Voigt Hill
#
# Bulk Modulus (GPa) = 46.41010 67.53723 56.97367
# Shear Modulus (GPa) = 64.40670 25.35690 44.88180
#
# Velocity S-wave (km/s) = 5.57027 3.49509 4.64992
# Velocity P-wave (km/s) = 7.98301 6.98738 7.50173
#
# Compressibility (1/GPa) = 0.02154703
#
# Stress axis : x y z
#
# Youngs Moduli (GPa) = 29.11760 58.55434 114.60509
#
# Poissons Ratio (x) = 0.79951 0.13052
# Poissons Ratio (y) = 0.39758 0.51653
# Poissons Ratio (z) = 0.03316 0.26391
#
# Static dielectric constant tensor:
#      x y z
#    x 1.759310 0.000000 0.016450 
#    y 0.000000 1.715850 0.000000 
#    z 0.016450 0.000000 1.818890 
# 
# From -- ./inp_files/321484.got.cif
#   From: 2010.05.17/outbox.cif.g08.bks.cpg/sg12_161_cif.got.tgz:321484.got - 2010.06.03 13:09:07.
