data_PCOD9221102
_publ_section_title
;
Structure prediction by ZEFSAII (Michael W. Deem and Ramdas Pophale) SiO2 
 PCOD9221102
Probable space group: C 2/M
;
_chemical_formula_sum "Si O2"
_cell_formula_units_Z 40
_cell_length_a 11.614830
_cell_length_b 14.998772
_cell_length_c 20.761104
_cell_angle_alpha 90.000000
_cell_angle_beta 151.494357
_cell_angle_gamma 90.000000
_cell_volume 1726.079027
_symmetry_space_group_name_H-M "C 2/M"
_symmetry_group_IT_number 12
_symmetry_cell_setting 'monoclinic'
loop_
_space_group_symop_operation_xyz
x,y,z
-x,y,-z
-x,-y,-z
x,-y,z
1/2+x,1/2+y,z
1/2-x,1/2+y,-z
1/2-x,1/2-y,-z
1/2+x,1/2-y,z
loop_
_atom_site_type_symbol
_atom_site_label
_atom_site_fract_x
_atom_site_fract_y
_atom_site_fract_z
Si Si1 0.529337 0.725415 0.637349
Si Si2 0.221749 0.103273 0.847436
Si Si3 0.703852 0.644434 0.979914
Si Si4 0.287698 0.102585 0.220902
Si Si5 0.353695 0.100370 0.721312
O O1 0.250000 0.750000 0.500000
O O2 0.602649 0.669410 0.737595
O O3 0.657945 0.820753 0.701207
O O4 0.638661 0.666588 0.633363
O O5 0.115986 0.111292 0.867228
O O6 0.208142 0.000000 0.819449
O O7 0.500000 0.128177 0.000000
O O8 0.498505 0.615545 0.929157
O O9 0.750000 0.750000 0.000000
O O10 0.958186 0.603274 0.126406
O O11 0.471853 0.123307 0.252860
O O12 0.331440 0.000000 0.260313
O O13 0.264294 0.000000 0.668776
#
# Coordination Sequence:
#
# PCOD9221102 Si02
#       5
#     8   8   8   8   8
#     4  12  27  46  70 102 147 197 250 300 369 447
#     4  11  22  41  73 109 145 187 247 313 372 436
#     4  12  21  40  73 110 151 186 234 303 377 442
#     4  11  25  44  68 103 144 190 241 301 367 439
#     4  11  23  44  74 107 144 188 243 304 368 438
#
# _framework density 23.173911
#
# number of rings (size 3 to 8) (size 9 to 14) (size 15 to 20)
#    0.000    0.600    4.000    4.200    0.000    4.000 
#    0.000    2.000    0.000    2.400    0.000    0.000 
#    0.000    0.000    0.000    0.000    0.000    0.000 
#
# Total GULP energy -111868.315468 kJ/mol
# GULP energy per Si atom -5593.415773 kJ/mol
# Density = 2.312117 g / cm^3
# Si number density = 23.173911 Si / 1000 Ang^3
#
#
#
# Elastic Constant Matrix: (Units=GPa)
#
#
# Indices 1 2 3 4 5 6 
#
# 1 138.3462 60.9000 49.3643 -0.0001 29.4525 0.0002
# 2 60.9000 176.6631 58.1319 -0.0005 14.3345 0.0001
# 3 49.3643 58.1319 132.8179 -0.0029 26.0505 0.0014
# 4 -0.0001 -0.0005 -0.0029 1.0411 0.0002 29.6369
# 5 29.4525 14.3345 26.0505 0.0002 42.7402 0.0001
# 6 0.0002 0.0001 0.0014 29.6369 0.0001 31.5813
#
#
#
# Elastic Compliance Matrix: (Units=1/GPa)
#
#
# Indices 1 2 3 4 5 6 
#
# 1 0.009983 -0.002496 -0.001627 0.000000 -0.005050 0.000000
# 2 -0.002496 0.007247 -0.002391 0.000000 0.000747 0.000000
# 3 -0.001627 -0.002391 0.009998 -0.000002 -0.004171 0.000001
# 4 0.000000 0.000000 -0.000002 -0.037354 0.000001 0.035054
# 5 -0.005050 0.000747 -0.004171 0.000001 0.029169 -0.000001
# 6 0.000000 0.000000 0.000001 0.035054 -0.000001 -0.001231
#
#
# Mechanical properties :
#
#
# Convention : Reuss Voigt Hill
#
# Bulk Modulus (GPa) = 70.42153 87.17997 78.80075
# Shear Modulus (GPa) = 140.55354 33.70125 87.12740
#
# Velocity S-wave (km/s) = 7.79636 3.81763 6.13831
# Velocity P-wave (km/s) = 10.55929 7.55870 9.18239
#
# Compressibility (1/GPa) = 0.01420020
#
# Stress axis : x y z
#
# Youngs Moduli (GPa) = 100.17234 137.98803 100.01697
#
# Poissons Ratio (x) = 0.34443 0.16276
# Poissons Ratio (y) = 0.25004 0.23910
# Poissons Ratio (z) = 0.16301 0.32987
#
# Static dielectric constant tensor:
#      x y z
#    x 2.024740 0.000000 0.064520 
#    y 0.000000 1.853310 0.000000 
#    z 0.064520 0.000000 1.990330 
# 
# From -- ./inp_files/336101.got.cif
#   From: 2010.05.17/outbox.cif.g08.bks.cpg/sg12_169_cif.got.tgz:336101.got - 2010.06.03 13:09:07.
