data_PCOD9221735
_publ_section_title
;
Structure prediction by ZEFSAII (Michael W. Deem and Ramdas Pophale) SiO2 
 PCOD9221735
Probable space group: C 2/M
;
_chemical_formula_sum "Si O2"
_cell_formula_units_Z 24
_cell_length_a 8.330276
_cell_length_b 17.123909
_cell_length_c 10.073704
_cell_angle_alpha 90.000000
_cell_angle_beta 133.728806
_cell_angle_gamma 90.000000
_cell_volume 1038.391893
_symmetry_space_group_name_H-M "C 2/M"
_symmetry_group_IT_number 12
_symmetry_cell_setting 'monoclinic'
loop_
_space_group_symop_operation_xyz
x,y,z
-x,y,-z
-x,-y,-z
x,-y,z
1/2+x,1/2+y,z
1/2-x,1/2+y,-z
1/2-x,1/2-y,-z
1/2+x,1/2-y,z
loop_
_atom_site_type_symbol
_atom_site_label
_atom_site_fract_x
_atom_site_fract_y
_atom_site_fract_z
Si Si1 0.638587 0.911621 0.746599
Si Si2 0.765150 0.334460 0.936568
Si Si3 0.298952 0.662612 0.574123
O O1 0.374774 0.893011 0.600383
O O2 0.736737 0.852297 0.693507
O O3 0.676413 0.000000 0.724024
O O4 0.742926 0.896145 0.948519
O O5 0.562382 0.348112 0.720222
O O6 0.750000 0.250000 0.000000
O O7 0.000000 0.339186 0.000000
O O8 0.250000 0.750000 0.500000
#
# Coordination Sequence:
#
# PCOD9221735 Si02
#       3
#     8   8   8
#     4  11  26  47  74 108 147 188 236 297 362 417
#     4  12  26  44  71 105 142 190 241 294 353 427
#     4  11  23  42  74 104 140 188 241 287 346 429
#
# _framework density 23.112660999999999
#
# number of rings (size 3 to 8) (size 9 to 14) (size 15 to 20)
#    0.000    0.667    3.333    5.000    4.667    6.000 
#    0.000    1.667    0.000    0.000    0.000    0.000 
#    0.000    0.000    0.000    0.000    0.000    0.000 
#
# Total GULP energy -67196.084364 kJ/mol
# GULP energy per Si atom -5599.673697 kJ/mol
# Density = 2.306006 g / cm^3
# Si number density = 23.112661 Si / 1000 Ang^3
#
#
#
# Elastic Constant Matrix: (Units=GPa)
#
#
# Indices 1 2 3 4 5 6 
#
# 1 96.0238 42.4674 25.0767 0.0000 17.8795 0.0000
# 2 42.4674 109.2666 17.6946 0.0000 -10.3512 0.0000
# 3 25.0767 17.6946 143.4631 0.0000 32.3914 0.0000
# 4 0.0000 0.0000 0.0000 27.5983 0.0000 -3.4973
# 5 17.8795 -10.3512 32.3914 0.0000 47.0444 0.0000
# 6 0.0000 0.0000 0.0000 -3.4973 0.0000 25.2523
#
#
#
# Elastic Compliance Matrix: (Units=1/GPa)
#
#
# Indices 1 2 3 4 5 6 
#
# 1 0.014478 -0.006221 -0.000251 0.000000 -0.006698 0.000000
# 2 -0.006221 0.012486 -0.001903 0.000000 0.006422 0.000000
# 3 -0.000251 -0.001903 0.008670 0.000000 -0.006293 0.000000
# 4 0.000000 0.000000 0.000000 0.036881 0.000000 0.005108
# 5 -0.006698 0.006422 -0.006293 0.000000 0.029548 0.000000
# 6 0.000000 0.000000 0.000000 0.005108 0.000000 0.040308
#
#
# Mechanical properties :
#
#
# Convention : Reuss Voigt Hill
#
# Bulk Modulus (GPa) = 52.95204 57.69232 55.32218
# Shear Modulus (GPa) = 30.22696 37.54664 33.88680
#
# Velocity S-wave (km/s) = 3.62029 4.03489 3.83320
# Velocity P-wave (km/s) = 6.35889 6.83540 6.60144
#
# Compressibility (1/GPa) = 0.01888501
#
# Stress axis : x y z
#
# Youngs Moduli (GPa) = 69.06945 80.08836 115.34399
#
# Poissons Ratio (x) = 0.49823 0.02895
# Poissons Ratio (y) = 0.42968 0.21944
# Poissons Ratio (z) = 0.01734 0.15237
#
# Static dielectric constant tensor:
#      x y z
#    x 1.890140 0.000000 0.027250 
#    y 0.000000 1.819330 0.000000 
#    z 0.027250 0.000000 1.900490 
# 
# From -- ./inp_files/36387.got.cif
#   From: 2010.05.17/outbox.cif.g08.bks.cpg/sg12_19_cif.got.tgz:36387.got - 2010.06.03 13:09:07.
