data_PCOD9221007
_publ_section_title
;
Structure prediction by ZEFSAII (Michael W. Deem and Ramdas Pophale) SiO2 
 PCOD9221007
Probable space group: C 2/M
;
_chemical_formula_sum "Si O2"
_cell_formula_units_Z 56
_cell_length_a 13.057837
_cell_length_b 31.555419
_cell_length_c 11.184926
_cell_angle_alpha 90.000000
_cell_angle_beta 34.955487
_cell_angle_gamma 90.000000
_cell_volume 2640.507170
_symmetry_space_group_name_H-M "C 2/M"
_symmetry_group_IT_number 12
_symmetry_cell_setting 'monoclinic'
loop_
_space_group_symop_operation_xyz
x,y,z
-x,y,-z
-x,-y,-z
x,-y,z
1/2+x,1/2+y,z
1/2-x,1/2+y,-z
1/2-x,1/2-y,-z
1/2+x,1/2-y,z
loop_
_atom_site_type_symbol
_atom_site_label
_atom_site_fract_x
_atom_site_fract_y
_atom_site_fract_z
Si Si1 0.778810 0.778384 0.851329
Si Si2 0.470946 0.617121 0.163793
Si Si3 0.231311 0.452403 0.833345
Si Si4 0.161970 0.631542 0.040170
Si Si5 0.849207 0.248999 0.529069
Si Si6 0.604127 0.155871 0.513689
Si Si7 0.365981 0.453245 0.446491
O O1 0.684047 0.823605 0.952180
O O2 0.741218 0.757702 0.755964
O O3 0.992976 0.785118 0.635964
O O4 0.750000 0.750000 0.000000
O O5 0.660081 0.628766 0.044390
O O6 0.318006 0.653095 0.302422
O O7 0.375731 0.581467 0.335099
O O8 0.500000 0.602726 0.000000
O O9 0.158437 0.500000 0.929103
O O10 0.154507 0.410562 0.967954
O O11 0.241855 0.446191 0.680557
O O12 0.434275 0.453757 0.688910
O O13 0.983017 0.634811 0.288281
O O14 0.750000 0.250000 0.500000
O O15 0.943933 0.294680 0.438985
O O16 0.500000 0.136687 0.500000
O O17 0.326239 0.500000 0.435803
#
# Coordination Sequence:
#
# PCOD9221007 Si02
#       7
#     8   8   8   8   8   8   8
#     4  11  22  41  61  88 124 167 210 256 321 369
#     4  11  23  36  63  93 116 166 218 249 315 384
#     4   8  16  34  63  93 123 163 203 254 322 376
#     4  11  22  40  68  90 127 166 206 264 312 381
#     4  11  24  41  63  89 123 165 215 268 313 383
#     4  12  22  43  61  87 129 166 205 258 320 374
#     4   8  16  34  58  89 127 159 203 263 315 374
#
# _framework density 21.208047000000001
#
# number of rings (size 3 to 8) (size 9 to 14) (size 15 to 20)
#    0.000    1.714    4.286    1.714    0.000    6.571 
#    0.000    2.857    0.000    2.571    0.000    0.000 
#    0.000    0.000    0.000    0.000    0.000    0.000 
#
# Total GULP energy -156122.889636 kJ/mol
# GULP energy per Si atom -5575.817487 kJ/mol
# Density = 2.115978 g / cm^3
# Si number density = 21.208047 Si / 1000 Ang^3
#
#
#
# Elastic Constant Matrix: (Units=GPa)
#
#
# Indices 1 2 3 4 5 6 
#
# 1 88.6354 14.3943 38.2996 0.0000 15.1799 0.0000
# 2 14.3943 105.9621 49.4096 0.0000 32.6308 0.0000
# 3 38.2996 49.4096 100.2196 0.0000 26.7090 0.0000
# 4 0.0000 0.0000 0.0000 17.8547 0.0000 6.2591
# 5 15.1799 32.6308 26.7090 0.0000 46.2324 0.0000
# 6 0.0000 0.0000 0.0000 6.2591 0.0000 15.0834
#
#
#
# Elastic Compliance Matrix: (Units=1/GPa)
#
#
# Indices 1 2 3 4 5 6 
#
# 1 0.013757 0.001332 -0.005271 0.000000 -0.002412 0.000000
# 2 0.001332 0.014034 -0.005522 0.000000 -0.007152 0.000000
# 3 -0.005271 -0.005522 0.015620 0.000000 -0.003396 0.000000
# 4 0.000000 0.000000 0.000000 0.065542 0.000000 -0.027198
# 5 -0.002412 -0.007152 -0.003396 0.000000 0.029432 0.000000
# 6 0.000000 0.000000 0.000000 -0.027198 0.000000 0.077584
#
#
# Mechanical properties :
#
#
# Convention : Reuss Voigt Hill
#
# Bulk Modulus (GPa) = 40.83603 55.44711 48.14157
# Shear Modulus (GPa) = 20.57173 28.68169 24.62671
#
# Velocity S-wave (km/s) = 3.11786 3.68148 3.41133
# Velocity P-wave (km/s) = 5.67962 6.65374 6.18589
#
# Compressibility (1/GPa) = 0.02448818
#
# Stress axis : x y z
#
# Youngs Moduli (GPa) = 72.69268 71.25730 64.02180
#
# Poissons Ratio (x) = -0.09490 0.33746
# Poissons Ratio (y) = -0.09681 0.35350
# Poissons Ratio (z) = 0.38316 0.39345
#
# Static dielectric constant tensor:
#      x y z
#    x 1.382490 0.000000 0.000000 
#    y 0.000000 1.747540 0.000000 
#    z 0.000000 0.000000 1.766610 
# 
# From -- ./inp_files/150401.got.cif
#   From: 2010.05.17/outbox.cif.g08.bks.cpg/sg12_76_cif.got.tgz:150401.got - 2010.06.03 13:09:07.
