data_PCOD9221494
_publ_section_title
;
Structure prediction by ZEFSAII (Michael W. Deem and Ramdas Pophale) SiO2 
 PCOD9221494
Probable space group: C 2/M
;
_chemical_formula_sum "Si O2"
_cell_formula_units_Z 40
_cell_length_a 18.102521
_cell_length_b 22.785594
_cell_length_c 9.210437
_cell_angle_alpha 90.000000
_cell_angle_beta 28.320576
_cell_angle_gamma 90.000000
_cell_volume 1802.305201
_symmetry_space_group_name_H-M "C 2/M"
_symmetry_group_IT_number 12
_symmetry_cell_setting 'monoclinic'
loop_
_space_group_symop_operation_xyz
x,y,z
-x,y,-z
-x,-y,-z
x,-y,z
1/2+x,1/2+y,z
1/2-x,1/2+y,-z
1/2-x,1/2-y,-z
1/2+x,1/2-y,z
loop_
_atom_site_type_symbol
_atom_site_label
_atom_site_fract_x
_atom_site_fract_y
_atom_site_fract_z
Si Si1 0.867558 0.183466 0.416401
Si Si2 0.084994 0.315172 0.705710
Si Si3 0.541385 0.437722 0.097218
Si Si4 0.811723 0.809941 0.826768
Si Si5 0.356258 0.896858 0.663709
O O1 0.951273 0.246588 0.261876
O O2 0.766311 0.180671 0.444973
O O3 0.966323 0.124629 0.269306
O O4 0.763666 0.186806 0.741408
O O5 0.074520 0.352757 0.578002
O O6 0.000000 0.335849 0.000000
O O7 0.483067 0.500000 0.264821
O O8 0.500000 0.440723 0.000000
O O9 0.725049 0.434382 0.810481
O O10 0.000000 0.810595 0.500000
O O11 0.750000 0.750000 0.000000
O O12 0.739455 0.860725 0.049369
O O13 0.500000 0.925807 0.500000
#
# Coordination Sequence:
#
# PCOD9221494 Si02
#       5
#     8   8   8   8   8
#     4  11  23  40  65 100 140 181 240 280 354 420
#     4  11  24  38  66 100 145 179 227 293 365 424
#     4  11  24  46  73  99 136 191 245 293 343 422
#     4  12  24  38  63 100 146 188 223 289 364 431
#     4  12  25  43  67 105 144 183 231 295 366 420
#
# _framework density 22.1938
#
# number of rings (size 3 to 8) (size 9 to 14) (size 15 to 20)
#    0.000    0.600    6.000    2.400    5.600    0.400 
#    0.000    2.000    0.000    4.800    0.000    0.000 
#    0.000    0.000    0.000    0.000    0.000    0.000 
#
# Total GULP energy -111727.296066 kJ/mol
# GULP energy per Si atom -5586.364803 kJ/mol
# Density = 2.214329 g / cm^3
# Si number density = 22.193800 Si / 1000 Ang^3
#
#
#
# Elastic Constant Matrix: (Units=GPa)
#
#
# Indices 1 2 3 4 5 6 
#
# 1 154.0016 33.8658 32.3073 -0.0040 -9.8121 0.0043
# 2 33.8658 128.2014 35.8614 -0.0037 -12.8648 0.0061
# 3 32.3073 35.8614 96.2247 -0.0068 6.1095 0.0098
# 4 -0.0040 -0.0037 -0.0068 12.3898 0.0047 20.5694
# 5 -9.8121 -12.8648 6.1095 0.0047 49.3952 -0.0055
# 6 0.0043 0.0061 0.0098 20.5694 -0.0055 -76.1520
#
#
#
# Elastic Compliance Matrix: (Units=1/GPa)
#
#
# Indices 1 2 3 4 5 6 
#
# 1 0.007284 -0.001201 -0.002086 0.000000 0.001392 0.000000
# 2 -0.001201 0.009276 -0.003217 0.000000 0.002575 0.000000
# 3 -0.002086 -0.003217 0.012469 0.000003 -0.002795 0.000002
# 4 0.000000 0.000000 0.000003 0.055723 -0.000004 0.015051
# 5 0.001392 0.002575 -0.002795 -0.000004 0.021538 -0.000003
# 6 0.000000 0.000000 0.000002 0.015051 -0.000003 -0.009066
#
#
# Mechanical properties :
#
#
# Convention : Reuss Voigt Hill
#
# Bulk Modulus (GPa) = 62.42190 64.72186 63.57188
# Shear Modulus (GPa) = 43.26263 15.55282 29.40772
#
# Velocity S-wave (km/s) = 4.41989 2.65008 3.64406
# Velocity P-wave (km/s) = 7.36438 6.21203 6.81262
#
# Compressibility (1/GPa) = 0.01602002
#
# Stress axis : x y z
#
# Youngs Moduli (GPa) = 137.28895 107.80724 80.19671
#
# Poissons Ratio (x) = 0.12945 0.16733
# Poissons Ratio (y) = 0.16485 0.25802
# Poissons Ratio (z) = 0.28645 0.34685
#
# Static dielectric constant tensor:
#      x y z
#    x 1.907390 -0.000010 -0.063790 
#    y -0.000010 1.812190 0.000000 
#    z -0.063790 0.000000 1.884450 
# 
# From -- ./inp_files/79263.got.cif
#   From: 2010.05.17/outbox.cif.g08.bks.cpg/sg12_40_cif.got.tgz:79263.got - 2010.06.03 13:09:07.
