data_PCOD9221847
_publ_section_title
;
Structure prediction by ZEFSAII (Michael W. Deem and Ramdas Pophale) SiO2 
 PCOD9221847
Probable space group: C 2/M
;
_chemical_formula_sum "Si O2"
_cell_formula_units_Z 44
_cell_length_a 11.421771
_cell_length_b 23.489104
_cell_length_c 11.825164
_cell_angle_alpha 90.000000
_cell_angle_beta 38.961174
_cell_angle_gamma 90.000000
_cell_volume 1994.872753
_symmetry_space_group_name_H-M "C 2/M"
_symmetry_group_IT_number 12
_symmetry_cell_setting 'monoclinic'
loop_
_space_group_symop_operation_xyz
x,y,z
-x,y,-z
-x,-y,-z
x,-y,z
1/2+x,1/2+y,z
1/2-x,1/2+y,-z
1/2-x,1/2-y,-z
1/2+x,1/2-y,z
loop_
_atom_site_type_symbol
_atom_site_label
_atom_site_fract_x
_atom_site_fract_y
_atom_site_fract_z
Si Si1 0.947386 0.000000 0.228414
Si Si2 0.281073 0.683503 0.175483
Si Si3 0.379410 0.308109 0.699945
Si Si4 0.026518 0.607398 0.229996
Si Si5 0.000000 0.378245 0.000000
Si Si6 0.339299 0.626297 0.368241
Si Si7 0.191869 0.500000 0.201439
O O1 0.915313 0.060930 0.313894
O O2 0.798564 0.000000 0.238573
O O3 0.148869 0.000000 0.015933
O O4 0.165287 0.741338 0.271384
O O5 0.194797 0.649791 0.134174
O O6 0.269215 0.643931 0.296079
O O7 0.500000 0.695976 0.000000
O O8 0.500000 0.324129 0.500000
O O9 0.501931 0.329527 0.713107
O O10 0.182821 0.339835 0.849424
O O11 0.021958 0.589915 0.102562
O O12 0.063445 0.553878 0.281051
O O13 0.832072 0.633115 0.416902
#
# Coordination Sequence:
#
# PCOD9221847 Si02
#       7
#     4   8   8   8   4   8   4
#     4  11  23  45  75 109 140 183 242 302 360 422
#     4  12  26  44  73 109 144 190 243 302 362 426
#     4  12  26  47  73 106 149 193 242 296 362 437
#     4  12  26  45  72 107 146 190 239 299 364 430
#     4  12  26  47  70 102 150 195 238 290 364 440
#     4  12  26  46  75 110 144 188 245 302 362 427
#     4  11  23  44  74 106 141 184 239 300 361 426
#
# _framework density 22.056543000000001
#
# number of rings (size 3 to 8) (size 9 to 14) (size 15 to 20)
#    0.000    0.182    4.545    5.455    2.545    4.000 
#    0.000    1.364    0.000    0.000    0.000    0.000 
#    0.000    0.000    0.000    0.000    0.000    0.000 
#
# Total GULP energy -123105.267803 kJ/mol
# GULP energy per Si atom -5595.693991 kJ/mol
# Density = 2.200634 g / cm^3
# Si number density = 22.056543 Si / 1000 Ang^3
#
#
#
# Elastic Constant Matrix: (Units=GPa)
#
#
# Indices 1 2 3 4 5 6 
#
# 1 110.4374 21.7154 31.8525 0.0000 -7.4806 0.0000
# 2 21.7154 77.6484 3.4213 0.0000 -15.3198 0.0000
# 3 31.8525 3.4213 101.7239 0.0000 -7.0128 0.0000
# 4 0.0000 0.0000 0.0000 27.0705 0.0000 -7.3887
# 5 -7.4806 -15.3198 -7.0128 0.0000 41.4421 0.0000
# 6 0.0000 0.0000 0.0000 -7.3887 0.0000 35.4811
#
#
#
# Elastic Compliance Matrix: (Units=1/GPa)
#
#
# Indices 1 2 3 4 5 6 
#
# 1 0.010535 -0.002737 -0.003182 0.000000 0.000351 0.000000
# 2 -0.002737 0.014604 0.000712 0.000000 0.005025 0.000000
# 3 -0.003182 0.000712 0.010909 0.000000 0.001535 0.000000
# 4 0.000000 0.000000 0.000000 0.039167 0.000000 0.008156
# 5 0.000351 0.005025 0.001535 0.000000 0.026311 0.000000
# 6 0.000000 0.000000 0.000000 0.008156 0.000000 0.029883
#
#
# Mechanical properties :
#
#
# Convention : Reuss Voigt Hill
#
# Bulk Modulus (GPa) = 39.01105 44.86537 41.93821
# Shear Modulus (GPa) = 33.25217 36.32008 34.78613
#
# Velocity S-wave (km/s) = 3.88698 4.06233 3.97562
# Velocity P-wave (km/s) = 6.15386 6.51066 6.33477
#
# Compressibility (1/GPa) = 0.02563376
#
# Stress axis : x y z
#
# Youngs Moduli (GPa) = 94.92447 68.47460 91.66838
#
# Poissons Ratio (x) = 0.18739 0.29173
# Poissons Ratio (y) = 0.25977 -0.06528
# Poissons Ratio (z) = 0.30209 -0.04876
#
# Static dielectric constant tensor:
#      x y z
#    x 1.800010 0.000000 0.018320 
#    y 0.000000 1.669020 0.000000 
#    z 0.018320 0.000000 1.822670 
# 
# From -- ./inp_files/135799.got.cif
#   From: 2010.05.17/outbox.cif.g08.bks.cpg/sg12_68_cif.got.tgz:135799.got - 2010.06.03 13:09:07.
