data_PCOD9221063
_publ_section_title
;
Structure prediction by ZEFSAII (Michael W. Deem and Ramdas Pophale) SiO2 
 PCOD9221063
Probable space group: C 2/M
;
_chemical_formula_sum "Si O2"
_cell_formula_units_Z 64
_cell_length_a 14.285934
_cell_length_b 17.325823
_cell_length_c 11.875823
_cell_angle_alpha 90.000000
_cell_angle_beta 83.815625
_cell_angle_gamma 90.000000
_cell_volume 2922.344536
_symmetry_space_group_name_H-M "C 2/M"
_symmetry_group_IT_number 12
_symmetry_cell_setting 'monoclinic'
loop_
_space_group_symop_operation_xyz
x,y,z
-x,y,-z
-x,-y,-z
x,-y,z
1/2+x,1/2+y,z
1/2-x,1/2+y,-z
1/2-x,1/2-y,-z
1/2+x,1/2-y,z
loop_
_atom_site_type_symbol
_atom_site_label
_atom_site_fract_x
_atom_site_fract_y
_atom_site_fract_z
Si Si1 0.977097 0.367107 0.136184
Si Si2 0.026323 0.810671 0.816735
Si Si3 0.221344 0.661767 0.481825
Si Si4 0.424734 0.409395 0.408994
Si Si5 0.852636 0.586271 0.723056
Si Si6 0.303805 0.316559 0.855465
Si Si7 0.289832 0.648269 0.098876
Si Si8 0.305303 0.913581 0.294331
O O1 0.951051 0.279686 0.173499
O O2 0.888080 0.414299 0.191835
O O3 0.065462 0.391838 0.200572
O O4 0.000000 0.372222 0.000000
O O5 0.048086 0.851458 0.695485
O O6 0.099006 0.849810 0.893692
O O7 0.915504 0.812941 0.852438
O O8 0.250000 0.750000 0.500000
O O9 0.318902 0.613788 0.458826
O O10 0.162748 0.646510 0.375851
O O11 0.164335 0.627478 0.594559
O O12 0.500000 0.399833 0.500000
O O13 0.426778 0.500000 0.374797
O O14 0.867689 0.500000 0.675861
O O15 0.758596 0.589738 0.810422
O O16 0.256307 0.232067 0.864700
O O17 0.276334 0.361394 0.747515
O O18 0.267693 0.361677 0.970771
O O19 0.273270 0.000000 0.321677
#
# Coordination Sequence:
#
# PCOD9221063 Si02
#       8
#     8   8   8   8   8   8   8   8
#     4  12  26  46  72 105 145 192 243 292 352 430
#     4  12  23  41  70 105 138 184 240 290 352 426
#     4  12  26  48  72 103 138 184 238 291 357 433
#     4  11  25  45  71 101 142 188 234 297 363 427
#     4  12  26  45  72 102 142 189 232 293 364 428
#     4  11  23  40  66 100 137 183 234 289 344 413
#     4  11  22  41  66  97 139 184 233 286 347 414
#     4  12  26  45  70 103 142 180 231 294 354 422
#
# _framework density 21.900224000000001
#
# number of rings (size 3 to 8) (size 9 to 14) (size 15 to 20)
#    0.000    0.375    3.750    5.625    1.750    4.500 
#    0.000    1.250    0.000    4.125    0.000    0.000 
#    0.000    0.000    0.000    0.000    0.000    0.000 
#
# Total GULP energy -178983.688715 kJ/mol
# GULP energy per Si atom -5593.240272 kJ/mol
# Density = 2.185038 g / cm^3
# Si number density = 21.900224 Si / 1000 Ang^3
#
#
#
# Elastic Constant Matrix: (Units=GPa)
#
#
# Indices 1 2 3 4 5 6 
#
# 1 104.5882 -1.4673 16.7341 0.0000 16.1026 0.0000
# 2 -1.4673 83.2597 39.6629 0.0000 5.2028 0.0000
# 3 16.7341 39.6629 128.7631 0.0000 10.2716 0.0000
# 4 0.0000 0.0000 0.0000 13.6719 0.0000 -12.4874
# 5 16.1026 5.2028 10.2716 0.0000 38.3707 0.0000
# 6 0.0000 0.0000 0.0000 -12.4874 0.0000 -3.2025
#
#
#
# Elastic Compliance Matrix: (Units=1/GPa)
#
#
# Indices 1 2 3 4 5 6 
#
# 1 0.010435 0.001092 -0.001360 0.000000 -0.004163 0.000000
# 2 0.001092 0.014212 -0.004424 0.000000 -0.001201 0.000000
# 3 -0.001360 -0.004424 0.009413 0.000000 -0.001349 0.000000
# 4 0.000000 0.000000 0.000000 0.016035 0.000000 -0.062525
# 5 -0.004163 -0.001201 -0.001349 0.000000 0.028333 0.000000
# 6 0.000000 0.000000 0.000000 -0.062525 0.000000 -0.068455
#
#
# Mechanical properties :
#
#
# Convention : Reuss Voigt Hill
#
# Bulk Modulus (GPa) = 40.52453 47.38560 43.95507
# Shear Modulus (GPa) = 181.26880 27.21346 104.24113
#
# Velocity S-wave (km/s) = 9.10769 3.52889 6.90663
# Velocity P-wave (km/s) = 11.36417 6.18774 9.14966
#
# Compressibility (1/GPa) = 0.02467641
#
# Stress axis : x y z
#
# Youngs Moduli (GPa) = 95.82883 70.36119 106.23220
#
# Poissons Ratio (x) = -0.07685 0.14453
# Poissons Ratio (y) = -0.10466 0.46997
# Poissons Ratio (z) = 0.13037 0.31128
#
# Static dielectric constant tensor:
#      x y z
#    x 1.806860 0.000000 -0.006670 
#    y 0.000000 1.921310 0.000000 
#    z -0.006670 0.000000 1.830450 
# 
# From -- ./inp_files/146128.got.cif
#   From: 2010.05.17/outbox.cif.g08.bks.cpg/sg12_74_cif.got.tgz:146128.got - 2010.06.03 13:09:07.
