data_PCOD9221517
_publ_section_title
;
Structure prediction by ZEFSAII (Michael W. Deem and Ramdas Pophale) SiO2 
 PCOD9221517
Probable space group: C 2/M
;
_chemical_formula_sum "Si O2"
_cell_formula_units_Z 64
_cell_length_a 14.054857
_cell_length_b 17.648825
_cell_length_c 22.920508
_cell_angle_alpha 90.000000
_cell_angle_beta 148.309046
_cell_angle_gamma 90.000000
_cell_volume 2986.790203
_symmetry_space_group_name_H-M "C 2/M"
_symmetry_group_IT_number 12
_symmetry_cell_setting 'monoclinic'
loop_
_space_group_symop_operation_xyz
x,y,z
-x,y,-z
-x,-y,-z
x,-y,z
1/2+x,1/2+y,z
1/2-x,1/2+y,-z
1/2-x,1/2-y,-z
1/2+x,1/2-y,z
loop_
_atom_site_type_symbol
_atom_site_label
_atom_site_fract_x
_atom_site_fract_y
_atom_site_fract_z
Si Si1 0.593110 0.210163 0.880461
Si Si2 0.699419 0.084809 0.093308
Si Si3 0.147217 0.587902 0.686016
Si Si4 0.922639 0.849539 0.740465
Si Si5 0.262658 0.164537 0.482651
Si Si6 0.496276 0.588023 0.428780
Si Si7 0.206995 0.658441 0.206339
Si Si8 0.702138 0.315445 0.131020
O O1 0.437313 0.270416 0.782458
O O2 0.491817 0.151262 0.869372
O O3 0.671312 0.182760 0.859988
O O4 0.750000 0.250000 0.000000
O O5 0.760277 0.089283 0.192108
O O6 0.867635 0.122842 0.148984
O O7 0.673007 0.000000 0.057645
O O8 0.500000 0.121475 0.000000
O O9 0.099122 0.500000 0.667698
O O10 0.289090 0.597626 0.707175
O O11 0.243121 0.620876 0.794099
O O12 0.968496 0.637642 0.580624
O O13 0.849353 0.841180 0.636472
O O14 0.250000 0.250000 0.500000
O O15 0.175998 0.110359 0.486830
O O16 0.500000 0.594908 0.500000
O O17 0.450982 0.500000 0.393249
O O18 0.352282 0.650221 0.332376
O O19 0.221499 0.735073 0.175412
O O20 0.500000 0.321888 0.000000
#
# Coordination Sequence:
#
# PCOD9221517 Si02
#       8
#     8   8   8   8   8   8   8   8
#     4  12  23  40  69 104 137 179 234 293 347 413
#     4  11  23  40  67 103 140 180 229 285 348 415
#     4  12  28  47  70 104 142 189 237 288 359 435
#     4  12  24  44  70 100 142 184 235 297 352 413
#     4  12  27  46  74 103 136 180 239 295 352 420
#     4  11  26  45  67  97 140 184 225 283 354 420
#     4  12  22  41  69  98 136 175 231 284 347 412
#     4  12  24  46  70 103 139 183 233 290 354 414
#
# _framework density 21.427685
#
# number of rings (size 3 to 8) (size 9 to 14) (size 15 to 20)
#    0.000    0.250    5.000    4.125    3.500    2.250 
#    0.000    0.625    0.000    0.000    0.000    0.000 
#    0.000    0.000    0.000    0.000    0.000    0.000 
#
# Total GULP energy -178753.773576 kJ/mol
# GULP energy per Si atom -5586.055424 kJ/mol
# Density = 2.137891 g / cm^3
# Si number density = 21.427685 Si / 1000 Ang^3
#
#
#
# Elastic Constant Matrix: (Units=GPa)
#
#
# Indices 1 2 3 4 5 6 
#
# 1 139.9485 27.5759 30.5443 -0.0003 4.6363 -0.0001
# 2 27.5759 92.0592 30.0879 -0.0007 1.6390 -0.0003
# 3 30.5443 30.0879 103.1341 -0.0023 8.5963 -0.0009
# 4 -0.0003 -0.0007 -0.0023 28.6231 -0.0005 0.9241
# 5 4.6363 1.6390 8.5963 -0.0005 46.2585 -0.0001
# 6 -0.0001 -0.0003 -0.0009 0.9241 -0.0001 27.3639
#
#
#
# Elastic Compliance Matrix: (Units=1/GPa)
#
#
# Indices 1 2 3 4 5 6 
#
# 1 0.007899 -0.001774 -0.001789 0.000000 -0.000396 0.000000
# 2 -0.001774 0.012408 -0.003121 0.000000 0.000318 0.000000
# 3 -0.001789 -0.003121 0.011287 0.000001 -0.001808 0.000000
# 4 0.000000 0.000000 0.000001 0.034975 0.000000 -0.001181
# 5 -0.000396 0.000318 -0.001808 0.000000 0.021982 0.000000
# 6 0.000000 0.000000 0.000000 -0.001181 0.000000 0.036584
#
#
# Mechanical properties :
#
#
# Convention : Reuss Voigt Hill
#
# Bulk Modulus (GPa) = 54.86619 56.83978 55.85298
# Shear Modulus (GPa) = 34.58323 36.91135 35.74729
#
# Velocity S-wave (km/s) = 4.02176 4.15493 4.08888
# Velocity P-wave (km/s) = 6.87219 7.04285 6.95804
#
# Compressibility (1/GPa) = 0.01822616
#
# Stress axis : x y z
#
# Youngs Moduli (GPa) = 126.60462 80.59019 88.59758
#
# Poissons Ratio (x) = 0.14300 0.15846
# Poissons Ratio (y) = 0.22464 0.27651
# Poissons Ratio (z) = 0.22644 0.25152
#
# Static dielectric constant tensor:
#      x y z
#    x 1.792720 0.000000 0.015150 
#    y 0.000000 1.775760 0.000000 
#    z 0.015150 0.000000 1.866200 
# 
# From -- ./inp_files/340853.got.cif
#   From: 2010.05.17/outbox.cif.g08.bks.cpg/sg12_171_cif.got.tgz:340853.got - 2010.06.03 13:09:07.
