data_PCOD9221765
_publ_section_title
;
Structure prediction by ZEFSAII (Michael W. Deem and Ramdas Pophale) SiO2 
 PCOD9221765
Probable space group: C 2/M
;
_chemical_formula_sum "Si O2"
_cell_formula_units_Z 40
_cell_length_a 10.287050
_cell_length_b 15.127940
_cell_length_c 13.718016
_cell_angle_alpha 90.000000
_cell_angle_beta 105.432278
_cell_angle_gamma 90.000000
_cell_volume 2057.853701
_symmetry_space_group_name_H-M "C 2/M"
_symmetry_group_IT_number 12
_symmetry_cell_setting 'monoclinic'
loop_
_space_group_symop_operation_xyz
x,y,z
-x,y,-z
-x,-y,-z
x,-y,z
1/2+x,1/2+y,z
1/2-x,1/2+y,-z
1/2-x,1/2-y,-z
1/2+x,1/2-y,z
loop_
_atom_site_type_symbol
_atom_site_label
_atom_site_fract_x
_atom_site_fract_y
_atom_site_fract_z
Si Si1 0.269382 0.000000 0.454689
Si Si2 0.999145 0.500000 0.339326
Si Si3 0.439135 0.184441 0.743785
Si Si4 0.184256 0.901091 0.781269
Si Si5 0.608726 0.709757 0.935744
Si Si6 0.556291 0.658096 0.403785
O O1 0.368346 0.000000 0.382020
O O2 0.366261 0.000000 0.567485
O O3 0.177781 0.088051 0.436111
O O4 0.003944 0.590931 0.280937
O O5 0.299432 0.166293 0.771086
O O6 0.542159 0.227933 0.840113
O O7 0.413232 0.251905 0.649123
O O8 0.138814 0.879352 0.881689
O O9 0.059799 0.889008 0.683188
O O10 0.237685 0.000000 0.784178
O O11 0.500000 0.699612 0.000000
O O12 0.750000 0.750000 0.000000
O O13 0.500000 0.677729 0.500000
#
# Coordination Sequence:
#
# PCOD9221765 Si02
#       6
#     4   4   8   8   8   8
#     4  11  25  42  64  95 138 183 227 272 327 398
#     4  11  26  42  63  99 140 175 228 278 325 400
#     4  11  25  43  69  97 138 175 224 275 340 401
#     4  11  23  43  69 100 132 172 221 278 334 403
#     4  11  24  46  71  98 131 172 222 283 344 403
#     4  11  25  41  67  95 137 181 222 270 332 396
#
# _framework density 19.437726999999999
#
# number of rings (size 3 to 8) (size 9 to 14) (size 15 to 20)
#    0.000    1.000    4.000    1.500    8.400    2.000 
#    1.800    1.500    0.000    0.000    0.000    0.000 
#    0.000    0.000    0.000    0.000    0.000    0.000 
#
# Total GULP energy -111812.784833 kJ/mol
# GULP energy per Si atom -5590.639242 kJ/mol
# Density = 1.939349 g / cm^3
# Si number density = 19.437727 Si / 1000 Ang^3
#
#
#
# Elastic Constant Matrix: (Units=GPa)
#
#
# Indices 1 2 3 4 5 6 
#
# 1 117.5004 39.2401 51.0936 0.0000 -7.5803 0.0000
# 2 39.2401 122.3165 41.5432 0.0000 -19.6643 0.0000
# 3 51.0936 41.5432 109.1631 0.0000 -24.4211 0.0000
# 4 0.0000 0.0000 0.0000 7.5682 0.0000 -0.8454
# 5 -7.5803 -19.6643 -24.4211 0.0000 30.4992 0.0000
# 6 0.0000 0.0000 0.0000 -0.8454 0.0000 33.6939
#
#
#
# Elastic Compliance Matrix: (Units=1/GPa)
#
#
# Indices 1 2 3 4 5 6 
#
# 1 0.011297 -0.002364 -0.004996 0.000000 -0.002717 0.000000
# 2 -0.002364 0.010278 -0.001771 0.000000 0.004621 0.000000
# 3 -0.004996 -0.001771 0.014180 0.000000 0.008970 0.000000
# 4 0.000000 0.000000 0.000000 0.132503 0.000000 0.003325
# 5 -0.002717 0.004621 0.008970 0.000000 0.042275 0.000000
# 6 0.000000 0.000000 0.000000 0.003325 0.000000 0.029762
#
#
# Mechanical properties :
#
#
# Convention : Reuss Voigt Hill
#
# Bulk Modulus (GPa) = 57.16531 68.08153 62.62342
# Shear Modulus (GPa) = 18.91160 28.82581 23.86871
#
# Velocity S-wave (km/s) = 3.12257 3.85513 3.50802
# Velocity P-wave (km/s) = 6.51720 7.41064 6.97823
#
# Compressibility (1/GPa) = 0.01749313
#
# Stress axis : x y z
#
# Youngs Moduli (GPa) = 88.51752 97.29077 70.52395
#
# Poissons Ratio (x) = 0.23002 0.35231
# Poissons Ratio (y) = 0.20928 0.12491
# Poissons Ratio (z) = 0.44220 0.17232
#
# Static dielectric constant tensor:
#      x y z
#    x 1.673850 0.000000 -0.016810 
#    y 0.000000 1.672430 0.000000 
#    z -0.016810 0.000000 1.663980 
# 
# From -- ./inp_files/119166.got.cif
#   From: 2010.05.17/outbox.cif.g08.bks.cpg/sg12_60_cif.got.tgz:119166.got - 2010.06.03 13:09:07.
