data_PCOD9221117
_publ_section_title
;
Structure prediction by ZEFSAII (Michael W. Deem and Ramdas Pophale) SiO2 
 PCOD9221117
Probable space group: C 2/M
;
_chemical_formula_sum "Si O2"
_cell_formula_units_Z 48
_cell_length_a 19.900923
_cell_length_b 14.746856
_cell_length_c 16.798160
_cell_angle_alpha 90.000000
_cell_angle_beta 30.550547
_cell_angle_gamma 90.000000
_cell_volume 2505.838246
_symmetry_space_group_name_H-M "C 2/M"
_symmetry_group_IT_number 12
_symmetry_cell_setting 'monoclinic'
loop_
_space_group_symop_operation_xyz
x,y,z
-x,y,-z
-x,-y,-z
x,-y,z
1/2+x,1/2+y,z
1/2-x,1/2+y,-z
1/2-x,1/2-y,-z
1/2+x,1/2-y,z
loop_
_atom_site_type_symbol
_atom_site_label
_atom_site_fract_x
_atom_site_fract_y
_atom_site_fract_z
Si Si1 0.384326 0.332169 0.558830
Si Si2 0.755534 0.192303 0.412927
Si Si3 0.634824 0.500000 0.057677
Si Si4 0.916160 0.000000 0.416738
Si Si5 0.869738 0.641507 0.080973
Si Si6 0.666301 0.000000 0.566043
Si Si7 0.040937 0.158568 0.045232
Si Si8 0.875712 0.500000 0.934395
O O1 0.500000 0.303905 0.500000
O O2 0.327777 0.248919 0.565956
O O3 0.438689 0.410355 0.445354
O O4 0.261208 0.373310 0.733660
O O5 0.750000 0.250000 0.500000
O O6 0.905734 0.183333 0.229305
O O7 0.699626 0.091885 0.484827
O O8 0.508389 0.500000 0.245410
O O9 0.622260 0.587521 0.014147
O O10 0.761853 0.500000 0.984526
O O11 0.765280 0.000000 0.540513
O O12 0.882002 0.748147 0.049341
O O13 0.865495 0.585400 0.004242
O O14 0.000000 0.617451 0.000000
O O15 0.517170 0.000000 0.747923
O O16 0.000000 0.121345 0.000000
#
# Coordination Sequence:
#
# PCOD9221117 Si02
#       8
#     8   8   4   4   8   4   8   4
#     4  12  24  40  66 100 131 165 211 275 329 375
#     4  12  22  43  68  95 130 171 222 263 313 393
#     4  12  25  42  66  94 128 173 213 270 318 374
#     4  12  22  42  67  95 130 173 217 257 322 397
#     4  11  22  42  66  92 130 171 212 257 324 393
#     4  12  24  40  67  95 128 170 220 261 316 374
#     4  11  22  43  69  91 121 173 227 253 311 392
#     4  12  26  40  62 102 134 159 208 278 334 368
#
# _framework density 19.155266000000001
#
# number of rings (size 3 to 8) (size 9 to 14) (size 15 to 20)
#    0.000    0.333    6.667    4.250    0.000    2.000 
#    0.000    0.417    0.000    0.000    0.000    0.000 
#    0.000    0.000    0.000    0.000    0.000    0.000 
#
# Total GULP energy -134286.373794 kJ/mol
# GULP energy per Si atom -5595.265575 kJ/mol
# Density = 1.911167 g / cm^3
# Si number density = 19.155266 Si / 1000 Ang^3
#
#
#
# Elastic Constant Matrix: (Units=GPa)
#
#
# Indices 1 2 3 4 5 6 
#
# 1 135.7249 37.5482 26.7237 -0.0102 -27.0927 -0.0031
# 2 37.5482 96.2992 -9.1425 -0.0168 -2.5918 -0.0051
# 3 26.7237 -9.1425 64.2473 -0.0474 3.4680 -0.0146
# 4 -0.0102 -0.0168 -0.0474 5172.1908 0.0198 1609.1252
# 5 -27.0927 -2.5918 3.4680 0.0198 40.1464 0.0061
# 6 -0.0031 -0.0051 -0.0146 1609.1252 0.0061 533.7043
#
#
#
# Elastic Compliance Matrix: (Units=1/GPa)
#
#
# Indices 1 2 3 4 5 6 
#
# 1 0.011429 -0.004800 -0.005864 0.000000 0.007910 0.000000
# 2 -0.004800 0.012555 0.003933 0.000000 -0.002769 0.000000
# 3 -0.005864 0.003933 0.018851 0.000000 -0.005332 0.000000
# 4 0.000000 0.000000 0.000000 0.003119 0.000000 -0.009403
# 5 0.007910 -0.002769 -0.005332 0.000000 0.030529 0.000000
# 6 0.000000 0.000000 0.000000 -0.009403 0.000000 0.030223
#
#
# Mechanical properties :
#
#
# Convention : Reuss Voigt Hill
#
# Bulk Modulus (GPa) = 34.04567 45.17003 39.60785
# Shear Modulus (GPa) = 38.47352 1165.28443 601.87898
#
# Velocity S-wave (km/s) = 4.48650 24.69123 17.74522
# Velocity P-wave (km/s) = 6.68209 28.92245 20.98998
#
# Compressibility (1/GPa) = 0.02937231
#
# Stress axis : x y z
#
# Youngs Moduli (GPa) = 87.49395 79.65054 53.04628
#
# Poissons Ratio (x) = 0.38235 0.31107
# Poissons Ratio (y) = 0.42000 -0.20862
# Poissons Ratio (z) = 0.51307 -0.31324
#
# Static dielectric constant tensor:
#      x y z
#    x 1.652900 0.000000 0.009220 
#    y 0.000000 1.665730 0.000000 
#    z 0.009220 0.000000 1.641650 
# 
# From -- ./inp_files/278107.got.cif
#   From: 2010.05.17/outbox.cif.g08.bks.cpg/sg12_140_cif.got.tgz:278107.got - 2010.06.03 13:09:07.
