data_PCOD9221387
_publ_section_title
;
Structure prediction by ZEFSAII (Michael W. Deem and Ramdas Pophale) SiO2 
 PCOD9221387
Probable space group: C 2/M
;
_chemical_formula_sum "Si O2"
_cell_formula_units_Z 48
_cell_length_a 19.720763
_cell_length_b 8.682239
_cell_length_c 27.150983
_cell_angle_alpha 90.000000
_cell_angle_beta 30.484672
_cell_angle_gamma 90.000000
_cell_volume 2358.373471
_symmetry_space_group_name_H-M "C 2/M"
_symmetry_group_IT_number 12
_symmetry_cell_setting 'monoclinic'
loop_
_space_group_symop_operation_xyz
x,y,z
-x,y,-z
-x,-y,-z
x,-y,z
1/2+x,1/2+y,z
1/2-x,1/2+y,-z
1/2-x,1/2-y,-z
1/2+x,1/2-y,z
loop_
_atom_site_type_symbol
_atom_site_label
_atom_site_fract_x
_atom_site_fract_y
_atom_site_fract_z
Si Si1 0.539712 0.820300 0.599641
Si Si2 0.825680 0.181130 0.661255
Si Si3 0.193877 0.816286 0.918138
Si Si4 0.252444 0.181485 0.399348
Si Si5 0.021552 0.180347 0.256547
Si Si6 0.597866 0.315565 0.866339
O O1 0.431270 0.780119 0.625731
O O2 0.680971 0.774000 0.487669
O O3 0.503592 0.723777 0.670531
O O4 0.535384 0.000000 0.615112
O O5 0.820369 0.214689 0.606681
O O6 0.681858 0.221555 0.774367
O O7 0.856380 0.000000 0.648472
O O8 0.327991 0.731226 0.849632
O O9 0.161223 0.786152 0.880850
O O10 0.213847 0.000000 0.909918
O O11 0.058678 0.775819 0.031954
O O12 0.406737 0.228573 0.299486
O O13 0.240443 0.000000 0.416849
O O14 0.004349 0.000000 0.259481
O O15 0.609176 0.500000 0.850385
#
# Coordination Sequence:
#
# PCOD9221387 Si02
#       6
#     8   8   8   8   8   8
#     4  12  24  40  63  88 117 155 199 244 291 348
#     4  11  23  39  61  90 121 154 196 243 293 346
#     4   9  18  35  59  89 119 153 193 239 292 342
#     4  11  25  43  60  83 121 160 195 243 296 347
#     4  12  24  39  61  90 120 154 198 244 292 349
#     4   9  18  34  60  89 119 153 193 239 289 346
#
# _framework density 20.353010999999999
#
# number of rings (size 3 to 8) (size 9 to 14) (size 15 to 20)
#    0.000    1.333    1.667    6.000    0.000    5.333 
#    0.000    2.500    0.000    0.000    0.000    0.000 
#    0.000    0.000    0.000    0.000    0.000    0.000 
#
# Total GULP energy -134255.389840 kJ/mol
# GULP energy per Si atom -5593.974577 kJ/mol
# Density = 2.030669 g / cm^3
# Si number density = 20.353011 Si / 1000 Ang^3
#
#
#
# Elastic Constant Matrix: (Units=GPa)
#
#
# Indices 1 2 3 4 5 6 
#
# 1 50.4463 1.3612 -3.8740 -0.0002 -15.0232 0.0003
# 2 1.3612 16.3604 4.2358 -0.0004 3.1304 0.0009
# 3 -3.8740 4.2358 65.3244 0.0003 -13.5755 0.0001
# 4 -0.0002 -0.0004 0.0003 35.3703 0.0002 -7.2827
# 5 -15.0232 3.1304 -13.5755 0.0002 28.3301 -0.0003
# 6 0.0003 0.0009 0.0001 -7.2827 -0.0003 25.2376
#
#
#
# Elastic Compliance Matrix: (Units=1/GPa)
#
#
# Indices 1 2 3 4 5 6 
#
# 1 0.025441 -0.006751 0.005448 0.000000 0.016847 0.000000
# 2 -0.006751 0.066495 -0.007755 0.000000 -0.014644 -0.000002
# 3 0.005448 -0.007755 0.018783 0.000000 0.012746 0.000000
# 4 0.000000 0.000000 0.000000 0.030058 0.000000 0.008674
# 5 0.016847 -0.014644 0.012746 0.000000 0.051958 0.000001
# 6 0.000000 -0.000002 0.000000 0.008674 0.000001 0.042126
#
#
# Mechanical properties :
#
#
# Convention : Reuss Voigt Hill
#
# Bulk Modulus (GPa) = 10.79890 15.06411 12.93151
# Shear Modulus (GPa) = 17.61522 26.48148 22.04835
#
# Velocity S-wave (km/s) = 2.94510 3.61100 3.29492
# Velocity P-wave (km/s) = 4.10879 4.98029 4.56538
#
# Compressibility (1/GPa) = 0.09260201
#
# Stress axis : x y z
#
# Youngs Moduli (GPa) = 39.30693 15.03880 53.23934
#
# Poissons Ratio (x) = 0.10152 -0.29003
# Poissons Ratio (y) = 0.26535 0.41288
# Poissons Ratio (z) = -0.21413 0.11663
#
# Static dielectric constant tensor:
#      x y z
#    x 1.723890 0.000000 -0.021000 
#    y 0.000000 1.676820 0.000000 
#    z -0.021000 0.000000 1.732760 
# 
# From -- ./inp_files/365344.got.cif
#   From: 2010.05.17/outbox.cif.g08.bks.cpg/sg12_183_cif.got.tgz:365344.got - 2010.06.03 13:09:07.
