data_PCOD9221716
_publ_section_title
;
Structure prediction by ZEFSAII (Michael W. Deem and Ramdas Pophale) SiO2 
 PCOD9221716
Probable space group: C 2/M
;
_chemical_formula_sum "Si O2"
_cell_formula_units_Z 28
_cell_length_a 20.964945
_cell_length_b 11.939151
_cell_length_c 5.218244
_cell_angle_alpha 90.000000
_cell_angle_beta 71.019661
_cell_angle_gamma 90.000000
_cell_volume 1235.130670
_symmetry_space_group_name_H-M "C 2/M"
_symmetry_group_IT_number 12
_symmetry_cell_setting 'monoclinic'
loop_
_space_group_symop_operation_xyz
x,y,z
-x,y,-z
-x,-y,-z
x,-y,z
1/2+x,1/2+y,z
1/2-x,1/2+y,-z
1/2-x,1/2-y,-z
1/2+x,1/2-y,z
loop_
_atom_site_type_symbol
_atom_site_label
_atom_site_fract_x
_atom_site_fract_y
_atom_site_fract_z
Si Si1 0.929017 0.368398 0.434985
Si Si2 0.795568 0.234621 0.691657
Si Si3 0.066390 0.000000 0.176881
Si Si4 0.143534 0.000000 0.551392
Si Si5 0.500000 0.295158 0.000000
O O1 0.920614 0.500000 0.385515
O O2 0.859978 0.317742 0.637503
O O3 0.000000 0.359172 0.500000
O O4 0.942809 0.287337 0.177723
O O5 0.750000 0.250000 0.500000
O O6 0.821314 0.109515 0.606258
O O7 0.750000 0.250000 0.000000
O O8 0.032140 0.881633 0.156520
O O9 0.126938 0.000000 0.876366
O O10 0.076853 0.000000 0.465877
#
# Coordination Sequence:
#
# PCOD9221716 Si02
#       5
#     8   8   4   4   4
#     4  11  26  47  76 108 149 198 251 309 371 443
#     4  12  29  49  75 108 151 197 250 306 370 446
#     4  11  24  40  78 106 144 182 241 308 360 444
#     4  12  24  49  70 104 141 195 243 294 377 428
#     4  11  23  42  70 110 145 185 242 302 372 429
#
# _framework density 22.669665999999999
#
# number of rings (size 3 to 8) (size 9 to 14) (size 15 to 20)
#    0.000    0.571    2.857    3.857    8.000    1.143 
#    0.000    0.000    0.000    0.000    0.000    0.000 
#    0.000    0.000    0.000    0.000    0.000    0.000 
#
# Total GULP energy -78185.576175 kJ/mol
# GULP energy per Si atom -5584.684012 kJ/mol
# Density = 2.261807 g / cm^3
# Si number density = 22.669666 Si / 1000 Ang^3
#
#
#
# Elastic Constant Matrix: (Units=GPa)
#
#
# Indices 1 2 3 4 5 6 
#
# 1 106.7852 57.5061 42.2460 0.0000 -11.8074 0.0000
# 2 57.5061 230.4915 64.7512 0.0000 -31.7180 0.0000
# 3 42.2460 64.7512 176.8695 0.0000 -38.6681 0.0000
# 4 0.0000 0.0000 0.0000 42.5182 0.0000 -54.7892
# 5 -11.8074 -31.7180 -38.6681 0.0000 47.1896 0.0000
# 6 0.0000 0.0000 0.0000 -54.7892 0.0000 115.1206
#
#
#
# Elastic Compliance Matrix: (Units=1/GPa)
#
#
# Indices 1 2 3 4 5 6 
#
# 1 0.011348 -0.002333 -0.001923 0.000000 -0.000304 0.000000
# 2 -0.002333 0.005509 -0.000947 0.000000 0.002343 0.000000
# 3 -0.001923 -0.000947 0.007572 0.000000 0.005087 0.000000
# 4 0.000000 0.000000 0.000000 0.060818 0.000000 0.028945
# 5 -0.000304 0.002343 0.005087 0.000000 0.026858 0.000000
# 6 0.000000 0.000000 0.000000 0.028945 0.000000 0.022462
#
#
# Mechanical properties :
#
#
# Convention : Reuss Voigt Hill
#
# Bulk Modulus (GPa) = 71.31335 93.68364 82.49849
# Shear Modulus (GPa) = 33.41161 64.27522 48.84341
#
# Velocity S-wave (km/s) = 3.84324 5.33053 4.64677
# Velocity P-wave (km/s) = 7.15680 8.90513 8.07840
#
# Compressibility (1/GPa) = 0.01402262
#
# Stress axis : x y z
#
# Youngs Moduli (GPa) = 88.12097 181.51559 132.06269
#
# Poissons Ratio (x) = 0.42346 0.25396
# Poissons Ratio (y) = 0.20558 0.12512
# Poissons Ratio (z) = 0.16946 0.17198
#
# Static dielectric constant tensor:
#      x y z
#    x 2.539150 0.000000 -0.074490 
#    y 0.000000 1.817980 0.000000 
#    z -0.074490 0.000000 1.875000 
# 
# From -- ./inp_files/19097.got.cif
#   From: 2010.05.17/outbox.cif.g08.bks.cpg/sg12_10_cif.got.tgz:19097.got - 2010.06.03 13:09:07.
