data_PCOD9221485
_publ_section_title
;
Structure prediction by ZEFSAII (Michael W. Deem and Ramdas Pophale) SiO2 
 PCOD9221485
Probable space group: C 2/M
;
_chemical_formula_sum "Si O2"
_cell_formula_units_Z 32
_cell_length_a 10.040279
_cell_length_b 17.164975
_cell_length_c 10.076362
_cell_angle_alpha 90.000000
_cell_angle_beta 122.205800
_cell_angle_gamma 90.000000
_cell_volume 1469.381417
_symmetry_space_group_name_H-M "C 2/M"
_symmetry_group_IT_number 12
_symmetry_cell_setting 'monoclinic'
loop_
_space_group_symop_operation_xyz
x,y,z
-x,y,-z
-x,-y,-z
x,-y,z
1/2+x,1/2+y,z
1/2-x,1/2+y,-z
1/2-x,1/2-y,-z
1/2+x,1/2-y,z
loop_
_atom_site_type_symbol
_atom_site_label
_atom_site_fract_x
_atom_site_fract_y
_atom_site_fract_z
Si Si1 0.354900 0.371030 0.825667
Si Si2 0.266619 0.199569 0.683309
Si Si3 0.519056 0.629210 0.374489
Si Si4 0.007563 0.589989 0.660467
O O1 0.328869 0.280623 0.771021
O O2 0.401998 0.408250 0.709284
O O3 0.191234 0.402639 0.792966
O O4 0.500000 0.380000 0.000000
O O5 0.155142 0.163107 0.740664
O O6 0.402305 0.143685 0.699232
O O7 0.136790 0.197096 0.494004
O O8 0.500000 0.581232 0.500000
O O9 0.956054 0.500000 0.640902
O O10 0.000000 0.614180 0.500000
#
# Coordination Sequence:
#
# PCOD9221485 Si02
#       4
#     8   8   8   8
#     4  12  23  36  63  96 127 157 207 261 311 356
#     4   9  20  36  62  87 123 161 205 248 302 366
#     4   8  19  35  58  87 122 159 197 253 307 352
#     4  11  23  40  64  92 124 166 212 251 303 374
#
# _framework density 21.777871999999999
#
# number of rings (size 3 to 8) (size 9 to 14) (size 15 to 20)
#    1.500    0.250    2.500    2.250    3.500    4.500 
#    0.000    3.750    0.000    5.250    0.000    0.000 
#    0.000    0.000    0.000    0.000    0.000    0.000 
#
# Total GULP energy -89112.688608 kJ/mol
# GULP energy per Si atom -5569.543038 kJ/mol
# Density = 2.172830 g / cm^3
# Si number density = 21.777872 Si / 1000 Ang^3
#
#
#
# Elastic Constant Matrix: (Units=GPa)
#
#
# Indices 1 2 3 4 5 6 
#
# 1 141.2978 30.5165 19.2819 0.0000 29.4189 0.0000
# 2 30.5165 92.5340 1.3135 0.0000 4.8002 0.0000
# 3 19.2819 1.3135 78.4406 0.0000 23.9699 0.0000
# 4 0.0000 0.0000 0.0000 -33.7017 0.0000 1.7765
# 5 29.4189 4.8002 23.9699 0.0000 28.6697 0.0000
# 6 0.0000 0.0000 0.0000 1.7765 0.0000 4.4321
#
#
#
# Elastic Compliance Matrix: (Units=1/GPa)
#
#
# Indices 1 2 3 4 5 6 
#
# 1 0.009651 -0.002670 0.000755 0.000000 -0.010087 0.000000
# 2 -0.002670 0.011655 0.000296 0.000000 0.000541 0.000000
# 3 0.000755 0.000296 0.017206 0.000000 -0.015209 0.000000
# 4 0.000000 0.000000 0.000000 -0.029058 0.000000 0.011647
# 5 -0.010087 0.000541 -0.015209 0.000000 0.057856 0.000000
# 6 0.000000 0.000000 0.000000 0.011647 0.000000 0.220957
#
#
# Mechanical properties :
#
#
# Convention : Reuss Voigt Hill
#
# Bulk Modulus (GPa) = 28.35053 46.05512 37.20283
# Shear Modulus (GPa) = 16.48727 17.29072 16.88900
#
# Velocity S-wave (km/s) = 2.75447 2.82078 2.78782
# Velocity P-wave (km/s) = 4.81274 5.63939 5.24238
#
# Compressibility (1/GPa) = 0.03527271
#
# Stress axis : x y z
#
# Youngs Moduli (GPa) = 103.61413 85.79880 58.12052
#
# Poissons Ratio (x) = 0.22911 -0.04387
# Poissons Ratio (y) = 0.27668 -0.01719
# Poissons Ratio (z) = -0.07821 -0.02538
#
# Static dielectric constant tensor:
#      x y z
#    x 1.915860 0.000000 -0.012160 
#    y 0.000000 1.844750 0.000000 
#    z -0.012160 0.000000 1.786670 
# 
# From -- ./inp_files/131479.got.cif
#   From: 2010.05.17/outbox.cif.g08.bks.cpg/sg12_66_cif.got.tgz:131479.got - 2010.06.03 13:09:07.
