data_PCOD9221224
_publ_section_title
;
Structure prediction by ZEFSAII (Michael W. Deem and Ramdas Pophale) SiO2 
 PCOD9221224
Probable space group: C 2/M
;
_chemical_formula_sum "Si O2"
_cell_formula_units_Z 40
_cell_length_a 9.060990
_cell_length_b 33.032395
_cell_length_c 14.197209
_cell_angle_alpha 90.000000
_cell_angle_beta 151.068048
_cell_angle_gamma 90.000000
_cell_volume 2055.692235
_symmetry_space_group_name_H-M "C 2/M"
_symmetry_group_IT_number 12
_symmetry_cell_setting 'monoclinic'
loop_
_space_group_symop_operation_xyz
x,y,z
-x,y,-z
-x,-y,-z
x,-y,z
1/2+x,1/2+y,z
1/2-x,1/2+y,-z
1/2-x,1/2-y,-z
1/2+x,1/2-y,z
loop_
_atom_site_type_symbol
_atom_site_label
_atom_site_fract_x
_atom_site_fract_y
_atom_site_fract_z
Si Si1 0.126873 0.000000 0.175553
Si Si2 0.863650 0.848306 0.682898
Si Si3 0.863165 0.062552 0.180652
Si Si4 0.300642 0.707662 0.977008
Si Si5 0.650658 0.500000 0.478963
Si Si6 0.218665 0.792243 0.537772
O O1 0.491784 0.000000 0.356375
O O2 0.990475 0.962274 0.160324
O O3 0.000000 0.000000 0.000000
O O4 0.500000 0.851110 0.500000
O O5 0.894596 0.824373 0.601793
O O6 0.019689 0.891866 0.763035
O O7 0.031543 0.822792 0.858646
O O8 0.500000 0.060510 0.000000
O O9 0.017092 0.039694 0.354035
O O10 0.500000 0.719205 0.000000
O O11 0.250000 0.750000 0.000000
O O12 0.005551 0.690953 0.757494
O O13 0.500000 0.500000 0.500000
O O14 0.250000 0.750000 0.500000
O O15 0.000000 0.781679 0.500000
#
# Coordination Sequence:
#
# PCOD9221224 Si02
#       6
#     4   8   8   8   4   8
#     4  11  22  45  76 104 138 181 220 269 336 412
#     4  12  26  46  65  97 141 178 227 288 341 407
#     4  11  25  44  70 103 138 177 224 281 340 401
#     4  12  25  42  69  95 129 179 234 283 346 410
#     4  11  22  45  76 104 140 179 220 269 334 412
#     4  12  25  43  68  96 129 178 232 285 346 408
#
# _framework density 19.458167
#
# number of rings (size 3 to 8) (size 9 to 14) (size 15 to 20)
#    0.000    0.400    4.000    6.600    2.800    1.600 
#    3.600    0.000    0.000    0.000    0.000    0.000 
#    0.000    0.000    0.000    0.000    0.000    0.000 
#
# Total GULP energy -111533.765003 kJ/mol
# GULP energy per Si atom -5576.688250 kJ/mol
# Density = 1.941388 g / cm^3
# Si number density = 19.458167 Si / 1000 Ang^3
#
#
#
# Elastic Constant Matrix: (Units=GPa)
#
#
# Indices 1 2 3 4 5 6 
#
# 1 224.5113 96.2795 84.3037 0.0000 -7.2112 0.0000
# 2 96.2795 183.8103 76.0019 0.0000 -10.8690 0.0000
# 3 84.3037 76.0019 159.8011 0.0000 -4.0048 0.0000
# 4 0.0000 0.0000 0.0000 22.9393 0.0000 10.9788
# 5 -7.2112 -10.8690 -4.0048 0.0000 45.5342 0.0000
# 6 0.0000 0.0000 0.0000 10.9788 0.0000 8.5422
#
#
#
# Elastic Compliance Matrix: (Units=1/GPa)
#
#
# Indices 1 2 3 4 5 6 
#
# 1 0.006305 -0.002385 -0.002186 0.000000 0.000237 0.000000
# 2 -0.002385 0.007756 -0.002399 0.000000 0.001263 0.000000
# 3 -0.002186 -0.002399 0.008548 0.000000 -0.000167 0.000000
# 4 0.000000 0.000000 0.000000 0.113264 0.000000 -0.145572
# 5 0.000237 0.001263 -0.000167 0.000000 0.022286 0.000000
# 6 0.000000 0.000000 0.000000 -0.145572 0.000000 0.304163
#
#
# Mechanical properties :
#
#
# Convention : Reuss Voigt Hill
#
# Bulk Modulus (GPa) = 115.35059 120.14366 117.74713
# Shear Modulus (GPa) = 10.43510 36.17229 23.30370
#
# Velocity S-wave (km/s) = 2.31829 4.31626 3.46443
# Velocity P-wave (km/s) = 8.15941 9.31229 8.75485
#
# Compressibility (1/GPa) = 0.00866922
#
# Stress axis : x y z
#
# Youngs Moduli (GPa) = 158.59550 128.92956 116.98622
#
# Poissons Ratio (x) = 0.30746 0.25577
# Poissons Ratio (y) = 0.37821 0.28067
# Poissons Ratio (z) = 0.34674 0.30932
#
# Static dielectric constant tensor:
#      x y z
#    x 1.699520 0.000000 0.040200 
#    y 0.000000 1.762120 0.000000 
#    z 0.040200 0.000000 1.690100 
# 
# From -- ./inp_files/201437.got.cif
#   From: 2010.05.17/outbox.cif.g08.bks.cpg/sg12_101_cif.got.tgz:201437.got - 2010.06.03 13:09:07.
