data_PCOD9221181
_publ_section_title
;
Structure prediction by ZEFSAII (Michael W. Deem and Ramdas Pophale) SiO2 
 PCOD9221181
Probable space group: C 2/M
;
_chemical_formula_sum "Si O2"
_cell_formula_units_Z 42
_cell_length_a 10.866809
_cell_length_b 21.560828
_cell_length_c 10.415946
_cell_angle_alpha 90.000000
_cell_angle_beta 53.280356
_cell_angle_gamma 90.000000
_cell_volume 1956.176433
_symmetry_space_group_name_H-M "C 2/M"
_symmetry_group_IT_number 12
_symmetry_cell_setting 'monoclinic'
loop_
_space_group_symop_operation_xyz
x,y,z
-x,y,-z
-x,-y,-z
x,-y,z
1/2+x,1/2+y,z
1/2-x,1/2+y,-z
1/2-x,1/2-y,-z
1/2+x,1/2-y,z
loop_
_atom_site_type_symbol
_atom_site_label
_atom_site_fract_x
_atom_site_fract_y
_atom_site_fract_z
Si Si1 0.585228 0.608889 0.269100
Si Si2 0.048640 0.365423 0.321326
Si Si3 0.568576 0.264888 0.601684
Si Si4 0.000000 0.000000 0.500000
Si Si5 0.881253 0.571715 0.194129
Si Si6 0.173284 0.068835 0.936573
O O1 0.485955 0.669984 0.305689
O O2 0.488229 0.554939 0.396183
O O3 0.736009 0.616858 0.265300
O O4 0.664698 0.583806 0.091350
O O5 0.226270 0.381652 0.199884
O O6 0.000000 0.371043 0.500000
O O7 0.013804 0.296397 0.293162
O O8 0.963820 0.411412 0.275127
O O9 0.500000 0.269242 0.500000
O O10 0.750000 0.250000 0.500000
O O11 0.819578 0.500000 0.237373
O O12 0.000000 0.575595 0.000000
O O13 0.239029 0.000000 0.875509
O O14 0.000000 0.069035 0.000000
#
# Coordination Sequence:
#
# PCOD9221181 Si02
#       6
#     8   8   8   2   8   8
#     4  12  24  45  71 103 140 185 244 294 365 422
#     4  11  26  45  70 106 144 198 237 288 368 435
#     4  11  26  46  71 103 149 186 241 306 354 434
#     4  12  24  40  76 108 132 188 244 306 366 420
#     4  11  22  43  72 102 145 182 234 305 357 416
#     4  11  25  45  67 100 148 185 233 300 355 430
#
# _framework density 21.470457
#
# number of rings (size 3 to 8) (size 9 to 14) (size 15 to 20)
#    0.000    0.762    4.762    1.714    5.333    2.286 
#    0.000    0.000    0.000    0.000    0.000    0.000 
#    0.000    0.000    0.000    0.000    0.000    0.000 
#
# Total GULP energy -117082.689957 kJ/mol
# GULP energy per Si atom -5575.366188 kJ/mol
# Density = 2.142159 g / cm^3
# Si number density = 21.470457 Si / 1000 Ang^3
#
#
#
# Elastic Constant Matrix: (Units=GPa)
#
#
# Indices 1 2 3 4 5 6 
#
# 1 99.1697 31.0545 11.7577 0.0000 -12.1098 0.0000
# 2 31.0545 153.2117 51.0900 0.0000 -30.4131 0.0000
# 3 11.7577 51.0900 84.0458 0.0000 -1.9438 0.0000
# 4 0.0000 0.0000 0.0000 19.5951 0.0000 -3.7248
# 5 -12.1098 -30.4131 -1.9438 0.0000 38.0183 0.0000
# 6 0.0000 0.0000 0.0000 -3.7248 0.0000 30.4676
#
#
#
# Elastic Compliance Matrix: (Units=1/GPa)
#
#
# Indices 1 2 3 4 5 6 
#
# 1 0.010912 -0.001620 -0.000492 0.000000 0.002155 0.000000
# 2 -0.001620 0.010275 -0.005848 0.000000 0.007405 0.000000
# 3 -0.000492 -0.005848 0.015429 0.000000 -0.004046 0.000000
# 4 0.000000 0.000000 0.000000 0.052247 0.000000 0.006388
# 5 0.002155 0.007405 -0.004046 0.000000 0.032706 0.000000
# 6 0.000000 0.000000 0.000000 0.006388 0.000000 0.033603
#
#
# Mechanical properties :
#
#
# Convention : Reuss Voigt Hill
#
# Bulk Modulus (GPa) = 48.31907 58.24795 53.28351
# Shear Modulus (GPa) = 28.09115 33.78452 30.93784
#
# Velocity S-wave (km/s) = 3.62105 3.97108 3.80010
# Velocity P-wave (km/s) = 6.32744 6.94365 6.64269
#
# Compressibility (1/GPa) = 0.02069576
#
# Stress axis : x y z
#
# Youngs Moduli (GPa) = 91.63805 97.32032 64.81467
#
# Poissons Ratio (x) = 0.15767 0.03189
# Poissons Ratio (y) = 0.14846 0.37906
# Poissons Ratio (z) = 0.04508 0.56916
#
# Static dielectric constant tensor:
#      x y z
#    x 1.933890 0.000000 0.024430 
#    y 0.000000 1.794420 0.000000 
#    z 0.024430 0.000000 1.776690 
# 
# From -- ./inp_files/132899.got.cif
#   From: 2010.05.17/outbox.cif.g08.bks.cpg/sg12_67_cif.got.tgz:132899.got - 2010.06.03 13:09:07.
