data_PCOD9221119
_publ_section_title
;
Structure prediction by ZEFSAII (Michael W. Deem and Ramdas Pophale) SiO2 
 PCOD9221119
Probable space group: C 2/M
;
_chemical_formula_sum "Si O2"
_cell_formula_units_Z 40
_cell_length_a 10.593799
_cell_length_b 21.441539
_cell_length_c 7.590014
_cell_angle_alpha 90.000000
_cell_angle_beta 89.937202
_cell_angle_gamma 90.000000
_cell_volume 1724.050565
_symmetry_space_group_name_H-M "C 2/M"
_symmetry_group_IT_number 12
_symmetry_cell_setting 'monoclinic'
loop_
_space_group_symop_operation_xyz
x,y,z
-x,y,-z
-x,-y,-z
x,-y,z
1/2+x,1/2+y,z
1/2-x,1/2+y,-z
1/2-x,1/2-y,-z
1/2+x,1/2-y,z
loop_
_atom_site_type_symbol
_atom_site_label
_atom_site_fract_x
_atom_site_fract_y
_atom_site_fract_z
Si Si1 0.892747 0.000000 0.155316
Si Si2 0.141319 0.500000 0.920939
Si Si3 0.598247 0.134985 0.779449
Si Si4 0.917229 0.135289 0.272646
Si Si5 0.339265 0.180299 0.843759
Si Si6 0.336329 0.688726 0.645720
O O1 0.906847 0.061038 0.275492
O O2 0.755611 0.000000 0.060539
O O3 0.000000 0.000000 0.000000
O O4 0.145382 0.564989 0.815550
O O5 0.000000 0.500000 0.000000
O O6 0.447566 0.136419 0.755812
O O7 0.692422 0.165546 0.642185
O O8 0.622982 0.178961 0.950869
O O9 0.803567 0.156325 0.149030
O O10 0.882196 0.174119 0.448445
O O11 0.062953 0.150393 0.235608
O O12 0.344236 0.243388 0.731876
#
# Coordination Sequence:
#
# PCOD9221119 Si02
#       6
#     4   4   8   8   8   8
#     4  12  24  44  73  99 131 174 231 279 332 402
#     4  12  20  43  65  95 133 161 220 287 323 391
#     4  11  23  40  69  99 130 175 224 278 334 390
#     4  11  25  43  66  97 135 177 220 273 338 396
#     4  11  22  42  66  98 132 176 224 275 326 399
#     4  11  25  41  62  96 138 176 218 270 332 402
#
# _framework density 23.201174999999999
#
# number of rings (size 3 to 8) (size 9 to 14) (size 15 to 20)
#    0.000    0.800    4.000    3.600    0.000    6.400 
#    0.000    0.000    0.000    3.600    0.000    0.000 
#    0.000    0.000    0.000    0.000    0.000    0.000 
#
# Total GULP energy -111592.694554 kJ/mol
# GULP energy per Si atom -5579.634728 kJ/mol
# Density = 2.314837 g / cm^3
# Si number density = 23.201175 Si / 1000 Ang^3
#
#
#
# Elastic Constant Matrix: (Units=GPa)
#
#
# Indices 1 2 3 4 5 6 
#
# 1 111.7691 -16.0408 18.5624 0.0000 12.3982 0.0000
# 2 -16.0408 155.9350 24.8398 0.0000 8.8642 0.0000
# 3 18.5624 24.8398 53.3870 0.0000 -7.4220 0.0000
# 4 0.0000 0.0000 0.0000 1.1040 0.0000 6.5943
# 5 12.3982 8.8642 -7.4220 0.0000 35.7497 0.0000
# 6 0.0000 0.0000 0.0000 6.5943 0.0000 44.8668
#
#
#
# Elastic Compliance Matrix: (Units=1/GPa)
#
#
# Indices 1 2 3 4 5 6 
#
# 1 0.010819 0.002318 -0.005603 0.000000 -0.005490 0.000000
# 2 0.002318 0.007639 -0.004876 0.000000 -0.003710 0.000000
# 3 -0.005603 -0.004876 0.024081 0.000000 0.008152 0.000000
# 4 0.000000 0.000000 0.000000 7.419035 0.000000 -1.090421
# 5 -0.005490 -0.003710 0.008152 0.000000 0.032489 0.000000
# 6 0.000000 0.000000 0.000000 -1.090421 0.000000 0.182554
#
#
# Mechanical properties :
#
#
# Convention : Reuss Voigt Hill
#
# Bulk Modulus (GPa) = 38.14420 41.75710 39.95065
# Shear Modulus (GPa) = 0.64921 35.92609 18.28765
#
# Velocity S-wave (km/s) = 0.52955 3.93932 2.81057
# Velocity P-wave (km/s) = 4.10490 6.22317 5.27153
#
# Compressibility (1/GPa) = 0.02621631
#
# Stress axis : x y z
#
# Youngs Moduli (GPa) = 92.42786 130.90801 41.52587
#
# Poissons Ratio (x) = -0.30340 0.23269
# Poissons Ratio (y) = -0.21422 0.20247
# Poissons Ratio (z) = 0.51791 0.63829
#
# Static dielectric constant tensor:
#      x y z
#    x 1.978830 0.000000 0.018650 
#    y 0.000000 1.882470 0.000000 
#    z 0.018650 0.000000 1.945880 
# 
# From -- ./inp_files/48729.got.cif
#   From: 2010.05.17/outbox.cif.g08.bks.cpg/sg12_25_cif.got.tgz:48729.got - 2010.06.03 13:09:07.
