data_PCOD9221708
_publ_section_title
;
Structure prediction by ZEFSAII (Michael W. Deem and Ramdas Pophale) SiO2 
 PCOD9221708
Probable space group: C 2/M
;
_chemical_formula_sum "Si O2"
_cell_formula_units_Z 40
_cell_length_a 12.404301
_cell_length_b 17.683116
_cell_length_c 18.876376
_cell_angle_alpha 90.000000
_cell_angle_beta 152.562329
_cell_angle_gamma 90.000000
_cell_volume 1907.860185
_symmetry_space_group_name_H-M "C 2/M"
_symmetry_group_IT_number 12
_symmetry_cell_setting 'monoclinic'
loop_
_space_group_symop_operation_xyz
x,y,z
-x,y,-z
-x,-y,-z
x,-y,z
1/2+x,1/2+y,z
1/2-x,1/2+y,-z
1/2-x,1/2-y,-z
1/2+x,1/2-y,z
loop_
_atom_site_type_symbol
_atom_site_label
_atom_site_fract_x
_atom_site_fract_y
_atom_site_fract_z
Si Si1 0.788124 0.653894 0.819947
Si Si2 0.193037 0.086643 0.436040
Si Si3 0.894149 0.322923 0.267408
Si Si4 0.631264 0.411974 0.237743
Si Si5 0.829470 0.335239 0.066209
O O1 0.581817 0.594058 0.708207
O O2 0.660723 0.734376 0.757836
O O3 0.916119 0.652657 0.818910
O O4 0.000000 0.646898 0.000000
O O5 0.343692 0.147242 0.567163
O O6 0.225750 0.103821 0.371545
O O7 0.270206 0.000000 0.494173
O O8 0.747394 0.363636 0.243508
O O9 0.821991 0.344893 0.145948
O O10 0.666884 0.500000 0.244197
O O11 0.357914 0.391080 0.077892
O O12 0.750000 0.250000 0.000000
#
# Coordination Sequence:
#
# PCOD9221708 Si02
#       5
#     8   8   8   8   8
#     4  12  23  43  72  96 132 179 230 275 330 401
#     4  11  26  46  68 100 140 181 222 270 338 405
#     4  12  24  42  68  99 140 172 223 284 335 395
#     4  11  23  42  70 100 136 181 224 272 334 403
#     4  12  23  42  67 102 134 175 227 280 332 397
#
# _framework density 20.965896000000001
#
# number of rings (size 3 to 8) (size 9 to 14) (size 15 to 20)
#    0.000    0.400    6.000    2.400    0.000    6.000 
#    3.600    1.000    0.000    0.000    0.000    0.000 
#    0.000    0.000    0.000    0.000    0.000    0.000 
#
# Total GULP energy -111885.683845 kJ/mol
# GULP energy per Si atom -5594.284192 kJ/mol
# Density = 2.091818 g / cm^3
# Si number density = 20.965896 Si / 1000 Ang^3
#
#
#
# Elastic Constant Matrix: (Units=GPa)
#
#
# Indices 1 2 3 4 5 6 
#
# 1 64.4519 -12.0807 -4.9900 0.0083 15.7533 0.0098
# 2 -12.0807 29.2637 17.1395 0.0144 1.0016 0.0087
# 3 -4.9900 17.1395 91.4209 0.0212 12.0687 0.0119
# 4 0.0083 0.0144 0.0212 63.5849 -0.0042 32.8038
# 5 15.7533 1.0016 12.0687 -0.0042 35.6810 -0.0040
# 6 0.0098 0.0087 0.0119 32.8038 -0.0040 43.7239
#
#
#
# Elastic Compliance Matrix: (Units=1/GPa)
#
#
# Indices 1 2 3 4 5 6 
#
# 1 0.019228 0.007792 0.000773 -0.000003 -0.008969 -0.000005
# 2 0.007792 0.041614 -0.007084 -0.000006 -0.002212 -0.000004
# 3 0.000773 -0.007084 0.012904 -0.000003 -0.004507 -0.000001
# 4 -0.000003 -0.000006 -0.000003 0.025658 0.000003 -0.019250
# 5 -0.008969 -0.002212 -0.004507 0.000003 0.033573 0.000004
# 6 -0.000005 -0.000004 -0.000001 -0.019250 0.000004 0.037313
#
#
# Mechanical properties :
#
#
# Convention : Reuss Voigt Hill
#
# Bulk Modulus (GPa) = 13.03665 20.58600 16.81133
# Shear Modulus (GPa) = 25.92052 40.93579 33.42816
#
# Velocity S-wave (km/s) = 3.51995 4.42350 3.99733
# Velocity P-wave (km/s) = 4.76986 5.99416 5.41671
#
# Compressibility (1/GPa) = 0.07670680
#
# Stress axis : x y z
#
# Youngs Moduli (GPa) = 52.00720 24.03046 77.49697
#
# Poissons Ratio (x) = -0.18725 -0.05988
# Poissons Ratio (y) = -0.40525 0.54902
# Poissons Ratio (z) = -0.04019 0.17024
#
# Static dielectric constant tensor:
#      x y z
#    x 1.770070 0.000000 0.023250 
#    y 0.000000 1.730460 -0.000010 
#    z 0.023250 -0.000010 1.772860 
# 
# From -- ./inp_files/158425.got.cif
#   From: 2010.05.17/outbox.cif.g08.bks.cpg/sg12_80_cif.got.tgz:158425.got - 2010.06.03 13:09:07.
