data_PCOD9221401
_publ_section_title
;
Structure prediction by ZEFSAII (Michael W. Deem and Ramdas Pophale) SiO2 
 PCOD9221401
Probable space group: C 2/M
;
_chemical_formula_sum "Si O2"
_cell_formula_units_Z 48
_cell_length_a 16.176635
_cell_length_b 28.893693
_cell_length_c 16.736187
_cell_angle_alpha 90.000000
_cell_angle_beta 162.851525
_cell_angle_gamma 90.000000
_cell_volume 2306.466884
_symmetry_space_group_name_H-M "C 2/M"
_symmetry_group_IT_number 12
_symmetry_cell_setting 'monoclinic'
loop_
_space_group_symop_operation_xyz
x,y,z
-x,y,-z
-x,-y,-z
x,-y,z
1/2+x,1/2+y,z
1/2-x,1/2+y,-z
1/2-x,1/2-y,-z
1/2+x,1/2-y,z
loop_
_atom_site_type_symbol
_atom_site_label
_atom_site_fract_x
_atom_site_fract_y
_atom_site_fract_z
Si Si1 0.495929 0.553716 0.262789
Si Si2 0.306765 0.169751 0.249608
Si Si3 0.065977 0.239269 0.408421
Si Si4 0.277360 0.594844 0.223853
Si Si5 0.461738 0.177013 0.104084
Si Si6 0.043053 0.607256 0.753665
O O1 0.564623 0.500000 0.321148
O O2 0.434958 0.568305 0.298149
O O3 0.741023 0.586368 0.455769
O O4 0.220972 0.566829 0.959055
O O5 0.500000 0.152709 0.500000
O O6 0.459877 0.214777 0.354211
O O7 0.302005 0.130939 0.176954
O O8 0.000000 0.181225 0.000000
O O9 0.250000 0.250000 0.500000
O O10 0.254522 0.206866 0.640825
O O11 0.794212 0.212262 0.127068
O O12 0.500000 0.603965 0.500000
O O13 0.140049 0.640512 0.056437
O O14 0.000000 0.568725 0.000000
O O15 0.495618 0.146929 0.215287
#
# Coordination Sequence:
#
# PCOD9221401 Si02
#       6
#     8   8   8   8   8   8
#     4  11  24  43  71 100 122 166 224 266 325 403
#     4  12  27  43  66  99 132 169 220 270 331 379
#     4  12  24  40  67  93 131 177 223 275 306 371
#     4  11  23  39  62  95 139 177 212 264 326 378
#     4  11  23  40  66  91 128 183 229 256 308 379
#     4  11  23  44  70  92 129 171 214 270 323 394
#
# _framework density 20.811050999999999
#
# number of rings (size 3 to 8) (size 9 to 14) (size 15 to 20)
#    0.000    0.667    1.667    8.000    2.333    3.333 
#    0.000    1.667    0.000   10.000    0.000    0.000 
#    0.000    0.000    0.000    0.000    0.000    0.000 
#
# Total GULP energy -134278.247824 kJ/mol
# GULP energy per Si atom -5594.926993 kJ/mol
# Density = 2.076368 g / cm^3
# Si number density = 20.811051 Si / 1000 Ang^3
#
#
#
# Elastic Constant Matrix: (Units=GPa)
#
#
# Indices 1 2 3 4 5 6 
#
# 1 97.0207 33.5701 11.3504 -0.0087 7.2145 -0.0008
# 2 33.5701 79.4525 13.9620 -0.0012 -7.5794 -0.0009
# 3 11.3504 13.9620 97.3518 -0.0161 5.0814 -0.0026
# 4 -0.0087 -0.0012 -0.0161 23.4469 -0.0066 4.5809
# 5 7.2145 -7.5794 5.0814 -0.0066 32.8699 -0.0026
# 6 -0.0008 -0.0009 -0.0026 4.5809 -0.0026 1.9672
#
#
#
# Elastic Compliance Matrix: (Units=1/GPa)
#
#
# Indices 1 2 3 4 5 6 
#
# 1 0.012604 -0.005627 -0.000454 0.000007 -0.003994 -0.000019
# 2 -0.005627 0.015786 -0.001878 -0.000005 0.005165 0.000022
# 3 -0.000454 -0.001878 0.010698 0.000008 -0.001987 -0.000008
# 4 0.000007 -0.000005 0.000008 0.078250 -0.000003 -0.182215
# 5 -0.003994 0.005165 -0.001987 -0.000003 0.032798 0.000048
# 6 -0.000019 0.000022 -0.000008 -0.182215 0.000048 0.932644
#
#
# Mechanical properties :
#
#
# Convention : Reuss Voigt Hill
#
# Bulk Modulus (GPa) = 43.15646 43.51002 43.33324
# Shear Modulus (GPa) = 4.51908 25.98630 15.25269
#
# Velocity S-wave (km/s) = 1.47519 3.53750 2.71017
# Velocity P-wave (km/s) = 4.86661 6.13496 5.53722
#
# Compressibility (1/GPa) = 0.02317150
#
# Stress axis : x y z
#
# Youngs Moduli (GPa) = 79.33967 63.34659 93.47568
#
# Poissons Ratio (x) = 0.35643 0.04245
# Poissons Ratio (y) = 0.44641 0.17551
# Poissons Ratio (z) = 0.03603 0.11894
#
# Static dielectric constant tensor:
#      x y z
#    x 1.776340 0.000000 0.012620 
#    y 0.000000 1.729390 0.000000 
#    z 0.012620 0.000000 1.728000 
# 
# From -- ./inp_files/219609.got.cif
#   From: 2010.05.17/outbox.cif.g08.bks.cpg/sg12_110_cif.got.tgz:219609.got - 2010.06.03 13:09:07.
