data_PCOD9221298
_publ_section_title
;
Structure prediction by ZEFSAII (Michael W. Deem and Ramdas Pophale) SiO2 
 PCOD9221298
Probable space group: C 2/M
;
_chemical_formula_sum "Si O2"
_cell_formula_units_Z 64
_cell_length_a 14.695397
_cell_length_b 19.678923
_cell_length_c 14.528078
_cell_angle_alpha 90.000000
_cell_angle_beta 129.865727
_cell_angle_gamma 90.000000
_cell_volume 3224.755271
_symmetry_space_group_name_H-M "C 2/M"
_symmetry_group_IT_number 12
_symmetry_cell_setting 'monoclinic'
loop_
_space_group_symop_operation_xyz
x,y,z
-x,y,-z
-x,-y,-z
x,-y,z
1/2+x,1/2+y,z
1/2-x,1/2+y,-z
1/2-x,1/2-y,-z
1/2+x,1/2-y,z
loop_
_atom_site_type_symbol
_atom_site_label
_atom_site_fract_x
_atom_site_fract_y
_atom_site_fract_z
Si Si1 0.795736 0.253425 0.135594
Si Si2 0.186492 0.099841 0.820452
Si Si3 0.896236 0.803493 0.860829
Si Si4 0.459556 0.808597 0.753825
Si Si5 0.756427 0.831778 0.490888
Si Si6 0.063709 0.427522 0.942523
Si Si7 0.358790 0.572593 0.414349
Si Si8 0.577689 0.581288 0.264710
O O1 0.783565 0.178814 0.167623
O O2 0.720761 0.302706 0.152129
O O3 0.933926 0.269002 0.224681
O O4 0.750000 0.250000 0.000000
O O5 0.191089 0.072144 0.720556
O O6 0.054226 0.088725 0.775271
O O7 0.294636 0.072965 0.951628
O O8 0.895172 0.745955 0.779752
O O9 0.923074 0.875823 0.830644
O O10 0.000000 0.784943 0.000000
O O11 0.379038 0.844863 0.625392
O O12 0.520017 0.865108 0.855483
O O13 0.750000 0.750000 0.500000
O O14 0.822390 0.859558 0.442983
O O15 0.823506 0.876441 0.611801
O O16 0.028006 0.500000 0.877995
O O17 0.000000 0.422392 0.000000
O O18 0.500000 0.572787 0.500000
O O19 0.324302 0.500000 0.438107
O O20 0.601664 0.500000 0.273398
#
# Coordination Sequence:
#
# PCOD9221298 Si02
#       8
#     8   8   8   8   8   8   8   8
#     4  12  22  41  69 100 136 174 223 288 340 408
#     4  12  21  41  68 100 136 177 228 287 348 408
#     4  12  23  43  70 103 137 177 229 286 348 411
#     4  12  24  43  67 101 134 179 226 276 345 409
#     4  12  24  44  65  97 138 181 230 279 336 411
#     4  11  23  37  59  95 136 175 216 271 346 419
#     4  11  23  39  65 101 137 173 224 288 346 396
#     4  12  26  45  70 101 141 184 233 288 342 408
#
# _framework density 19.846468000000002
#
# number of rings (size 3 to 8) (size 9 to 14) (size 15 to 20)
#    0.000    0.250    6.250    4.125    0.000    2.250 
#    0.000    1.250    0.000    0.750    0.000    0.000 
#    0.000    0.000    0.000    0.000    0.000    0.000 
#
# Total GULP energy -178551.938896 kJ/mol
# GULP energy per Si atom -5579.748091 kJ/mol
# Density = 1.980130 g / cm^3
# Si number density = 19.846468 Si / 1000 Ang^3
#
#
#
# Elastic Constant Matrix: (Units=GPa)
#
#
# Indices 1 2 3 4 5 6 
#
# 1 79.4984 18.5668 11.6151 0.0000 -1.1539 0.0000
# 2 18.5668 140.7732 21.9077 0.0000 -9.1983 0.0000
# 3 11.6151 21.9077 84.6366 0.0000 13.8482 0.0000
# 4 0.0000 0.0000 0.0000 -12.5637 0.0000 -57.7152
# 5 -1.1539 -9.1983 13.8482 0.0000 27.9893 0.0000
# 6 0.0000 0.0000 0.0000 -57.7152 0.0000 -40.2864
#
#
#
# Elastic Compliance Matrix: (Units=1/GPa)
#
#
# Indices 1 2 3 4 5 6 
#
# 1 0.013156 -0.001435 -0.001573 0.000000 0.000849 0.000000
# 2 -0.001435 0.007923 -0.002470 0.000000 0.003767 0.000000
# 3 -0.001573 -0.002470 0.013943 0.000000 -0.007775 0.000000
# 4 0.000000 0.000000 0.000000 0.014261 0.000000 -0.020431
# 5 0.000849 0.003767 -0.007775 0.000000 0.040848 0.000000
# 6 0.000000 0.000000 0.000000 -0.020431 0.000000 0.004447
#
#
# Mechanical properties :
#
#
# Convention : Reuss Voigt Hill
#
# Bulk Modulus (GPa) = 41.55285 45.45413 43.50349
# Shear Modulus (GPa) = 44.03069 11.88243 27.95656
#
# Velocity S-wave (km/s) = 4.71528 2.44953 3.75726
# Velocity P-wave (km/s) = 7.11531 5.56353 6.38673
#
# Compressibility (1/GPa) = 0.02406574
#
# Stress axis : x y z
#
# Youngs Moduli (GPa) = 76.01016 126.20728 71.72217
#
# Poissons Ratio (x) = 0.18110 0.11282
# Poissons Ratio (y) = 0.10907 0.17718
# Poissons Ratio (z) = 0.11956 0.31178
#
# Static dielectric constant tensor:
#      x y z
#    x 1.770770 0.000000 0.036050 
#    y 0.000000 1.756410 0.000000 
#    z 0.036050 0.000000 1.767010 
# 
# From -- ./inp_files/216837.got.cif
#   From: 2010.05.17/outbox.cif.g08.bks.cpg/sg12_109_cif.got.tgz:216837.got - 2010.06.03 13:09:07.
