data_PCOD9221391
_publ_section_title
;
Structure prediction by ZEFSAII (Michael W. Deem and Ramdas Pophale) SiO2 
 PCOD9221391
Probable space group: C 2/M
;
_chemical_formula_sum "Si O2"
_cell_formula_units_Z 40
_cell_length_a 18.633650
_cell_length_b 11.769197
_cell_length_c 7.344747
_cell_angle_alpha 90.000000
_cell_angle_beta 102.612700
_cell_angle_gamma 90.000000
_cell_volume 1571.856355
_symmetry_space_group_name_H-M "C 2/M"
_symmetry_group_IT_number 12
_symmetry_cell_setting 'monoclinic'
loop_
_space_group_symop_operation_xyz
x,y,z
-x,y,-z
-x,-y,-z
x,-y,z
1/2+x,1/2+y,z
1/2-x,1/2+y,-z
1/2-x,1/2-y,-z
1/2+x,1/2-y,z
loop_
_atom_site_type_symbol
_atom_site_label
_atom_site_fract_x
_atom_site_fract_y
_atom_site_fract_z
Si Si1 0.346486 0.621830 0.693798
Si Si2 0.493184 0.661803 0.283380
Si Si3 0.584661 0.874496 0.773796
Si Si4 0.663273 0.336053 0.735558
Si Si5 0.320278 0.125053 0.820636
O O1 0.316319 0.500000 0.747169
O O2 0.434872 0.621901 0.776148
O O3 0.335761 0.619320 0.468861
O O4 0.321832 0.749470 0.732251
O O5 0.500000 0.631114 0.500000
O O6 0.488648 0.798984 0.272048
O O7 0.409516 0.627046 0.193180
O O8 0.645732 0.798327 0.705855
O O9 0.575716 0.000000 0.698072
O O10 0.615578 0.876998 0.995376
O O11 0.739165 0.369756 0.867643
O O12 0.324008 0.000000 0.726697
#
# Coordination Sequence:
#
# PCOD9221391 Si02
#       5
#     8   8   8   8   8
#     4  11  23  40  60  90 124 158 198 246 296 355
#     4   8  19  38  59  88 114 152 204 244 293 344
#     4   9  20  38  61  89 121 155 200 246 297 354
#     4   9  20  39  62  87 114 155 204 246 293 346
#     4  11  23  39  61  91 124 159 194 244 303 355
#
# _framework density 25.447616
#
# number of rings (size 3 to 8) (size 9 to 14) (size 15 to 20)
#    1.200    1.200    0.000    1.800    0.000    8.000 
#    0.000    6.000    0.000    0.000    0.000    0.000 
#    0.000    0.000    0.000    0.000    0.000    0.000 
#
# Total GULP energy -111394.600353 kJ/mol
# GULP energy per Si atom -5569.730018 kJ/mol
# Density = 2.538970 g / cm^3
# Si number density = 25.447616 Si / 1000 Ang^3
#
#
#
# Elastic Constant Matrix: (Units=GPa)
#
#
# Indices 1 2 3 4 5 6 
#
# 1 50.5130 19.9070 13.7019 0.0000 5.7727 0.0000
# 2 19.9070 297.0639 22.6638 0.0000 -12.5396 0.0000
# 3 13.7019 22.6638 43.7575 0.0000 -6.9627 0.0000
# 4 0.0000 0.0000 0.0000 2.1071 0.0000 -4.1701
# 5 5.7727 -12.5396 -6.9627 0.0000 19.5045 0.0000
# 6 0.0000 0.0000 0.0000 -4.1701 0.0000 -9.6352
#
#
#
# Elastic Compliance Matrix: (Units=1/GPa)
#
#
# Indices 1 2 3 4 5 6 
#
# 1 0.023926 -0.001420 -0.008512 0.000000 -0.011033 0.000000
# 2 -0.001420 0.003643 -0.001063 0.000000 0.002383 0.000000
# 3 -0.008512 -0.001063 0.027949 0.000000 0.011813 0.000000
# 4 0.000000 0.000000 0.000000 0.255633 0.000000 -0.110636
# 5 -0.011033 0.002383 0.011813 0.000000 0.060284 0.000000
# 6 0.000000 0.000000 0.000000 -0.110636 0.000000 -0.055903
#
#
# Mechanical properties :
#
#
# Convention : Reuss Voigt Hill
#
# Bulk Modulus (GPa) = 29.82578 55.98663 42.90620
# Shear Modulus (GPa) = 14.33901 24.73272 19.53586
#
# Velocity S-wave (km/s) = 2.37633 3.12092 2.77373
# Velocity P-wave (km/s) = 4.39035 5.91907 5.21107
#
# Compressibility (1/GPa) = 0.03352804
#
# Stress axis : x y z
#
# Youngs Moduli (GPa) = 41.79513 274.49068 35.77925
#
# Poissons Ratio (x) = 0.38968 0.30457
# Poissons Ratio (y) = 0.05933 0.03804
# Poissons Ratio (z) = 0.35578 0.29184
#
# Static dielectric constant tensor:
#      x y z
#    x 2.006960 0.000000 0.009130 
#    y 0.000000 2.129340 0.000000 
#    z 0.009130 0.000000 2.001810 
# 
# From -- ./inp_files/162739.got.cif
#   From: 2010.05.17/outbox.cif.g08.bks.cpg/sg12_82_cif.got.tgz:162739.got - 2010.06.03 13:09:07.
