data_PCOD9221471
_publ_section_title
;
Structure prediction by ZEFSAII (Michael W. Deem and Ramdas Pophale) SiO2 
 PCOD9221471
Probable space group: C 2/M
;
_chemical_formula_sum "Si O2"
_cell_formula_units_Z 56
_cell_length_a 14.780570
_cell_length_b 8.627152
_cell_length_c 30.430551
_cell_angle_alpha 90.000000
_cell_angle_beta 52.650082
_cell_angle_gamma 90.000000
_cell_volume 3084.648280
_symmetry_space_group_name_H-M "C 2/M"
_symmetry_group_IT_number 12
_symmetry_cell_setting 'monoclinic'
loop_
_space_group_symop_operation_xyz
x,y,z
-x,y,-z
-x,-y,-z
x,-y,z
1/2+x,1/2+y,z
1/2-x,1/2+y,-z
1/2-x,1/2-y,-z
1/2+x,1/2-y,z
loop_
_atom_site_type_symbol
_atom_site_label
_atom_site_fract_x
_atom_site_fract_y
_atom_site_fract_z
Si Si1 0.950209 0.187363 0.239683
Si Si2 0.791620 0.316804 0.362446
Si Si3 0.653278 0.682114 0.560571
Si Si4 0.827359 0.812736 0.938320
Si Si5 0.958543 0.318042 0.562217
Si Si6 0.413883 0.313355 0.149675
Si Si7 0.210996 0.813308 0.149958
O O1 0.875236 0.265843 0.298979
O O2 0.907808 0.229592 0.203083
O O3 0.083856 0.230324 0.203417
O O4 0.942788 0.000000 0.245860
O O5 0.771084 0.500000 0.367244
O O6 0.842754 0.268689 0.394326
O O7 0.672349 0.226862 0.394383
O O8 0.673543 0.500000 0.561231
O O9 0.750000 0.750000 0.500000
O O10 0.534807 0.714837 0.571564
O O11 0.783032 0.763958 0.903019
O O12 0.959798 0.763866 0.903312
O O13 0.825915 0.000000 0.939489
O O14 0.750000 0.750000 0.000000
O O15 0.976410 0.500000 0.566606
O O16 0.000000 0.291310 0.500000
O O17 0.410918 0.500000 0.148687
O O18 0.311871 0.249789 0.150313
O O19 0.215934 0.000000 0.149117
#
# Coordination Sequence:
#
# PCOD9221471 Si02
#       7
#     8   8   8   8   8   8   8
#     4   9  20  40  59  78 111 150 188 236 288 339
#     4  12  25  40  61  89 119 152 191 236 289 350
#     4  12  24  40  62  87 116 150 188 231 282 342
#     4   9  19  35  53  80 116 153 190 230 280 334
#     4  11  23  40  63  87 114 150 189 231 282 340
#     4   9  19  36  58  81 110 149 190 235 286 336
#     4   9  19  36  58  81 110 149 191 235 285 336
#
# _framework density 18.154418
#
# number of rings (size 3 to 8) (size 9 to 14) (size 15 to 20)
#    0.000    1.857    1.429    4.714    0.000    4.571 
#    0.000    8.571    0.000    0.000    0.000    0.000 
#    0.000    0.000    0.000    0.000    0.000    0.000 
#
# Total GULP energy -156378.844718 kJ/mol
# GULP energy per Si atom -5584.958740 kJ/mol
# Density = 1.811310 g / cm^3
# Si number density = 18.154418 Si / 1000 Ang^3
#
#
#
# Elastic Constant Matrix: (Units=GPa)
#
#
# Indices 1 2 3 4 5 6 
#
# 1 136.5077 13.6613 62.8892 0.0000 -1.3174 0.0000
# 2 13.6613 31.8107 29.2343 0.0000 0.1990 0.0000
# 3 62.8892 29.2343 154.7196 0.0000 0.7037 0.0000
# 4 0.0000 0.0000 0.0000 32.1688 0.0000 -1.1804
# 5 -1.3174 0.1990 0.7037 0.0000 12.3110 0.0000
# 6 0.0000 0.0000 0.0000 -1.1804 0.0000 36.9234
#
#
#
# Elastic Compliance Matrix: (Units=1/GPa)
#
#
# Indices 1 2 3 4 5 6 
#
# 1 0.009040 -0.000615 -0.003564 0.000000 0.001181 0.000000
# 2 -0.000615 0.038084 -0.006945 0.000000 -0.000284 0.000000
# 3 -0.003564 -0.006945 0.009228 0.000000 -0.000797 0.000000
# 4 0.000000 0.000000 0.000000 0.031123 0.000000 0.000995
# 5 0.001181 -0.000284 -0.000797 0.000000 0.081405 0.000000
# 6 0.000000 0.000000 0.000000 0.000995 0.000000 0.027115
#
#
# Mechanical properties :
#
#
# Convention : Reuss Voigt Hill
#
# Bulk Modulus (GPa) = 29.32081 59.40086 44.36083
# Shear Modulus (GPa) = 21.77607 30.76418 26.27012
#
# Velocity S-wave (km/s) = 3.46712 4.12100 3.80812
# Velocity P-wave (km/s) = 5.67572 7.44542 6.61997
#
# Compressibility (1/GPa) = 0.03410547
#
# Stress axis : x y z
#
# Youngs Moduli (GPa) = 110.61458 26.25772 108.36819
#
# Poissons Ratio (x) = 0.01614 0.38622
# Poissons Ratio (y) = 0.06798 0.75261
# Poissons Ratio (z) = 0.39422 0.18236
#
# Static dielectric constant tensor:
#      x y z
#    x 1.612630 0.000000 -0.003940 
#    y 0.000000 1.612220 0.000000 
#    z -0.003940 0.000000 1.595850 
# 
# From -- ./inp_files/338168.got.cif
#   From: 2010.05.17/outbox.cif.g08.bks.cpg/sg12_170_cif.got.tgz:338168.got - 2010.06.03 13:09:07.
