data_PCOD9221476
_publ_section_title
;
Structure prediction by ZEFSAII (Michael W. Deem and Ramdas Pophale) SiO2 
 PCOD9221476
Probable space group: C 2/M
;
_chemical_formula_sum "Si O2"
_cell_formula_units_Z 48
_cell_length_a 15.352989
_cell_length_b 8.805702
_cell_length_c 26.605204
_cell_angle_alpha 90.000000
_cell_angle_beta 142.878323
_cell_angle_gamma 90.000000
_cell_volume 2170.739804
_symmetry_space_group_name_H-M "C 2/M"
_symmetry_group_IT_number 12
_symmetry_cell_setting 'monoclinic'
loop_
_space_group_symop_operation_xyz
x,y,z
-x,y,-z
-x,-y,-z
x,-y,z
1/2+x,1/2+y,z
1/2-x,1/2+y,-z
1/2-x,1/2-y,-z
1/2+x,1/2-y,z
loop_
_atom_site_type_symbol
_atom_site_label
_atom_site_fract_x
_atom_site_fract_y
_atom_site_fract_z
Si Si1 0.343638 0.820713 0.810728
Si Si2 0.077020 0.174771 0.317448
Si Si3 0.368947 0.326771 0.478717
Si Si4 0.944495 0.677655 0.350279
Si Si5 0.091283 0.823579 0.864711
Si Si6 0.329952 0.325407 0.911229
O O1 0.214093 0.750445 0.717971
O O2 0.496544 0.749938 0.865020
O O3 0.309365 0.777573 0.852500
O O4 0.346309 0.000000 0.805307
O O5 0.242564 0.223907 0.398162
O O6 0.994063 0.287059 0.316545
O O7 0.011442 0.185466 0.231885
O O8 0.057578 0.000000 0.325591
O O9 0.500000 0.331083 0.500000
O O10 0.317553 0.500000 0.463625
O O11 0.436420 0.257018 0.560080
O O12 0.937592 0.500000 0.357760
O O13 0.235523 0.737228 0.913945
O O14 0.121483 0.000000 0.889426
O O15 0.287805 0.500000 0.880921
O O16 0.500000 0.322700 0.000000
#
# Coordination Sequence:
#
# PCOD9221476 Si02
#       6
#     8   8   8   8   8   8
#     4  12  25  43  69 100 136 177 222 273 330 397
#     4  11  23  40  63  92 127 169 219 271 328 390
#     4  11  24  40  59  87 125 169 219 272 327 388
#     4  12  24  40  64  91 127 171 219 274 329 389
#     4  11  24  43  70 101 135 177 223 273 330 394
#     4  11  25  46  72 102 136 173 217 271 331 397
#
# _framework density 22.112278
#
# number of rings (size 3 to 8) (size 9 to 14) (size 15 to 20)
#    0.000    0.667    1.667    6.500    0.000    8.000 
#    0.000    0.000    0.000    0.000    0.000    0.000 
#    0.000    0.000    0.000    0.000    0.000    0.000 
#
# Total GULP energy -134417.474123 kJ/mol
# GULP energy per Si atom -5600.728088 kJ/mol
# Density = 2.206195 g / cm^3
# Si number density = 22.112278 Si / 1000 Ang^3
#
#
#
# Elastic Constant Matrix: (Units=GPa)
#
#
# Indices 1 2 3 4 5 6 
#
# 1 75.8269 1.7976 -10.6218 0.0000 28.3215 0.0000
# 2 1.7976 109.5820 6.3590 0.0000 10.3115 0.0000
# 3 -10.6218 6.3590 54.7776 0.0000 19.7599 0.0000
# 4 0.0000 0.0000 0.0000 45.7171 0.0000 -10.1349
# 5 28.3215 10.3115 19.7599 0.0000 36.8556 0.0000
# 6 0.0000 0.0000 0.0000 -10.1349 0.0000 50.4596
#
#
#
# Elastic Compliance Matrix: (Units=1/GPa)
#
#
# Indices 1 2 3 4 5 6 
#
# 1 0.025845 0.001367 0.015069 0.000000 -0.028322 0.000000
# 2 0.001367 0.009446 0.000621 0.000000 -0.004026 0.000000
# 3 0.015069 0.000621 0.031423 0.000000 -0.028601 0.000000
# 4 0.000000 0.000000 0.000000 0.022893 0.000000 0.004598
# 5 -0.028322 -0.004026 -0.028601 0.000000 0.065357 0.000000
# 6 0.000000 0.000000 0.000000 0.004598 0.000000 0.020741
#
#
# Mechanical properties :
#
#
# Convention : Reuss Voigt Hill
#
# Bulk Modulus (GPa) = 9.91797 26.13957 18.02877
# Shear Modulus (GPa) = 28.53864 42.78324 35.66094
#
# Velocity S-wave (km/s) = 3.59642 4.40343 4.02023
# Velocity P-wave (km/s) = 4.66269 6.14008 5.45166
#
# Compressibility (1/GPa) = 0.10082707
#
# Stress axis : x y z
#
# Youngs Moduli (GPa) = 38.69246 105.86535 31.82398
#
# Poissons Ratio (x) = -0.14468 -0.47957
# Poissons Ratio (y) = -0.05288 -0.01975
# Poissons Ratio (z) = -0.58308 -0.06570
#
# Static dielectric constant tensor:
#      x y z
#    x 1.816540 0.000000 -0.000920 
#    y 0.000000 1.754610 0.000000 
#    z -0.000920 0.000000 1.825950 
# 
# From -- ./inp_files/360318.got.cif
#   From: 2010.05.17/outbox.cif.g08.bks.cpg/sg12_181_cif.got.tgz:360318.got - 2010.06.03 13:09:07.
