data_PCOD9221523
_publ_section_title
;
Structure prediction by ZEFSAII (Michael W. Deem and Ramdas Pophale) SiO2 
 PCOD9221523
Probable space group: C 2/M
;
_chemical_formula_sum "Si O2"
_cell_formula_units_Z 40
_cell_length_a 8.555518
_cell_length_b 29.293741
_cell_length_c 15.642749
_cell_angle_alpha 90.000000
_cell_angle_beta 152.126167
_cell_angle_gamma 90.000000
_cell_volume 1832.905735
_symmetry_space_group_name_H-M "C 2/M"
_symmetry_group_IT_number 12
_symmetry_cell_setting 'monoclinic'
loop_
_space_group_symop_operation_xyz
x,y,z
-x,y,-z
-x,-y,-z
x,-y,z
1/2+x,1/2+y,z
1/2-x,1/2+y,-z
1/2-x,1/2-y,-z
1/2+x,1/2-y,z
loop_
_atom_site_type_symbol
_atom_site_label
_atom_site_fract_x
_atom_site_fract_y
_atom_site_fract_z
Si Si1 0.098826 0.900512 0.951795
Si Si2 0.619227 0.382291 0.648741
Si Si3 0.997881 0.803003 0.158415
Si Si4 0.273542 0.712941 0.245172
Si Si5 0.103538 0.049967 0.313521
O O1 0.915108 0.853911 0.830681
O O2 0.036172 0.936771 0.847054
O O3 0.488748 0.889426 0.146811
O O4 0.000000 0.913671 0.000000
O O5 0.500000 0.400361 0.500000
O O6 0.554572 0.327916 0.620858
O O7 0.465151 0.410168 0.652286
O O8 0.903797 0.796543 0.212337
O O9 0.284421 0.766456 0.272903
O O10 0.629921 0.794180 0.938895
O O11 0.500000 0.046981 0.500000
O O12 0.970770 0.000000 0.276241
#
# Coordination Sequence:
#
# PCOD9221523 Si02
#       5
#     8   8   8   8   8
#     4  11  23  40  67  99 132 173 216 266 323 387
#     4  11  23  42  65  97 136 171 218 269 321 385
#     4   9  18  32  57  88 127 169 215 258 310 371
#     4   9  18  33  55  88 127 170 213 259 311 373
#     4  11  25  47  71  96 127 165 213 274 336 393
#
# _framework density 21.823270999999998
#
# number of rings (size 3 to 8) (size 9 to 14) (size 15 to 20)
#    0.000    1.800    2.000    1.800    8.400    2.400 
#    0.000    2.000    0.000    0.000    0.000    0.000 
#    0.000    0.000    0.000    0.000    0.000    0.000 
#
# Total GULP energy -111580.239438 kJ/mol
# GULP energy per Si atom -5579.011972 kJ/mol
# Density = 2.177360 g / cm^3
# Si number density = 21.823271 Si / 1000 Ang^3
#
#
#
# Elastic Constant Matrix: (Units=GPa)
#
#
# Indices 1 2 3 4 5 6 
#
# 1 76.8992 38.1115 29.7824 0.0000 -22.6435 0.0000
# 2 38.1115 101.2455 41.1133 0.0000 -14.4150 0.0000
# 3 29.7824 41.1133 65.0150 0.0000 -18.0512 0.0000
# 4 0.0000 0.0000 0.0000 33.0214 0.0000 -5.7981
# 5 -22.6435 -14.4150 -18.0512 0.0000 26.5666 0.0000
# 6 0.0000 0.0000 0.0000 -5.7981 0.0000 41.0112
#
#
#
# Elastic Compliance Matrix: (Units=1/GPa)
#
#
# Indices 1 2 3 4 5 6 
#
# 1 0.020128 -0.004647 -0.002734 0.000000 0.012776 0.000000
# 2 -0.004647 0.014437 -0.007303 0.000000 -0.001090 0.000000
# 3 -0.002734 -0.007303 0.024040 0.000000 0.010041 0.000000
# 4 0.000000 0.000000 0.000000 0.031054 0.000000 0.004390
# 5 0.012776 -0.001090 0.010041 0.000000 0.054762 0.000000
# 6 0.000000 0.000000 0.000000 0.004390 0.000000 0.025004
#
#
# Mechanical properties :
#
#
# Convention : Reuss Voigt Hill
#
# Bulk Modulus (GPa) = 34.20517 51.24155 42.72336
# Shear Modulus (GPa) = 23.97618 29.06335 26.51976
#
# Velocity S-wave (km/s) = 3.31819 3.65329 3.48976
# Velocity P-wave (km/s) = 5.51255 6.42857 5.98810
#
# Compressibility (1/GPa) = 0.02923534
#
# Stress axis : x y z
#
# Youngs Moduli (GPa) = 49.68100 69.26736 41.59789
#
# Poissons Ratio (x) = 0.32192 0.11374
# Poissons Ratio (y) = 0.23089 0.30379
# Poissons Ratio (z) = 0.13584 0.50586
#
# Static dielectric constant tensor:
#      x y z
#    x 1.761870 0.000000 0.002210 
#    y 0.000000 1.884530 0.000000 
#    z 0.002210 0.000000 1.774500 
# 
# From -- ./inp_files/41477.got.cif
#   From: 2010.05.17/outbox.cif.g08.bks.cpg/sg12_21_cif.got.tgz:41477.got - 2010.06.03 13:09:07.
