data_PCOD9221206
_publ_section_title
;
Structure prediction by ZEFSAII (Michael W. Deem and Ramdas Pophale) SiO2 
 PCOD9221206
Probable space group: C 2/M
;
_chemical_formula_sum "Si O2"
_cell_formula_units_Z 32
_cell_length_a 15.401803
_cell_length_b 11.762060
_cell_length_c 18.106175
_cell_angle_alpha 90.000000
_cell_angle_beta 26.960591
_cell_angle_gamma 90.000000
_cell_volume 1487.105134
_symmetry_space_group_name_H-M "C 2/M"
_symmetry_group_IT_number 12
_symmetry_cell_setting 'monoclinic'
loop_
_space_group_symop_operation_xyz
x,y,z
-x,y,-z
-x,-y,-z
x,-y,z
1/2+x,1/2+y,z
1/2-x,1/2+y,-z
1/2-x,1/2-y,-z
1/2+x,1/2-y,z
loop_
_atom_site_type_symbol
_atom_site_label
_atom_site_fract_x
_atom_site_fract_y
_atom_site_fract_z
Si Si1 0.250275 0.000000 0.877771
Si Si2 0.651853 0.364262 0.292338
Si Si3 0.382556 0.760213 0.828436
Si Si4 0.756012 0.743174 0.638147
Si Si5 0.812656 0.000000 0.249378
O O1 0.361396 0.886559 0.813467
O O2 0.220894 0.000000 0.812511
O O3 0.045867 0.000000 0.076095
O O4 0.642427 0.500000 0.306817
O O5 0.689035 0.325724 0.180590
O O6 0.447310 0.304047 0.464261
O O7 0.790643 0.311287 0.250005
O O8 0.596080 0.744315 0.696605
O O9 0.250000 0.750000 0.000000
O O10 0.773659 0.612440 0.648787
#
# Coordination Sequence:
#
# PCOD9221206 Si02
#       5
#     4   8   8   8   4
#     4  11  24  43  68 104 139 171 227 277 335 399
#     4  11  27  48  66  98 139 179 223 279 336 401
#     4  12  26  44  70 102 134 179 225 274 338 401
#     4  11  24  46  70  99 135 178 224 276 340 394
#     4  11  22  44  73  97 139 173 223 287 326 403
#
# _framework density 21.518317
#
# number of rings (size 3 to 8) (size 9 to 14) (size 15 to 20)
#    0.000    0.750    5.000    2.250    7.000    4.000 
#    0.000    1.250    0.000    0.000    0.000    0.000 
#    0.000    0.000    0.000    0.000    0.000    0.000 
#
# Total GULP energy -89488.801376 kJ/mol
# GULP energy per Si atom -5593.050086 kJ/mol
# Density = 2.146934 g / cm^3
# Si number density = 21.518317 Si / 1000 Ang^3
#
#
#
# Elastic Constant Matrix: (Units=GPa)
#
#
# Indices 1 2 3 4 5 6 
#
# 1 98.3526 42.0677 9.3637 -0.0005 15.6671 0.0004
# 2 42.0677 220.0644 15.1544 0.0082 8.4540 0.0010
# 3 9.3637 15.1544 36.0904 0.0054 14.5975 0.0014
# 4 -0.0005 0.0082 0.0054 25.8623 -0.0021 -6.9155
# 5 15.6671 8.4540 14.5975 -0.0021 31.6551 -0.0008
# 6 0.0004 0.0010 0.0014 -6.9155 -0.0008 28.5481
#
#
#
# Elastic Compliance Matrix: (Units=1/GPa)
#
#
# Indices 1 2 3 4 5 6 
#
# 1 0.011904 -0.002067 -0.000075 0.000000 -0.005305 0.000000
# 2 -0.002067 0.005043 -0.001783 -0.000001 0.000498 0.000000
# 3 -0.000075 -0.001783 0.034750 -0.000009 -0.015512 -0.000004
# 4 0.000000 -0.000001 -0.000009 0.041344 0.000007 0.010015
# 5 -0.005305 0.000498 -0.015512 0.000007 0.041236 0.000004
# 6 0.000000 0.000000 -0.000004 0.010015 0.000004 0.037455
#
#
# Mechanical properties :
#
#
# Convention : Reuss Voigt Hill
#
# Bulk Modulus (GPa) = 22.80602 54.18657 38.49629
# Shear Modulus (GPa) = 25.74710 36.40786 31.07748
#
# Velocity S-wave (km/s) = 3.46283 4.11779 3.80443
# Velocity P-wave (km/s) = 5.15846 6.91697 6.10140
#
# Compressibility (1/GPa) = 0.04384807
#
# Stress axis : x y z
#
# Youngs Moduli (GPa) = 84.00817 198.30249 28.77678
#
# Poissons Ratio (x) = 0.40980 0.00216
# Poissons Ratio (y) = 0.17361 0.05130
# Poissons Ratio (z) = 0.00629 0.35354
#
# Static dielectric constant tensor:
#      x y z
#    x 1.839820 0.000010 0.001260 
#    y 0.000010 1.722350 0.000000 
#    z 0.001260 0.000000 1.841710 
# 
# From -- ./inp_files/56919.got.cif
#   From: 2010.05.17/outbox.cif.g08.bks.cpg/sg12_29_cif.got.tgz:56919.got - 2010.06.03 13:09:07.
