data_PCOD9221560
_publ_section_title
;
Structure prediction by ZEFSAII (Michael W. Deem and Ramdas Pophale) SiO2 
 PCOD9221560
Probable space group: C 2/M
;
_chemical_formula_sum "Si O2"
_cell_formula_units_Z 56
_cell_length_a 9.057561
_cell_length_b 15.547135
_cell_length_c 20.244790
_cell_angle_alpha 90.000000
_cell_angle_beta 89.999980
_cell_angle_gamma 90.000000
_cell_volume 2850.853586
_symmetry_space_group_name_H-M "C 2/M"
_symmetry_group_IT_number 12
_symmetry_cell_setting 'monoclinic'
loop_
_space_group_symop_operation_xyz
x,y,z
-x,y,-z
-x,-y,-z
x,-y,z
1/2+x,1/2+y,z
1/2-x,1/2+y,-z
1/2-x,1/2-y,-z
1/2+x,1/2-y,z
loop_
_atom_site_type_symbol
_atom_site_label
_atom_site_fract_x
_atom_site_fract_y
_atom_site_fract_z
Si Si1 0.826217 0.000000 0.920976
Si Si2 0.177745 0.338572 0.149476
Si Si3 0.822257 0.338572 0.149476
Si Si4 0.323781 0.101271 0.294811
Si Si5 0.673987 0.604510 0.428069
Si Si6 0.673988 0.604510 0.571931
Si Si7 0.323781 0.898729 0.705189
Si Si8 0.326219 0.500000 0.079025
O O1 0.745697 0.917165 0.890941
O O2 0.999999 0.000000 0.903081
O O3 0.814908 0.000000 0.000000
O O4 0.250001 0.250000 0.126654
O O5 0.217485 0.352968 0.226771
O O6 0.245699 0.417165 0.109060
O O7 0.000001 0.337619 0.144106
O O8 0.782515 0.352968 0.226770
O O9 0.252021 0.135959 0.361890
O O10 0.500000 0.105504 0.301709
O O11 0.283509 0.000000 0.287613
O O12 0.689463 0.500000 0.427958
O O13 0.730703 0.634372 0.500000
O O14 0.499999 0.623124 0.424613
O O15 0.689464 0.500000 0.572042
O O16 0.752023 0.635959 0.638109
O O17 0.283509 0.000000 0.712386
#
# Coordination Sequence:
#
# PCOD9221560 Si02
#       8
#     4   8   8   8   8   8   8   4
#     4  11  25  45  69  97 126 159 200 243 295 360
#     4  11  23  41  64  93 127 163 204 250 300 358
#     4  11  23  41  64  93 127 163 204 250 300 358
#     4   9  17  31  51  77 111 150 194 244 298 353
#     4   8  14  24  40  68 105 144 190 242 295 351
#     4   8  14  24  40  68 105 144 190 242 295 351
#     4   9  17  31  51  77 111 150 194 244 298 353
#     4  11  25  45  69  97 126 159 200 243 295 360
#
# _framework density 19.643239000000001
#
# number of rings (size 3 to 8) (size 9 to 14) (size 15 to 20)
#    0.000    2.429    1.429    2.143    0.000    4.571 
#    0.000    2.857    0.000    0.857    0.000    0.000 
#    0.000    0.000    0.000    0.000    0.000    0.000 
#
# Total GULP energy -156288.853210 kJ/mol
# GULP energy per Si atom -5581.744757 kJ/mol
# Density = 1.959853 g / cm^3
# Si number density = 19.643239 Si / 1000 Ang^3
#
#
#
# Elastic Constant Matrix: (Units=GPa)
#
#
# Indices 1 2 3 4 5 6 
#
# 1 61.0739 50.1871 59.0004 0.0000 0.0002 0.0000
# 2 50.1871 113.6383 52.5426 0.0000 0.0004 0.0000
# 3 59.0004 52.5426 109.1061 0.0000 0.0008 0.0000
# 4 0.0000 0.0000 0.0000 -17.0024 0.0000 0.0002
# 5 0.0002 0.0004 0.0008 0.0000 36.1742 0.0000
# 6 0.0000 0.0000 0.0000 0.0002 0.0000 19.6364
#
#
#
# Elastic Compliance Matrix: (Units=1/GPa)
#
#
# Indices 1 2 3 4 5 6 
#
# 1 0.042014 -0.010356 -0.017732 0.000000 0.000000 0.000000
# 2 -0.010356 0.013873 -0.001081 0.000000 0.000000 0.000000
# 3 -0.017732 -0.001081 0.019275 0.000000 0.000000 0.000000
# 4 0.000000 0.000000 0.000000 -0.058815 0.000000 0.000001
# 5 0.000000 0.000000 0.000000 0.000000 0.027644 0.000000
# 6 0.000000 0.000000 0.000000 0.000001 0.000000 0.050926
#
#
# Mechanical properties :
#
#
# Convention : Reuss Voigt Hill
#
# Bulk Modulus (GPa) = 59.44039 67.47538 63.45789
# Shear Modulus (GPa) = 31.47352 15.90083 23.68718
#
# Velocity S-wave (km/s) = 4.00716 2.84822 3.47633
# Velocity P-wave (km/s) = 7.19274 6.72618 6.96337
#
# Compressibility (1/GPa) = 0.01682358
#
# Stress axis : x y z
#
# Youngs Moduli (GPa) = 23.80147 72.08108 51.88105
#
# Poissons Ratio (x) = 0.74649 0.91998
# Poissons Ratio (y) = 0.24649 0.05607
# Poissons Ratio (z) = 0.42206 0.07790
#
# Static dielectric constant tensor:
#      x y z
#    x 1.652280 0.000000 0.000000 
#    y 0.000000 1.719040 0.000000 
#    z 0.000000 0.000000 1.694970 
# 
# From -- ./inp_files/300203.got.cif
#   From: 2010.05.17/outbox.cif.g08.bks.cpg/sg12_151_cif.got.tgz:300203.got - 2010.06.03 13:09:07.
