data_PCOD9221069
_publ_section_title
;
Structure prediction by ZEFSAII (Michael W. Deem and Ramdas Pophale) SiO2 
 PCOD9221069
Probable space group: C 2/M
;
_chemical_formula_sum "Si O2"
_cell_formula_units_Z 42
_cell_length_a 12.292168
_cell_length_b 15.358658
_cell_length_c 21.476524
_cell_angle_alpha 90.000000
_cell_angle_beta 154.937394
_cell_angle_gamma 90.000000
_cell_volume 1717.553305
_symmetry_space_group_name_H-M "C 2/M"
_symmetry_group_IT_number 12
_symmetry_cell_setting 'monoclinic'
loop_
_space_group_symop_operation_xyz
x,y,z
-x,y,-z
-x,-y,-z
x,-y,z
1/2+x,1/2+y,z
1/2-x,1/2+y,-z
1/2-x,1/2-y,-z
1/2+x,1/2-y,z
loop_
_atom_site_type_symbol
_atom_site_label
_atom_site_fract_x
_atom_site_fract_y
_atom_site_fract_z
Si Si1 0.527413 0.163789 0.114276
Si Si2 0.023979 0.864627 0.906278
Si Si3 0.194280 0.280624 0.337256
Si Si4 0.500000 0.500000 0.000000
Si Si5 0.952351 0.598416 0.624059
Si Si6 0.488629 0.599648 0.710085
O O1 0.475376 0.264539 0.070796
O O2 0.626552 0.173309 0.237035
O O3 0.735761 0.118976 0.178812
O O4 0.250862 0.119293 0.974845
O O5 0.087680 0.925121 0.996585
O O6 0.728762 0.885048 0.736402
O O7 0.500000 0.276387 0.500000
O O8 0.090899 0.334596 0.342648
O O9 0.084448 0.183318 0.286496
O O10 0.966261 0.500000 0.657557
O O11 0.724559 0.604069 0.456344
O O12 0.473837 0.500000 0.726451
#
# Coordination Sequence:
#
# PCOD9221069 Si02
#       6
#     8   8   8   2   8   8
#     4  11  25  44  68  98 137 177 226 274 344 404
#     4  11  24  42  67 101 134 174 216 281 335 401
#     4  12  23  42  71  97 137 181 222 281 348 402
#     4  12  24  44  72 102 130 176 230 278 334 398
#     4  11  22  41  67 102 134 174 228 282 333 402
#     4  11  25  44  68 100 138 177 229 282 335 408
#
# _framework density 24.453389000000001
#
# number of rings (size 3 to 8) (size 9 to 14) (size 15 to 20)
#    0.000    0.762    4.762    2.857    1.333    1.524 
#    1.714    0.000    0.000    4.571    0.000    0.000 
#    0.000    0.000    0.000    0.000    0.000    0.000 
#
# Total GULP energy -117446.862498 kJ/mol
# GULP energy per Si atom -5592.707738 kJ/mol
# Density = 2.439773 g / cm^3
# Si number density = 24.453389 Si / 1000 Ang^3
#
#
#
# Elastic Constant Matrix: (Units=GPa)
#
#
# Indices 1 2 3 4 5 6 
#
# 1 64.4307 12.4250 51.5920 -0.0042 13.5972 0.0008
# 2 12.4250 80.3108 39.6087 -0.0019 3.3284 -0.0001
# 3 51.5920 39.6087 164.3914 0.0019 39.7086 -0.0011
# 4 -0.0042 -0.0019 0.0019 6.8337 0.0006 5.6708
# 5 13.5972 3.3284 39.7086 0.0006 44.0153 -0.0010
# 6 0.0008 -0.0001 -0.0011 5.6708 -0.0010 48.9545
#
#
#
# Elastic Compliance Matrix: (Units=1/GPa)
#
#
# Indices 1 2 3 4 5 6 
#
# 1 0.020746 -0.000060 -0.006329 0.000016 -0.000695 -0.000002
# 2 -0.000060 0.014360 -0.004070 0.000005 0.002605 -0.000001
# 3 -0.006329 -0.004070 0.010873 -0.000008 -0.007546 0.000001
# 4 0.000016 0.000005 -0.000008 0.161895 -0.000001 -0.018754
# 5 -0.000695 0.002605 -0.007546 -0.000001 0.029545 0.000001
# 6 -0.000002 -0.000001 0.000001 -0.018754 0.000001 0.022600
#
#
# Mechanical properties :
#
#
# Convention : Reuss Voigt Hill
#
# Bulk Modulus (GPa) = 39.90129 57.37604 48.63867
# Shear Modulus (GPa) = 17.28365 33.66119 25.47242
#
# Velocity S-wave (km/s) = 2.66145 3.71421 3.23100
# Velocity P-wave (km/s) = 5.07909 6.47365 5.81830
#
# Compressibility (1/GPa) = 0.02506184
#
# Stress axis : x y z
#
# Youngs Moduli (GPa) = 48.20129 69.63575 91.97359
#
# Poissons Ratio (x) = 0.00415 0.58207
# Poissons Ratio (y) = 0.00287 0.37438
# Poissons Ratio (z) = 0.30505 0.28345
#
# Static dielectric constant tensor:
#      x y z
#    x 1.977720 0.000000 -0.168700 
#    y 0.000000 1.881280 -0.000010 
#    z -0.168700 -0.000010 2.376860 
# 
# From -- ./inp_files/376532.got.cif
#   From: 2010.05.17/outbox.cif.g08.bks.cpg/sg12_189_cif.got.tgz:376532.got - 2010.06.03 13:09:07.
