data_PCOD9221027
_publ_section_title
;
Structure prediction by ZEFSAII (Michael W. Deem and Ramdas Pophale) SiO2 
 PCOD9221027
Probable space group: C 2/M
;
_chemical_formula_sum "Si O2"
_cell_formula_units_Z 30
_cell_length_a 9.791770
_cell_length_b 20.453016
_cell_length_c 14.567633
_cell_angle_alpha 90.000000
_cell_angle_beta 29.529864
_cell_angle_gamma 90.000000
_cell_volume 1437.958106
_symmetry_space_group_name_H-M "C 2/M"
_symmetry_group_IT_number 12
_symmetry_cell_setting 'monoclinic'
loop_
_space_group_symop_operation_xyz
x,y,z
-x,y,-z
-x,-y,-z
x,-y,z
1/2+x,1/2+y,z
1/2-x,1/2+y,-z
1/2-x,1/2-y,-z
1/2+x,1/2-y,z
loop_
_atom_site_type_symbol
_atom_site_label
_atom_site_fract_x
_atom_site_fract_y
_atom_site_fract_z
Si Si1 0.779932 0.424770 0.458740
Si Si2 0.000000 0.340970 0.500000
Si Si3 0.951538 0.756002 0.129032
Si Si4 0.850368 0.607250 0.211807
Si Si5 0.000000 0.500000 0.000000
O O1 0.869342 0.500000 0.413238
O O2 0.873742 0.384436 0.491966
O O3 0.446161 0.424113 0.642223
O O4 0.883819 0.394375 0.301956
O O5 0.761347 0.296364 0.684770
O O6 0.844424 0.681614 0.182627
O O7 0.000000 0.785346 0.000000
O O8 0.250000 0.750000 0.000000
O O9 0.063309 0.558563 0.038979
#
# Coordination Sequence:
#
# PCOD9221027 Si02
#       5
#     8   4   8   8   2
#     4  11  22  43  65  94 128 176 218 267 328 392
#     4  12  27  44  64  97 142 176 212 272 336 391
#     4  12  26  44  68  98 133 175 221 271 330 394
#     4  11  22  40  71  93 124 170 226 271 321 384
#     4  12  20  38  68 102 124 158 226 286 310 374
#
# _framework density 20.862916999999999
#
# number of rings (size 3 to 8) (size 9 to 14) (size 15 to 20)
#    0.000    0.533    4.000    6.000    0.000    3.200 
#    0.000    0.000    0.000    4.800    0.000    0.000 
#    0.000    0.000    0.000    0.000    0.000    0.000 
#
# Total GULP energy -83614.592358 kJ/mol
# GULP energy per Si atom -5574.306157 kJ/mol
# Density = 2.081543 g / cm^3
# Si number density = 20.862917 Si / 1000 Ang^3
#
#
#
# Elastic Constant Matrix: (Units=GPa)
#
#
# Indices 1 2 3 4 5 6 
#
# 1 161.3212 31.2540 53.6164 -0.0025 25.0961 -0.0006
# 2 31.2540 89.9579 20.5252 -0.0051 13.4726 0.0017
# 3 53.6164 20.5252 84.9958 -0.0082 22.5256 -0.0082
# 4 -0.0025 -0.0051 -0.0082 12.4837 -0.0052 16.8216
# 5 25.0961 13.4726 22.5256 -0.0052 42.6505 0.0036
# 6 -0.0006 0.0017 -0.0082 16.8216 0.0036 36.8695
#
#
#
# Elastic Compliance Matrix: (Units=1/GPa)
#
#
# Indices 1 2 3 4 5 6 
#
# 1 0.008249 -0.001578 -0.004265 -0.000005 -0.002103 0.000002
# 2 -0.001578 0.012315 -0.001388 0.000010 -0.002229 -0.000005
# 3 -0.004265 -0.001388 0.016290 0.000003 -0.005655 0.000003
# 4 -0.000005 0.000010 0.000003 0.207948 0.000032 -0.094876
# 5 -0.002103 -0.002229 -0.005655 0.000032 0.028374 -0.000018
# 6 0.000002 -0.000005 0.000003 -0.094876 -0.000018 0.070409
#
#
# Mechanical properties :
#
#
# Convention : Reuss Voigt Hill
#
# Bulk Modulus (GPa) = 44.65951 60.78514 52.72233
# Shear Modulus (GPa) = 13.67944 33.79269 23.73607
#
# Velocity S-wave (km/s) = 2.56341 4.02898 3.37666
# Velocity P-wave (km/s) = 5.49673 7.13038 6.36617
#
# Compressibility (1/GPa) = 0.02239165
#
# Stress axis : x y z
#
# Youngs Moduli (GPa) = 121.22261 81.20205 61.38797
#
# Poissons Ratio (x) = 0.12813 0.26185
# Poissons Ratio (y) = 0.19128 0.08520
# Poissons Ratio (z) = 0.51707 0.11270
#
# Static dielectric constant tensor:
#      x y z
#    x 1.752230 0.000020 0.061620 
#    y 0.000020 1.990290 0.000020 
#    z 0.061620 0.000020 1.863830 
# 
# From -- ./inp_files/197432.got.cif
#   From: 2010.05.17/outbox.cif.g08.bks.cpg/sg12_99_cif.got.tgz:197432.got - 2010.06.03 13:09:07.
