data_PCOD9221754
_publ_section_title
;
Structure prediction by ZEFSAII (Michael W. Deem and Ramdas Pophale) SiO2 
 PCOD9221754
Probable space group: C 2/M
;
_chemical_formula_sum "Si O2"
_cell_formula_units_Z 48
_cell_length_a 14.848986
_cell_length_b 27.997436
_cell_length_c 8.942195
_cell_angle_alpha 90.000000
_cell_angle_beta 140.864603
_cell_angle_gamma 90.000000
_cell_volume 2346.363569
_symmetry_space_group_name_H-M "C 2/M"
_symmetry_group_IT_number 12
_symmetry_cell_setting 'monoclinic'
loop_
_space_group_symop_operation_xyz
x,y,z
-x,y,-z
-x,-y,-z
x,-y,z
1/2+x,1/2+y,z
1/2-x,1/2+y,-z
1/2-x,1/2-y,-z
1/2+x,1/2-y,z
loop_
_atom_site_type_symbol
_atom_site_label
_atom_site_fract_x
_atom_site_fract_y
_atom_site_fract_z
Si Si1 0.731754 0.892031 0.871285
Si Si2 0.832423 0.052598 0.248812
Si Si3 0.379737 0.225078 0.077172
Si Si4 0.442938 0.139135 0.631143
Si Si5 0.012627 0.173693 0.845378
Si Si6 0.232144 0.645526 0.299200
O O1 0.678522 0.881060 0.635268
O O2 0.584279 0.889929 0.772928
O O3 0.807721 0.937950 0.039597
O O4 0.848196 0.850663 0.048876
O O5 0.765378 0.096718 0.253864
O O6 0.000000 0.053765 0.500000
O O7 0.776767 0.000000 0.217869
O O8 0.496676 0.193072 0.317529
O O9 0.463792 0.269832 0.119083
O O10 0.250000 0.250000 0.000000
O O11 0.317001 0.188283 0.873750
O O12 0.385534 0.137205 0.724304
O O13 0.875216 0.161186 0.570846
O O14 0.000000 0.155809 0.000000
#
# Coordination Sequence:
#
# PCOD9221754 Si02
#       6
#     8   8   8   8   8   8
#     4  11  23  43  67  96 136 183 215 282 348 404
#     4  11  24  46  75 104 132 174 232 293 356 417
#     4  12  26  41  65 100 140 190 233 275 336 409
#     4  11  24  43  67  96 143 178 229 279 342 403
#     4  12  24  41  65  98 138 184 230 276 332 408
#     4  12  25  44  70 100 138 181 233 291 337 402
#
# _framework density 20.457187000000001
#
# number of rings (size 3 to 8) (size 9 to 14) (size 15 to 20)
#    0.000    0.500    6.667    1.500    2.333    1.333 
#    0.000    4.167    0.000    3.000    0.000    0.000 
#    0.000    0.000    0.000    0.000    0.000    0.000 
#
# Total GULP energy -133862.499308 kJ/mol
# GULP energy per Si atom -5577.604138 kJ/mol
# Density = 2.041063 g / cm^3
# Si number density = 20.457187 Si / 1000 Ang^3
#
#
#
# Elastic Constant Matrix: (Units=GPa)
#
#
# Indices 1 2 3 4 5 6 
#
# 1 89.2906 34.6759 48.1627 0.0000 -20.8252 0.0000
# 2 34.6759 129.3729 53.0316 0.0000 -15.3002 0.0000
# 3 48.1627 53.0316 138.7879 0.0000 -13.6564 0.0000
# 4 0.0000 0.0000 0.0000 13.1674 0.0000 -0.9538
# 5 -20.8252 -15.3002 -13.6564 0.0000 27.1308 0.0000
# 6 0.0000 0.0000 0.0000 -0.9538 0.0000 10.9683
#
#
#
# Elastic Compliance Matrix: (Units=1/GPa)
#
#
# Indices 1 2 3 4 5 6 
#
# 1 0.016235 -0.001541 -0.004108 0.000000 0.009525 0.000000
# 2 -0.001541 0.009655 -0.002878 0.000000 0.002813 0.000000
# 3 -0.004108 -0.002878 0.009743 0.000000 0.000128 0.000000
# 4 0.000000 0.000000 0.000000 0.076427 0.000000 0.006646
# 5 0.009525 0.002813 0.000128 0.000000 0.045821 0.000000
# 6 0.000000 0.000000 0.000000 0.006646 0.000000 0.091749
#
#
# Mechanical properties :
#
#
# Convention : Reuss Voigt Hill
#
# Bulk Modulus (GPa) = 53.82181 69.91020 61.86600
# Shear Modulus (GPa) = 18.32331 25.02538 21.67434
#
# Velocity S-wave (km/s) = 2.99606 3.50137 3.25852
# Velocity P-wave (km/s) = 6.19153 7.11296 6.66818
#
# Compressibility (1/GPa) = 0.01857983
#
# Stress axis : x y z
#
# Youngs Moduli (GPa) = 61.59469 103.57378 102.63872
#
# Poissons Ratio (x) = 0.15963 0.42163
# Poissons Ratio (y) = 0.09493 0.29535
# Poissons Ratio (z) = 0.25302 0.29804
#
# Static dielectric constant tensor:
#      x y z
#    x 1.771540 0.000000 -0.018760 
#    y 0.000000 1.731570 0.000000 
#    z -0.018760 0.000000 1.803130 
# 
# From -- ./inp_files/67430.got.cif
#   From: 2010.05.17/outbox.cif.g08.bks.cpg/sg12_34_cif.got.tgz:67430.got - 2010.06.03 13:09:07.
