data_PCOD9221641
_publ_section_title
;
Structure prediction by ZEFSAII (Michael W. Deem and Ramdas Pophale) SiO2 
 PCOD9221641
Probable space group: C 2/M
;
_chemical_formula_sum "Si O2"
_cell_formula_units_Z 48
_cell_length_a 12.246870
_cell_length_b 21.699299
_cell_length_c 9.542233
_cell_angle_alpha 90.000000
_cell_angle_beta 56.148569
_cell_angle_gamma 90.000000
_cell_volume 2105.971585
_symmetry_space_group_name_H-M "C 2/M"
_symmetry_group_IT_number 12
_symmetry_cell_setting 'monoclinic'
loop_
_space_group_symop_operation_xyz
x,y,z
-x,y,-z
-x,-y,-z
x,-y,z
1/2+x,1/2+y,z
1/2-x,1/2+y,-z
1/2-x,1/2-y,-z
1/2+x,1/2-y,z
loop_
_atom_site_type_symbol
_atom_site_label
_atom_site_fract_x
_atom_site_fract_y
_atom_site_fract_z
Si Si1 0.787610 0.654503 0.098975
Si Si2 0.415647 0.721667 0.945302
Si Si3 0.409604 0.744918 0.428794
Si Si4 0.180575 0.571146 0.434615
Si Si5 0.127241 0.894412 0.473161
Si Si6 0.578384 0.074919 0.220490
O O1 0.672864 0.673345 0.072880
O O2 0.731015 0.620803 0.275637
O O3 0.842217 0.723759 0.083245
O O4 0.885746 0.609885 0.946368
O O5 0.501503 0.758389 0.769222
O O6 0.500000 0.687188 0.000000
O O7 0.500000 0.769050 0.500000
O O8 0.250000 0.750000 0.500000
O O9 0.419272 0.671898 0.440856
O O10 0.146240 0.500000 0.441982
O O11 0.307947 0.575937 0.437784
O O12 0.177045 0.594094 0.277826
O O13 0.061628 0.596275 0.615249
O O14 0.000000 0.926958 0.500000
O O15 0.579895 0.000000 0.197352
#
# Coordination Sequence:
#
# PCOD9221641 Si02
#       6
#     8   8   8   8   8   8
#     4  11  24  41  61  95 128 167 216 262 331 375
#     4  11  25  41  61  90 133 172 216 271 317 391
#     4  11  24  43  63  91 129 173 220 266 321 391
#     4   9  21  42  66  94 123 159 210 265 322 392
#     4  11  23  42  59  88 129 167 209 266 317 390
#     4   9  21  42  68  97 124 157 212 271 324 386
#
# _framework density 22.79233
#
# number of rings (size 3 to 8) (size 9 to 14) (size 15 to 20)
#    0.000    1.667    3.333    2.000    9.333    1.000 
#    0.000    1.667    0.000    2.500    0.000    0.000 
#    0.000    0.000    0.000    0.000    0.000    0.000 
#
# Total GULP energy -133680.818541 kJ/mol
# GULP energy per Si atom -5570.034106 kJ/mol
# Density = 2.274045 g / cm^3
# Si number density = 22.792330 Si / 1000 Ang^3
#
#
#
# Elastic Constant Matrix: (Units=GPa)
#
#
# Indices 1 2 3 4 5 6 
#
# 1 143.9119 -6.7278 -15.5934 0.0000 21.2102 0.0000
# 2 -6.7278 40.6554 -4.0417 0.0000 0.7301 0.0000
# 3 -15.5934 -4.0417 60.0394 0.0000 2.8906 0.0000
# 4 0.0000 0.0000 0.0000 717.5028 0.0000 455.6465
# 5 21.2102 0.7301 2.8906 0.0000 32.1709 0.0000
# 6 0.0000 0.0000 0.0000 455.6465 0.0000 325.9336
#
#
#
# Elastic Compliance Matrix: (Units=1/GPa)
#
#
# Indices 1 2 3 4 5 6 
#
# 1 0.008127 0.001694 0.002495 0.000000 -0.005621 0.000000
# 2 0.001694 0.025132 0.002223 0.000000 -0.001887 0.000000
# 3 0.002495 0.002223 0.017611 0.000000 -0.003278 0.000000
# 4 0.000000 0.000000 0.000000 0.012419 0.000000 -0.017362
# 5 -0.005621 -0.001887 -0.003278 0.000000 0.035127 0.000000
# 6 0.000000 0.000000 0.000000 -0.017362 0.000000 0.027339
#
#
# Mechanical properties :
#
#
# Convention : Reuss Voigt Hill
#
# Bulk Modulus (GPa) = 15.70025 21.32011 18.51018
# Shear Modulus (GPa) = 37.26811 233.18609 135.22710
#
# Velocity S-wave (km/s) = 4.04804 10.12577 7.71096
# Velocity P-wave (km/s) = 5.36211 12.08646 9.34973
#
# Compressibility (1/GPa) = 0.06369327
#
# Stress axis : x y z
#
# Youngs Moduli (GPa) = 123.05240 39.78974 56.78197
#
# Poissons Ratio (x) = -0.06740 -0.14169
# Poissons Ratio (y) = -0.20843 -0.12620
# Poissons Ratio (z) = -0.30705 -0.08844
#
# Static dielectric constant tensor:
#      x y z
#    x 2.041130 0.000000 -0.073310 
#    y 0.000000 1.819880 0.000000 
#    z -0.073310 0.000000 1.899180 
# 
# From -- ./inp_files/52432.got.cif
#   From: 2010.05.17/outbox.cif.g08.bks.cpg/sg12_27_cif.got.tgz:52432.got - 2010.06.03 13:09:07.
