data_PCOD9221583
_publ_section_title
;
Structure prediction by ZEFSAII (Michael W. Deem and Ramdas Pophale) SiO2 
 PCOD9221583
Probable space group: C 2/M
;
_chemical_formula_sum "Si O2"
_cell_formula_units_Z 32
_cell_length_a 13.552344
_cell_length_b 8.768385
_cell_length_c 32.994434
_cell_angle_alpha 90.000000
_cell_angle_beta 23.569200
_cell_angle_gamma 90.000000
_cell_volume 1567.756943
_symmetry_space_group_name_H-M "C 2/M"
_symmetry_group_IT_number 12
_symmetry_cell_setting 'monoclinic'
loop_
_space_group_symop_operation_xyz
x,y,z
-x,y,-z
-x,-y,-z
x,-y,z
1/2+x,1/2+y,z
1/2-x,1/2+y,-z
1/2-x,1/2-y,-z
1/2+x,1/2-y,z
loop_
_atom_site_type_symbol
_atom_site_label
_atom_site_fract_x
_atom_site_fract_y
_atom_site_fract_z
Si Si1 0.398843 0.500000 0.871351
Si Si2 0.756398 0.180185 0.379854
Si Si3 0.482586 0.670890 0.601404
Si Si4 0.762660 0.756867 0.768345
Si Si5 0.868721 0.500000 0.114264
O O1 0.561932 0.641295 0.826386
O O2 0.325402 0.500000 0.850802
O O3 0.136502 0.500000 0.992970
O O4 0.500000 0.202534 0.500000
O O5 0.694032 0.220584 0.357652
O O6 0.971589 0.292847 0.313514
O O7 0.823399 0.000000 0.359300
O O8 0.502439 0.500000 0.576742
O O9 0.750000 0.750000 0.500000
O O10 0.366809 0.659558 0.689348
O O11 0.658792 0.857332 0.844590
#
# Coordination Sequence:
#
# PCOD9221583 Si02
#       5
#     4   8   8   8   4
#     4  11  28  46  81 103 132 185 243 291 364 431
#     4  11  23  41  65  96 142 192 232 280 345 417
#     4  12  25  40  64  99 142 190 237 281 342 421
#     4  12  24  45  70 104 140 180 231 292 353 411
#     4  11  24  54  73 104 138 182 236 302 359 415
#
# _framework density 20.411327
#
# number of rings (size 3 to 8) (size 9 to 14) (size 15 to 20)
#    0.000    0.500    5.000    3.000    5.250    0.500 
#    0.000    0.000    0.000    6.000    0.000    0.000 
#    0.000    0.000    0.000    0.000    0.000    0.000 
#
# Total GULP energy -89189.970086 kJ/mol
# GULP energy per Si atom -5574.373130 kJ/mol
# Density = 2.036487 g / cm^3
# Si number density = 20.411327 Si / 1000 Ang^3
#
#
#
# Elastic Constant Matrix: (Units=GPa)
#
#
# Indices 1 2 3 4 5 6 
#
# 1 182.1954 58.6913 68.1266 0.0872 -8.1954 0.0148
# 2 58.6913 97.1085 58.7849 0.1196 -9.6610 -0.0790
# 3 68.1266 58.7849 140.2152 0.3909 -4.0826 -0.0125
# 4 0.0872 0.1196 0.3909 70.9263 0.0522 11.9854
# 5 -8.1954 -9.6610 -4.0826 0.0522 51.8753 -0.0130
# 6 0.0148 -0.0790 -0.0125 11.9854 -0.0130 38.7980
#
#
#
# Elastic Compliance Matrix: (Units=1/GPa)
#
#
# Indices 1 2 3 4 5 6 
#
# 1 0.007331 -0.003002 -0.002291 0.000011 0.000419 -0.000013
# 2 -0.003002 0.015266 -0.004884 -0.000002 0.001984 0.000032
# 3 -0.002291 -0.004884 0.010279 -0.000047 -0.000462 0.000009
# 4 0.000011 -0.000002 -0.000047 0.014876 -0.000019 -0.004595
# 5 0.000419 0.001984 -0.000462 -0.000019 0.019676 0.000016
# 6 -0.000013 0.000032 0.000009 -0.004595 0.000016 0.027194
#
#
# Mechanical properties :
#
#
# Convention : Reuss Voigt Hill
#
# Bulk Modulus (GPa) = 79.85825 87.85830 83.85828
# Shear Modulus (GPa) = 41.96317 47.91435 44.93876
#
# Velocity S-wave (km/s) = 4.53910 4.85029 4.69727
# Velocity P-wave (km/s) = 8.16582 8.63160 8.40194
#
# Compressibility (1/GPa) = 0.01252219
#
# Stress axis : x y z
#
# Youngs Moduli (GPa) = 136.40092 65.50412 97.28295
#
# Poissons Ratio (x) = 0.19667 0.22289
# Poissons Ratio (y) = 0.40952 0.47511
# Poissons Ratio (z) = 0.31252 0.31991
#
# Static dielectric constant tensor:
#      x y z
#    x 1.818220 0.000190 0.012130 
#    y 0.000190 1.732770 -0.000130 
#    z 0.012130 -0.000130 1.735580 
# 
# From -- ./inp_files/373560.got.cif
#   From: 2010.05.17/outbox.cif.g08.bks.cpg/sg12_187_cif.got.tgz:373560.got - 2010.06.03 13:09:07.
