data_PCOD9221984
_publ_section_title
;
Structure prediction by ZEFSAII (Michael W. Deem and Ramdas Pophale) SiO2 
 PCOD9221984
Probable space group: C 2/M
;
_chemical_formula_sum "Si O2"
_cell_formula_units_Z 56
_cell_length_a 31.067725
_cell_length_b 18.044760
_cell_length_c 5.568347
_cell_angle_alpha 90.000000
_cell_angle_beta 118.799515
_cell_angle_gamma 90.000000
_cell_volume 2735.552140
_symmetry_space_group_name_H-M "C 2/M"
_symmetry_group_IT_number 12
_symmetry_cell_setting 'monoclinic'
loop_
_space_group_symop_operation_xyz
x,y,z
-x,y,-z
-x,-y,-z
x,-y,z
1/2+x,1/2+y,z
1/2-x,1/2+y,-z
1/2-x,1/2-y,-z
1/2+x,1/2-y,z
loop_
_atom_site_type_symbol
_atom_site_label
_atom_site_fract_x
_atom_site_fract_y
_atom_site_fract_z
Si Si1 0.303021 0.715753 0.155309
Si Si2 0.829557 0.410949 0.881878
Si Si3 0.363988 0.161358 0.485225
Si Si4 0.284899 0.587213 0.406372
Si Si5 0.444292 0.730942 0.792260
Si Si6 0.946451 0.917664 0.480626
Si Si7 0.870199 0.840592 0.952787
O O1 0.329533 0.765851 0.424324
O O2 0.296117 0.629509 0.190370
O O3 0.250000 0.750000 0.000000
O O4 0.339825 0.716580 0.034121
O O5 0.833087 0.500000 0.907796
O O6 0.857840 0.384366 0.716234
O O7 0.771495 0.392174 0.682107
O O8 0.846593 0.378745 0.189831
O O9 0.417392 0.198776 0.601453
O O10 0.287738 0.500000 0.395473
O O11 0.328087 0.618263 0.689024
O O12 0.444146 0.654303 0.642204
O O13 0.411613 0.707358 0.931250
O O14 0.500000 0.748982 0.000000
O O15 0.000000 0.916637 0.500000
O O16 0.940921 0.000000 0.578457
O O17 0.901830 0.902336 0.178958
#
# Coordination Sequence:
#
# PCOD9221984 Si02
#       7
#     8   8   8   8   8   8   8
#     4  12  24  39  65  97 137 182 238 285 343 421
#     4  11  26  47  74 107 142 183 231 282 358 443
#     4  12  24  45  74 102 140 186 230 292 361 417
#     4  11  25  40  63  98 144 190 235 286 341 418
#     4  12  26  43  68 101 136 175 244 302 353 418
#     4  11  24  41  64  92 136 193 246 296 348 407
#     4  12  23  42  61  95 139 188 234 293 352 407
#
# _framework density 20.471184999999998
#
# number of rings (size 3 to 8) (size 9 to 14) (size 15 to 20)
#    0.000    0.429    5.714    2.571    0.000    4.857 
#    0.000    0.000    0.000    2.571    0.000    0.000 
#    0.000    0.000    0.000    0.000    0.000    0.000 
#
# Total GULP energy -156241.522379 kJ/mol
# GULP energy per Si atom -5580.054371 kJ/mol
# Density = 2.042459 g / cm^3
# Si number density = 20.471185 Si / 1000 Ang^3
#
#
#
# Elastic Constant Matrix: (Units=GPa)
#
#
# Indices 1 2 3 4 5 6 
#
# 1 131.2016 61.2738 73.8413 0.0000 14.6708 0.0000
# 2 61.2738 88.2207 40.3790 0.0000 9.4998 0.0000
# 3 73.8413 40.3790 102.2990 0.0000 32.0176 0.0000
# 4 0.0000 0.0000 0.0000 37.1022 0.0000 5.6550
# 5 14.6708 9.4998 32.0176 0.0000 42.4057 0.0000
# 6 0.0000 0.0000 0.0000 5.6550 0.0000 60.8834
#
#
#
# Elastic Compliance Matrix: (Units=1/GPa)
#
#
# Indices 1 2 3 4 5 6 
#
# 1 0.016108 -0.007007 -0.009963 0.000000 0.003519 0.000000
# 2 -0.007007 0.016941 -0.001572 0.000000 -0.000185 0.000000
# 3 -0.009963 -0.001572 0.021472 0.000000 -0.012413 0.000000
# 4 0.000000 0.000000 0.000000 0.027340 0.000000 -0.002539
# 5 0.003519 -0.000185 -0.012413 0.000000 0.031778 0.000000
# 6 0.000000 0.000000 0.000000 -0.002539 0.000000 0.016661
#
#
# Mechanical properties :
#
#
# Convention : Reuss Voigt Hill
#
# Bulk Modulus (GPa) = 57.34331 74.74550 66.04441
# Shear Modulus (GPa) = 28.86959 37.82676 33.34817
#
# Velocity S-wave (km/s) = 3.75941 4.30327 4.04050
# Velocity P-wave (km/s) = 6.84958 7.82833 7.35525
#
# Compressibility (1/GPa) = 0.01743883
#
# Stress axis : x y z
#
# Youngs Moduli (GPa) = 62.08268 59.02899 46.57275
#
# Poissons Ratio (x) = 0.41359 0.46398
# Poissons Ratio (y) = 0.43499 0.07319
# Poissons Ratio (z) = 0.61850 0.09277
#
# Static dielectric constant tensor:
#      x y z
#    x 1.725390 0.000000 -0.029210 
#    y 0.000000 1.745670 0.000000 
#    z -0.029210 0.000000 1.828140 
# 
# From -- ./inp_files/31995.got.cif
#   From: 2010.05.17/outbox.cif.g08.bks.cpg/sg12_16_cif.got.tgz:31995.got - 2010.06.03 13:09:07.
