data_PCOD9221855
_publ_section_title
;
Structure prediction by ZEFSAII (Michael W. Deem and Ramdas Pophale) SiO2 
 PCOD9221855
Probable space group: C 2/M
;
_chemical_formula_sum "Si O2"
_cell_formula_units_Z 48
_cell_length_a 15.892457
_cell_length_b 19.820829
_cell_length_c 7.984156
_cell_angle_alpha 90.000000
_cell_angle_beta 51.495952
_cell_angle_gamma 90.000000
_cell_volume 1968.166500
_symmetry_space_group_name_H-M "C 2/M"
_symmetry_group_IT_number 12
_symmetry_cell_setting 'monoclinic'
loop_
_space_group_symop_operation_xyz
x,y,z
-x,y,-z
-x,-y,-z
x,-y,z
1/2+x,1/2+y,z
1/2-x,1/2+y,-z
1/2-x,1/2-y,-z
1/2+x,1/2-y,z
loop_
_atom_site_type_symbol
_atom_site_label
_atom_site_fract_x
_atom_site_fract_y
_atom_site_fract_z
Si Si1 0.969941 0.924104 0.224691
Si Si2 0.837119 0.371487 0.100533
Si Si3 0.666066 0.000000 0.393828
Si Si4 0.931489 0.500000 0.844687
Si Si5 0.887308 0.132294 0.718171
Si Si6 0.252880 0.139195 0.560480
Si Si7 0.621399 0.207239 0.296568
O O1 0.871034 0.869283 0.349760
O O2 0.083681 0.889960 0.135084
O O3 0.946840 0.000000 0.325298
O O4 0.000000 0.936013 0.000000
O O5 0.718299 0.401589 0.217348
O O6 0.826775 0.344637 0.303654
O O7 0.915418 0.433389 0.973381
O O8 0.855400 0.321728 0.918618
O O9 0.722356 0.065396 0.397866
O O10 0.547084 0.000000 0.617685
O O11 0.651311 0.000000 0.211398
O O12 0.877721 0.212071 0.711386
O O13 0.000000 0.109142 0.500000
O O14 0.293240 0.185758 0.665103
O O15 0.500000 0.184626 0.500000
#
# Coordination Sequence:
#
# PCOD9221855 Si02
#       7
#     8   8   4   4   8   8   8
#     4  11  25  45  74 109 144 188 239 302 364 428
#     4  12  25  43  73 105 137 192 239 296 362 427
#     4  11  23  45  67 102 147 182 239 302 354 431
#     4  11  25  41  73 100 143 191 229 298 373 422
#     4  11  25  48  68 102 146 185 242 296 361 428
#     4  12  24  44  75 106 142 187 245 295 361 431
#     4  11  26  48  69 100 148 192 239 296 361 427
#
# _framework density 24.388179999999998
#
# number of rings (size 3 to 8) (size 9 to 14) (size 15 to 20)
#    0.000    0.667    4.167    3.000    1.167    4.333 
#    6.000    0.000    0.000    0.000    0.000    0.000 
#    0.000    0.000    0.000    0.000    0.000    0.000 
#
# Total GULP energy -133994.774968 kJ/mol
# GULP energy per Si atom -5583.115624 kJ/mol
# Density = 2.433267 g / cm^3
# Si number density = 24.388180 Si / 1000 Ang^3
#
#
#
# Elastic Constant Matrix: (Units=GPa)
#
#
# Indices 1 2 3 4 5 6 
#
# 1 120.9350 24.8408 7.6510 0.0000 11.9627 0.0000
# 2 24.8408 76.0244 21.8298 0.0000 18.2025 0.0000
# 3 7.6510 21.8298 116.2749 0.0000 13.3547 0.0000
# 4 0.0000 0.0000 0.0000 41.3817 0.0000 1.8442
# 5 11.9627 18.2025 13.3547 0.0000 45.9666 0.0000
# 6 0.0000 0.0000 0.0000 1.8442 0.0000 36.3523
#
#
#
# Elastic Compliance Matrix: (Units=1/GPa)
#
#
# Indices 1 2 3 4 5 6 
#
# 1 0.008933 -0.002623 0.000054 0.000000 -0.001302 0.000000
# 2 -0.002623 0.015834 -0.002233 0.000000 -0.004939 0.000000
# 3 0.000054 -0.002233 0.009224 0.000000 -0.001810 0.000000
# 4 0.000000 0.000000 0.000000 0.024220 0.000000 -0.001229
# 5 -0.001302 -0.004939 -0.001810 0.000000 0.024575 0.000000
# 6 0.000000 0.000000 0.000000 -0.001229 0.000000 0.027571
#
#
# Mechanical properties :
#
#
# Convention : Reuss Voigt Hill
#
# Bulk Modulus (GPa) = 41.00343 46.87527 43.93935
# Shear Modulus (GPa) = 39.03512 42.00095 40.51804
#
# Velocity S-wave (km/s) = 4.00506 4.15442 4.08043
# Velocity P-wave (km/s) = 6.18358 6.50189 6.34473
#
# Compressibility (1/GPa) = 0.02438820
#
# Stress axis : x y z
#
# Youngs Moduli (GPa) = 111.94474 63.15387 108.41500
#
# Poissons Ratio (x) = 0.16563 -0.00587
# Poissons Ratio (y) = 0.29359 0.24209
# Poissons Ratio (z) = -0.00606 0.14102
#
# Static dielectric constant tensor:
#      x y z
#    x 1.604210 0.000000 -0.231030 
#    y 0.000000 1.903210 0.000000 
#    z -0.231030 0.000000 1.889000 
# 
# From -- ./inp_files/77317.got.cif
#   From: 2010.05.17/outbox.cif.g08.bks.cpg/sg12_39_cif.got.tgz:77317.got - 2010.06.03 13:09:07.
