data_PCOD9221886
_publ_section_title
;
Structure prediction by ZEFSAII (Michael W. Deem and Ramdas Pophale) SiO2 
 PCOD9221886
Probable space group: C 2/M
;
_chemical_formula_sum "Si O2"
_cell_formula_units_Z 28
_cell_length_a 8.108144
_cell_length_b 12.309602
_cell_length_c 13.262471
_cell_angle_alpha 90.000000
_cell_angle_beta 118.365777
_cell_angle_gamma 90.000000
_cell_volume 1164.767581
_symmetry_space_group_name_H-M "C 2/M"
_symmetry_group_IT_number 12
_symmetry_cell_setting 'monoclinic'
loop_
_space_group_symop_operation_xyz
x,y,z
-x,y,-z
-x,-y,-z
x,-y,z
1/2+x,1/2+y,z
1/2-x,1/2+y,-z
1/2-x,1/2-y,-z
1/2+x,1/2-y,z
loop_
_atom_site_type_symbol
_atom_site_label
_atom_site_fract_x
_atom_site_fract_y
_atom_site_fract_z
Si Si1 0.232031 0.000000 0.675326
Si Si2 0.570011 0.626071 0.129791
Si Si3 0.007990 0.697244 0.731095
Si Si4 0.500000 0.823334 0.500000
Si Si5 0.689736 0.500000 0.423027
O O1 0.351996 0.110317 0.723653
O O2 0.198268 0.000000 0.545855
O O3 0.028190 0.000000 0.666767
O O4 0.517336 0.500000 0.124034
O O5 0.490782 0.701082 0.194818
O O6 0.793680 0.637922 0.201004
O O7 0.500000 0.664460 0.000000
O O8 0.975267 0.730096 0.603186
O O9 0.318297 0.898594 0.429196
#
# Coordination Sequence:
#
# PCOD9221886 Si02
#       5
#     4   8   8   4   4
#     4   9  18  38  72 107 145 190 250 292 362 436
#     4  11  26  50  76 103 147 196 252 308 361 425
#     4  11  23  46  74 109 147 194 241 304 367 441
#     4   9  20  38  73 108 156 188 237 293 370 450
#     4   8  16  34  66 109 150 200 228 289 361 448
#
# _framework density 24.039128999999999
#
# number of rings (size 3 to 8) (size 9 to 14) (size 15 to 20)
#    0.000    2.000    1.429    1.714    0.000    3.429 
#    2.571    4.286    0.000    0.000    0.000    0.000 
#    0.000    0.000    0.000    0.000    0.000    0.000 
#
# Total GULP energy -78401.073168 kJ/mol
# GULP energy per Si atom -5600.076655 kJ/mol
# Density = 2.398442 g / cm^3
# Si number density = 24.039129 Si / 1000 Ang^3
#
#
#
# Elastic Constant Matrix: (Units=GPa)
#
#
# Indices 1 2 3 4 5 6 
#
# 1 94.5170 20.2332 54.4729 0.0000 -13.8940 0.0000
# 2 20.2332 102.4005 59.1919 0.0000 -41.4519 0.0000
# 3 54.4729 59.1919 186.2618 0.0000 -31.3409 0.0000
# 4 0.0000 0.0000 0.0000 71.9796 0.0000 -142.0257
# 5 -13.8940 -41.4519 -31.3409 0.0000 44.3220 0.0000
# 6 0.0000 0.0000 0.0000 -142.0257 0.0000 628.3813
#
#
#
# Elastic Compliance Matrix: (Units=1/GPa)
#
#
# Indices 1 2 3 4 5 6 
#
# 1 0.012821 0.000196 -0.003524 0.000000 0.001711 0.000000
# 2 0.000196 0.017188 -0.003183 0.000000 0.013885 0.000000
# 3 -0.003524 -0.003183 0.007632 0.000000 0.001315 0.000000
# 4 0.000000 0.000000 0.000000 0.025076 0.000000 0.005668
# 5 0.001711 0.013885 0.001315 0.000000 0.037015 0.000000
# 6 0.000000 0.000000 0.000000 0.005668 0.000000 0.002872
#
#
# Mechanical properties :
#
#
# Convention : Reuss Voigt Hill
#
# Bulk Modulus (GPa) = 40.61919 72.33059 56.47489
# Shear Modulus (GPa) = 40.37773 165.55534 102.96653
#
# Velocity S-wave (km/s) = 4.10282 8.30774 6.55178
# Velocity P-wave (km/s) = 6.27519 11.05345 8.98768
#
# Compressibility (1/GPa) = 0.02461890
#
# Stress axis : x y z
#
# Youngs Moduli (GPa) = 78.00007 58.18177 131.02356
#
# Poissons Ratio (x) = -0.01142 0.46172
# Poissons Ratio (y) = -0.01531 0.41705
# Poissons Ratio (z) = 0.27487 0.18519
#
# Static dielectric constant tensor:
#      x y z
#    x 1.933470 0.000000 -0.012580 
#    y 0.000000 1.966300 0.000000 
#    z -0.012580 0.000000 1.891330 
# 
# From -- ./inp_files/193536.got.cif
#   From: 2010.05.17/outbox.cif.g08.bks.cpg/sg12_97_cif.got.tgz:193536.got - 2010.06.03 13:09:07.
