data_PCOD9221585
_publ_section_title
;
Structure prediction by ZEFSAII (Michael W. Deem and Ramdas Pophale) SiO2 
 PCOD9221585
Probable space group: C 2/M
;
_chemical_formula_sum "Si O2"
_cell_formula_units_Z 54
_cell_length_a 21.346961
_cell_length_b 18.364605
_cell_length_c 21.063985
_cell_angle_alpha 90.000000
_cell_angle_beta 160.879060
_cell_angle_gamma 90.000000
_cell_volume 2704.913175
_symmetry_space_group_name_H-M "C 2/M"
_symmetry_group_IT_number 12
_symmetry_cell_setting 'monoclinic'
loop_
_space_group_symop_operation_xyz
x,y,z
-x,y,-z
-x,-y,-z
x,-y,z
1/2+x,1/2+y,z
1/2-x,1/2+y,-z
1/2-x,1/2-y,-z
1/2+x,1/2-y,z
loop_
_atom_site_type_symbol
_atom_site_label
_atom_site_fract_x
_atom_site_fract_y
_atom_site_fract_z
Si Si1 0.772069 0.642141 0.826901
Si Si2 0.062644 0.915659 0.409356
Si Si3 0.500000 0.249401 0.500000
Si Si4 0.582040 0.836197 0.223496
Si Si5 0.000000 0.500000 0.000000
Si Si6 0.338238 0.806220 0.474192
Si Si7 0.159997 0.324971 0.888306
Si Si8 0.036344 0.913257 0.235534
O O1 0.603323 0.629150 0.716293
O O2 0.677198 0.697731 0.687056
O O3 0.949288 0.674918 0.035714
O O4 0.843621 0.565179 0.868530
O O5 0.261626 0.899249 0.634904
O O6 0.082936 0.897018 0.354495
O O7 0.013793 0.000000 0.366620
O O8 0.563915 0.203139 0.500481
O O9 0.702918 0.764245 0.355508
O O10 0.448568 0.858042 0.154790
O O11 0.504388 0.809469 0.685548
O O12 0.199531 0.875109 0.350250
O O13 0.250000 0.250000 0.000000
O O14 0.330346 0.376365 0.027295
O O15 0.030309 0.000000 0.221533
#
# Coordination Sequence:
#
# PCOD9221585 Si02
#       8
#     8   8   4   8   2   8   8   8
#     4  12  26  44  63  97 139 185 241 271 324 401
#     4  11  23  41  65  98 144 178 222 280 337 396
#     4  12  28  47  65  96 136 186 238 288 324 414
#     4  12  23  40  70 100 130 175 231 281 334 393
#     4  12  28  42  64  92 146 212 222 260 328 400
#     4  12  25  44  68  97 135 177 227 283 345 407
#     4  12  22  39  72 103 132 169 224 286 350 403
#     4  11  25  44  69 106 140 169 217 291 357 414
#
# _framework density 19.963671999999999
#
# number of rings (size 3 to 8) (size 9 to 14) (size 15 to 20)
#    0.000    0.296    6.667    3.111    1.037    1.481 
#    0.000    0.370    0.000    0.889    0.000    0.000 
#    0.000    0.000    0.000    0.000    0.000    0.000 
#
# Total GULP energy -150849.354419 kJ/mol
# GULP energy per Si atom -5587.013127 kJ/mol
# Density = 1.991823 g / cm^3
# Si number density = 19.963672 Si / 1000 Ang^3
#
#
#
# Elastic Constant Matrix: (Units=GPa)
#
#
# Indices 1 2 3 4 5 6 
#
# 1 103.5716 41.8545 52.9645 0.0039 11.8103 0.0025
# 2 41.8545 94.6374 44.0143 -0.0079 6.5538 -0.0038
# 3 52.9645 44.0143 160.3824 -0.0060 -6.0534 -0.0017
# 4 0.0039 -0.0079 -0.0060 30.0583 -0.0052 13.8431
# 5 11.8103 6.5538 -6.0534 -0.0052 41.8091 -0.0015
# 6 0.0025 -0.0038 -0.0017 13.8431 -0.0015 29.4812
#
#
#
# Elastic Compliance Matrix: (Units=1/GPa)
#
#
# Indices 1 2 3 4 5 6 
#
# 1 0.013509 -0.004105 -0.003474 -0.000004 -0.003676 0.000000
# 2 -0.004105 0.013603 -0.002428 0.000003 -0.001324 0.000000
# 3 -0.003474 -0.002428 0.008144 0.000002 0.002541 0.000000
# 4 -0.000004 0.000003 0.000002 0.042448 0.000006 -0.019932
# 5 -0.003676 -0.001324 0.002541 0.000006 0.025532 -0.000001
# 6 0.000000 0.000000 0.000000 -0.019932 -0.000001 0.043279
#
#
# Mechanical properties :
#
#
# Convention : Reuss Voigt Hill
#
# Bulk Modulus (GPa) = 65.59578 70.69534 68.14556
# Shear Modulus (GPa) = 29.13608 34.92026 32.02817
#
# Velocity S-wave (km/s) = 3.82443 4.18687 4.00974
# Velocity P-wave (km/s) = 7.24089 7.67216 7.45964
#
# Compressibility (1/GPa) = 0.01524488
#
# Stress axis : x y z
#
# Youngs Moduli (GPa) = 74.02279 73.51509 122.78510
#
# Poissons Ratio (x) = 0.30175 0.42651
# Poissons Ratio (y) = 0.30383 0.29806
# Poissons Ratio (z) = 0.25713 0.17846
#
# Static dielectric constant tensor:
#      x y z
#    x 1.738600 0.000000 0.002620 
#    y 0.000000 1.680000 0.000000 
#    z 0.002620 0.000000 1.717010 
# 
# From -- ./inp_files/322775.got.cif
#   From: 2010.05.17/outbox.cif.g08.bks.cpg/sg12_162_cif.got.tgz:322775.got - 2010.06.03 13:09:07.
