data_PCOD9221752
_publ_section_title
;
Structure prediction by ZEFSAII (Michael W. Deem and Ramdas Pophale) SiO2 
 PCOD9221752
Probable space group: C 2/M
;
_chemical_formula_sum "Si O2"
_cell_formula_units_Z 36
_cell_length_a 7.940289
_cell_length_b 35.553832
_cell_length_c 7.655202
_cell_angle_alpha 90.000000
_cell_angle_beta 126.303241
_cell_angle_gamma 90.000000
_cell_volume 1741.637352
_symmetry_space_group_name_H-M "C 2/M"
_symmetry_group_IT_number 12
_symmetry_cell_setting 'monoclinic'
loop_
_space_group_symop_operation_xyz
x,y,z
-x,y,-z
-x,-y,-z
x,-y,z
1/2+x,1/2+y,z
1/2-x,1/2+y,-z
1/2-x,1/2-y,-z
1/2+x,1/2-y,z
loop_
_atom_site_type_symbol
_atom_site_label
_atom_site_fract_x
_atom_site_fract_y
_atom_site_fract_z
Si Si1 0.719131 0.000000 0.942697
Si Si2 0.567804 0.936523 0.337675
Si Si3 0.000000 0.178914 0.500000
Si Si4 0.453377 0.149722 0.678959
Si Si5 0.817152 0.206682 0.031049
Si Si6 0.367198 0.500000 0.624535
O O1 0.585414 0.037471 0.866434
O O2 0.795570 0.000000 0.785823
O O3 0.888131 0.000000 0.196910
O O4 0.500000 0.935285 0.500000
O O5 0.539205 0.893884 0.258972
O O6 0.777809 0.961949 0.482227
O O7 0.789018 0.158800 0.435091
O O8 0.918632 0.200314 0.281297
O O9 0.500000 0.152385 0.500000
O O10 0.622077 0.178050 0.873164
O O11 0.750000 0.250000 0.000000
O O12 0.000000 0.200792 0.000000
#
# Coordination Sequence:
#
# PCOD9221752 Si02
#       6
#     4   8   4   8   8   4
#     4   8  13  25  46  79 124 169 216 272 326 391
#     4   8  16  29  50  83 128 168 220 276 324 397
#     4  12  26  46  72  99 142 180 224 287 340 408
#     4  11  23  43  67 101 138 181 232 282 343 407
#     4  12  27  47  73 104 138 180 227 282 345 411
#     4   8  13  25  46  81 117 172 219 264 335 389
#
# _framework density 20.670203999999998
#
# number of rings (size 3 to 8) (size 9 to 14) (size 15 to 20)
#    0.000    2.000    2.222    3.333    1.556    3.556 
#    4.000    0.000    0.000    2.667    0.000   14.000 
#    0.000    0.000    0.000    0.000    0.000    0.000 
#
# Total GULP energy -100304.122426 kJ/mol
# GULP energy per Si atom -5572.451246 kJ/mol
# Density = 2.062316 g / cm^3
# Si number density = 20.670204 Si / 1000 Ang^3
#
#
#
# Elastic Constant Matrix: (Units=GPa)
#
#
# Indices 1 2 3 4 5 6 
#
# 1 133.9928 59.2925 53.2999 0.0000 8.1737 0.0000
# 2 59.2925 222.8757 111.8047 0.0000 36.3327 0.0000
# 3 53.2999 111.8047 145.6695 0.0000 31.5813 0.0000
# 4 0.0000 0.0000 0.0000 -46.2454 0.0000 -13.4914
# 5 8.1737 36.3327 31.5813 0.0000 49.4569 0.0000
# 6 0.0000 0.0000 0.0000 -13.4914 0.0000 20.3011
#
#
#
# Elastic Compliance Matrix: (Units=1/GPa)
#
#
# Indices 1 2 3 4 5 6 
#
# 1 0.008975 -0.001299 -0.002521 0.000000 0.001081 0.000000
# 2 -0.001299 0.007671 -0.004918 0.000000 -0.002280 0.000000
# 3 -0.002521 -0.004918 0.012406 0.000000 -0.003892 0.000000
# 4 0.000000 0.000000 0.000000 -0.018112 0.000000 -0.012037
# 5 0.001081 -0.002280 -0.003892 0.000000 0.024202 0.000000
# 6 0.000000 0.000000 0.000000 -0.012037 0.000000 0.041259
#
#
# Mechanical properties :
#
#
# Convention : Reuss Voigt Hill
#
# Bulk Modulus (GPa) = 86.39080 105.70358 96.04719
# Shear Modulus (GPa) = 51.15814 23.24526 37.20170
#
# Velocity S-wave (km/s) = 4.98030 3.35711 4.24698
# Velocity P-wave (km/s) = 8.65776 8.14101 8.40336
#
# Compressibility (1/GPa) = 0.01157531
#
# Stress axis : x y z
#
# Youngs Moduli (GPa) = 111.42212 130.35505 80.60607
#
# Poissons Ratio (x) = 0.16935 0.20322
# Poissons Ratio (y) = 0.14475 0.39644
# Poissons Ratio (z) = 0.28091 0.64111
#
# Static dielectric constant tensor:
#      x y z
#    x 1.854850 0.000000 0.013810 
#    y 0.000000 1.967150 0.000000 
#    z 0.013810 0.000000 1.646860 
# 
# From -- ./inp_files/42019.got.cif
#   From: 2010.05.17/outbox.cif.g08.bks.cpg/sg12_22_cif.got.tgz:42019.got - 2010.06.03 13:09:07.
