data_PCOD9221630
_publ_section_title
;
Structure prediction by ZEFSAII (Michael W. Deem and Ramdas Pophale) SiO2 
 PCOD9221630
Probable space group: C 2/M
;
_chemical_formula_sum "Si O2"
_cell_formula_units_Z 56
_cell_length_a 16.695492
_cell_length_b 18.052423
_cell_length_c 11.627560
_cell_angle_alpha 90.000000
_cell_angle_beta 131.716302
_cell_angle_gamma 90.000000
_cell_volume 2615.913518
_symmetry_space_group_name_H-M "C 2/M"
_symmetry_group_IT_number 12
_symmetry_cell_setting 'monoclinic'
loop_
_space_group_symop_operation_xyz
x,y,z
-x,y,-z
-x,-y,-z
x,-y,z
1/2+x,1/2+y,z
1/2-x,1/2+y,-z
1/2-x,1/2-y,-z
1/2+x,1/2-y,z
loop_
_atom_site_type_symbol
_atom_site_label
_atom_site_fract_x
_atom_site_fract_y
_atom_site_fract_z
Si Si1 0.291500 0.656200 0.186049
Si Si2 0.361297 0.912688 0.145237
Si Si3 0.292901 0.184817 0.276202
Si Si4 0.910934 0.663378 0.618355
Si Si5 0.988318 0.085918 0.239747
Si Si6 0.937786 0.213175 0.835295
Si Si7 0.723128 0.586304 0.578550
O O1 0.306226 0.744327 0.205881
O O2 0.396338 0.616116 0.235686
O O3 0.271972 0.630123 0.297498
O O4 0.194368 0.630842 0.012476
O O5 0.302667 0.887123 0.206286
O O6 0.483859 0.886969 0.275134
O O7 0.352443 0.000000 0.118147
O O8 0.381882 0.185398 0.460915
O O9 0.179355 0.192246 0.231115
O O10 0.928818 0.734594 0.716074
O O11 0.809375 0.620055 0.573901
O O12 0.996387 0.140428 0.139070
O O13 0.103989 0.091565 0.412179
O O14 0.968308 0.000000 0.192299
O O15 0.000000 0.251500 0.000000
O O16 0.746310 0.500000 0.621820
#
# Coordination Sequence:
#
# PCOD9221630 Si02
#       7
#     8   8   8   8   8   8   8
#     4  12  24  46  70 103 142 183 236 289 351 414
#     4  12  28  46  71 107 146 187 230 289 359 422
#     4  12  25  46  72  99 140 188 239 285 341 418
#     4  12  25  46  69 103 140 185 237 283 342 422
#     4  11  24  42  67 100 136 180 232 287 347 411
#     4  12  24  43  70 102 136 179 232 291 350 411
#     4  11  23  41  70 101 139 184 230 286 346 413
#
# _framework density 21.407436000000001
#
# number of rings (size 3 to 8) (size 9 to 14) (size 15 to 20)
#    0.000    0.286    2.857    6.857    0.000    4.857 
#    0.000    1.429    0.000    0.000    0.000    0.000 
#    0.000    0.000    0.000    0.000    0.000    0.000 
#
# Total GULP energy -156895.795981 kJ/mol
# GULP energy per Si atom -5603.421285 kJ/mol
# Density = 2.135871 g / cm^3
# Si number density = 21.407436 Si / 1000 Ang^3
#
#
#
# Elastic Constant Matrix: (Units=GPa)
#
#
# Indices 1 2 3 4 5 6 
#
# 1 58.3306 19.2091 1.6263 0.0000 9.8451 0.0000
# 2 19.2091 81.8968 13.1476 0.0000 6.9613 0.0000
# 3 1.6263 13.1476 100.4174 0.0000 3.2940 0.0000
# 4 0.0000 0.0000 0.0000 21.3675 0.0000 -16.3592
# 5 9.8451 6.9613 3.2940 0.0000 26.7350 0.0000
# 6 0.0000 0.0000 0.0000 -16.3592 0.0000 -48.7807
#
#
#
# Elastic Compliance Matrix: (Units=1/GPa)
#
#
# Indices 1 2 3 4 5 6 
#
# 1 0.019532 -0.004125 0.000426 0.000000 -0.006171 0.000000
# 2 -0.004125 0.013598 -0.001654 0.000000 -0.001818 0.000000
# 3 0.000426 -0.001654 0.010200 0.000000 -0.000983 0.000000
# 4 0.000000 0.000000 0.000000 0.037239 0.000000 -0.012488
# 5 -0.006171 -0.001818 -0.000983 0.000000 0.040271 0.000000
# 6 0.000000 0.000000 0.000000 -0.012488 0.000000 -0.016312
#
#
# Mechanical properties :
#
#
# Convention : Reuss Voigt Hill
#
# Bulk Modulus (GPa) = 30.65187 34.29010 32.47098
# Shear Modulus (GPa) = 39.64832 13.64182 26.64507
#
# Velocity S-wave (km/s) = 4.30825 2.52711 3.53181
# Velocity P-wave (km/s) = 6.25280 4.95658 5.64204
#
# Compressibility (1/GPa) = 0.03262444
#
# Stress axis : x y z
#
# Youngs Moduli (GPa) = 51.19859 73.53971 98.03605
#
# Poissons Ratio (x) = 0.30336 -0.04178
# Poissons Ratio (y) = 0.21120 0.16215
# Poissons Ratio (z) = -0.02182 0.12163
#
# Static dielectric constant tensor:
#      x y z
#    x 1.743630 0.000000 0.008200 
#    y 0.000000 1.755930 0.000000 
#    z 0.008200 0.000000 1.770700 
# 
# From -- ./inp_files/158329.got.cif
#   From: 2010.05.17/outbox.cif.g08.bks.cpg/sg12_80_cif.got.tgz:158329.got - 2010.06.03 13:09:07.
