data_PCOD9221518
_publ_section_title
;
Structure prediction by ZEFSAII (Michael W. Deem and Ramdas Pophale) SiO2 
 PCOD9221518
Probable space group: C 2/M
;
_chemical_formula_sum "Si O2"
_cell_formula_units_Z 52
_cell_length_a 16.596732
_cell_length_b 23.847194
_cell_length_c 11.136918
_cell_angle_alpha 90.000000
_cell_angle_beta 144.140526
_cell_angle_gamma 90.000000
_cell_volume 2582.103849
_symmetry_space_group_name_H-M "C 2/M"
_symmetry_group_IT_number 12
_symmetry_cell_setting 'monoclinic'
loop_
_space_group_symop_operation_xyz
x,y,z
-x,y,-z
-x,-y,-z
x,-y,z
1/2+x,1/2+y,z
1/2-x,1/2+y,-z
1/2-x,1/2-y,-z
1/2+x,1/2-y,z
loop_
_atom_site_type_symbol
_atom_site_label
_atom_site_fract_x
_atom_site_fract_y
_atom_site_fract_z
Si Si1 0.148835 0.500000 0.848843
Si Si2 0.152617 0.683877 0.729384
Si Si3 0.662503 0.611954 0.232344
Si Si4 0.781794 0.117766 0.080712
Si Si5 0.500000 0.241661 0.000000
Si Si6 0.539182 0.677297 0.275146
Si Si7 0.831730 0.500000 0.417950
Si Si8 0.289571 0.301677 0.294929
O O1 0.158552 0.500000 0.715669
O O2 0.982325 0.500000 0.662181
O O3 0.226175 0.555176 0.993129
O O4 0.255345 0.650975 0.762683
O O5 0.185518 0.749576 0.764532
O O6 0.000000 0.673348 0.500000
O O7 0.170632 0.658138 0.882379
O O8 0.658416 0.641917 0.355465
O O9 0.743081 0.554506 0.339974
O O10 0.500000 0.604972 0.000000
O O11 0.802973 0.139988 0.240788
O O12 0.920406 0.134898 0.176181
O O13 0.498866 0.279637 0.120059
O O14 0.638144 0.205996 0.164998
O O15 0.600192 0.705810 0.466458
#
# Coordination Sequence:
#
# PCOD9221518 Si02
#       8
#     4   8   8   8   4   8   4   8
#     4  11  24  44  68  97 139 173 233 291 332 400
#     4  12  23  38  67 100 136 178 220 277 340 406
#     4  12  21  40  66  96 139 175 221 290 338 392
#     4  12  24  45  67  97 140 182 231 280 340 403
#     4  12  24  44  66 100 142 182 222 282 334 410
#     4  12  23  45  65 103 137 180 229 274 341 416
#     4  11  23  40  67 105 126 175 238 284 342 391
#     4  12  27  41  68 100 142 183 223 275 344 420
#
# _framework density 20.138618000000001
#
# number of rings (size 3 to 8) (size 9 to 14) (size 15 to 20)
#    0.000    0.154    6.923    3.462    2.154    1.846 
#    0.000    2.308    0.000    1.385    0.000    0.000 
#    0.000    0.000    0.000    0.000    0.000    0.000 
#
# Total GULP energy -145257.497971 kJ/mol
# GULP energy per Si atom -5586.826845 kJ/mol
# Density = 2.009278 g / cm^3
# Si number density = 20.138618 Si / 1000 Ang^3
#
#
#
# Elastic Constant Matrix: (Units=GPa)
#
#
# Indices 1 2 3 4 5 6 
#
# 1 76.9245 33.6313 41.5761 0.0000 13.6498 0.0000
# 2 33.6313 107.1843 32.2620 0.0000 -3.0248 0.0000
# 3 41.5761 32.2620 97.4850 0.0000 7.8528 0.0000
# 4 0.0000 0.0000 0.0000 -0.6856 0.0000 -0.2044
# 5 13.6498 -3.0248 7.8528 0.0000 43.2452 0.0000
# 6 0.0000 0.0000 0.0000 -0.2044 0.0000 28.3631
#
#
#
# Elastic Compliance Matrix: (Units=1/GPa)
#
#
# Indices 1 2 3 4 5 6 
#
# 1 0.019232 -0.004264 -0.006371 0.000000 -0.005212 0.000000
# 2 -0.004264 0.011388 -0.002154 0.000000 0.002534 0.000000
# 3 -0.006371 -0.002154 0.013739 0.000000 -0.000635 0.000000
# 4 0.000000 0.000000 0.000000 -1.455417 0.000000 -0.010487
# 5 -0.005212 0.002534 -0.000635 0.000000 0.025061 0.000000
# 6 0.000000 0.000000 0.000000 -0.010487 0.000000 0.035182
#
#
# Mechanical properties :
#
#
# Convention : Reuss Voigt Hill
#
# Bulk Modulus (GPa) = 53.24759 55.17028 54.20894
# Shear Modulus (GPa) = -3.79082 25.79282 11.00100
#
# Velocity S-wave (km/s) = -1.37348 3.58266 2.33976
# Velocity P-wave (km/s) = 4.89721 6.67598 5.85454
#
# Compressibility (1/GPa) = 0.01878019
#
# Stress axis : x y z
#
# Youngs Moduli (GPa) = 51.99585 87.81555 72.78361
#
# Poissons Ratio (x) = 0.37443 0.46373
# Poissons Ratio (y) = 0.22170 0.15679
# Poissons Ratio (z) = 0.33129 0.18917
#
# Static dielectric constant tensor:
#      x y z
#    x 1.737890 0.000000 0.000950 
#    y 0.000000 1.706030 0.000000 
#    z 0.000950 0.000000 1.759360 
# 
# From -- ./inp_files/160861.got.cif
#   From: 2010.05.17/outbox.cif.g08.bks.cpg/sg12_81_cif.got.tgz:160861.got - 2010.06.03 13:09:07.
