data_PCOD9221667
_publ_section_title
;
Structure prediction by ZEFSAII (Michael W. Deem and Ramdas Pophale) SiO2 
 PCOD9221667
Probable space group: C 2/M
;
_chemical_formula_sum "Si O2"
_cell_formula_units_Z 32
_cell_length_a 9.726385
_cell_length_b 12.782550
_cell_length_c 21.689603
_cell_angle_alpha 90.000000
_cell_angle_beta 150.086400
_cell_angle_gamma 90.000000
_cell_volume 1344.789359
_symmetry_space_group_name_H-M "C 2/M"
_symmetry_group_IT_number 12
_symmetry_cell_setting 'monoclinic'
loop_
_space_group_symop_operation_xyz
x,y,z
-x,y,-z
-x,-y,-z
x,-y,z
1/2+x,1/2+y,z
1/2-x,1/2+y,-z
1/2-x,1/2-y,-z
1/2+x,1/2-y,z
loop_
_atom_site_type_symbol
_atom_site_label
_atom_site_fract_x
_atom_site_fract_y
_atom_site_fract_z
Si Si1 0.452618 0.625433 0.176253
Si Si2 0.088100 0.500000 0.310509
Si Si3 0.953881 0.316297 0.541802
Si Si4 0.370783 0.500000 0.556665
Si Si5 0.150576 0.183893 0.121137
O O1 0.391733 0.500000 0.153736
O O2 0.264230 0.699578 0.147136
O O3 0.461790 0.669684 0.109126
O O4 0.767146 0.645333 0.320102
O O5 0.210237 0.500000 0.427860
O O6 0.318138 0.500000 0.345835
O O7 0.903057 0.603803 0.230847
O O8 0.750000 0.250000 0.500000
O O9 0.743884 0.408564 0.445234
O O10 0.000000 0.247621 0.500000
O O11 0.000000 0.148402 0.000000
#
# Coordination Sequence:
#
# PCOD9221667 Si02
#       5
#     8   4   8   4   8
#     4  12  26  48  70 105 145 184 240 295 350 420
#     4  11  23  44  74 103 140 186 236 288 358 425
#     4  12  24  41  67  98 142 180 225 287 349 421
#     4  11  23  42  66 103 137 183 224 280 361 413
#     4  12  25  49  74 102 142 190 238 295 353 415
#
# _framework density 23.795549000000001
#
# number of rings (size 3 to 8) (size 9 to 14) (size 15 to 20)
#    0.000    0.250    5.000    4.500    3.500    0.500 
#    2.250    0.000    0.000    0.000    0.000    0.000 
#    0.000    0.000    0.000    0.000    0.000    0.000 
#
# Total GULP energy -89283.872228 kJ/mol
# GULP energy per Si atom -5580.242014 kJ/mol
# Density = 2.374139 g / cm^3
# Si number density = 23.795549 Si / 1000 Ang^3
#
#
#
# Elastic Constant Matrix: (Units=GPa)
#
#
# Indices 1 2 3 4 5 6 
#
# 1 118.4172 27.3598 22.8917 -0.0007 -25.2164 0.0000
# 2 27.3598 148.6926 25.1096 0.0004 -5.1343 0.0003
# 3 22.8917 25.1096 63.6668 0.0061 -9.5439 0.0012
# 4 -0.0007 0.0004 0.0061 26.7613 0.0003 4.2645
# 5 -25.2164 -5.1343 -9.5439 0.0003 31.6319 -0.0001
# 6 0.0000 0.0003 0.0012 4.2645 -0.0001 39.3508
#
#
#
# Elastic Compliance Matrix: (Units=1/GPa)
#
#
# Indices 1 2 3 4 5 6 
#
# 1 0.010834 -0.001354 -0.002199 0.000001 0.007753 0.000000
# 2 -0.001354 0.007378 -0.002519 0.000000 -0.000642 0.000000
# 3 -0.002199 -0.002519 0.017980 -0.000004 0.003263 0.000000
# 4 0.000001 0.000000 -0.000004 0.038024 -0.000001 -0.004121
# 5 0.007753 -0.000642 0.003263 -0.000001 0.038675 0.000000
# 6 0.000000 0.000000 0.000000 -0.004121 0.000000 0.025859
#
#
# Mechanical properties :
#
#
# Convention : Reuss Voigt Hill
#
# Bulk Modulus (GPa) = 41.58548 53.49985 47.54266
# Shear Modulus (GPa) = 31.46448 36.57650 34.02049
#
# Velocity S-wave (km/s) = 3.64027 3.92486 3.78524
# Velocity P-wave (km/s) = 5.93151 6.56287 6.25516
#
# Compressibility (1/GPa) = 0.02404686
#
# Stress axis : x y z
#
# Youngs Moduli (GPa) = 92.30430 135.54359 55.61728
#
# Poissons Ratio (x) = 0.18358 0.12230
# Poissons Ratio (y) = 0.12502 0.14010
# Poissons Ratio (z) = 0.20297 0.34143
#
# Static dielectric constant tensor:
#      x y z
#    x -3.438100 0.000010 1.226860 
#    y 0.000010 1.909080 0.000000 
#    z 1.226860 0.000000 1.606590 
# 
# From -- ./inp_files/357702.got.cif
#   From: 2010.05.17/outbox.cif.g08.bks.cpg/sg12_179_cif.got.tgz:357702.got - 2010.06.03 13:09:07.
