data_PCOD9221173
_publ_section_title
;
Structure prediction by ZEFSAII (Michael W. Deem and Ramdas Pophale) SiO2 
 PCOD9221173
Probable space group: C 2/M
;
_chemical_formula_sum "Si O2"
_cell_formula_units_Z 64
_cell_length_a 14.216955
_cell_length_b 17.352217
_cell_length_c 16.174803
_cell_angle_alpha 90.000000
_cell_angle_beta 50.173326
_cell_angle_gamma 90.000000
_cell_volume 3064.457087
_symmetry_space_group_name_H-M "C 2/M"
_symmetry_group_IT_number 12
_symmetry_cell_setting 'monoclinic'
loop_
_space_group_symop_operation_xyz
x,y,z
-x,y,-z
-x,-y,-z
x,-y,z
1/2+x,1/2+y,z
1/2-x,1/2+y,-z
1/2-x,1/2-y,-z
1/2+x,1/2-y,z
loop_
_atom_site_type_symbol
_atom_site_label
_atom_site_fract_x
_atom_site_fract_y
_atom_site_fract_z
Si Si1 0.684494 0.912594 0.510364
Si Si2 0.165946 0.413923 0.719791
Si Si3 0.267744 0.249699 0.250955
Si Si4 0.659007 0.412775 0.089800
Si Si5 0.576788 0.664159 0.695352
Si Si6 0.118408 0.210944 0.981937
Si Si7 0.431197 0.125142 0.951290
Si Si8 0.003273 0.725808 0.586428
O O1 0.679695 0.907223 0.613158
O O2 0.819017 0.892557 0.399470
O O3 0.590428 0.848088 0.531270
O O4 0.651147 0.000000 0.506312
O O5 0.209773 0.500000 0.719545
O O6 0.233351 0.340036 0.721561
O O7 0.024027 0.407447 0.830351
O O8 0.360563 0.292754 0.261379
O O9 0.303487 0.253291 0.135358
O O10 0.138686 0.292673 0.323893
O O11 0.623110 0.500000 0.091180
O O12 0.550628 0.375711 0.205868
O O13 0.670400 0.358782 0.003293
O O14 0.799163 0.411895 0.041121
O O15 0.549112 0.724069 0.637376
O O16 0.087259 0.283869 0.056970
O O17 0.000000 0.181968 0.000000
O O18 0.500000 0.120789 0.000000
O O19 0.000000 0.769426 0.500000
#
# Coordination Sequence:
#
# PCOD9221173 Si02
#       8
#     8   8   8   8   8   8   8   8
#     4  11  25  46  69 101 140 179 228 292 350 396
#     4  11  23  41  68  99 138 179 223 292 349 394
#     4  12  23  45  69 104 136 183 232 281 341 413
#     4  12  27  44  69 105 141 182 229 284 349 407
#     4  12  24  48  72  95 142 184 234 279 338 421
#     4  11  22  43  68  99 134 181 231 279 335 407
#     4  11  23  45  71  99 139 186 231 278 339 414
#     4  12  25  42  73 105 131 181 238 281 341 416
#
# _framework density 20.884613000000002
#
# number of rings (size 3 to 8) (size 9 to 14) (size 15 to 20)
#    0.000    0.500    6.250    3.000    1.750    1.500 
#    0.000    0.625    0.000    2.625    0.000    0.000 
#    0.000    0.000    0.000    0.000    0.000    0.000 
#
# Total GULP energy -178720.634507 kJ/mol
# GULP energy per Si atom -5585.019828 kJ/mol
# Density = 2.083708 g / cm^3
# Si number density = 20.884613 Si / 1000 Ang^3
#
#
#
# Elastic Constant Matrix: (Units=GPa)
#
#
# Indices 1 2 3 4 5 6 
#
# 1 70.7198 48.6060 23.2842 0.0000 -23.8950 0.0000
# 2 48.6060 133.7254 35.1345 0.0000 12.0001 0.0000
# 3 23.2842 35.1345 106.4572 0.0000 -7.4604 0.0000
# 4 0.0000 0.0000 0.0000 -23.5825 0.0000 -9.9062
# 5 -23.8950 12.0001 -7.4604 0.0000 28.2406 0.0000
# 6 0.0000 0.0000 0.0000 -9.9062 0.0000 11.1787
#
#
#
# Elastic Compliance Matrix: (Units=1/GPa)
#
#
# Indices 1 2 3 4 5 6 
#
# 1 0.042273 -0.019382 0.000239 0.000000 0.044067 0.000000
# 2 -0.019382 0.017614 -0.003309 0.000000 -0.024759 0.000000
# 3 0.000239 -0.003309 0.010745 0.000000 0.004447 0.000000
# 4 0.000000 0.000000 0.000000 -0.030901 0.000000 -0.027384
# 5 0.044067 -0.024759 0.004447 0.000000 0.084392 0.000000
# 6 0.000000 0.000000 0.000000 -0.027384 0.000000 0.065189
#
#
# Mechanical properties :
#
#
# Convention : Reuss Voigt Hill
#
# Bulk Modulus (GPa) = 38.86925 58.32798 48.59861
# Shear Modulus (GPa) = 20.59374 16.75920 18.67647
#
# Velocity S-wave (km/s) = 3.14359 2.83586 2.99368
# Velocity P-wave (km/s) = 5.64163 6.22190 5.93886
#
# Compressibility (1/GPa) = 0.02572728
#
# Stress axis : x y z
#
# Youngs Moduli (GPa) = 23.65585 56.77210 93.06761
#
# Poissons Ratio (x) = 1.10038 -0.02226
# Poissons Ratio (y) = 0.45851 0.30797
# Poissons Ratio (z) = -0.00566 0.18786
#
# Static dielectric constant tensor:
#      x y z
#    x 1.767980 0.000000 -0.032140 
#    y 0.000000 1.753670 0.000000 
#    z -0.032140 0.000000 1.858710 
# 
# From -- ./inp_files/216770.got.cif
#   From: 2010.05.17/outbox.cif.g08.bks.cpg/sg12_109_cif.got.tgz:216770.got - 2010.06.03 13:09:07.
