data_PCOD9221759
_publ_section_title
;
Structure prediction by ZEFSAII (Michael W. Deem and Ramdas Pophale) SiO2 
 PCOD9221759
Probable space group: C 2/M
;
_chemical_formula_sum "Si O2"
_cell_formula_units_Z 40
_cell_length_a 13.684558
_cell_length_b 25.016825
_cell_length_c 5.015440
_cell_angle_alpha 90.000000
_cell_angle_beta 93.071598
_cell_angle_gamma 90.000000
_cell_volume 1714.540029
_symmetry_space_group_name_H-M "C 2/M"
_symmetry_group_IT_number 12
_symmetry_cell_setting 'monoclinic'
loop_
_space_group_symop_operation_xyz
x,y,z
-x,y,-z
-x,-y,-z
x,-y,z
1/2+x,1/2+y,z
1/2-x,1/2+y,-z
1/2-x,1/2-y,-z
1/2+x,1/2-y,z
loop_
_atom_site_type_symbol
_atom_site_label
_atom_site_fract_x
_atom_site_fract_y
_atom_site_fract_z
Si Si1 0.645632 0.941650 0.834488
Si Si2 0.889916 0.773328 0.951985
Si Si3 0.698381 0.674035 0.563168
Si Si4 0.286485 0.441554 0.354970
Si Si5 0.907431 0.328830 0.305392
O O1 0.701787 0.945089 0.563031
O O2 0.581039 0.888895 0.804269
O O3 0.599737 0.000000 0.876967
O O4 0.729911 0.933455 0.068281
O O5 0.817061 0.802959 0.145395
O O6 0.894773 0.713115 0.064107
O O7 0.856627 0.786996 0.650224
O O8 0.000000 0.794960 0.000000
O O9 0.658167 0.613120 0.564549
O O10 0.809116 0.671576 0.470930
O O11 0.336937 0.500000 0.357169
O O12 0.000000 0.314179 0.500000
#
# Coordination Sequence:
#
# PCOD9221759 Si02
#       5
#     8   8   8   8   8
#     4   9  19  36  58  89 130 170 206 246 299 371
#     4  12  26  44  64  91 126 167 218 270 318 369
#     4  11  23  43  68  93 127 168 209 259 321 380
#     4   9  18  36  63  93 123 161 207 256 313 374
#     4  11  24  41  65  98 134 169 212 257 310 380
#
# _framework density 23.32987
#
# number of rings (size 3 to 8) (size 9 to 14) (size 15 to 20)
#    0.000    1.600    0.000    5.400    0.000    8.400 
#    0.000    0.000    0.000   15.000    0.000    0.000 
#    0.000    0.000    0.000    0.000    0.000    0.000 
#
# Total GULP energy -111865.088475 kJ/mol
# GULP energy per Si atom -5593.254424 kJ/mol
# Density = 2.327677 g / cm^3
# Si number density = 23.329870 Si / 1000 Ang^3
#
#
#
# Elastic Constant Matrix: (Units=GPa)
#
#
# Indices 1 2 3 4 5 6 
#
# 1 101.8706 15.9451 -76.3545 0.0000 23.3219 0.0000
# 2 15.9451 215.3017 38.9493 0.0000 19.8287 0.0000
# 3 -76.3545 38.9493 310.7392 0.0000 -46.6804 0.0000
# 4 0.0000 0.0000 0.0000 19.0709 0.0000 20.6297
# 5 23.3219 19.8287 -46.6804 0.0000 44.3932 0.0000
# 6 0.0000 0.0000 0.0000 20.6297 0.0000 2.8592
#
#
#
# Elastic Compliance Matrix: (Units=1/GPa)
#
#
# Indices 1 2 3 4 5 6 
#
# 1 0.012856 -0.001159 0.002811 0.000000 -0.003280 0.000000
# 2 -0.001159 0.005292 -0.001439 0.000000 -0.003268 0.000000
# 3 0.002811 -0.001439 0.004708 0.000000 0.004116 0.000000
# 4 0.000000 0.000000 0.000000 -0.007706 0.000000 0.055597
# 5 -0.003280 -0.003268 0.004116 0.000000 0.030037 0.000000
# 6 0.000000 0.000000 0.000000 0.055597 0.000000 -0.051396
#
#
# Mechanical properties :
#
#
# Convention : Reuss Voigt Hill
#
# Bulk Modulus (GPa) = 42.94979 64.99902 53.97440
# Shear Modulus (GPa) = 4450.25238 56.55611 2253.40424
#
# Velocity S-wave (km/s) = 43.72271 4.92895 31.11246
# Velocity P-wave (km/s) = 50.66902 7.76621 36.24682
#
# Compressibility (1/GPa) = 0.02328300
#
# Stress axis : x y z
#
# Youngs Moduli (GPa) = 77.78549 188.97411 212.42173
#
# Poissons Ratio (x) = 0.21895 -0.59721
# Poissons Ratio (y) = 0.09012 0.30566
# Poissons Ratio (z) = -0.21869 0.27192
#
# Static dielectric constant tensor:
#      x y z
#    x 1.923930 0.000000 0.001840 
#    y 0.000000 1.962330 0.000000 
#    z 0.001840 0.000000 1.833960 
# 
# From -- ./inp_files/7672.got.cif
#   From: 2010.05.17/outbox.cif.g08.bks.cpg/sg12_4_cif.got.tgz:7672.got - 2010.06.03 13:09:07.
