data_PCOD9221815
_publ_section_title
;
Structure prediction by ZEFSAII (Michael W. Deem and Ramdas Pophale) SiO2 
 PCOD9221815
Probable space group: C 2/M
;
_chemical_formula_sum "Si O2"
_cell_formula_units_Z 36
_cell_length_a 5.019989
_cell_length_b 23.643017
_cell_length_c 12.090455
_cell_angle_alpha 90.000000
_cell_angle_beta 79.617141
_cell_angle_gamma 90.000000
_cell_volume 1411.490807
_symmetry_space_group_name_H-M "C 2/M"
_symmetry_group_IT_number 12
_symmetry_cell_setting 'monoclinic'
loop_
_space_group_symop_operation_xyz
x,y,z
-x,y,-z
-x,-y,-z
x,-y,z
1/2+x,1/2+y,z
1/2-x,1/2+y,-z
1/2-x,1/2-y,-z
1/2+x,1/2-y,z
loop_
_atom_site_type_symbol
_atom_site_label
_atom_site_fract_x
_atom_site_fract_y
_atom_site_fract_z
Si Si1 0.399816 0.890689 0.175530
Si Si2 0.563233 0.320913 0.880510
Si Si3 0.906494 0.216347 0.364949
Si Si4 0.824815 0.500000 0.769307
Si Si5 0.948071 0.909134 0.381541
O O1 0.633743 0.844632 0.148892
O O2 0.236724 0.895364 0.303479
O O3 0.546336 0.950641 0.159568
O O4 0.158009 0.872461 0.110695
O O5 0.524403 0.286804 0.771361
O O6 0.500000 0.290936 0.000000
O O7 0.684192 0.264115 0.397782
O O8 0.814333 0.152853 0.400979
O O9 0.704402 0.450693 0.691369
O O10 0.000000 0.932630 0.500000
#
# Coordination Sequence:
#
# PCOD9221815 Si02
#       5
#     8   8   8   4   8
#     4  11  23  44  69 103 145 178 227 289 346 412
#     4  11  24  46  73 102 139 184 238 288 349 412
#     4  11  24  45  71 101 142 184 229 288 349 412
#     4  12  23  47  74 104 141 191 226 297 344 417
#     4  11  26  46  74 106 143 185 235 288 346 420
#
# _framework density 25.504944999999999
#
# number of rings (size 3 to 8) (size 9 to 14) (size 15 to 20)
#    0.000    0.889    4.444    4.333    0.000    3.556 
#    0.000    3.333    0.000    0.000    0.000    0.000 
#    0.000    0.000    0.000    0.000    0.000    0.000 
#
# Total GULP energy -100214.695388 kJ/mol
# GULP energy per Si atom -5567.483077 kJ/mol
# Density = 2.544689 g / cm^3
# Si number density = 25.504945 Si / 1000 Ang^3
#
#
#
# Elastic Constant Matrix: (Units=GPa)
#
#
# Indices 1 2 3 4 5 6 
#
# 1 129.6139 33.7922 15.4463 0.0000 3.7812 0.0000
# 2 33.7922 149.9134 -14.8624 0.0000 -0.5979 0.0000
# 3 15.4463 -14.8624 113.4027 0.0000 4.6396 0.0000
# 4 0.0000 0.0000 0.0000 5.0226 0.0000 37.2560
# 5 3.7812 -0.5979 4.6396 0.0000 15.7100 0.0000
# 6 0.0000 0.0000 0.0000 37.2560 0.0000 -24.7627
#
#
#
# Elastic Compliance Matrix: (Units=1/GPa)
#
#
# Indices 1 2 3 4 5 6 
#
# 1 0.008460 -0.002048 -0.001351 0.000000 -0.001715 0.000000
# 2 -0.002048 0.007254 0.001213 0.000000 0.000411 0.000000
# 3 -0.001351 0.001213 0.009258 0.000000 -0.002363 0.000000
# 4 0.000000 0.000000 0.000000 0.016373 0.000000 0.024634
# 5 -0.001715 0.000411 -0.002363 0.000000 0.064780 0.000000
# 6 0.000000 0.000000 0.000000 0.024634 0.000000 -0.003321
#
#
# Mechanical properties :
#
#
# Convention : Reuss Voigt Hill
#
# Bulk Modulus (GPa) = 48.54166 51.29804 49.91985
# Shear Modulus (GPa) = 43.84349 23.09757 33.47053
#
# Velocity S-wave (km/s) = 4.15060 3.01260 3.62652
# Velocity P-wave (km/s) = 6.48410 5.67958 6.09513
#
# Compressibility (1/GPa) = 0.02060086
#
# Stress axis : x y z
#
# Youngs Moduli (GPa) = 118.20222 137.85547 108.01819
#
# Poissons Ratio (x) = 0.28229 0.14588
# Poissons Ratio (y) = 0.24205 -0.13101
# Poissons Ratio (z) = 0.15963 -0.16719
#
# Static dielectric constant tensor:
#      x y z
#    x 2.005870 0.000000 -0.004800 
#    y 0.000000 1.993450 0.000000 
#    z -0.004800 0.000000 2.114760 
# 
# From -- ./inp_files/115293.got.cif
#   From: 2010.05.17/outbox.cif.g08.bks.cpg/sg12_58_cif.got.tgz:115293.got - 2010.06.03 13:09:07.
