data_PCOD9221000
_publ_section_title
;
Structure prediction by ZEFSAII (Michael W. Deem and Ramdas Pophale) SiO2 
 PCOD9221000
Probable space group: C 2/M
;
_chemical_formula_sum "Si O2"
_cell_formula_units_Z 56
_cell_length_a 12.708311
_cell_length_b 25.115000
_cell_length_c 9.073053
_cell_angle_alpha 90.000000
_cell_angle_beta 114.900782
_cell_angle_gamma 90.000000
_cell_volume 2626.637105
_symmetry_space_group_name_H-M "C 2/M"
_symmetry_group_IT_number 12
_symmetry_cell_setting 'monoclinic'
loop_
_space_group_symop_operation_xyz
x,y,z
-x,y,-z
-x,-y,-z
x,-y,z
1/2+x,1/2+y,z
1/2-x,1/2+y,-z
1/2-x,1/2-y,-z
1/2+x,1/2-y,z
loop_
_atom_site_type_symbol
_atom_site_label
_atom_site_fract_x
_atom_site_fract_y
_atom_site_fract_z
Si Si1 0.761719 0.101124 0.073727
Si Si2 0.832375 0.644243 0.673764
Si Si3 0.254155 0.300294 0.893493
Si Si4 0.976992 0.439428 0.163850
Si Si5 0.995860 0.059957 0.320015
Si Si6 0.998938 0.271131 0.325905
Si Si7 0.380276 0.334450 0.674439
O O1 0.709980 0.128436 0.189708
O O2 0.862943 0.062685 0.187075
O O3 0.809221 0.150286 0.010127
O O4 0.658650 0.076141 0.914783
O O5 0.899764 0.699494 0.702347
O O6 0.721661 0.652745 0.503811
O O7 0.930961 0.599074 0.700758
O O8 0.318565 0.305068 0.775581
O O9 0.116794 0.302082 0.787792
O O10 0.250000 0.250000 0.000000
O O11 0.994430 0.500000 0.222898
O O12 0.000000 0.437255 0.000000
O O13 0.062275 0.107310 0.274862
O O14 0.000000 0.070568 0.500000
O O15 0.041980 0.000000 0.324020
O O16 0.021203 0.208016 0.317745
O O17 0.000000 0.279884 0.500000
#
# Coordination Sequence:
#
# PCOD9221000 Si02
#       7
#     8   8   8   8   8   8   8
#     4  11  22  41  67 100 137 177 228 283 337 411
#     4  11  22  40  67  99 134 179 229 277 339 408
#     4  12  27  43  66  98 139 177 226 282 350 418
#     4   9  19  36  63  98 134 174 223 280 333 388
#     4  11  24  44  72 104 138 182 235 287 345 416
#     4  12  25  42  68  96 133 178 224 280 347 415
#     4  12  26  44  69 100 138 180 229 282 348 415
#
# _framework density 21.320038
#
# number of rings (size 3 to 8) (size 9 to 14) (size 15 to 20)
#    0.000    0.857    4.286    3.000    2.000    4.571 
#    0.000    2.143    0.000    1.286    0.000    0.000 
#    0.000    0.000    0.000    0.000    0.000    0.000 
#
# Total GULP energy -156058.070488 kJ/mol
# GULP energy per Si atom -5573.502517 kJ/mol
# Density = 2.127151 g / cm^3
# Si number density = 21.320038 Si / 1000 Ang^3
#
#
#
# Elastic Constant Matrix: (Units=GPa)
#
#
# Indices 1 2 3 4 5 6 
#
# 1 62.3450 22.6155 20.2925 0.0000 6.8135 0.0000
# 2 22.6155 141.2370 27.3797 0.0000 1.1284 0.0000
# 3 20.2925 27.3797 59.8956 0.0000 9.3690 0.0000
# 4 0.0000 0.0000 0.0000 24.9151 0.0000 1.5266
# 5 6.8135 1.1284 9.3690 0.0000 21.9693 0.0000
# 6 0.0000 0.0000 0.0000 1.5266 0.0000 23.2947
#
#
#
# Elastic Compliance Matrix: (Units=1/GPa)
#
#
# Indices 1 2 3 4 5 6 
#
# 1 0.018756 -0.002033 -0.004855 0.000000 -0.003642 0.000000
# 2 -0.002033 0.008018 -0.003226 0.000000 0.001594 0.000000
# 3 -0.004855 -0.003226 0.020952 0.000000 -0.007263 0.000000
# 4 0.000000 0.000000 0.000000 0.040298 0.000000 -0.002641
# 5 -0.003642 0.001594 -0.007263 0.000000 0.049663 0.000000
# 6 0.000000 0.000000 0.000000 -0.002641 0.000000 0.043101
#
#
# Mechanical properties :
#
#
# Convention : Reuss Voigt Hill
#
# Bulk Modulus (GPa) = 36.36780 44.89478 40.63129
# Shear Modulus (GPa) = 23.78884 26.91515 25.35200
#
# Velocity S-wave (km/s) = 3.34398 3.55693 3.45210
# Velocity P-wave (km/s) = 5.65727 6.16216 5.91510
#
# Compressibility (1/GPa) = 0.02749685
#
# Stress axis : x y z
#
# Youngs Moduli (GPa) = 53.31747 124.71197 47.72900
#
# Poissons Ratio (x) = 0.25352 0.23174
# Poissons Ratio (y) = 0.10839 0.15398
# Poissons Ratio (z) = 0.25888 0.40233
#
# Static dielectric constant tensor:
#      x y z
#    x 1.824210 0.000000 0.005530 
#    y 0.000000 1.804700 0.000000 
#    z 0.005530 0.000000 1.767090 
# 
# From -- ./inp_files/53279.got.cif
#   From: 2010.05.17/outbox.cif.g08.bks.cpg/sg12_27_cif.got.tgz:53279.got - 2010.06.03 13:09:07.
