data_PCOD9221120
_publ_section_title
;
Structure prediction by ZEFSAII (Michael W. Deem and Ramdas Pophale) SiO2 
 PCOD9221120
Probable space group: C 2/M
;
_chemical_formula_sum "Si O2"
_cell_formula_units_Z 28
_cell_length_a 8.940852
_cell_length_b 14.736801
_cell_length_c 12.456506
_cell_angle_alpha 90.000000
_cell_angle_beta 53.260332
_cell_angle_gamma 90.000000
_cell_volume 1315.245866
_symmetry_space_group_name_H-M "C 2/M"
_symmetry_group_IT_number 12
_symmetry_cell_setting 'monoclinic'
loop_
_space_group_symop_operation_xyz
x,y,z
-x,y,-z
-x,-y,-z
x,-y,z
1/2+x,1/2+y,z
1/2-x,1/2+y,-z
1/2-x,1/2-y,-z
1/2+x,1/2-y,z
loop_
_atom_site_type_symbol
_atom_site_label
_atom_site_fract_x
_atom_site_fract_y
_atom_site_fract_z
Si Si1 0.664121 0.000000 0.015967
Si Si2 0.432500 0.322086 0.651858
Si Si3 0.012085 0.346922 0.768048
Si Si4 0.045927 0.000000 0.721681
Si Si5 0.441145 0.000000 0.644261
O O1 0.631399 0.906902 0.098272
O O2 0.500000 0.000000 0.000000
O O3 0.859337 0.000000 0.872838
O O4 0.500000 0.298486 0.500000
O O5 0.210631 0.339159 0.740388
O O6 0.459830 0.247251 0.733705
O O7 0.538059 0.411731 0.648767
O O8 0.030046 0.413654 0.660610
O O9 0.217178 0.000000 0.731928
O O10 0.500000 0.000000 0.500000
#
# Coordination Sequence:
#
# PCOD9221120 Si02
#       5
#     4   8   8   4   4
#     4  11  23  49  64  92 132 176 224 262 319 389
#     4  12  23  41  66 100 130 171 218 272 334 383
#     4  11  24  41  66  93 134 170 216 274 319 389
#     4  12  24  42  70  93 135 178 215 265 324 386
#     4  11  22  42  66  99 131 169 217 273 328 384
#
# _framework density 21.288795
#
# number of rings (size 3 to 8) (size 9 to 14) (size 15 to 20)
#    0.000    0.571    2.857    6.429    0.000    3.429 
#    0.000    0.000    0.000    0.000    0.000    0.000 
#    0.000    0.000    0.000    0.000    0.000    0.000 
#
# Total GULP energy -78160.273868 kJ/mol
# GULP energy per Si atom -5582.876705 kJ/mol
# Density = 2.124034 g / cm^3
# Si number density = 21.288795 Si / 1000 Ang^3
#
#
#
# Elastic Constant Matrix: (Units=GPa)
#
#
# Indices 1 2 3 4 5 6 
#
# 1 103.3486 61.0548 -12.2064 0.0000 -3.5575 0.0000
# 2 61.0548 145.2231 11.4410 0.0000 21.2601 0.0000
# 3 -12.2064 11.4410 91.5437 0.0000 -4.8024 0.0000
# 4 0.0000 0.0000 0.0000 39.8330 0.0000 15.3943
# 5 -3.5575 21.2601 -4.8024 0.0000 42.7499 0.0000
# 6 0.0000 0.0000 0.0000 15.3943 0.0000 31.2291
#
#
#
# Elastic Compliance Matrix: (Units=1/GPa)
#
#
# Indices 1 2 3 4 5 6 
#
# 1 0.014350 -0.007009 0.003053 0.000000 0.005023 0.000000
# 2 -0.007009 0.010968 -0.002638 0.000000 -0.006334 0.000000
# 3 0.003053 -0.002638 0.011812 0.000000 0.002893 0.000000
# 4 0.000000 0.000000 0.000000 0.031013 0.000000 -0.015288
# 5 0.005023 -0.006334 0.002893 0.000000 0.027285 0.000000
# 6 0.000000 0.000000 0.000000 -0.015288 0.000000 0.039557
#
#
# Mechanical properties :
#
#
# Convention : Reuss Voigt Hill
#
# Bulk Modulus (GPa) = 41.76619 51.18827 46.47723
# Shear Modulus (GPa) = 32.01983 41.41747 36.71865
#
# Velocity S-wave (km/s) = 3.88244 4.41557 4.15756
# Velocity P-wave (km/s) = 6.30549 7.07766 6.70271
#
# Compressibility (1/GPa) = 0.02394281
#
# Stress axis : x y z
#
# Youngs Moduli (GPa) = 69.68616 91.17694 84.65823
#
# Poissons Ratio (x) = 0.63905 -0.25845
# Poissons Ratio (y) = 0.48842 0.22329
# Poissons Ratio (z) = -0.21274 0.24048
#
# Static dielectric constant tensor:
#      x y z
#    x 1.624760 0.000000 0.002860 
#    y 0.000000 1.845470 0.000000 
#    z 0.002860 0.000000 1.797540 
# 
# From -- ./inp_files/36850.got.cif
#   From: 2010.05.17/outbox.cif.g08.bks.cpg/sg12_19_cif.got.tgz:36850.got - 2010.06.03 13:09:07.
