data_PCOD9221343
_publ_section_title
;
Structure prediction by ZEFSAII (Michael W. Deem and Ramdas Pophale) SiO2 
 PCOD9221343
Probable space group: C 2/M
;
_chemical_formula_sum "Si O2"
_cell_formula_units_Z 40
_cell_length_a 10.211352
_cell_length_b 16.066739
_cell_length_c 12.644671
_cell_angle_alpha 90.000000
_cell_angle_beta 95.042500
_cell_angle_gamma 90.000000
_cell_volume 2066.495394
_symmetry_space_group_name_H-M "C 2/M"
_symmetry_group_IT_number 12
_symmetry_cell_setting 'monoclinic'
loop_
_space_group_symop_operation_xyz
x,y,z
-x,y,-z
-x,-y,-z
x,-y,z
1/2+x,1/2+y,z
1/2-x,1/2+y,-z
1/2-x,1/2-y,-z
1/2+x,1/2-y,z
loop_
_atom_site_type_symbol
_atom_site_label
_atom_site_fract_x
_atom_site_fract_y
_atom_site_fract_z
Si Si1 0.287923 0.331792 0.766446
Si Si2 0.615170 0.755044 0.426982
Si Si3 0.622420 0.174634 0.087125
Si Si4 0.496522 0.900982 0.714477
Si Si5 0.143721 0.093362 0.027269
O O1 0.371134 0.309676 0.668884
O O2 0.314846 0.252329 0.844831
O O3 0.137741 0.353479 0.726974
O O4 0.332693 0.405491 0.845779
O O5 0.500000 0.735010 0.500000
O O6 0.750000 0.750000 0.500000
O O7 0.588083 0.846660 0.375093
O O8 0.568383 0.113145 0.174683
O O9 0.500000 0.191214 0.000000
O O10 0.739048 0.138270 0.024663
O O11 0.507827 0.000000 0.693022
O O12 0.140901 0.000000 0.985183
O O13 0.000000 0.130672 0.000000
#
# Coordination Sequence:
#
# PCOD9221343 Si02
#       5
#     8   8   8   8   8
#     4  11  23  38  65  93 127 164 218 263 311 377
#     4  11  24  45  66  95 122 165 212 272 326 384
#     4  11  23  38  64  95 134 176 217 251 307 385
#     4  11  24  41  68 100 127 165 216 269 315 378
#     4  11  24  38  58  92 138 175 208 260 319 372
#
# _framework density 19.356442000000001
#
# number of rings (size 3 to 8) (size 9 to 14) (size 15 to 20)
#    0.000    1.000    4.000    2.400    5.600    1.200 
#    0.000    0.000    0.000    4.200    0.000    0.000 
#    0.000    0.000    0.000    0.000    0.000    0.000 
#
# Total GULP energy -111590.500305 kJ/mol
# GULP energy per Si atom -5579.525015 kJ/mol
# Density = 1.931239 g / cm^3
# Si number density = 19.356442 Si / 1000 Ang^3
#
#
#
# Elastic Constant Matrix: (Units=GPa)
#
#
# Indices 1 2 3 4 5 6 
#
# 1 170.5543 66.3859 77.7149 0.0000 -5.0141 0.0000
# 2 66.3859 105.8565 43.1310 0.0000 -4.8824 0.0000
# 3 77.7149 43.1310 131.5302 0.0000 -17.4567 0.0000
# 4 0.0000 0.0000 0.0000 20.4953 0.0000 9.7894
# 5 -5.0141 -4.8824 -17.4567 0.0000 53.7604 0.0000
# 6 0.0000 0.0000 0.0000 9.7894 0.0000 16.4788
#
#
#
# Elastic Compliance Matrix: (Units=1/GPa)
#
#
# Indices 1 2 3 4 5 6 
#
# 1 0.009441 -0.004202 -0.004320 0.000000 -0.000904 0.000000
# 2 -0.004202 0.012776 -0.001677 0.000000 0.000224 0.000000
# 3 -0.004320 -0.001677 0.011110 0.000000 0.003052 0.000000
# 4 0.000000 0.000000 0.000000 0.068120 0.000000 -0.040467
# 5 -0.000904 0.000224 0.003052 0.000000 0.019528 0.000000
# 6 0.000000 0.000000 0.000000 -0.040467 0.000000 0.084724
#
#
# Mechanical properties :
#
#
# Convention : Reuss Voigt Hill
#
# Bulk Modulus (GPa) = 77.34762 86.93383 82.14072
# Shear Modulus (GPa) = 21.70075 32.86087 27.28081
#
# Velocity S-wave (km/s) = 3.35193 4.12475 3.75826
# Velocity P-wave (km/s) = 7.41802 8.22766 7.83330
#
# Compressibility (1/GPa) = 0.01292865
#
# Stress axis : x y z
#
# Youngs Moduli (GPa) = 105.92352 78.27458 90.00609
#
# Poissons Ratio (x) = 0.32891 0.38884
# Poissons Ratio (y) = 0.44510 0.15092
# Poissons Ratio (z) = 0.45760 0.13125
#
# Static dielectric constant tensor:
#      x y z
#    x 1.671190 0.000000 0.036130 
#    y 0.000000 1.713800 0.000000 
#    z 0.036130 0.000000 1.686430 
# 
# From -- ./inp_files/119041.got.cif
#   From: 2010.05.17/outbox.cif.g08.bks.cpg/sg12_60_cif.got.tgz:119041.got - 2010.06.03 13:09:07.
