data_PCOD9221871
_publ_section_title
;
Structure prediction by ZEFSAII (Michael W. Deem and Ramdas Pophale) SiO2 
 PCOD9221871
Probable space group: C 2/M
;
_chemical_formula_sum "Si O2"
_cell_formula_units_Z 36
_cell_length_a 13.188153
_cell_length_b 14.192773
_cell_length_c 13.154381
_cell_angle_alpha 90.000000
_cell_angle_beta 35.599051
_cell_angle_gamma 90.000000
_cell_volume 1433.264483
_symmetry_space_group_name_H-M "C 2/M"
_symmetry_group_IT_number 12
_symmetry_cell_setting 'monoclinic'
loop_
_space_group_symop_operation_xyz
x,y,z
-x,y,-z
-x,-y,-z
x,-y,z
1/2+x,1/2+y,z
1/2-x,1/2+y,-z
1/2-x,1/2-y,-z
1/2+x,1/2-y,z
loop_
_atom_site_type_symbol
_atom_site_label
_atom_site_fract_x
_atom_site_fract_y
_atom_site_fract_z
Si Si1 0.339414 0.500000 0.903163
Si Si2 0.617346 0.161294 0.181313
Si Si3 0.635868 0.652002 0.297887
Si Si4 0.423557 0.247037 0.161439
Si Si5 0.657783 0.100587 0.453725
O O1 0.382342 0.581227 0.780179
O O2 0.264411 0.583847 0.042033
O O3 0.625226 0.242007 0.260906
O O4 0.574804 0.214146 0.111649
O O5 0.438754 0.108817 0.360395
O O6 0.500000 0.637848 0.500000
O O7 0.823248 0.655320 0.200214
O O8 0.289246 0.314581 0.328314
O O9 0.500000 0.297441 0.000000
O O10 0.500000 0.099107 0.500000
O O11 0.755290 0.000000 0.366553
#
# Coordination Sequence:
#
# PCOD9221871 Si02
#       5
#     4   8   8   8   8
#     4  12  27  45  73 111 137 192 241 293 350 433
#     4  12  24  46  74 101 144 188 235 292 362 419
#     4  12  26  50  72 104 146 189 237 296 357 423
#     4  12  25  43  73 101 141 185 238 294 353 420
#     4  11  23  45  73 101 138 192 237 293 357 425
#
# _framework density 25.117487000000001
#
# number of rings (size 3 to 8) (size 9 to 14) (size 15 to 20)
#    0.000    0.222    7.778    1.667    0.000    2.222 
#    2.000    0.000    0.000    0.000    0.000    0.000 
#    0.000    0.000    0.000    0.000    0.000    0.000 
#
# Total GULP energy -100234.925169 kJ/mol
# GULP energy per Si atom -5568.606954 kJ/mol
# Density = 2.506032 g / cm^3
# Si number density = 25.117487 Si / 1000 Ang^3
#
#
#
# Elastic Constant Matrix: (Units=GPa)
#
#
# Indices 1 2 3 4 5 6 
#
# 1 61.1582 -3.0634 -13.1257 0.0010 10.8539 -0.0002
# 2 -3.0634 139.5569 22.9620 0.0012 15.5497 -0.0003
# 3 -13.1257 22.9620 164.9394 0.0019 20.6605 -0.0010
# 4 0.0010 0.0012 0.0019 47.2019 -0.0011 6.6434
# 5 10.8539 15.5497 20.6605 -0.0011 33.2612 0.0004
# 6 -0.0002 -0.0003 -0.0010 6.6434 0.0004 9.4967
#
#
#
# Elastic Compliance Matrix: (Units=1/GPa)
#
#
# Indices 1 2 3 4 5 6 
#
# 1 0.018279 0.000892 0.002309 -0.000001 -0.007816 0.000002
# 2 0.000892 0.007670 -0.000554 0.000000 -0.003533 0.000001
# 3 0.002309 -0.000554 0.006924 -0.000001 -0.004796 0.000001
# 4 -0.000001 0.000000 -0.000001 0.023499 0.000002 -0.016439
# 5 -0.007816 -0.003533 -0.004796 0.000002 0.037246 -0.000004
# 6 0.000002 0.000001 0.000001 -0.016439 -0.000004 0.116799
#
#
# Mechanical properties :
#
#
# Convention : Reuss Voigt Hill
#
# Bulk Modulus (GPa) = 26.20015 42.13337 34.16676
# Shear Modulus (GPa) = 22.95206 41.91739 32.43473
#
# Velocity S-wave (km/s) = 3.02617 4.08959 3.59739
# Velocity P-wave (km/s) = 4.76067 6.25385 5.55763
#
# Compressibility (1/GPa) = 0.03816771
#
# Stress axis : x y z
#
# Youngs Moduli (GPa) = 54.70884 130.37944 144.41476
#
# Poissons Ratio (x) = -0.11632 -0.33352
# Poissons Ratio (y) = -0.04881 0.08005
# Poissons Ratio (z) = -0.12635 0.07227
#
# Static dielectric constant tensor:
#      x y z
#    x 2.073670 0.000000 -0.050060 
#    y 0.000000 1.918190 0.000000 
#    z -0.050060 0.000000 2.034830 
# 
# From -- ./inp_files/72789.got.cif
#   From: 2010.05.17/outbox.cif.g08.bks.cpg/sg12_37_cif.got.tgz:72789.got - 2010.06.03 13:09:07.
