data_PCOD9221956
_publ_section_title
;
Structure prediction by ZEFSAII (Michael W. Deem and Ramdas Pophale) SiO2 
 PCOD9221956
Probable space group: C 2/M
;
_chemical_formula_sum "Si O2"
_cell_formula_units_Z 34
_cell_length_a 10.444014
_cell_length_b 7.888175
_cell_length_c 17.637192
_cell_angle_alpha 90.000000
_cell_angle_beta 96.732121
_cell_angle_gamma 90.000000
_cell_volume 1443.007641
_symmetry_space_group_name_H-M "C 2/M"
_symmetry_group_IT_number 12
_symmetry_cell_setting 'monoclinic'
loop_
_space_group_symop_operation_xyz
x,y,z
-x,y,-z
-x,-y,-z
x,-y,z
1/2+x,1/2+y,z
1/2-x,1/2+y,-z
1/2-x,1/2-y,-z
1/2+x,1/2-y,z
loop_
_atom_site_type_symbol
_atom_site_label
_atom_site_fract_x
_atom_site_fract_y
_atom_site_fract_z
Si Si1 0.732795 0.797214 0.586336
Si Si2 0.925289 0.690289 0.157169
Si Si3 0.000000 0.500000 0.000000
Si Si4 0.645315 0.311402 0.072722
Si Si5 0.503467 0.699173 0.675625
O O1 0.750000 0.750000 0.500000
O O2 0.604887 0.720841 0.614560
O O3 0.861602 0.742769 0.640305
O O4 0.723737 0.000000 0.591650
O O5 0.959367 0.500000 0.127654
O O6 0.778091 0.721889 0.126307
O O7 0.945156 0.700194 0.248162
O O8 0.030396 0.807890 0.126330
O O9 0.889262 0.654928 0.983281
O O10 0.646344 0.500000 0.038816
O O11 0.496862 0.500000 0.694910
#
# Coordination Sequence:
#
# PCOD9221956 Si02
#       5
#     8   8   2   8   8
#     4  11  24  41  61  94 132 171 220 272 329 395
#     4  11  24  45  69 100 134 174 227 275 332 395
#     4  12  26  48  72 100 136 184 214 266 360 398
#     4  11  26  46  69 102 136 174 223 282 325 407
#     4  11  24  40  65  95 129 174 219 274 329 389
#
# _framework density 23.561900000000001
#
# number of rings (size 3 to 8) (size 9 to 14) (size 15 to 20)
#    0.000    0.941    1.176    4.588    3.294   13.176 
#    0.000    0.000    0.000    0.000    0.000    0.000 
#    0.000    0.000    0.000    0.000    0.000    0.000 
#
# Total GULP energy -95069.566562 kJ/mol
# GULP energy per Si atom -5592.327445 kJ/mol
# Density = 2.350827 g / cm^3
# Si number density = 23.561900 Si / 1000 Ang^3
#
#
#
# Elastic Constant Matrix: (Units=GPa)
#
#
# Indices 1 2 3 4 5 6 
#
# 1 111.2010 26.9416 -5.4987 0.0000 15.3393 0.0000
# 2 26.9416 133.4899 25.0132 0.0000 12.0124 0.0000
# 3 -5.4987 25.0132 63.0318 0.0000 9.3277 0.0000
# 4 0.0000 0.0000 0.0000 37.4071 0.0000 -4.9599
# 5 15.3393 12.0124 9.3277 0.0000 50.3128 0.0000
# 6 0.0000 0.0000 0.0000 -4.9599 0.0000 37.0344
#
#
#
# Elastic Compliance Matrix: (Units=1/GPa)
#
#
# Indices 1 2 3 4 5 6 
#
# 1 0.010031 -0.002166 0.002170 0.000000 -0.002943 0.000000
# 2 -0.002166 0.008654 -0.003512 0.000000 -0.000755 0.000000
# 3 0.002170 -0.003512 0.017913 0.000000 -0.003144 0.000000
# 4 0.000000 0.000000 0.000000 0.027216 0.000000 0.003645
# 5 -0.002943 -0.000755 -0.003144 0.000000 0.021536 0.000000
# 6 0.000000 0.000000 0.000000 0.003645 0.000000 0.027490
#
#
# Mechanical properties :
#
#
# Convention : Reuss Voigt Hill
#
# Bulk Modulus (GPa) = 33.80301 44.51500 39.15901
# Shear Modulus (GPa) = 38.54542 42.36864 40.45703
#
# Velocity S-wave (km/s) = 4.04904 4.24510 4.14823
# Velocity P-wave (km/s) = 6.01974 6.55451 6.29281
#
# Compressibility (1/GPa) = 0.02958317
#
# Stress axis : x y z
#
# Youngs Moduli (GPa) = 99.69195 115.54897 55.82486
#
# Poissons Ratio (x) = 0.25031 -0.12116
# Poissons Ratio (y) = 0.21596 0.19604
# Poissons Ratio (z) = -0.21636 0.40576
#
# Static dielectric constant tensor:
#      x y z
#    x 1.871770 0.000000 0.002100 
#    y 0.000000 1.885130 0.000000 
#    z 0.002100 0.000000 1.730530 
# 
# From -- ./inp_files/298750.got.cif
#   From: 2010.05.17/outbox.cif.g08.bks.cpg/sg12_150_cif.got.tgz:298750.got - 2010.06.03 13:09:07.
