data_PCOD9221008
_publ_section_title
;
Structure prediction by ZEFSAII (Michael W. Deem and Ramdas Pophale) SiO2 
 PCOD9221008
Probable space group: C 2/M
;
_chemical_formula_sum "Si O2"
_cell_formula_units_Z 50
_cell_length_a 8.829940
_cell_length_b 12.585308
_cell_length_c 24.766792
_cell_angle_alpha 90.000000
_cell_angle_beta 119.766098
_cell_angle_gamma 90.000000
_cell_volume 2389.135508
_symmetry_space_group_name_H-M "C 2/M"
_symmetry_group_IT_number 12
_symmetry_cell_setting 'monoclinic'
loop_
_space_group_symop_operation_xyz
x,y,z
-x,y,-z
-x,-y,-z
x,-y,z
1/2+x,1/2+y,z
1/2-x,1/2+y,-z
1/2-x,1/2-y,-z
1/2+x,1/2-y,z
loop_
_atom_site_type_symbol
_atom_site_label
_atom_site_fract_x
_atom_site_fract_y
_atom_site_fract_z
Si Si1 0.500000 0.000000 0.500000
Si Si2 0.811063 0.812908 0.957498
Si Si3 0.317231 0.377815 0.372735
Si Si4 0.677879 0.306007 0.840959
Si Si5 0.605419 0.877499 0.223572
Si Si6 0.794151 0.000000 0.089928
Si Si7 0.600762 0.807024 0.437992
Si Si8 0.396696 0.000000 0.059058
O O1 0.521418 0.905008 0.457469
O O2 0.824970 0.741408 0.907039
O O3 0.661647 0.896824 0.920174
O O4 0.750000 0.750000 0.000000
O O5 0.000000 0.861597 0.000000
O O6 0.385786 0.500000 0.390180
O O7 0.213298 0.370590 0.298273
O O8 0.464074 0.286821 0.400662
O O9 0.188339 0.352847 0.399429
O O10 0.539480 0.215286 0.802290
O O11 0.763058 0.354632 0.802838
O O12 0.606815 0.398381 0.868446
O O13 0.541466 0.000000 0.208430
O O14 0.598001 0.000000 0.080549
O O15 0.733461 0.000000 0.016841
O O16 0.750000 0.750000 0.500000
#
# Coordination Sequence:
#
# PCOD9221008 Si02
#       8
#     2   8   8   8   8   4   8   4
#     4  12  24  40  64 108 152 178 214 276 338 382
#     4  12  24  39  62  95 127 167 217 277 348 417
#     4  11  25  44  71  98 139 183 232 277 329 392
#     4  12  24  44  69  92 133 171 226 277 343 406
#     4  11  26  49  69  97 131 182 229 281 330 392
#     4  11  22  40  68  92 128 171 207 280 345 408
#     4  12  24  42  69 107 143 181 223 278 332 394
#     4  11  23  40  60  96 130 164 211 270 351 420
#
# _framework density 20.928072
#
# number of rings (size 3 to 8) (size 9 to 14) (size 15 to 20)
#    0.000    0.480    4.800    4.080    2.240    0.640 
#    1.440    0.800    0.000    0.000    0.000    0.000 
#    0.000    0.000    0.000    0.000    0.000    0.000 
#
# Total GULP energy -139431.180277 kJ/mol
# GULP energy per Si atom -5577.247211 kJ/mol
# Density = 2.088044 g / cm^3
# Si number density = 20.928072 Si / 1000 Ang^3
#
#
#
# Elastic Constant Matrix: (Units=GPa)
#
#
# Indices 1 2 3 4 5 6 
#
# 1 44.5785 24.2627 29.0924 0.0000 -3.5233 0.0000
# 2 24.2627 172.8085 57.1302 0.0000 15.5446 0.0000
# 3 29.0924 57.1302 125.1825 0.0000 -17.3808 0.0000
# 4 0.0000 0.0000 0.0000 41.7340 0.0000 -0.6536
# 5 -3.5233 15.5446 -17.3808 0.0000 38.7727 0.0000
# 6 0.0000 0.0000 0.0000 -0.6536 0.0000 35.0165
#
#
#
# Elastic Compliance Matrix: (Units=1/GPa)
#
#
# Indices 1 2 3 4 5 6 
#
# 1 0.027065 -0.002191 -0.005147 0.000000 0.001031 0.000000
# 2 -0.002191 0.007778 -0.003733 0.000000 -0.004991 0.000000
# 3 -0.005147 -0.003733 0.011763 0.000000 0.006302 0.000000
# 4 0.000000 0.000000 0.000000 0.023968 0.000000 0.000447
# 5 0.001031 -0.004991 0.006302 0.000000 0.030711 0.000000
# 6 0.000000 0.000000 0.000000 0.000447 0.000000 0.028566
#
#
# Mechanical properties :
#
#
# Convention : Reuss Voigt Hill
#
# Bulk Modulus (GPa) = 40.87710 62.61559 51.74635
# Shear Modulus (GPa) = 31.22101 38.57692 34.89896
#
# Velocity S-wave (km/s) = 3.86660 4.29804 4.08802
# Velocity P-wave (km/s) = 6.28560 7.39021 6.86017
#
# Compressibility (1/GPa) = 0.02446357
#
# Stress axis : x y z
#
# Youngs Moduli (GPa) = 36.94765 128.57576 85.01086
#
# Poissons Ratio (x) = 0.28174 0.43754
# Poissons Ratio (y) = 0.08096 0.31736
# Poissons Ratio (z) = 0.19016 0.47999
#
# Static dielectric constant tensor:
#      x y z
#    x 1.730590 0.000000 -0.010710 
#    y 0.000000 1.843270 0.000000 
#    z -0.010710 0.000000 1.783230 
# 
# From -- ./inp_files/355929.got.cif
#   From: 2010.05.17/outbox.cif.g08.bks.cpg/sg12_178_cif.got.tgz:355929.got - 2010.06.03 13:09:07.
