data_PCOD9221020
_publ_section_title
;
Structure prediction by ZEFSAII (Michael W. Deem and Ramdas Pophale) SiO2 
 PCOD9221020
Probable space group: C 2/M
;
_chemical_formula_sum "Si O2"
_cell_formula_units_Z 42
_cell_length_a 7.906772
_cell_length_b 13.643186
_cell_length_c 17.983037
_cell_angle_alpha 90.000000
_cell_angle_beta 110.668187
_cell_angle_gamma 90.000000
_cell_volume 1815.042939
_symmetry_space_group_name_H-M "C 2/M"
_symmetry_group_IT_number 12
_symmetry_cell_setting 'monoclinic'
loop_
_space_group_symop_operation_xyz
x,y,z
-x,y,-z
-x,-y,-z
x,-y,z
1/2+x,1/2+y,z
1/2-x,1/2+y,-z
1/2-x,1/2-y,-z
1/2+x,1/2-y,z
loop_
_atom_site_type_symbol
_atom_site_label
_atom_site_fract_x
_atom_site_fract_y
_atom_site_fract_z
Si Si1 0.715142 0.000000 0.918841
Si Si2 0.105020 0.000000 0.901965
Si Si3 0.028109 0.611243 0.397640
Si Si4 0.117856 0.852223 0.771128
Si Si5 0.500000 0.500000 0.500000
Si Si6 0.517616 0.863848 0.778777
Si Si7 0.850525 0.839332 0.596003
O O1 0.605936 0.087153 0.863969
O O2 0.913794 0.000000 0.913619
O O3 0.741932 0.000000 0.011006
O O4 0.113218 0.911278 0.846019
O O5 0.114540 0.500000 0.423979
O O6 0.954267 0.602165 0.301575
O O7 0.857103 0.629823 0.424320
O O8 0.131215 0.719137 0.413111
O O9 0.302935 0.870582 0.756318
O O10 0.104491 0.741219 0.791672
O O11 0.953530 0.865291 0.688728
O O12 0.440870 0.411094 0.550321
#
# Coordination Sequence:
#
# PCOD9221020 Si02
#       7
#     4   4   8   8   2   8   8
#     4  11  23  40  59  92 134 172 218 277 325 397
#     4  11  24  39  61  90 133 179 217 268 340 386
#     4  11  22  44  71 101 132 179 226 289 334 414
#     4  11  23  41  67  96 123 173 221 274 331 409
#     4  12  26  46  70 100 142 186 214 294 346 418
#     4  11  22  40  69  97 128 166 226 277 331 391
#     4  11  24  45  71 100 138 177 232 281 354 405
#
# _framework density 23.139949000000001
#
# number of rings (size 3 to 8) (size 9 to 14) (size 15 to 20)
#    0.000    0.952    1.905    8.000    0.000    3.048 
#    5.143    0.476    0.000    0.000    0.000    0.000 
#    0.000    0.000    0.000    0.000    0.000    0.000 
#
# Total GULP energy -117101.243555 kJ/mol
# GULP energy per Si atom -5576.249693 kJ/mol
# Density = 2.308728 g / cm^3
# Si number density = 23.139949 Si / 1000 Ang^3
#
#
#
# Elastic Constant Matrix: (Units=GPa)
#
#
# Indices 1 2 3 4 5 6 
#
# 1 64.9234 8.9970 34.0170 0.0000 -2.2521 0.0000
# 2 8.9970 193.1827 81.3214 0.0000 -9.1354 0.0000
# 3 34.0170 81.3214 166.3000 0.0000 2.7615 0.0000
# 4 0.0000 0.0000 0.0000 -1.9739 0.0000 5.2530
# 5 -2.2521 -9.1354 2.7615 0.0000 43.2883 0.0000
# 6 0.0000 0.0000 0.0000 5.2530 0.0000 -144.5689
#
#
#
# Elastic Compliance Matrix: (Units=1/GPa)
#
#
# Indices 1 2 3 4 5 6 
#
# 1 0.017445 0.000962 -0.004062 0.000000 0.001370 0.000000
# 2 0.000962 0.006681 -0.003492 0.000000 0.001683 0.000000
# 3 -0.004062 -0.003492 0.008576 0.000000 -0.001495 0.000000
# 4 0.000000 0.000000 0.000000 -0.560831 0.000000 -0.020378
# 5 0.001370 0.001683 -0.001495 0.000000 0.023623 0.000000
# 6 0.000000 0.000000 0.000000 -0.020378 0.000000 -0.007658
#
#
# Mechanical properties :
#
#
# Convention : Reuss Voigt Hill
#
# Bulk Modulus (GPa) = 51.23001 74.78634 63.00818
# Shear Modulus (GPa) = -10.15281 -0.64621 -5.39951
#
# Velocity S-wave (km/s) = -2.09693 -0.52902 -1.52921
# Velocity P-wave (km/s) = 4.04036 5.65828 4.91633
#
# Compressibility (1/GPa) = 0.01951981
#
# Stress axis : x y z
#
# Youngs Moduli (GPa) = 57.32281 149.67539 116.59908
#
# Poissons Ratio (x) = -0.14400 0.47358
# Poissons Ratio (y) = -0.05515 0.40714
# Poissons Ratio (z) = 0.23282 0.52264
#
# Static dielectric constant tensor:
#      x y z
#    x 1.919690 0.000000 0.025820 
#    y 0.000000 1.872290 0.000000 
#    z 0.025820 0.000000 1.830970 
# 
# From -- ./inp_files/255531.got.cif
#   From: 2010.05.17/outbox.cif.g08.bks.cpg/sg12_128_cif.got.tgz:255531.got - 2010.06.03 13:09:07.
