data_PCOD9221034
_publ_section_title
;
Structure prediction by ZEFSAII (Michael W. Deem and Ramdas Pophale) SiO2 
 PCOD9221034
Probable space group: C 2/M
;
_chemical_formula_sum "Si O2"
_cell_formula_units_Z 44
_cell_length_a 7.659338
_cell_length_b 22.799682
_cell_length_c 12.248957
_cell_angle_alpha 90.000000
_cell_angle_beta 76.063157
_cell_angle_gamma 90.000000
_cell_volume 2076.071621
_symmetry_space_group_name_H-M "C 2/M"
_symmetry_group_IT_number 12
_symmetry_cell_setting 'monoclinic'
loop_
_space_group_symop_operation_xyz
x,y,z
-x,y,-z
-x,-y,-z
x,-y,z
1/2+x,1/2+y,z
1/2-x,1/2+y,-z
1/2-x,1/2-y,-z
1/2+x,1/2-y,z
loop_
_atom_site_type_symbol
_atom_site_label
_atom_site_fract_x
_atom_site_fract_y
_atom_site_fract_z
Si Si1 0.000000 0.791278 0.000000
Si Si2 0.484455 0.822855 0.722403
Si Si3 0.912921 0.399599 0.909329
Si Si4 0.500000 0.100396 0.500000
Si Si5 0.664197 0.000000 0.775432
Si Si6 0.790257 0.788868 0.829100
Si Si7 0.327759 0.500000 0.956853
Si Si8 0.220375 0.000000 0.488408
O O1 0.100240 0.820818 0.089171
O O2 0.854453 0.750635 0.083707
O O3 0.348948 0.856878 0.825005
O O4 0.494902 0.856841 0.606845
O O5 0.674669 0.825324 0.759127
O O6 0.418370 0.755470 0.740039
O O7 0.048818 0.443904 0.828155
O O8 0.777827 0.443157 0.987306
O O9 0.000000 0.367096 0.000000
O O10 0.322034 0.057439 0.525759
O O11 0.702771 0.000000 0.644811
O O12 0.839803 0.000000 0.825228
O O13 0.500000 0.500000 0.000000
O O14 0.000000 0.000000 0.500000
#
# Coordination Sequence:
#
# PCOD9221034 Si02
#       8
#     4   8   8   4   4   8   4   4
#     4   8  16  36  56  90 120 166 198 274 324 364
#     4  11  22  41  61  93 124 183 213 267 320 385
#     4   9  19  34  62  85 124 169 195 246 340 386
#     4  11  26  46  72  92 132 176 220 259 348 376
#     4   9  17  40  60  88 128 159 200 265 321 389
#     4   9  20  35  60  88 134 162 217 269 313 378
#     4   9  19  35  57 100 129 152 198 267 321 411
#     4  11  24  47  71 101 124 166 219 290 307 401
#
# _framework density 21.193873
#
# number of rings (size 3 to 8) (size 9 to 14) (size 15 to 20)
#    0.000    2.364    1.818    1.091    7.636    2.182 
#    8.182    1.818    0.000    0.000    0.000    0.000 
#    0.000    0.000    0.000    0.000    0.000    0.000 
#
# Total GULP energy -122500.591793 kJ/mol
# GULP energy per Si atom -5568.208718 kJ/mol
# Density = 2.114564 g / cm^3
# Si number density = 21.193873 Si / 1000 Ang^3
#
#
#
# Elastic Constant Matrix: (Units=GPa)
#
#
# Indices 1 2 3 4 5 6 
#
# 1 109.1161 35.0297 36.6813 0.0000 26.6048 0.0000
# 2 35.0297 102.5692 47.0126 0.0000 15.8324 0.0000
# 3 36.6813 47.0126 132.5640 0.0000 40.3181 0.0000
# 4 0.0000 0.0000 0.0000 27.9930 0.0000 7.3765
# 5 26.6048 15.8324 40.3181 0.0000 36.0098 0.0000
# 6 0.0000 0.0000 0.0000 7.3765 0.0000 29.4772
#
#
#
# Elastic Compliance Matrix: (Units=1/GPa)
#
#
# Indices 1 2 3 4 5 6 
#
# 1 0.011938 -0.002925 0.000039 0.000000 -0.007577 0.000000
# 2 -0.002925 0.012372 -0.003914 0.000000 0.001104 0.000000
# 3 0.000039 -0.003914 0.012747 0.000000 -0.012580 0.000000
# 4 0.000000 0.000000 0.000000 0.038245 0.000000 -0.009571
# 5 -0.007577 0.001104 -0.012580 0.000000 0.046968 0.000000
# 6 0.000000 0.000000 0.000000 -0.009571 0.000000 0.036320
#
#
# Mechanical properties :
#
#
# Convention : Reuss Voigt Hill
#
# Bulk Modulus (GPa) = 42.63306 64.63294 53.63300
# Shear Modulus (GPa) = 27.77634 33.73107 30.75371
#
# Velocity S-wave (km/s) = 3.62413 3.99375 3.81342
# Velocity P-wave (km/s) = 6.13774 7.19923 6.68957
#
# Compressibility (1/GPa) = 0.02345598
#
# Stress axis : x y z
#
# Youngs Moduli (GPa) = 83.76504 80.82695 78.45076
#
# Poissons Ratio (x) = 0.23644 -0.00303
# Poissons Ratio (y) = 0.24503 0.30705
# Poissons Ratio (z) = -0.00323 0.31635
#
# Static dielectric constant tensor:
#      x y z
#    x 2.117180 0.000000 0.040590 
#    y 0.000000 1.786540 0.000000 
#    z 0.040590 0.000000 1.742030 
# 
# From -- ./inp_files/121811.got.cif
#   From: 2010.05.17/outbox.cif.g08.bks.cpg/sg12_61_cif.got.tgz:121811.got - 2010.06.03 13:09:07.
