data_PCOD9221832
_publ_section_title
;
Structure prediction by ZEFSAII (Michael W. Deem and Ramdas Pophale) SiO2 
 PCOD9221832
Probable space group: C 2/M
;
_chemical_formula_sum "Si O2"
_cell_formula_units_Z 44
_cell_length_a 14.732106
_cell_length_b 13.954260
_cell_length_c 13.463727
_cell_angle_alpha 90.000000
_cell_angle_beta 59.057322
_cell_angle_gamma 90.000000
_cell_volume 2373.904873
_symmetry_space_group_name_H-M "C 2/M"
_symmetry_group_IT_number 12
_symmetry_cell_setting 'monoclinic'
loop_
_space_group_symop_operation_xyz
x,y,z
-x,y,-z
-x,-y,-z
x,-y,z
1/2+x,1/2+y,z
1/2-x,1/2+y,-z
1/2-x,1/2-y,-z
1/2+x,1/2-y,z
loop_
_atom_site_type_symbol
_atom_site_label
_atom_site_fract_x
_atom_site_fract_y
_atom_site_fract_z
Si Si1 0.809031 0.000000 0.388936
Si Si2 0.597566 0.000000 0.370467
Si Si3 0.629076 0.500000 0.420477
Si Si4 0.104573 0.385247 0.001696
Si Si5 0.554164 0.820876 0.250638
Si Si6 0.670690 0.722539 0.635399
Si Si7 0.714744 0.321071 0.249421
O O1 0.702694 0.000000 0.380681
O O2 0.810224 0.000000 0.508178
O O3 0.856245 0.108182 0.344738
O O4 0.500000 0.000000 0.500000
O O5 0.583586 0.091848 0.307114
O O6 0.500000 0.500000 0.500000
O O7 0.670118 0.408804 0.337593
O O8 0.106254 0.500000 0.007506
O O9 0.204345 0.352229 0.881666
O O10 0.093937 0.345139 0.118060
O O11 0.000000 0.356280 0.000000
O O12 0.431336 0.790973 0.318680
O O13 0.616551 0.730328 0.255351
O O14 0.750000 0.750000 0.500000
O O15 0.727251 0.750743 0.706070
#
# Coordination Sequence:
#
# PCOD9221832 Si02
#       7
#     4   4   4   8   8   8   8
#     4  12  24  46  66 100 143 177 231 275 340 432
#     4  12  26  39  68 104 141 179 225 283 348 418
#     4  12  26  43  70 103 141 184 234 280 341 428
#     4  11  23  44  71  98 130 179 239 292 346 408
#     4  12  26  44  69  99 142 184 232 286 354 417
#     4  12  25  42  70 101 139 181 227 283 352 414
#     4  12  25  43  70  98 137 187 230 287 350 414
#
# _framework density 18.534862
#
# number of rings (size 3 to 8) (size 9 to 14) (size 15 to 20)
#    0.000    0.182    7.273    2.727    0.000    0.000 
#    0.000    0.000    0.000    1.091    0.000    0.000 
#    0.000    0.000    0.000    0.000    0.000    0.000 
#
# Total GULP energy -122850.935337 kJ/mol
# GULP energy per Si atom -5584.133424 kJ/mol
# Density = 1.849268 g / cm^3
# Si number density = 18.534862 Si / 1000 Ang^3
#
#
#
# Elastic Constant Matrix: (Units=GPa)
#
#
# Indices 1 2 3 4 5 6 
#
# 1 55.8852 -9.2620 41.8899 0.0000 14.2868 0.0000
# 2 -9.2620 85.2105 37.9636 0.0000 12.1110 0.0000
# 3 41.8899 37.9636 143.1821 0.0000 15.6617 0.0000
# 4 0.0000 0.0000 0.0000 34.9037 0.0000 6.2813
# 5 14.2868 12.1110 15.6617 0.0000 38.9700 0.0000
# 6 0.0000 0.0000 0.0000 6.2813 0.0000 37.0237
#
#
#
# Elastic Compliance Matrix: (Units=1/GPa)
#
#
# Indices 1 2 3 4 5 6 
#
# 1 0.029202 0.008923 -0.009869 0.000000 -0.009513 0.000000
# 2 0.008923 0.016342 -0.006307 0.000000 -0.005815 0.000000
# 3 -0.009869 -0.006307 0.011436 0.000000 0.000982 0.000000
# 4 0.000000 0.000000 0.000000 0.029553 0.000000 -0.005014
# 5 -0.009513 -0.005815 0.000982 0.000000 0.030561 0.000000
# 6 0.000000 0.000000 0.000000 -0.005014 0.000000 0.027860
#
#
# Mechanical properties :
#
#
# Convention : Reuss Voigt Hill
#
# Bulk Modulus (GPa) = 23.54399 47.27343 35.40871
# Shear Modulus (GPa) = 28.79883 36.42522 32.61203
#
# Velocity S-wave (km/s) = 3.94606 4.43790 4.19919
# Velocity P-wave (km/s) = 5.78722 7.19864 6.53117
#
# Compressibility (1/GPa) = 0.04247369
#
# Stress axis : x y z
#
# Youngs Moduli (GPa) = 34.24456 61.19142 87.44102
#
# Poissons Ratio (x) = -0.54600 0.86293
# Poissons Ratio (y) = -0.30556 0.55153
# Poissons Ratio (z) = 0.33795 0.38596
#
# Static dielectric constant tensor:
#      x y z
#    x 1.617680 0.000000 0.027500 
#    y 0.000000 1.625980 0.000000 
#    z 0.027500 0.000000 1.521300 
# 
# From -- ./inp_files/142661.got.cif
#   From: 2010.05.17/outbox.cif.g08.bks.cpg/sg12_72_cif.got.tgz:142661.got - 2010.06.03 13:09:07.
