data_PCOD9221639
_publ_section_title
;
Structure prediction by ZEFSAII (Michael W. Deem and Ramdas Pophale) SiO2 
 PCOD9221639
Probable space group: C 2/M
;
_chemical_formula_sum "Si O2"
_cell_formula_units_Z 46
_cell_length_a 6.957204
_cell_length_b 27.591101
_cell_length_c 14.109990
_cell_angle_alpha 90.000000
_cell_angle_beta 138.540396
_cell_angle_gamma 90.000000
_cell_volume 1793.282493
_symmetry_space_group_name_H-M "C 2/M"
_symmetry_group_IT_number 12
_symmetry_cell_setting 'monoclinic'
loop_
_space_group_symop_operation_xyz
x,y,z
-x,y,-z
-x,-y,-z
x,-y,z
1/2+x,1/2+y,z
1/2-x,1/2+y,-z
1/2-x,1/2-y,-z
1/2+x,1/2-y,z
loop_
_atom_site_type_symbol
_atom_site_label
_atom_site_fract_x
_atom_site_fract_y
_atom_site_fract_z
Si Si1 0.289710 0.322872 0.135236
Si Si2 0.000000 0.616805 0.500000
Si Si3 0.665550 0.845820 0.767889
Si Si4 0.500000 0.000000 0.000000
Si Si5 0.035818 0.052909 0.411142
Si Si6 0.801284 0.251815 0.614452
Si Si7 0.478400 0.915730 0.118172
O O1 0.492991 0.334936 0.120767
O O2 0.518998 0.294608 0.283532
O O3 0.153949 0.370455 0.134680
O O4 0.000000 0.293455 0.000000
O O5 0.038777 0.641578 0.616121
O O6 0.275598 0.583401 0.589350
O O7 0.460667 0.799773 0.717143
O O8 0.650015 0.889602 0.836441
O O9 0.322519 0.954561 0.991309
O O10 0.000000 0.077613 0.500000
O O11 0.725871 0.049208 0.250191
O O12 0.168496 0.000000 0.476518
O O13 0.984060 0.251182 0.569587
#
# Coordination Sequence:
#
# PCOD9221639 Si02
#       7
#     8   4   8   2   8   8   8
#     4  12  28  52  78 113 165 215 280 342 397 487
#     4  12  23  42  76 116 164 196 262 343 400 498
#     4  12  27  46  78 122 163 215 272 332 418 484
#     4  12  28  60  80 104 162 212 284 336 416 494
#     4  11  23  41  72 111 153 197 259 336 421 481
#     4  12  25  48  80 121 167 221 268 329 414 498
#     4  12  26  50  80 110 156 217 270 341 411 491
#
# _framework density 25.651282999999999
#
# number of rings (size 3 to 8) (size 9 to 14) (size 15 to 20)
#    0.000    0.174    6.957    2.348    2.435    1.391 
#    1.565    1.739    0.000    0.000    0.000    0.000 
#    0.000    0.000    0.000    0.000    0.000    0.000 
#
# Total GULP energy -128055.693811 kJ/mol
# GULP energy per Si atom -5567.638861 kJ/mol
# Density = 2.559290 g / cm^3
# Si number density = 25.651283 Si / 1000 Ang^3
#
#
#
# Elastic Constant Matrix: (Units=GPa)
#
#
# Indices 1 2 3 4 5 6 
#
# 1 161.7159 69.1202 41.0520 0.0000 15.0945 0.0000
# 2 69.1202 148.2862 28.8766 0.0000 -11.7084 0.0000
# 3 41.0520 28.8766 98.2714 0.0000 10.4990 0.0000
# 4 0.0000 0.0000 0.0000 25.4714 0.0000 -36.7760
# 5 15.0945 -11.7084 10.4990 0.0000 49.5038 0.0000
# 6 0.0000 0.0000 0.0000 -36.7760 0.0000 186.3729
#
#
#
# Elastic Compliance Matrix: (Units=1/GPa)
#
#
# Indices 1 2 3 4 5 6 
#
# 1 0.008674 -0.003868 -0.002155 0.000000 -0.003103 0.000000
# 2 -0.003868 0.009117 -0.001452 0.000000 0.003644 0.000000
# 3 -0.002155 -0.001452 0.011735 0.000000 -0.002175 0.000000
# 4 0.000000 0.000000 0.000000 0.054901 0.000000 0.010833
# 5 -0.003103 0.003644 -0.002175 0.000000 0.022470 0.000000
# 6 0.000000 0.000000 0.000000 0.010833 0.000000 0.007503
#
#
# Mechanical properties :
#
#
# Convention : Reuss Voigt Hill
#
# Bulk Modulus (GPa) = 68.61268 76.26344 72.43806
# Shear Modulus (GPa) = 37.25477 70.21793 53.73635
#
# Velocity S-wave (km/s) = 3.81511 5.23770 4.58195
# Velocity P-wave (km/s) = 6.79802 8.14698 7.50288
#
# Compressibility (1/GPa) = 0.01457456
#
# Stress axis : x y z
#
# Youngs Moduli (GPa) = 115.28979 109.67998 85.21213
#
# Poissons Ratio (x) = 0.42428 0.18365
# Poissons Ratio (y) = 0.44598 0.12377
# Poissons Ratio (z) = 0.24848 0.15930
#
# Static dielectric constant tensor:
#      x y z
#    x 2.372450 0.000000 -0.418430 
#    y 0.000000 1.989560 0.000000 
#    z -0.418430 0.000000 3.341000 
# 
# From -- ./inp_files/192674.got.cif
#   From: 2010.05.17/outbox.cif.g08.bks.cpg/sg12_97_cif.got.tgz:192674.got - 2010.06.03 13:09:07.
