data_PCOD9221019
_publ_section_title
;
Structure prediction by ZEFSAII (Michael W. Deem and Ramdas Pophale) SiO2 
 PCOD9221019
Probable space group: C 2/M
;
_chemical_formula_sum "Si O2"
_cell_formula_units_Z 32
_cell_length_a 13.987816
_cell_length_b 17.431350
_cell_length_c 9.291328
_cell_angle_alpha 90.000000
_cell_angle_beta 38.672938
_cell_angle_gamma 90.000000
_cell_volume 1415.634576
_symmetry_space_group_name_H-M "C 2/M"
_symmetry_group_IT_number 12
_symmetry_cell_setting 'monoclinic'
loop_
_space_group_symop_operation_xyz
x,y,z
-x,y,-z
-x,-y,-z
x,-y,z
1/2+x,1/2+y,z
1/2-x,1/2+y,-z
1/2-x,1/2-y,-z
1/2+x,1/2-y,z
loop_
_atom_site_type_symbol
_atom_site_label
_atom_site_fract_x
_atom_site_fract_y
_atom_site_fract_z
Si Si1 0.869313 0.694132 0.742494
Si Si2 0.918010 0.724163 0.235457
Si Si3 0.691494 0.356741 0.353428
Si Si4 0.390613 0.413787 0.845498
O O1 0.835269 0.773187 0.694657
O O2 0.000000 0.651280 0.500000
O O3 0.545854 0.786699 0.206784
O O4 0.723254 0.641261 0.934961
O O5 0.750000 0.750000 0.500000
O O6 0.852631 0.646190 0.241356
O O7 0.000000 0.764346 0.000000
O O8 0.557299 0.376314 0.624106
O O9 0.675931 0.413918 0.239079
O O10 0.401374 0.500000 0.888945
#
# Coordination Sequence:
#
# PCOD9221019 Si02
#       4
#     8   8   8   8
#     4  12  24  41  68  99 132 170 221 279 328 389
#     4  12  24  37  65 105 133 168 225 284 329 386
#     4  11  22  40  69  96 126 172 226 266 322 397
#     4  11  23  42  66  94 133 175 214 269 336 395
#
# _framework density 22.604703000000001
#
# number of rings (size 3 to 8) (size 9 to 14) (size 15 to 20)
#    0.000    0.500    7.500    2.250    3.500    0.500 
#    0.000    3.750    0.000    1.500    0.000    0.000 
#    0.000    0.000    0.000    0.000    0.000    0.000 
#
# Total GULP energy -89172.514068 kJ/mol
# GULP energy per Si atom -5573.282129 kJ/mol
# Density = 2.255325 g / cm^3
# Si number density = 22.604703 Si / 1000 Ang^3
#
#
#
# Elastic Constant Matrix: (Units=GPa)
#
#
# Indices 1 2 3 4 5 6 
#
# 1 103.4686 32.7579 25.5584 0.0003 -0.1492 -0.0004
# 2 32.7579 133.1654 77.2425 0.0001 -22.3134 -0.0002
# 3 25.5584 77.2425 227.3809 0.0002 3.1460 -0.0003
# 4 0.0003 0.0001 0.0002 16.4161 -0.0002 3.1937
# 5 -0.1492 -22.3134 3.1460 -0.0002 29.3406 0.0003
# 6 -0.0004 -0.0002 -0.0003 3.1937 0.0003 11.4754
#
#
#
# Elastic Compliance Matrix: (Units=1/GPa)
#
#
# Indices 1 2 3 4 5 6 
#
# 1 0.010612 -0.002846 -0.000197 0.000000 -0.002089 0.000000
# 2 -0.002846 0.012093 -0.003921 0.000000 0.009603 0.000000
# 3 -0.000197 -0.003921 0.005802 0.000000 -0.003605 0.000000
# 4 0.000000 0.000000 0.000000 0.064403 0.000001 -0.017924
# 5 -0.002089 0.009603 -0.003605 0.000001 0.041761 -0.000001
# 6 0.000000 0.000000 0.000000 -0.017924 -0.000001 0.092131
#
#
# Mechanical properties :
#
#
# Convention : Reuss Voigt Hill
#
# Bulk Modulus (GPa) = 68.59632 81.68138 75.13885
# Shear Modulus (GPa) = 20.35922 33.34350 26.85136
#
# Velocity S-wave (km/s) = 3.00436 3.84483 3.45028
# Velocity P-wave (km/s) = 6.51512 7.47820 7.01321
#
# Compressibility (1/GPa) = 0.01457804
#
# Stress axis : x y z
#
# Youngs Moduli (GPa) = 94.23720 82.69247 172.35715
#
# Poissons Ratio (x) = 0.23536 0.03395
# Poissons Ratio (y) = 0.26822 0.67581
# Poissons Ratio (z) = 0.01856 0.32424
#
# Static dielectric constant tensor:
#      x y z
#    x 1.920840 0.000000 0.071600 
#    y 0.000000 1.873750 0.000000 
#    z 0.071600 0.000000 1.990520 
# 
# From -- ./inp_files/157550.got.cif
#   From: 2010.05.17/outbox.cif.g08.bks.cpg/sg12_79_cif.got.tgz:157550.got - 2010.06.03 13:09:07.
