data_PCOD9221207
_publ_section_title
;
Structure prediction by ZEFSAII (Michael W. Deem and Ramdas Pophale) SiO2 
 PCOD9221207
Probable space group: C 2/M
;
_chemical_formula_sum "Si O2"
_cell_formula_units_Z 40
_cell_length_a 8.925383
_cell_length_b 26.398031
_cell_length_c 11.834925
_cell_angle_alpha 90.000000
_cell_angle_beta 42.807455
_cell_angle_gamma 90.000000
_cell_volume 1894.858856
_symmetry_space_group_name_H-M "C 2/M"
_symmetry_group_IT_number 12
_symmetry_cell_setting 'monoclinic'
loop_
_space_group_symop_operation_xyz
x,y,z
-x,y,-z
-x,-y,-z
x,-y,z
1/2+x,1/2+y,z
1/2-x,1/2+y,-z
1/2-x,1/2-y,-z
1/2+x,1/2-y,z
loop_
_atom_site_type_symbol
_atom_site_label
_atom_site_fract_x
_atom_site_fract_y
_atom_site_fract_z
Si Si1 0.339364 0.899687 0.982412
Si Si2 0.486361 0.941194 0.669561
Si Si3 0.743741 0.279764 0.665063
Si Si4 0.144667 0.290036 0.142831
Si Si5 0.655137 0.393310 0.671516
O O1 0.422564 0.935188 0.835171
O O2 0.346129 0.844236 0.920701
O O3 0.500000 0.901196 0.000000
O O4 0.091619 0.909959 0.162514
O O5 0.311000 0.909889 0.690594
O O6 0.724248 0.918550 0.502682
O O7 0.476918 0.000000 0.643317
O O8 0.731634 0.288412 0.806606
O O9 0.602331 0.231663 0.705448
O O10 0.661930 0.332446 0.656164
O O11 0.000000 0.272722 0.500000
O O12 0.250000 0.250000 0.000000
#
# Coordination Sequence:
#
# PCOD9221207 Si02
#       5
#     8   8   8   8   8
#     4  12  26  44  66 102 144 182 223 277 343 411
#     4  11  25  47  75 103 130 172 235 295 343 395
#     4  12  23  41  65  97 134 179 225 275 330 401
#     4  12  24  40  64  97 137 181 220 268 333 400
#     4  11  22  44  73  99 133 176 233 286 334 399
#
# _framework density 21.109752
#
# number of rings (size 3 to 8) (size 9 to 14) (size 15 to 20)
#    0.000    0.400    6.000    4.200    0.000    3.600 
#    0.000    1.000    0.000    0.000    0.000    0.000 
#    0.000    0.000    0.000    0.000    0.000    0.000 
#
# Total GULP energy -111922.470435 kJ/mol
# GULP energy per Si atom -5596.123522 kJ/mol
# Density = 2.106171 g / cm^3
# Si number density = 21.109752 Si / 1000 Ang^3
#
#
#
# Elastic Constant Matrix: (Units=GPa)
#
#
# Indices 1 2 3 4 5 6 
#
# 1 75.8488 4.5483 43.0361 0.0000 0.0354 0.0000
# 2 4.5483 76.0627 27.5354 0.0000 -6.7778 0.0000
# 3 43.0361 27.5354 154.2648 0.0000 -19.6037 0.0000
# 4 0.0000 0.0000 0.0000 23.7595 0.0000 8.8112
# 5 0.0354 -6.7778 -19.6037 0.0000 13.9005 0.0000
# 6 0.0000 0.0000 0.0000 8.8112 0.0000 5.1255
#
#
#
# Elastic Compliance Matrix: (Units=1/GPa)
#
#
# Indices 1 2 3 4 5 6 
#
# 1 0.016352 0.000361 -0.005616 0.000000 -0.007785 0.000000
# 2 0.000361 0.014252 -0.002146 0.000000 0.003921 0.000000
# 3 -0.005616 -0.002146 0.010113 0.000000 0.013231 0.000000
# 4 0.000000 0.000000 0.000000 0.116113 0.000000 -0.199607
# 5 -0.007785 0.003921 0.013231 0.000000 0.092531 0.000000
# 6 0.000000 0.000000 0.000000 -0.199607 0.000000 0.538245
#
#
# Mechanical properties :
#
#
# Convention : Reuss Voigt Hill
#
# Bulk Modulus (GPa) = 38.58591 50.71289 44.64940
# Shear Modulus (GPa) = 6.16487 23.96086 15.06287
#
# Velocity S-wave (km/s) = 1.71077 3.37272 2.67413
# Velocity P-wave (km/s) = 4.71388 6.26439 5.54361
#
# Compressibility (1/GPa) = 0.02591620
#
# Stress axis : x y z
#
# Youngs Moduli (GPa) = 61.15296 70.16629 98.87792
#
# Poissons Ratio (x) = -0.02536 0.55528
# Poissons Ratio (y) = -0.02210 0.21223
# Poissons Ratio (z) = 0.34342 0.15061
#
# Static dielectric constant tensor:
#      x y z
#    x 1.747760 0.000000 -0.016500 
#    y 0.000000 1.749560 0.000000 
#    z -0.016500 0.000000 1.838480 
# 
# From -- ./inp_files/125011.got.cif
#   From: 2010.05.17/outbox.cif.g08.bks.cpg/sg12_63_cif.got.tgz:125011.got - 2010.06.03 13:09:07.
