data_PCOD9221060
_publ_section_title
;
Structure prediction by ZEFSAII (Michael W. Deem and Ramdas Pophale) SiO2 
 PCOD9221060
Probable space group: C 2/M
;
_chemical_formula_sum "Si O2"
_cell_formula_units_Z 34
_cell_length_a 7.621711
_cell_length_b 12.462145
_cell_length_c 21.375721
_cell_angle_alpha 90.000000
_cell_angle_beta 134.804945
_cell_angle_gamma 90.000000
_cell_volume 1440.537343
_symmetry_space_group_name_H-M "C 2/M"
_symmetry_group_IT_number 12
_symmetry_cell_setting 'monoclinic'
loop_
_space_group_symop_operation_xyz
x,y,z
-x,y,-z
-x,-y,-z
x,-y,z
1/2+x,1/2+y,z
1/2-x,1/2+y,-z
1/2-x,1/2-y,-z
1/2+x,1/2-y,z
loop_
_atom_site_type_symbol
_atom_site_label
_atom_site_fract_x
_atom_site_fract_y
_atom_site_fract_z
Si Si1 0.889877 0.883232 0.672144
Si Si2 0.374226 0.383780 0.900299
Si Si3 0.413172 0.844704 0.860293
Si Si4 0.000000 0.500000 0.000000
Si Si5 0.494276 0.313217 0.431069
O O1 0.712880 0.779541 0.630770
O O2 0.127355 0.868750 0.775511
O O3 0.993632 0.882956 0.627578
O O4 0.770180 0.000000 0.654850
O O5 0.446535 0.500000 0.890739
O O6 0.446452 0.282599 0.877762
O O7 0.085108 0.379326 0.845446
O O8 0.500000 0.375489 0.000000
O O9 0.493236 0.906975 0.942670
O O10 0.500000 0.369873 0.500000
O O11 0.750000 0.250000 0.500000
#
# Coordination Sequence:
#
# PCOD9221060 Si02
#       5
#     8   8   8   2   8
#     4  11  22  41  66  95 130 171 213 271 325 389
#     4  11  24  41  61  89 124 174 227 282 331 379
#     4  12  24  42  64  94 134 175 231 276 321 389
#     4  12  24  40  68  92 136 184 228 274 330 374
#     4   9  21  41  65  95 127 159 208 263 332 406
#
# _framework density 23.602304
#
# number of rings (size 3 to 8) (size 9 to 14) (size 15 to 20)
#    0.000    1.176    3.529    2.118    0.000    4.706 
#    0.000    4.706    0.000    0.000    0.000    0.000 
#    0.000    0.000    0.000    0.000    0.000    0.000 
#
# Total GULP energy -94836.522095 kJ/mol
# GULP energy per Si atom -5578.618947 kJ/mol
# Density = 2.354858 g / cm^3
# Si number density = 23.602304 Si / 1000 Ang^3
#
#
#
# Elastic Constant Matrix: (Units=GPa)
#
#
# Indices 1 2 3 4 5 6 
#
# 1 32.0750 9.0903 14.3312 0.0000 -2.6986 0.0000
# 2 9.0903 189.7094 20.2765 0.0000 -3.6071 0.0000
# 3 14.3312 20.2765 74.0350 0.0000 12.7225 0.0000
# 4 0.0000 0.0000 0.0000 147.9831 0.0000 -3.6722
# 5 -2.6986 -3.6071 12.7225 0.0000 34.3817 0.0000
# 6 0.0000 0.0000 0.0000 -3.6722 0.0000 23.2315
#
#
#
# Elastic Compliance Matrix: (Units=1/GPa)
#
#
# Indices 1 2 3 4 5 6 
#
# 1 0.035230 -0.000777 -0.007548 0.000000 0.005477 0.000000
# 2 -0.000777 0.005494 -0.001541 0.000000 0.001085 0.000000
# 3 -0.007548 -0.001541 0.016574 0.000000 -0.006887 0.000000
# 4 0.000000 0.000000 0.000000 0.006784 0.000000 0.001072
# 5 0.005477 0.001085 -0.006887 0.000000 0.032177 0.000000
# 6 0.000000 0.000000 0.000000 0.001072 0.000000 0.043214
#
#
# Mechanical properties :
#
#
# Convention : Reuss Voigt Hill
#
# Bulk Modulus (GPa) = 26.61980 42.57951 34.59965
# Shear Modulus (GPa) = 29.11588 57.92737 43.52163
#
# Velocity S-wave (km/s) = 3.51608 4.95947 4.29879
# Velocity P-wave (km/s) = 5.27131 7.13265 6.27142
#
# Compressibility (1/GPa) = 0.03756603
#
# Stress axis : x y z
#
# Youngs Moduli (GPa) = 28.38457 182.02423 60.33681
#
# Poissons Ratio (x) = 0.14148 0.45542
# Poissons Ratio (y) = 0.02206 0.09296
# Poissons Ratio (z) = 0.21424 0.28044
#
# Static dielectric constant tensor:
#      x y z
#    x 1.977020 0.000000 0.020820 
#    y 0.000000 1.915440 0.000000 
#    z 0.020820 0.000000 1.907990 
# 
# From -- ./inp_files/250683.got.cif
#   From: 2010.05.17/outbox.cif.g08.bks.cpg/sg12_126_cif.got.tgz:250683.got - 2010.06.03 13:09:07.
