data_PCOD9221250
_publ_section_title
;
Structure prediction by ZEFSAII (Michael W. Deem and Ramdas Pophale) SiO2 
 PCOD9221250
Probable space group: C 2/M
;
_chemical_formula_sum "Si O2"
_cell_formula_units_Z 56
_cell_length_a 21.504720
_cell_length_b 15.469874
_cell_length_c 9.734820
_cell_angle_alpha 90.000000
_cell_angle_beta 71.655884
_cell_angle_gamma 90.000000
_cell_volume 3073.963053
_symmetry_space_group_name_H-M "C 2/M"
_symmetry_group_IT_number 12
_symmetry_cell_setting 'monoclinic'
loop_
_space_group_symop_operation_xyz
x,y,z
-x,y,-z
-x,-y,-z
x,-y,z
1/2+x,1/2+y,z
1/2-x,1/2+y,-z
1/2-x,1/2-y,-z
1/2+x,1/2-y,z
loop_
_atom_site_type_symbol
_atom_site_label
_atom_site_fract_x
_atom_site_fract_y
_atom_site_fract_z
Si Si1 0.306131 0.906186 0.271725
Si Si2 0.269936 0.731264 0.142868
Si Si3 0.698016 0.188677 0.456120
Si Si4 0.490135 0.401915 0.235145
Si Si5 0.960317 0.402638 0.164062
Si Si6 0.046182 0.732360 0.591502
Si Si7 0.609608 0.599662 0.952314
O O1 0.277620 0.824909 0.209999
O O2 0.301511 0.892546 0.440090
O O3 0.383257 0.904670 0.185499
O O4 0.278359 0.000000 0.253242
O O5 0.221257 0.681368 0.282588
O O6 0.335367 0.672760 0.094774
O O7 0.250000 0.750000 0.000000
O O8 0.750000 0.250000 0.500000
O O9 0.623903 0.224586 0.510045
O O10 0.488566 0.500000 0.289075
O O11 0.472510 0.329625 0.355991
O O12 0.436528 0.395481 0.150146
O O13 0.560665 0.386912 0.114827
O O14 0.978814 0.500000 0.197635
O O15 0.969961 0.329842 0.270060
O O16 0.000000 0.382175 0.000000
O O17 0.000000 0.704107 0.500000
O O18 0.634801 0.500000 0.942163
#
# Coordination Sequence:
#
# PCOD9221250 Si02
#       7
#     8   8   8   8   8   8   8
#     4   9  19  37  57  78 109 151 199 238 278 343
#     4  11  23  35  58  86 122 150 190 244 301 351
#     4   9  20  40  55  78 112 156 202 233 278 357
#     4   9  19  36  59  85 115 150 199 242 286 353
#     4   9  19  35  57  83 107 146 198 240 278 339
#     4  11  23  34  58  87 122 153 186 239 313 349
#     4   9  19  36  59  86 112 152 200 245 289 344
#
# _framework density 18.217524999999998
#
# number of rings (size 3 to 8) (size 9 to 14) (size 15 to 20)
#    0.000    2.429    0.000    3.429    6.000    1.714 
#    0.000    4.286    0.000    0.000    0.000    0.000 
#    0.000    0.000    0.000    0.000    0.000    0.000 
#
# Total GULP energy -156004.326790 kJ/mol
# GULP energy per Si atom -5571.583100 kJ/mol
# Density = 1.817606 g / cm^3
# Si number density = 18.217525 Si / 1000 Ang^3
#
#
#
# Elastic Constant Matrix: (Units=GPa)
#
#
# Indices 1 2 3 4 5 6 
#
# 1 54.9081 41.9526 45.0368 0.0000 -10.9861 0.0000
# 2 41.9526 100.2557 51.5896 0.0000 -10.8503 0.0000
# 3 45.0368 51.5896 109.1166 0.0000 -8.6043 0.0000
# 4 0.0000 0.0000 0.0000 10.9338 0.0000 36.8324
# 5 -10.9861 -10.8503 -8.6043 0.0000 21.5250 0.0000
# 6 0.0000 0.0000 0.0000 36.8324 0.0000 45.0358
#
#
#
# Elastic Compliance Matrix: (Units=1/GPa)
#
#
# Indices 1 2 3 4 5 6 
#
# 1 0.034304 -0.008495 -0.009396 0.000000 0.009471 0.000000
# 2 -0.008495 0.015680 -0.003744 0.000000 0.002072 0.000000
# 3 -0.009396 -0.003744 0.014750 0.000000 -0.000786 0.000000
# 4 0.000000 0.000000 0.000000 -0.052112 0.000000 0.042619
# 5 0.009471 0.002072 -0.000786 0.000000 0.052021 0.000000
# 6 0.000000 0.000000 0.000000 0.042619 0.000000 -0.012652
#
#
# Mechanical properties :
#
#
# Convention : Reuss Voigt Hill
#
# Bulk Modulus (GPa) = 46.58551 60.15984 53.37267
# Shear Modulus (GPa) = 48.82016 23.87901 36.34959
#
# Velocity S-wave (km/s) = 5.18234 3.62439 4.47173
# Velocity P-wave (km/s) = 7.83812 7.11405 7.48485
#
# Compressibility (1/GPa) = 0.02146590
#
# Stress axis : x y z
#
# Youngs Moduli (GPa) = 29.15092 63.77552 67.79453
#
# Poissons Ratio (x) = 0.54178 0.63697
# Poissons Ratio (y) = 0.24764 0.25381
# Poissons Ratio (z) = 0.27389 0.23876
#
# Static dielectric constant tensor:
#      x y z
#    x 1.604780 0.000000 -0.005510 
#    y 0.000000 1.659040 0.000000 
#    z -0.005510 0.000000 1.631640 
# 
# From -- ./inp_files/96237.got.cif
#   From: 2010.05.17/outbox.cif.g08.bks.cpg/sg12_49_cif.got.tgz:96237.got - 2010.06.03 13:09:07.
