data_PCOD9221939
_publ_section_title
;
Structure prediction by ZEFSAII (Michael W. Deem and Ramdas Pophale) SiO2 
 PCOD9221939
Probable space group: C 2/M
;
_chemical_formula_sum "Si O2"
_cell_formula_units_Z 64
_cell_length_a 33.839865
_cell_length_b 8.987852
_cell_length_c 17.896980
_cell_angle_alpha 90.000000
_cell_angle_beta 143.195257
_cell_angle_gamma 90.000000
_cell_volume 3261.041095
_symmetry_space_group_name_H-M "C 2/M"
_symmetry_group_IT_number 12
_symmetry_cell_setting 'monoclinic'
loop_
_space_group_symop_operation_xyz
x,y,z
-x,y,-z
-x,-y,-z
x,-y,z
1/2+x,1/2+y,z
1/2-x,1/2+y,-z
1/2-x,1/2-y,-z
1/2+x,1/2-y,z
loop_
_atom_site_type_symbol
_atom_site_label
_atom_site_fract_x
_atom_site_fract_y
_atom_site_fract_z
Si Si1 0.450340 0.671598 0.855737
Si Si2 0.331966 0.177861 0.758643
Si Si3 0.049292 0.674259 0.292701
Si Si4 0.571206 0.822526 0.642983
Si Si5 0.317447 0.673980 0.286283
Si Si6 0.835115 0.678500 0.939332
Si Si7 0.563573 0.322920 0.791791
Si Si8 0.179720 0.826880 0.530306
O O1 0.446328 0.500000 0.824977
O O2 0.380768 0.730975 0.780594
O O3 0.474727 0.772733 0.824746
O O4 0.500000 0.681006 0.000000
O O5 0.343415 0.214219 0.863816
O O6 0.255315 0.207734 0.625069
O O7 0.342988 0.000000 0.766747
O O8 0.040209 0.500000 0.289522
O O9 0.125469 0.721558 0.412549
O O10 0.008029 0.763162 0.291821
O O11 0.500000 0.782064 0.500000
O O12 0.629658 0.771605 0.676865
O O13 0.579673 0.743225 0.735271
O O14 0.572457 0.000000 0.655077
O O15 0.327155 0.500000 0.281347
O O16 0.240970 0.712533 0.154809
O O17 0.325637 0.686599 0.387984
O O18 0.844162 0.500000 0.960400
O O19 0.885324 0.762170 0.069048
O O20 0.564215 0.500000 0.791259
O O21 0.166857 0.000000 0.491595
#
# Coordination Sequence:
#
# PCOD9221939 Si02
#       8
#     8   8   8   8   8   8   8   8
#     4  11  24  40  59  85 116 151 193 240 287 338
#     4   9  19  37  62  89 117 153 191 232 285 339
#     4  12  25  40  60  85 115 152 192 236 288 342
#     4  11  24  40  59  85 116 151 193 240 287 338
#     4   9  19  37  62  89 117 153 191 232 285 339
#     4   9  19  38  62  88 119 152 190 234 282 340
#     4  12  25  40  60  85 115 152 192 236 288 342
#     4   9  19  38  62  88 119 152 190 234 282 340
#
# _framework density 19.625634000000002
#
# number of rings (size 3 to 8) (size 9 to 14) (size 15 to 20)
#    0.000    1.750    0.000    6.000    0.000    9.000 
#    0.000    2.500    0.000    0.000    0.000    0.000 
#    0.000    0.000    0.000    0.000    0.000    0.000 
#
# Total GULP energy -178929.704487 kJ/mol
# GULP energy per Si atom -5591.553265 kJ/mol
# Density = 1.958097 g / cm^3
# Si number density = 19.625634 Si / 1000 Ang^3
#
#
#
# Elastic Constant Matrix: (Units=GPa)
#
#
# Indices 1 2 3 4 5 6 
#
# 1 56.0790 14.3356 -7.8557 0.0000 15.4653 0.0000
# 2 14.3356 60.5313 21.4494 0.0000 7.1261 0.0000
# 3 -7.8557 21.4494 59.6143 0.0000 3.2486 0.0000
# 4 0.0000 0.0000 0.0000 21.1341 0.0000 3.3341
# 5 15.4653 7.1261 3.2486 0.0000 19.8375 0.0000
# 6 0.0000 0.0000 0.0000 3.3341 0.0000 31.6079
#
#
#
# Elastic Compliance Matrix: (Units=1/GPa)
#
#
# Indices 1 2 3 4 5 6 
#
# 1 0.025505 -0.006173 0.006604 0.000000 -0.018748 0.000000
# 2 -0.006173 0.021099 -0.008328 0.000000 -0.001403 0.000000
# 3 0.006604 -0.008328 0.020946 0.000000 -0.005587 0.000000
# 4 0.000000 0.000000 0.000000 0.048118 0.000000 -0.005076
# 5 -0.018748 -0.001403 -0.005587 0.000000 0.066444 0.000000
# 6 0.000000 0.000000 0.000000 -0.005076 0.000000 0.032173
#
#
# Mechanical properties :
#
#
# Convention : Reuss Voigt Hill
#
# Bulk Modulus (GPa) = 19.32223 25.78701 22.55462
# Shear Modulus (GPa) = 20.21575 24.40226 22.30900
#
# Velocity S-wave (km/s) = 3.21295 3.52999 3.37520
# Velocity P-wave (km/s) = 4.86116 5.45733 5.16785
#
# Compressibility (1/GPa) = 0.05175386
#
# Stress axis : x y z
#
# Youngs Moduli (GPa) = 39.20739 47.39617 47.74235
#
# Poissons Ratio (x) = 0.29260 -0.31528
# Poissons Ratio (y) = 0.24204 0.39762
# Poissons Ratio (z) = -0.25892 0.39474
#
# Static dielectric constant tensor:
#      x y z
#    x 1.667210 0.000000 0.000980 
#    y 0.000000 1.654260 0.000000 
#    z 0.000980 0.000000 1.698230 
# 
# From -- ./inp_files/295772.got.cif
#   From: 2010.05.17/outbox.cif.g08.bks.cpg/sg12_148_cif.got.tgz:295772.got - 2010.06.03 13:09:07.
