data_PCOD9221663
_publ_section_title
;
Structure prediction by ZEFSAII (Michael W. Deem and Ramdas Pophale) SiO2 
 PCOD9221663
Probable space group: C 2/M
;
_chemical_formula_sum "Si O2"
_cell_formula_units_Z 52
_cell_length_a 9.123289
_cell_length_b 25.746602
_cell_length_c 22.888418
_cell_angle_alpha 90.000000
_cell_angle_beta 151.882437
_cell_angle_gamma 90.000000
_cell_volume 2533.776010
_symmetry_space_group_name_H-M "C 2/M"
_symmetry_group_IT_number 12
_symmetry_cell_setting 'monoclinic'
loop_
_space_group_symop_operation_xyz
x,y,z
-x,y,-z
-x,-y,-z
x,-y,z
1/2+x,1/2+y,z
1/2-x,1/2+y,-z
1/2-x,1/2-y,-z
1/2+x,1/2-y,z
loop_
_atom_site_type_symbol
_atom_site_label
_atom_site_fract_x
_atom_site_fract_y
_atom_site_fract_z
Si Si1 0.295946 0.407209 0.068864
Si Si2 0.806199 0.000000 0.990080
Si Si3 0.212110 0.298186 0.626113
Si Si4 0.299397 0.913573 0.343833
Si Si5 0.700198 0.500000 0.511147
Si Si6 0.563921 0.500000 0.709169
Si Si7 0.384407 0.319246 0.017683
Si Si8 0.192527 0.251021 0.213439
O O1 0.566747 0.398727 0.209961
O O2 0.211279 0.356219 0.002492
O O3 0.397928 0.450112 0.059411
O O4 0.000000 0.426999 0.000000
O O5 0.431536 0.000000 0.850734
O O6 0.000000 0.000000 0.000000
O O7 0.108582 0.357757 0.598489
O O8 0.560354 0.292530 0.723346
O O9 0.214071 0.269834 0.689892
O O10 0.000000 0.274120 0.500000
O O11 0.109179 0.950141 0.322541
O O12 0.576852 0.949443 0.416937
O O13 0.500000 0.500000 0.500000
O O14 0.491299 0.500000 0.379378
O O15 0.659686 0.294403 0.153302
O O16 0.500000 0.347988 0.000000
O O17 0.150910 0.276106 0.909925
#
# Coordination Sequence:
#
# PCOD9221663 Si02
#       8
#     8   4   8   8   4   4   8   8
#     4  12  23  42  68 101 132 176 224 276 339 414
#     4  12  26  39  64 104 142 168 210 286 353 394
#     4  12  24  45  68  98 134 180 228 284 332 397
#     4  11  23  45  72  98 133 178 230 270 334 413
#     4  11  26  47  71 101 133 180 222 277 329 412
#     4  11  23  45  68  98 138 176 223 267 335 419
#     4  11  23  42  65  96 136 172 221 280 340 400
#     4  11  24  41  66  97 132 176 228 276 336 398
#
# _framework density 20.522729999999999
#
# number of rings (size 3 to 8) (size 9 to 14) (size 15 to 20)
#    0.000    0.615    4.615    4.846    2.154    0.000 
#    0.000    3.846    0.000    0.000    0.000    0.000 
#    0.000    0.000    0.000    0.000    0.000    0.000 
#
# Total GULP energy -145201.518142 kJ/mol
# GULP energy per Si atom -5584.673775 kJ/mol
# Density = 2.047602 g / cm^3
# Si number density = 20.522730 Si / 1000 Ang^3
#
#
#
# Elastic Constant Matrix: (Units=GPa)
#
#
# Indices 1 2 3 4 5 6 
#
# 1 140.4750 27.6185 32.7514 -0.0066 -27.2861 -0.0132
# 2 27.6185 70.8724 -0.0428 -0.0026 -17.2951 -0.0044
# 3 32.7514 -0.0428 92.2626 -0.0228 -32.6992 -0.0231
# 4 -0.0066 -0.0026 -0.0228 23.9695 -0.0080 -5.7325
# 5 -27.2861 -17.2951 -32.6992 -0.0080 43.2296 -0.0128
# 6 -0.0132 -0.0044 -0.0231 -5.7325 -0.0128 30.0112
#
#
#
# Elastic Compliance Matrix: (Units=1/GPa)
#
#
# Indices 1 2 3 4 5 6 
#
# 1 0.008683 -0.002695 -0.002081 0.000002 0.002828 0.000003
# 2 -0.002695 0.017122 0.003811 0.000010 0.008032 0.000009
# 3 -0.002081 0.003811 0.015923 0.000024 0.012255 0.000022
# 4 0.000002 0.000010 0.000024 0.043717 0.000034 0.008351
# 5 0.002828 0.008032 0.012255 0.000034 0.037401 0.000034
# 6 0.000003 0.000009 0.000022 0.008351 0.000034 0.034916
#
#
# Mechanical properties :
#
#
# Convention : Reuss Voigt Hill
#
# Bulk Modulus (GPa) = 25.12642 47.14045 36.13343
# Shear Modulus (GPa) = 28.90883 35.66092 32.28488
#
# Velocity S-wave (km/s) = 3.75724 4.17301 3.97057
# Velocity P-wave (km/s) = 5.57604 6.79989 6.21815
#
# Compressibility (1/GPa) = 0.03979875
#
# Stress axis : x y z
#
# Youngs Moduli (GPa) = 115.16580 58.40295 62.80383
#
# Poissons Ratio (x) = 0.15738 0.13071
# Poissons Ratio (y) = 0.31035 -0.23936
# Poissons Ratio (z) = 0.23968 -0.22259
#
# Static dielectric constant tensor:
#      x y z
#    x 1.732650 0.000000 -0.002200 
#    y 0.000000 1.704090 0.000000 
#    z -0.002200 0.000000 1.735800 
# 
# From -- ./inp_files/302961.got.cif
#   From: 2010.05.17/outbox.cif.g08.bks.cpg/sg12_152_cif.got.tgz:302961.got - 2010.06.03 13:09:07.
