data_PCOD9221632
_publ_section_title
;
Structure prediction by ZEFSAII (Michael W. Deem and Ramdas Pophale) SiO2 
 PCOD9221632
Probable space group: C 2/M
;
_chemical_formula_sum "Si O2"
_cell_formula_units_Z 40
_cell_length_a 17.411707
_cell_length_b 15.250441
_cell_length_c 20.274046
_cell_angle_alpha 90.000000
_cell_angle_beta 159.999047
_cell_angle_gamma 90.000000
_cell_volume 1841.347308
_symmetry_space_group_name_H-M "C 2/M"
_symmetry_group_IT_number 12
_symmetry_cell_setting 'monoclinic'
loop_
_space_group_symop_operation_xyz
x,y,z
-x,y,-z
-x,-y,-z
x,-y,z
1/2+x,1/2+y,z
1/2-x,1/2+y,-z
1/2-x,1/2-y,-z
1/2+x,1/2-y,z
loop_
_atom_site_type_symbol
_atom_site_label
_atom_site_fract_x
_atom_site_fract_y
_atom_site_fract_z
Si Si1 0.701129 0.095652 0.580083
Si Si2 0.170233 0.211098 0.584116
Si Si3 0.393331 0.405865 0.986460
Si Si4 0.188805 0.269914 0.026281
Si Si5 0.564035 0.398950 0.372312
O O1 0.588661 0.188721 0.504319
O O2 0.794258 0.102126 0.581034
O O3 0.910848 0.094052 0.800295
O O4 0.585974 0.000000 0.495676
O O5 0.173314 0.156699 0.519144
O O6 0.000000 0.172089 0.500000
O O7 0.422681 0.214308 0.815734
O O8 0.274433 0.500000 0.897782
O O9 0.500000 0.401451 0.000000
O O10 0.254161 0.318972 0.888231
O O11 0.331054 0.350894 0.167107
O O12 0.250000 0.250000 0.000000
O O13 0.534136 0.500000 0.367377
#
# Coordination Sequence:
#
# PCOD9221632 Si02
#       5
#     8   8   8   8   8
#     4   9  19  39  64  95 129 167 212 263 324 393
#     4  11  25  42  66  98 135 169 212 273 331 387
#     4   9  18  34  60  96 133 159 199 264 325 387
#     4  11  23  41  70  94 129 175 219 263 318 390
#     4  11  24  44  69  93 129 175 227 273 313 379
#
# _framework density 21.723223999999998
#
# number of rings (size 3 to 8) (size 9 to 14) (size 15 to 20)
#    0.000    1.800    4.000    0.600    5.600    1.600 
#    0.000    2.000    0.000    0.000    0.000    0.000 
#    0.000    0.000    0.000    0.000    0.000    0.000 
#
# Total GULP energy -111775.356177 kJ/mol
# GULP energy per Si atom -5588.767809 kJ/mol
# Density = 2.167378 g / cm^3
# Si number density = 21.723224 Si / 1000 Ang^3
#
#
#
# Elastic Constant Matrix: (Units=GPa)
#
#
# Indices 1 2 3 4 5 6 
#
# 1 98.5614 34.5963 4.4889 -0.0302 -0.3784 0.0100
# 2 34.5963 160.0829 9.1594 -0.0559 -11.5844 -0.0034
# 3 4.4889 9.1594 74.0127 -0.0657 -8.0689 0.0073
# 4 -0.0302 -0.0559 -0.0657 8.4852 0.0053 11.3855
# 5 -0.3784 -11.5844 -8.0689 0.0053 29.0880 -0.0070
# 6 0.0100 -0.0034 0.0073 11.3855 -0.0070 26.6443
#
#
#
# Elastic Compliance Matrix: (Units=1/GPa)
#
#
# Indices 1 2 3 4 5 6 
#
# 1 0.011014 -0.002422 -0.000472 0.000062 -0.000952 -0.000031
# 2 -0.002422 0.006985 -0.000431 0.000068 0.002631 -0.000026
# 3 -0.000472 -0.000431 0.013997 0.000247 0.003705 -0.000108
# 4 0.000062 0.000068 0.000247 0.276250 0.000017 -0.118046
# 5 -0.000952 0.002631 0.003705 0.000017 0.036442 0.000002
# 6 -0.000031 -0.000026 -0.000108 -0.118046 0.000002 0.087974
#
#
# Mechanical properties :
#
#
# Convention : Reuss Voigt Hill
#
# Bulk Modulus (GPa) = 39.45258 47.68290 43.56774
# Shear Modulus (GPa) = 11.16667 31.80433 21.48550
#
# Velocity S-wave (km/s) = 2.26971 3.83047 3.14834
# Velocity P-wave (km/s) = 5.00696 6.44679 5.77195
#
# Compressibility (1/GPa) = 0.02534688
#
# Stress axis : x y z
#
# Youngs Moduli (GPa) = 90.79317 143.15804 71.44247
#
# Poissons Ratio (x) = 0.34676 0.03372
# Poissons Ratio (y) = 0.21992 0.03077
# Poissons Ratio (z) = 0.04286 0.06165
#
# Static dielectric constant tensor:
#      x y z
#    x 1.770800 -0.000030 -0.019370 
#    y -0.000030 1.815860 0.000060 
#    z -0.019370 0.000060 1.848040 
# 
# From -- ./inp_files/285069.got.cif
#   From: 2010.05.17/outbox.cif.g08.bks.cpg/sg12_143_cif.got.tgz:285069.got - 2010.06.03 13:09:07.
