data_PCOD9221160
_publ_section_title
;
Structure prediction by ZEFSAII (Michael W. Deem and Ramdas Pophale) SiO2 
 PCOD9221160
Probable space group: C 2/M
;
_chemical_formula_sum "Si O2"
_cell_formula_units_Z 56
_cell_length_a 9.889861
_cell_length_b 27.999293
_cell_length_c 18.597102
_cell_angle_alpha 90.000000
_cell_angle_beta 35.996548
_cell_angle_gamma 90.000000
_cell_volume 3026.670857
_symmetry_space_group_name_H-M "C 2/M"
_symmetry_group_IT_number 12
_symmetry_cell_setting 'monoclinic'
loop_
_space_group_symop_operation_xyz
x,y,z
-x,y,-z
-x,-y,-z
x,-y,z
1/2+x,1/2+y,z
1/2-x,1/2+y,-z
1/2-x,1/2-y,-z
1/2+x,1/2-y,z
loop_
_atom_site_type_symbol
_atom_site_label
_atom_site_fract_x
_atom_site_fract_y
_atom_site_fract_z
Si Si1 0.001752 0.944997 0.376789
Si Si2 0.994583 0.799180 0.165805
Si Si3 0.968912 0.691581 0.886248
Si Si4 0.681766 0.295970 0.483660
Si Si5 0.627240 0.848400 0.225289
Si Si6 0.883655 0.555152 0.335678
Si Si7 0.050987 0.850671 0.287359
O O1 0.778369 0.939877 0.524195
O O2 0.216751 0.936048 0.338603
O O3 0.006138 0.907126 0.310596
O O4 0.013104 0.000000 0.348323
O O5 0.935141 0.743475 0.179843
O O6 0.953137 0.821001 0.262304
O O7 0.847113 0.829874 0.173481
O O8 0.265769 0.801661 0.030854
O O9 0.862325 0.667026 0.861917
O O10 0.179072 0.660831 0.824980
O O11 0.500000 0.283756 0.500000
O O12 0.750000 0.250000 0.500000
O O13 0.559282 0.331756 0.591493
O O14 0.904779 0.321086 0.353833
O O15 0.576841 0.904544 0.253629
O O16 0.961180 0.500000 0.298935
#
# Coordination Sequence:
#
# PCOD9221160 Si02
#       7
#     8   8   8   8   8   8   8
#     4   9  17  34  60  87 113 150 198 240 288 356
#     4  11  26  39  58  87 116 165 199 240 288 350
#     4  11  22  43  62  79 116 161 213 236 274 348
#     4  12  24  36  57  87 122 156 187 240 306 358
#     4  12  22  38  61  87 120 150 196 248 294 348
#     4   9  17  34  60  87 113 150 198 240 288 356
#     4  12  22  38  61  87 120 150 196 248 294 348
#
# _framework density 18.502178000000001
#
# number of rings (size 3 to 8) (size 9 to 14) (size 15 to 20)
#    0.000    1.143    4.286    4.286    2.000    2.286 
#    0.000    0.714    0.000    6.857    0.000    0.000 
#    0.000    0.000    0.000    0.000    0.000    0.000 
#
# Total GULP energy -156468.308471 kJ/mol
# GULP energy per Si atom -5588.153874 kJ/mol
# Density = 1.846007 g / cm^3
# Si number density = 18.502178 Si / 1000 Ang^3
#
#
#
# Elastic Constant Matrix: (Units=GPa)
#
#
# Indices 1 2 3 4 5 6 
#
# 1 52.2731 21.5306 -10.6459 0.0000 8.5839 0.0000
# 2 21.5306 133.4242 12.2853 0.0000 4.7363 0.0000
# 3 -10.6459 12.2853 34.4800 0.0000 5.4941 0.0000
# 4 0.0000 0.0000 0.0000 17.0833 0.0000 0.9536
# 5 8.5839 4.7363 5.4941 0.0000 22.8376 0.0000
# 6 0.0000 0.0000 0.0000 0.9536 0.0000 15.8806
#
#
#
# Elastic Compliance Matrix: (Units=1/GPa)
#
#
# Indices 1 2 3 4 5 6 
#
# 1 0.025195 -0.004703 0.011239 0.000000 -0.011199 0.000000
# 2 -0.004703 0.008648 -0.004710 0.000000 0.001107 0.000000
# 3 0.011239 -0.004710 0.036050 0.000000 -0.011920 0.000000
# 4 0.000000 0.000000 0.000000 0.058734 0.000000 -0.003527
# 5 -0.011199 0.001107 -0.011920 0.000000 0.050635 0.000000
# 6 0.000000 0.000000 0.000000 -0.003527 0.000000 0.063182
#
#
# Mechanical properties :
#
#
# Convention : Reuss Voigt Hill
#
# Bulk Modulus (GPa) = 13.59688 29.61303 21.60495
# Shear Modulus (GPa) = 18.98927 24.29411 21.64169
#
# Velocity S-wave (km/s) = 3.20711 3.62752 3.42377
# Velocity P-wave (km/s) = 4.59117 5.79527 5.22800
#
# Compressibility (1/GPa) = 0.07354630
#
# Stress axis : x y z
#
# Youngs Moduli (GPa) = 39.68979 115.63096 27.73919
#
# Poissons Ratio (x) = 0.54383 -0.31177
# Poissons Ratio (y) = 0.18667 0.13065
# Poissons Ratio (z) = -0.44609 0.54461
#
# Static dielectric constant tensor:
#      x y z
#    x 1.619410 0.000000 0.004850 
#    y 0.000000 1.666380 0.000000 
#    z 0.004850 0.000000 1.637740 
# 
# From -- ./inp_files/124269.got.cif
#   From: 2010.05.17/outbox.cif.g08.bks.cpg/sg12_63_cif.got.tgz:124269.got - 2010.06.03 13:09:07.
