data_PCOD9221971
_publ_section_title
;
Structure prediction by ZEFSAII (Michael W. Deem and Ramdas Pophale) SiO2 
 PCOD9221971
Probable space group: C 2/M
;
_chemical_formula_sum "Si O2"
_cell_formula_units_Z 40
_cell_length_a 9.877712
_cell_length_b 9.069773
_cell_length_c 21.786568
_cell_angle_alpha 90.000000
_cell_angle_beta 83.832153
_cell_angle_gamma 90.000000
_cell_volume 1940.529922
_symmetry_space_group_name_H-M "C 2/M"
_symmetry_group_IT_number 12
_symmetry_cell_setting 'monoclinic'
loop_
_space_group_symop_operation_xyz
x,y,z
-x,y,-z
-x,-y,-z
x,-y,z
1/2+x,1/2+y,z
1/2-x,1/2+y,-z
1/2-x,1/2-y,-z
1/2+x,1/2-y,z
loop_
_atom_site_type_symbol
_atom_site_label
_atom_site_fract_x
_atom_site_fract_y
_atom_site_fract_z
Si Si1 0.135379 0.174089 0.242186
Si Si2 0.615533 0.673930 0.830960
Si Si3 0.646081 0.169440 0.959948
Si Si4 0.769481 0.674096 0.564535
Si Si5 0.020538 0.325801 0.637940
O O1 0.278187 0.250100 0.220464
O O2 0.057683 0.250974 0.301956
O O3 0.036286 0.192412 0.188136
O O4 0.152102 0.000000 0.253074
O O5 0.644727 0.500000 0.832918
O O6 0.633364 0.748022 0.896003
O O7 0.688735 0.000000 0.947368
O O8 0.500000 0.169440 0.000000
O O9 0.750000 0.250000 0.000000
O O10 0.741817 0.500000 0.561167
O O11 0.750000 0.750000 0.500000
O O12 0.920935 0.691901 0.584078
O O13 0.662527 0.747772 0.616368
O O14 0.039386 0.500000 0.648045
#
# Coordination Sequence:
#
# PCOD9221971 Si02
#       5
#     8   8   8   8   8
#     4  11  24  41  63  91 122 159 202 247 299 357
#     4  11  24  41  62  90 123 158 200 249 298 354
#     4  11  24  41  63  91 122 159 202 247 299 357
#     4  11  24  41  62  90 122 158 202 249 300 358
#     4  11  24  41  62  90 123 158 200 249 299 356
#
# _framework density 20.612925000000001
#
# number of rings (size 3 to 8) (size 9 to 14) (size 15 to 20)
#    0.000    1.000    0.000    6.000    0.000   18.400 
#    0.000    0.000    0.000    0.000    0.000    0.000 
#    0.000    0.000    0.000    0.000    0.000    0.000 
#
# Total GULP energy -112008.250119 kJ/mol
# GULP energy per Si atom -5600.412506 kJ/mol
# Density = 2.056601 g / cm^3
# Si number density = 20.612925 Si / 1000 Ang^3
#
#
#
# Elastic Constant Matrix: (Units=GPa)
#
#
# Indices 1 2 3 4 5 6 
#
# 1 64.4412 37.7754 -13.4838 0.0000 -1.7391 0.0000
# 2 37.7754 124.4043 15.3175 0.0000 15.8397 0.0000
# 3 -13.4838 15.3175 66.2121 0.0000 6.4560 0.0000
# 4 0.0000 0.0000 0.0000 44.8670 0.0000 -2.9130
# 5 -1.7391 15.8397 6.4560 0.0000 36.8018 0.0000
# 6 0.0000 0.0000 0.0000 -2.9130 0.0000 34.3690
#
#
#
# Elastic Compliance Matrix: (Units=1/GPa)
#
#
# Indices 1 2 3 4 5 6 
#
# 1 0.021254 -0.007578 0.005764 0.000000 0.003255 0.000000
# 2 -0.007578 0.011385 -0.003728 0.000000 -0.004604 0.000000
# 3 0.005764 -0.003728 0.017251 0.000000 -0.001149 0.000000
# 4 0.000000 0.000000 0.000000 0.022411 0.000000 0.001900
# 5 0.003255 -0.004604 -0.001149 0.000000 0.029510 0.000000
# 6 0.000000 0.000000 0.000000 0.001900 0.000000 0.029257
#
#
# Mechanical properties :
#
#
# Convention : Reuss Voigt Hill
#
# Bulk Modulus (GPa) = 25.76908 37.14176 31.45542
# Shear Modulus (GPa) = 32.23992 37.57081 34.90537
#
# Velocity S-wave (km/s) = 3.95911 4.27392 4.11953
# Velocity P-wave (km/s) = 5.78170 6.51252 6.15796
#
# Compressibility (1/GPa) = 0.03880620
#
# Stress axis : x y z
#
# Youngs Moduli (GPa) = 47.04972 87.83814 57.96658
#
# Poissons Ratio (x) = 0.66563 -0.33412
# Poissons Ratio (y) = 0.35654 0.21610
# Poissons Ratio (z) = -0.27120 0.32746
#
# Static dielectric constant tensor:
#      x y z
#    x 1.710540 0.000000 0.015070 
#    y 0.000000 1.688580 0.000000 
#    z 0.015070 0.000000 1.713790 
# 
# From -- ./inp_files/331748.got.cif
#   From: 2010.05.17/outbox.cif.g08.bks.cpg/sg12_166_cif.got.tgz:331748.got - 2010.06.03 13:09:07.
