data_PCOD9221927
_publ_section_title
;
Structure prediction by ZEFSAII (Michael W. Deem and Ramdas Pophale) SiO2 
 PCOD9221927
Probable space group: C 2/M
;
_chemical_formula_sum "Si O2"
_cell_formula_units_Z 32
_cell_length_a 14.479690
_cell_length_b 9.110337
_cell_length_c 24.913194
_cell_angle_alpha 90.000000
_cell_angle_beta 30.053189
_cell_angle_gamma 90.000000
_cell_volume 1645.851608
_symmetry_space_group_name_H-M "C 2/M"
_symmetry_group_IT_number 12
_symmetry_cell_setting 'monoclinic'
loop_
_space_group_symop_operation_xyz
x,y,z
-x,y,-z
-x,-y,-z
x,-y,z
1/2+x,1/2+y,z
1/2-x,1/2+y,-z
1/2-x,1/2-y,-z
1/2+x,1/2-y,z
loop_
_atom_site_type_symbol
_atom_site_label
_atom_site_fract_x
_atom_site_fract_y
_atom_site_fract_z
Si Si1 0.560771 0.325739 0.111598
Si Si2 0.574959 0.825228 0.712410
Si Si3 0.674909 0.173597 0.266504
Si Si4 0.880792 0.824245 0.478957
O O1 0.587027 0.500000 0.100573
O O2 0.489214 0.265976 0.204546
O O3 0.391677 0.294307 0.155918
O O4 0.750000 0.250000 0.000000
O O5 0.432567 0.797081 0.734787
O O6 0.778472 0.790068 0.586369
O O7 0.570082 0.000000 0.726639
O O8 0.579074 0.262739 0.362956
O O9 0.651525 0.000000 0.289445
O O10 0.750000 0.750000 0.500000
O O11 0.878637 0.000000 0.474710
#
# Coordination Sequence:
#
# PCOD9221927 Si02
#       4
#     8   8   8   8
#     4  11  24  40  57  79 108 144 188 233 274 322
#     4   9  19  37  58  81 111 145 179 219 272 328
#     4   9  20  38  58  81 112 148 181 220 274 329
#     4   9  17  31  55  85 115 145 178 219 269 326
#
# _framework density 19.442820999999999
#
# number of rings (size 3 to 8) (size 9 to 14) (size 15 to 20)
#    0.000    2.500    0.000    3.000    0.000    9.000 
#    0.000   10.000    0.000    0.000    0.000    0.000 
#    0.000    0.000    0.000    0.000    0.000    0.000 
#
# Total GULP energy -89281.412578 kJ/mol
# GULP energy per Si atom -5580.088286 kJ/mol
# Density = 1.939857 g / cm^3
# Si number density = 19.442821 Si / 1000 Ang^3
#
#
#
# Elastic Constant Matrix: (Units=GPa)
#
#
# Indices 1 2 3 4 5 6 
#
# 1 40.2531 18.2677 15.4309 0.0001 -10.3998 0.0000
# 2 18.2677 35.4801 36.8644 0.0000 -8.8637 0.0000
# 3 15.4309 36.8644 100.5151 0.0001 -23.0498 0.0000
# 4 0.0001 0.0000 0.0001 43.4758 0.0000 2.3206
# 5 -10.3998 -8.8637 -23.0498 0.0000 30.0224 0.0000
# 6 0.0000 0.0000 0.0000 2.3206 0.0000 22.8421
#
#
#
# Elastic Compliance Matrix: (Units=1/GPa)
#
#
# Indices 1 2 3 4 5 6 
#
# 1 0.034638 -0.019714 0.004041 0.000000 0.009281 0.000000
# 2 -0.019714 0.056772 -0.018833 0.000000 -0.004527 0.000000
# 3 0.004041 -0.018833 0.018547 0.000000 0.010079 0.000000
# 4 0.000000 0.000000 0.000000 0.023127 0.000000 -0.002350
# 5 0.009281 -0.004527 0.010079 0.000000 0.042925 0.000000
# 6 0.000000 0.000000 0.000000 -0.002350 0.000000 0.044017
#
#
# Mechanical properties :
#
#
# Convention : Reuss Voigt Hill
#
# Bulk Modulus (GPa) = 24.42343 35.26382 29.84362
# Shear Modulus (GPa) = 16.51869 26.31376 21.41623
#
# Velocity S-wave (km/s) = 2.91796 3.68284 3.32248
# Velocity P-wave (km/s) = 4.89301 6.02171 5.48646
#
# Compressibility (1/GPa) = 0.04094430
#
# Stress axis : x y z
#
# Youngs Moduli (GPa) = 28.86981 17.61425 53.91770
#
# Poissons Ratio (x) = 0.34725 -0.21788
# Poissons Ratio (y) = 0.56915 1.01544
# Poissons Ratio (z) = -0.11666 0.33173
#
# Static dielectric constant tensor:
#      x y z
#    x 1.733130 0.000000 -0.043670 
#    y 0.000000 1.645640 0.000000 
#    z -0.043670 0.000000 1.687240 
# 
# From -- ./inp_files/138633.got.cif
#   From: 2010.05.17/outbox.cif.g08.bks.cpg/sg12_70_cif.got.tgz:138633.got - 2010.06.03 13:09:07.
