data_PCOD9221791
_publ_section_title
;
Structure prediction by ZEFSAII (Michael W. Deem and Ramdas Pophale) SiO2 
 PCOD9221791
Probable space group: C 2/M
;
_chemical_formula_sum "Si O2"
_cell_formula_units_Z 28
_cell_length_a 8.892420
_cell_length_b 20.338893
_cell_length_c 7.628750
_cell_angle_alpha 90.000000
_cell_angle_beta 111.847398
_cell_angle_gamma 90.000000
_cell_volume 1280.654765
_symmetry_space_group_name_H-M "C 2/M"
_symmetry_group_IT_number 12
_symmetry_cell_setting 'monoclinic'
loop_
_space_group_symop_operation_xyz
x,y,z
-x,y,-z
-x,-y,-z
x,-y,z
1/2+x,1/2+y,z
1/2-x,1/2+y,-z
1/2-x,1/2-y,-z
1/2+x,1/2-y,z
loop_
_atom_site_type_symbol
_atom_site_label
_atom_site_fract_x
_atom_site_fract_y
_atom_site_fract_z
Si Si1 0.110136 0.660094 0.354397
Si Si2 0.131622 0.780010 0.797820
Si Si3 0.834532 0.424548 0.272418
Si Si4 0.500000 0.618217 0.000000
O O1 0.257735 0.686397 0.302185
O O2 0.170216 0.623607 0.558250
O O3 0.990893 0.723204 0.314709
O O4 0.985445 0.604636 0.227392
O O5 0.025502 0.835244 0.844619
O O6 0.250000 0.750000 0.000000
O O7 0.859179 0.500000 0.332403
O O8 0.665926 0.419852 0.098895
#
# Coordination Sequence:
#
# PCOD9221791 Si02
#       4
#     8   8   8   4
#     4  11  23  43  71  98 140 170 228 276 340 407
#     4  12  22  42  69 107 133 169 219 292 352 393
#     4  11  26  47  67  97 138 187 229 270 324 408
#     4  12  25  44  70 100 143 170 230 282 342 396
#
# _framework density 21.863817000000001
#
# number of rings (size 3 to 8) (size 9 to 14) (size 15 to 20)
#    0.000    0.571    5.714    2.143    0.000   11.429 
#    0.000    8.571    0.000    0.000    0.000    0.000 
#    0.000    0.000    0.000    0.000    0.000    0.000 
#
# Total GULP energy -78168.130429 kJ/mol
# GULP energy per Si atom -5583.437888 kJ/mol
# Density = 2.181405 g / cm^3
# Si number density = 21.863817 Si / 1000 Ang^3
#
#
#
# Elastic Constant Matrix: (Units=GPa)
#
#
# Indices 1 2 3 4 5 6 
#
# 1 126.2056 74.2436 25.4615 0.0000 -5.8709 0.0000
# 2 74.2436 165.4883 54.0727 0.0000 -10.8598 0.0000
# 3 25.4615 54.0727 70.6498 0.0000 11.3384 0.0000
# 4 0.0000 0.0000 0.0000 -10.5871 0.0000 -2.7803
# 5 -5.8709 -10.8598 11.3384 0.0000 50.1457 0.0000
# 6 0.0000 0.0000 0.0000 -2.7803 0.0000 2.4913
#
#
#
# Elastic Compliance Matrix: (Units=1/GPa)
#
#
# Indices 1 2 3 4 5 6 
#
# 1 0.010772 -0.004703 -0.000334 0.000000 0.000318 0.000000
# 2 -0.004703 0.010659 -0.006999 0.000000 0.003340 0.000000
# 3 -0.000334 -0.006999 0.020630 0.000000 -0.006219 0.000000
# 4 0.000000 0.000000 0.000000 -0.073046 0.000000 -0.081521
# 5 0.000318 0.003340 -0.006219 0.000000 0.022109 0.000000
# 6 0.000000 0.000000 0.000000 -0.081521 0.000000 0.310420
#
#
# Mechanical properties :
#
#
# Convention : Reuss Voigt Hill
#
# Bulk Modulus (GPa) = 55.58933 74.43327 65.01130
# Shear Modulus (GPa) = 15.07792 22.31437 18.69615
#
# Velocity S-wave (km/s) = 2.62893 3.19816 2.92741
# Velocity P-wave (km/s) = 5.89029 6.91054 6.42071
#
# Compressibility (1/GPa) = 0.01798906
#
# Stress axis : x y z
#
# Youngs Moduli (GPa) = 92.83063 93.82065 48.47424
#
# Poissons Ratio (x) = 0.44122 0.01619
# Poissons Ratio (y) = 0.43657 0.33927
# Poissons Ratio (z) = 0.03100 0.65664
#
# Static dielectric constant tensor:
#      x y z
#    x 1.839030 0.000000 0.009600 
#    y 0.000000 1.802890 0.000000 
#    z 0.009600 0.000000 1.873450 
# 
# From -- ./inp_files/37305.got.cif
#   From: 2010.05.17/outbox.cif.g08.bks.cpg/sg12_19_cif.got.tgz:37305.got - 2010.06.03 13:09:07.
