data_PCOD9221741
_publ_section_title
;
Structure prediction by ZEFSAII (Michael W. Deem and Ramdas Pophale) SiO2 
 PCOD9221741
Probable space group: C 2/M
;
_chemical_formula_sum "Si O2"
_cell_formula_units_Z 56
_cell_length_a 20.261555
_cell_length_b 22.568930
_cell_length_c 16.874934
_cell_angle_alpha 90.000000
_cell_angle_beta 20.553342
_cell_angle_gamma 90.000000
_cell_volume 2709.137238
_symmetry_space_group_name_H-M "C 2/M"
_symmetry_group_IT_number 12
_symmetry_cell_setting 'monoclinic'
loop_
_space_group_symop_operation_xyz
x,y,z
-x,y,-z
-x,-y,-z
x,-y,z
1/2+x,1/2+y,z
1/2-x,1/2+y,-z
1/2-x,1/2-y,-z
1/2+x,1/2-y,z
loop_
_atom_site_type_symbol
_atom_site_label
_atom_site_fract_x
_atom_site_fract_y
_atom_site_fract_z
Si Si1 0.686501 0.433040 0.496003
Si Si2 0.304779 0.630576 0.678936
Si Si3 0.695619 0.181498 0.187841
Si Si4 0.059150 0.748667 0.765023
Si Si5 0.781277 0.930471 0.001929
Si Si6 0.571050 0.112758 0.087445
Si Si7 0.295662 0.231968 0.652196
O O1 0.670451 0.500000 0.483636
O O2 0.694812 0.390058 0.411545
O O3 0.506538 0.422747 0.752785
O O4 0.883282 0.423312 0.317570
O O5 0.500000 0.613665 0.500000
O O6 0.292274 0.701777 0.691799
O O7 0.144614 0.603738 0.915322
O O8 0.503171 0.216887 0.383984
O O9 0.722407 0.188728 0.252306
O O10 0.682984 0.114286 0.172922
O O11 0.883147 0.210355 0.939117
O O12 0.250000 0.750000 0.500000
O O13 0.135017 0.768071 0.766581
O O14 0.979700 0.682025 0.851087
O O15 0.737106 0.000000 0.060724
O O16 0.724219 0.907686 0.978556
#
# Coordination Sequence:
#
# PCOD9221741 Si02
#       7
#     8   8   8   8   8   8   8
#     4  11  25  41  61  90 130 177 222 265 320 391
#     4  12  21  39  62  91 135 172 211 260 326 394
#     4  11  24  42  67  93 129 176 211 266 332 383
#     4  12  24  37  66 101 132 165 210 264 335 392
#     4  11  26  46  64  91 130 171 227 278 316 378
#     4  12  23  39  66  92 127 175 214 264 321 392
#     4  11  23  43  63  98 137 164 208 271 325 397
#
# _framework density 20.670787000000001
#
# number of rings (size 3 to 8) (size 9 to 14) (size 15 to 20)
#    0.000    0.571    5.714    3.000    0.000    3.143 
#    0.000    1.429    0.000    1.714    0.000    0.000 
#    0.000    0.000    0.000    0.000    0.000    0.000 
#
# Total GULP energy -156507.357362 kJ/mol
# GULP energy per Si atom -5589.548477 kJ/mol
# Density = 2.062374 g / cm^3
# Si number density = 20.670787 Si / 1000 Ang^3
#
#
#
# Elastic Constant Matrix: (Units=GPa)
#
#
# Indices 1 2 3 4 5 6 
#
# 1 31.6465 16.0497 -0.7087 -0.0364 1.5618 -0.0173
# 2 16.0497 80.2031 21.8124 0.0191 12.7480 0.0259
# 3 -0.7087 21.8124 96.3331 -0.0164 -15.0311 0.0049
# 4 -0.0364 0.0191 -0.0164 7.8014 0.0096 -4.3795
# 5 1.5618 12.7480 -15.0311 0.0096 32.7793 0.0172
# 6 -0.0173 0.0259 0.0049 -4.3795 0.0172 17.6000
#
#
#
# Elastic Compliance Matrix: (Units=1/GPa)
#
#
# Indices 1 2 3 4 5 6 
#
# 1 0.035718 -0.008269 0.002554 0.000248 0.002685 0.000106
# 2 -0.008269 0.016909 -0.005228 -0.000109 -0.008579 -0.000050
# 3 0.002554 -0.005228 0.012797 0.000048 0.007780 0.000011
# 4 0.000248 -0.000109 0.000048 0.148996 -0.000011 0.037076
# 5 0.002685 -0.008579 0.007780 -0.000011 0.037283 -0.000026
# 6 0.000106 -0.000050 0.000011 0.037076 -0.000026 0.066044
#
#
# Mechanical properties :
#
#
# Convention : Reuss Voigt Hill
#
# Bulk Modulus (GPa) = 22.96871 31.38772 27.17821
# Shear Modulus (GPa) = 14.11851 23.03810 18.57831
#
# Velocity S-wave (km/s) = 2.61630 3.34207 3.00120
# Velocity P-wave (km/s) = 4.50139 5.48727 5.01860
#
# Compressibility (1/GPa) = 0.04353749
#
# Stress axis : x y z
#
# Youngs Moduli (GPa) = 27.99717 59.14141 78.14277
#
# Poissons Ratio (x) = 0.48905 -0.19959
# Poissons Ratio (y) = 0.23151 0.40853
# Poissons Ratio (z) = -0.07151 0.30919
#
# Static dielectric constant tensor:
#      x y z
#    x 1.748750 -0.000020 0.003400 
#    y -0.000020 1.731980 0.000020 
#    z 0.003400 0.000020 1.795940 
# 
# From -- ./inp_files/286007.got.cif
#   From: 2010.05.17/outbox.cif.g08.bks.cpg/sg12_144_cif.got.tgz:286007.got - 2010.06.03 13:09:07.
