data_PCOD9221577
_publ_section_title
;
Structure prediction by ZEFSAII (Michael W. Deem and Ramdas Pophale) SiO2 
 PCOD9221577
Probable space group: C 2/M
;
_chemical_formula_sum "Si O2"
_cell_formula_units_Z 40
_cell_length_a 9.107892
_cell_length_b 28.030281
_cell_length_c 15.088705
_cell_angle_alpha 90.000000
_cell_angle_beta 151.671860
_cell_angle_gamma 90.000000
_cell_volume 1827.899648
_symmetry_space_group_name_H-M "C 2/M"
_symmetry_group_IT_number 12
_symmetry_cell_setting 'monoclinic'
loop_
_space_group_symop_operation_xyz
x,y,z
-x,y,-z
-x,-y,-z
x,-y,z
1/2+x,1/2+y,z
1/2-x,1/2+y,-z
1/2-x,1/2-y,-z
1/2+x,1/2-y,z
loop_
_atom_site_type_symbol
_atom_site_label
_atom_site_fract_x
_atom_site_fract_y
_atom_site_fract_z
Si Si1 0.783801 0.688670 0.308408
Si Si2 0.596172 0.600949 0.957836
Si Si3 0.341274 0.732431 0.213868
Si Si4 0.695014 0.365248 0.692857
Si Si5 0.625672 0.553092 0.791533
O O1 0.607713 0.648211 0.162734
O O2 0.545747 0.721376 0.236997
O O3 0.960080 0.723388 0.335106
O O4 0.000000 0.667736 0.500000
O O5 0.520104 0.568208 0.833110
O O6 0.500000 0.578618 0.000000
O O7 0.954571 0.617677 0.142682
O O8 0.306492 0.683868 0.252368
O O9 0.000000 0.746229 0.000000
O O10 0.500000 0.359985 0.500000
O O11 0.553352 0.406326 0.681267
O O12 0.522682 0.500000 0.711643
O O13 0.000000 0.552577 0.000000
#
# Coordination Sequence:
#
# PCOD9221577 Si02
#       5
#     8   8   8   8   8
#     4  12  26  40  63  90 131 168 211 259 311 368
#     4  11  24  40  63  96 129 164 206 261 316 369
#     4  12  23  43  61  90 129 169 212 259 306 370
#     4  11  23  41  65  93 128 167 212 256 307 378
#     4   9  19  42  68  91 124 165 208 259 314 373
#
# _framework density 21.883040000000001
#
# number of rings (size 3 to 8) (size 9 to 14) (size 15 to 20)
#    0.000    1.000    4.000    3.000    5.600    0.800 
#    0.000    0.000    0.000    4.200    0.000    0.000 
#    0.000    0.000    0.000    0.000    0.000    0.000 
#
# Total GULP energy -111947.234584 kJ/mol
# GULP energy per Si atom -5597.361729 kJ/mol
# Density = 2.183323 g / cm^3
# Si number density = 21.883040 Si / 1000 Ang^3
#
#
#
# Elastic Constant Matrix: (Units=GPa)
#
#
# Indices 1 2 3 4 5 6 
#
# 1 101.7713 21.9223 -1.5438 0.0000 -16.9248 0.0000
# 2 21.9223 94.9117 3.8758 0.0000 -20.3850 0.0000
# 3 -1.5438 3.8758 64.0239 0.0000 -15.8828 0.0000
# 4 0.0000 0.0000 0.0000 6.6638 0.0000 -7.5813
# 5 -16.9248 -20.3850 -15.8828 0.0000 36.7808 0.0000
# 6 0.0000 0.0000 0.0000 -7.5813 0.0000 17.5518
#
#
#
# Elastic Compliance Matrix: (Units=1/GPa)
#
#
# Indices 1 2 3 4 5 6 
#
# 1 0.010996 -0.001557 0.001569 0.000000 0.004874 0.000000
# 2 -0.001557 0.012241 0.000814 0.000000 0.006420 0.000000
# 3 0.001569 0.000814 0.017806 0.000000 0.008862 0.000000
# 4 0.000000 0.000000 0.000000 0.295060 0.000000 0.127448
# 5 0.004874 0.006420 0.008862 0.000000 0.036816 0.000000
# 6 0.000000 0.000000 0.000000 0.127448 0.000000 0.112024
#
#
# Mechanical properties :
#
#
# Convention : Reuss Voigt Hill
#
# Bulk Modulus (GPa) = 23.42235 34.35728 28.88981
# Shear Modulus (GPa) = 10.04978 27.96278 19.00628
#
# Velocity S-wave (km/s) = 2.14534 3.57855 2.95030
# Velocity P-wave (km/s) = 4.10649 5.72793 4.98360
#
# Compressibility (1/GPa) = 0.04269426
#
# Stress axis : x y z
#
# Youngs Moduli (GPa) = 90.94465 81.69095 56.16031
#
# Poissons Ratio (x) = 0.12719 -0.08809
# Poissons Ratio (y) = 0.14159 -0.04571
# Poissons Ratio (z) = -0.14265 -0.06649
#
# Static dielectric constant tensor:
#      x y z
#    x 1.799790 0.000000 0.025070 
#    y 0.000000 1.758750 0.000000 
#    z 0.025070 0.000000 1.816790 
# 
# From -- ./inp_files/41422.got.cif
#   From: 2010.05.17/outbox.cif.g08.bks.cpg/sg12_21_cif.got.tgz:41422.got - 2010.06.03 13:09:07.
