data_PCOD9221713
_publ_section_title
;
Structure prediction by ZEFSAII (Michael W. Deem and Ramdas Pophale) SiO2 
 PCOD9221713
Probable space group: C 2/M
;
_chemical_formula_sum "Si O2"
_cell_formula_units_Z 40
_cell_length_a 12.025589
_cell_length_b 16.181172
_cell_length_c 8.254636
_cell_angle_alpha 90.000000
_cell_angle_beta 95.186419
_cell_angle_gamma 90.000000
_cell_volume 1599.677894
_symmetry_space_group_name_H-M "C 2/M"
_symmetry_group_IT_number 12
_symmetry_cell_setting 'monoclinic'
loop_
_space_group_symop_operation_xyz
x,y,z
-x,y,-z
-x,-y,-z
x,-y,z
1/2+x,1/2+y,z
1/2-x,1/2+y,-z
1/2-x,1/2-y,-z
1/2+x,1/2-y,z
loop_
_atom_site_type_symbol
_atom_site_label
_atom_site_fract_x
_atom_site_fract_y
_atom_site_fract_z
Si Si1 0.742334 0.843507 0.568490
Si Si2 0.051507 0.594868 0.739691
Si Si3 0.363590 0.596250 0.276520
Si Si4 0.854903 0.652658 0.903064
Si Si5 0.070034 0.161841 0.159393
O O1 0.750000 0.750000 0.500000
O O2 0.615999 0.855858 0.610441
O O3 0.798704 0.897659 0.436880
O O4 0.817112 0.865448 0.737098
O O5 0.068652 0.500000 0.703012
O O6 0.922392 0.610390 0.764345
O O7 0.106602 0.616942 0.920817
O O8 0.388435 0.500000 0.245740
O O9 0.274953 0.635632 0.138948
O O10 0.474601 0.651913 0.284221
O O11 0.894044 0.747030 0.894096
O O12 0.000000 0.122345 0.000000
#
# Coordination Sequence:
#
# PCOD9221713 Si02
#       5
#     8   8   8   8   8
#     4  12  26  45  72 104 146 189 238 293 364 430
#     4  11  23  42  70 104 142 184 238 298 357 424
#     4  12  27  47  72 106 148 189 238 300 362 423
#     4  11  23  44  74 103 141 187 241 293 358 427
#     4  12  26  46  76 103 142 189 245 289 356 430
#
# _framework density 25.005033999999998
#
# number of rings (size 3 to 8) (size 9 to 14) (size 15 to 20)
#    0.000    0.400    4.000    6.000    0.000    5.200 
#    0.000    2.000    0.000    0.000    0.000    0.000 
#    0.000    0.000    0.000    0.000    0.000    0.000 
#
# Total GULP energy -111857.880151 kJ/mol
# GULP energy per Si atom -5592.894008 kJ/mol
# Density = 2.494812 g / cm^3
# Si number density = 25.005034 Si / 1000 Ang^3
#
#
#
# Elastic Constant Matrix: (Units=GPa)
#
#
# Indices 1 2 3 4 5 6 
#
# 1 142.4119 18.2527 13.5640 0.0000 -11.1961 0.0000
# 2 18.2527 106.9356 5.9165 0.0000 -27.3828 0.0000
# 3 13.5640 5.9165 98.3291 0.0000 -5.2743 0.0000
# 4 0.0000 0.0000 0.0000 45.7861 0.0000 -7.1546
# 5 -11.1961 -27.3828 -5.2743 0.0000 57.0160 0.0000
# 6 0.0000 0.0000 0.0000 -7.1546 0.0000 25.0334
#
#
#
# Elastic Compliance Matrix: (Units=1/GPa)
#
#
# Indices 1 2 3 4 5 6 
#
# 1 0.007302 -0.000970 -0.000901 0.000000 0.000885 0.000000
# 2 -0.000970 0.010805 -0.000249 0.000000 0.004976 0.000000
# 3 -0.000901 -0.000249 0.010345 0.000000 0.000660 0.000000
# 4 0.000000 0.000000 0.000000 0.022862 0.000000 0.006534
# 5 0.000885 0.004976 0.000660 0.000000 0.020163 0.000000
# 6 0.000000 0.000000 0.000000 0.006534 0.000000 0.041814
#
#
# Mechanical properties :
#
#
# Convention : Reuss Voigt Hill
#
# Bulk Modulus (GPa) = 41.30586 47.01589 44.16088
# Shear Modulus (GPa) = 39.80836 46.22999 43.01918
#
# Velocity S-wave (km/s) = 3.99433 4.30446 4.15230
# Velocity P-wave (km/s) = 6.15043 6.59909 6.37870
#
# Compressibility (1/GPa) = 0.02420964
#
# Stress axis : x y z
#
# Youngs Moduli (GPa) = 136.95641 92.55068 96.66788
#
# Poissons Ratio (x) = 0.08977 0.08714
# Poissons Ratio (y) = 0.13284 0.02411
# Poissons Ratio (z) = 0.12345 0.02309
#
# Static dielectric constant tensor:
#      x y z
#    x 2.154260 0.000000 0.117790 
#    y 0.000000 1.942300 0.000000 
#    z 0.117790 0.000000 2.088890 
# 
# From -- ./inp_files/59118.got.cif
#   From: 2010.05.17/outbox.cif.g08.bks.cpg/sg12_30_cif.got.tgz:59118.got - 2010.06.03 13:09:07.
