data_PCOD9221442
_publ_section_title
;
Structure prediction by ZEFSAII (Michael W. Deem and Ramdas Pophale) SiO2 
 PCOD9221442
Probable space group: C 2/M
;
_chemical_formula_sum "Si O2"
_cell_formula_units_Z 58
_cell_length_a 9.505359
_cell_length_b 17.637450
_cell_length_c 20.737902
_cell_angle_alpha 90.000000
_cell_angle_beta 123.576595
_cell_angle_gamma 90.000000
_cell_volume 2896.615774
_symmetry_space_group_name_H-M "C 2/M"
_symmetry_group_IT_number 12
_symmetry_cell_setting 'monoclinic'
loop_
_space_group_symop_operation_xyz
x,y,z
-x,y,-z
-x,-y,-z
x,-y,z
1/2+x,1/2+y,z
1/2-x,1/2+y,-z
1/2-x,1/2-y,-z
1/2+x,1/2-y,z
loop_
_atom_site_type_symbol
_atom_site_label
_atom_site_fract_x
_atom_site_fract_y
_atom_site_fract_z
Si Si1 0.445549 0.915024 0.657615
Si Si2 0.559878 0.781890 0.446922
Si Si3 0.551757 0.822014 0.797484
Si Si4 0.691192 0.910743 0.064512
Si Si5 0.812696 0.824812 0.978989
Si Si6 0.689482 0.332092 0.774249
Si Si7 0.500000 0.500000 0.500000
Si Si8 0.075446 0.881648 0.616559
O O1 0.459060 0.847804 0.609806
O O2 0.552991 0.890424 0.746948
O O3 0.253018 0.913262 0.634775
O O4 0.482591 0.000000 0.644097
O O5 0.500000 0.812813 0.500000
O O6 0.750000 0.750000 0.500000
O O7 0.448514 0.707071 0.404381
O O8 0.685660 0.836028 0.887621
O O9 0.595985 0.745202 0.770261
O O10 0.365925 0.815415 0.781996
O O11 0.762722 0.872080 0.146689
O O12 0.684803 0.000000 0.073697
O O13 0.500000 0.884090 0.000000
O O14 0.799821 0.889996 0.029317
O O15 0.750000 0.750000 0.000000
O O16 0.000000 0.815344 0.000000
O O17 0.582447 0.382701 0.696200
O O18 0.452421 0.433137 0.542533
#
# Coordination Sequence:
#
# PCOD9221442 Si02
#       8
#     8   8   8   8   8   8   2   8
#     4  11  24  44  68  99 136 175 225 279 338 402
#     4  12  23  42  68 100 134 174 219 276 340 410
#     4  11  23  39  68  96 130 173 227 272 333 403
#     4  11  24  42  63  96 138 174 225 284 344 402
#     4  12  23  40  68  97 128 176 225 275 336 408
#     4  11  23  40  66  99 130 175 223 280 334 406
#     4  12  20  40  68 104 130 168 228 284 322 408
#     4  11  23  40  68 100 132 175 225 274 337 402
#
# _framework density 20.023365999999999
#
# number of rings (size 3 to 8) (size 9 to 14) (size 15 to 20)
#    0.000    0.690    6.897    1.241    0.966    1.655 
#    0.000    0.000    0.000    0.000    0.000    0.000 
#    0.000    0.000    0.000    0.000    0.000    0.000 
#
# Total GULP energy -161750.874267 kJ/mol
# GULP energy per Si atom -5577.616354 kJ/mol
# Density = 1.997779 g / cm^3
# Si number density = 20.023366 Si / 1000 Ang^3
#
#
#
# Elastic Constant Matrix: (Units=GPa)
#
#
# Indices 1 2 3 4 5 6 
#
# 1 85.4752 19.8734 25.0302 0.0000 -13.2380 0.0000
# 2 19.8734 131.7437 47.5981 0.0000 -14.6342 0.0000
# 3 25.0302 47.5981 136.4100 0.0000 -23.0212 0.0000
# 4 0.0000 0.0000 0.0000 86.9487 0.0000 23.1508
# 5 -13.2380 -14.6342 -23.0212 0.0000 29.3823 0.0000
# 6 0.0000 0.0000 0.0000 23.1508 0.0000 39.0606
#
#
#
# Elastic Compliance Matrix: (Units=1/GPa)
#
#
# Indices 1 2 3 4 5 6 
#
# 1 0.012985 -0.001008 -0.001300 0.000000 0.004329 0.000000
# 2 -0.001008 0.008895 -0.002590 0.000000 0.001946 0.000000
# 3 -0.001300 -0.002590 0.009400 0.000000 0.005489 0.000000
# 4 0.000000 0.000000 0.000000 0.013656 0.000000 -0.008094
# 5 0.004329 0.001946 0.005489 0.000000 0.041255 0.000000
# 6 0.000000 0.000000 0.000000 -0.008094 0.000000 0.030398
#
#
# Mechanical properties :
#
#
# Convention : Reuss Voigt Hill
#
# Bulk Modulus (GPa) = 46.55031 59.84804 53.19917
# Shear Modulus (GPa) = 37.44032 48.48678 42.96355
#
# Velocity S-wave (km/s) = 4.32885 4.92622 4.63716
# Velocity P-wave (km/s) = 6.94865 7.89372 7.43621
#
# Compressibility (1/GPa) = 0.02148213
#
# Stress axis : x y z
#
# Youngs Moduli (GPa) = 77.01216 112.42794 106.38848
#
# Poissons Ratio (x) = 0.11334 0.13833
# Poissons Ratio (y) = 0.07764 0.27556
# Poissons Ratio (z) = 0.10013 0.29120
#
# Static dielectric constant tensor:
#      x y z
#    x 1.709160 0.000000 0.031830 
#    y 0.000000 1.705540 0.000000 
#    z 0.031830 0.000000 1.747150 
# 
# From -- ./inp_files/301153.got.cif
#   From: 2010.05.17/outbox.cif.g08.bks.cpg/sg12_151_cif.got.tgz:301153.got - 2010.06.03 13:09:07.
