data_PCOD9221216
_publ_section_title
;
Structure prediction by ZEFSAII (Michael W. Deem and Ramdas Pophale) SiO2 
 PCOD9221216
Probable space group: C 2/M
;
_chemical_formula_sum "Si O2"
_cell_formula_units_Z 38
_cell_length_a 8.947482
_cell_length_b 25.162157
_cell_length_c 8.535755
_cell_angle_alpha 90.000000
_cell_angle_beta 116.110903
_cell_angle_gamma 90.000000
_cell_volume 1725.598755
_symmetry_space_group_name_H-M "C 2/M"
_symmetry_group_IT_number 12
_symmetry_cell_setting 'monoclinic'
loop_
_space_group_symop_operation_xyz
x,y,z
-x,y,-z
-x,-y,-z
x,-y,z
1/2+x,1/2+y,z
1/2-x,1/2+y,-z
1/2-x,1/2-y,-z
1/2+x,1/2-y,z
loop_
_atom_site_type_symbol
_atom_site_label
_atom_site_fract_x
_atom_site_fract_y
_atom_site_fract_z
Si Si1 0.087344 0.732297 0.828987
Si Si2 0.248650 0.418021 0.536211
Si Si3 0.000000 0.000000 0.500000
Si Si4 0.500000 0.142569 0.000000
Si Si5 0.708016 0.299317 0.372235
Si Si6 0.903943 0.439121 0.196279
O O1 0.159522 0.705506 0.706549
O O2 0.978615 0.785277 0.765724
O O3 0.250000 0.750000 0.000000
O O4 0.968974 0.687010 0.851503
O O5 0.398816 0.453946 0.551124
O O6 0.282404 0.355665 0.542098
O O7 0.091185 0.432017 0.351973
O O8 0.205399 0.428850 0.699233
O O9 0.381392 0.101827 0.041284
O O10 0.750000 0.250000 0.500000
O O11 0.881677 0.500000 0.133340
#
# Coordination Sequence:
#
# PCOD9221216 Si02
#       6
#     8   8   2   4   8   8
#     4  12  25  45  65 101 143 185 226 276 359 423
#     4  11  24  42  71  96 140 173 235 299 351 408
#     4  12  24  42  64 102 128 178 220 296 364 386
#     4  12  23  40  72  92 140 175 232 278 340 426
#     4  12  26  43  69 106 137 182 238 293 348 424
#     4  11  22  45  68  99 128 186 236 284 344 424
#
# _framework density 22.021341
#
# number of rings (size 3 to 8) (size 9 to 14) (size 15 to 20)
#    0.000    0.421    6.316    2.842    5.895    0.000 
#    0.000    0.000    0.000    1.263    0.000    0.000 
#    0.000    0.000    0.000    0.000    0.000    0.000 
#
# Total GULP energy -105803.113791 kJ/mol
# GULP energy per Si atom -5568.584936 kJ/mol
# Density = 2.197122 g / cm^3
# Si number density = 22.021341 Si / 1000 Ang^3
#
#
#
# Elastic Constant Matrix: (Units=GPa)
#
#
# Indices 1 2 3 4 5 6 
#
# 1 90.7118 42.6796 43.5258 0.0000 -28.3731 0.0000
# 2 42.6796 201.5401 32.9350 0.0000 -21.3283 0.0000
# 3 43.5258 32.9350 62.4288 0.0000 -19.3881 0.0000
# 4 0.0000 0.0000 0.0000 47.3571 0.0000 -13.4586
# 5 -28.3731 -21.3283 -19.3881 0.0000 30.9182 0.0000
# 6 0.0000 0.0000 0.0000 -13.4586 0.0000 44.9504
#
#
#
# Elastic Compliance Matrix: (Units=1/GPa)
#
#
# Indices 1 2 3 4 5 6 
#
# 1 0.019785 -0.001446 -0.009565 0.000000 0.011161 0.000000
# 2 -0.001446 0.005685 -0.001472 0.000000 0.001672 0.000000
# 3 -0.009565 -0.001472 0.025362 0.000000 0.006110 0.000000
# 4 0.000000 0.000000 0.000000 0.023080 0.000000 0.006910
# 5 0.011161 0.001672 0.006110 0.000000 0.047570 0.000000
# 6 0.000000 0.000000 0.000000 0.006910 0.000000 0.024316
#
#
# Mechanical properties :
#
#
# Convention : Reuss Voigt Hill
#
# Bulk Modulus (GPa) = 38.66158 65.88459 52.27309
# Shear Modulus (GPa) = 27.87293 40.34782 34.11038
#
# Velocity S-wave (km/s) = 3.56156 4.28508 3.93996
# Velocity P-wave (km/s) = 5.87431 7.38011 6.66984
#
# Compressibility (1/GPa) = 0.02586547
#
# Stress axis : x y z
#
# Youngs Moduli (GPa) = 50.54459 175.88702 39.42983
#
# Poissons Ratio (x) = 0.25425 0.37716
# Poissons Ratio (y) = 0.07306 0.05805
# Poissons Ratio (z) = 0.48347 0.25895
#
# Static dielectric constant tensor:
#      x y z
#    x 1.734400 0.000000 -0.000190 
#    y 0.000000 1.934270 0.000000 
#    z -0.000190 0.000000 1.905690 
# 
# From -- ./inp_files/39466.got.cif
#   From: 2010.05.17/outbox.cif.g08.bks.cpg/sg12_20_cif.got.tgz:39466.got - 2010.06.03 13:09:07.
