data_PCOD9221960
_publ_section_title
;
Structure prediction by ZEFSAII (Michael W. Deem and Ramdas Pophale) SiO2 
 PCOD9221960
Probable space group: C 2/M
;
_chemical_formula_sum "Si O2"
_cell_formula_units_Z 40
_cell_length_a 17.931768
_cell_length_b 25.542529
_cell_length_c 9.372850
_cell_angle_alpha 90.000000
_cell_angle_beta 29.658388
_cell_angle_gamma 90.000000
_cell_volume 2124.284395
_symmetry_space_group_name_H-M "C 2/M"
_symmetry_group_IT_number 12
_symmetry_cell_setting 'monoclinic'
loop_
_space_group_symop_operation_xyz
x,y,z
-x,y,-z
-x,-y,-z
x,-y,z
1/2+x,1/2+y,z
1/2-x,1/2+y,-z
1/2-x,1/2-y,-z
1/2+x,1/2-y,z
loop_
_atom_site_type_symbol
_atom_site_label
_atom_site_fract_x
_atom_site_fract_y
_atom_site_fract_z
Si Si1 0.129931 0.592497 0.902642
Si Si2 0.752449 0.302332 0.156041
Si Si3 0.424168 0.302206 0.837573
Si Si4 0.592680 0.500000 0.202747
Si Si5 0.916499 0.500000 0.793403
Si Si6 0.530225 0.410088 0.786573
O O1 0.161708 0.647594 0.926470
O O2 0.293928 0.582923 0.553411
O O3 0.077622 0.549929 0.108320
O O4 0.000000 0.595270 0.000000
O O5 0.590280 0.291959 0.497625
O O6 0.698938 0.314173 0.082311
O O7 0.856438 0.251761 0.008555
O O8 0.459522 0.352272 0.877019
O O9 0.500000 0.500000 0.500000
O O10 0.558393 0.449371 0.167337
O O11 0.753873 0.500000 0.998764
O O12 0.000000 0.500000 0.500000
O O13 0.500000 0.423994 0.000000
#
# Coordination Sequence:
#
# PCOD9221960 Si02
#       6
#     8   8   8   4   4   8
#     4  11  24  43  62  91 133 163 199 257 315 363
#     4   9  19  38  62  90 120 165 202 256 302 359
#     4   9  19  37  62  90 123 157 211 250 301 361
#     4  12  23  44  70  88 119 162 210 256 306 364
#     4  12  27  44  66  94 121 162 208 257 308 372
#     4  11  24  40  66  94 124 165 207 253 307 370
#
# _framework density 18.82987
#
# number of rings (size 3 to 8) (size 9 to 14) (size 15 to 20)
#    0.000    1.600    2.000    1.800    5.600    2.400 
#    7.200    4.000    0.000    0.000    0.000    0.000 
#    0.000    0.000    0.000    0.000    0.000    0.000 
#
# Total GULP energy -111371.784415 kJ/mol
# GULP energy per Si atom -5568.589221 kJ/mol
# Density = 1.878701 g / cm^3
# Si number density = 18.829870 Si / 1000 Ang^3
#
#
#
# Elastic Constant Matrix: (Units=GPa)
#
#
# Indices 1 2 3 4 5 6 
#
# 1 125.3312 73.6737 51.9012 0.0001 -1.9627 -0.0004
# 2 73.6737 127.1543 50.5040 0.0001 4.2490 -0.0006
# 3 51.9012 50.5040 72.3864 -0.0004 12.3450 0.0018
# 4 0.0001 0.0001 -0.0004 28.8528 0.0002 1.4038
# 5 -1.9627 4.2490 12.3450 0.0002 39.4779 -0.0008
# 6 -0.0004 -0.0006 0.0018 1.4038 -0.0008 49.7463
#
#
#
# Elastic Compliance Matrix: (Units=1/GPa)
#
#
# Indices 1 2 3 4 5 6 
#
# 1 0.014154 -0.005605 -0.006824 0.000000 0.003441 0.000000
# 2 -0.005605 0.013160 -0.005148 0.000000 -0.000085 0.000000
# 3 -0.006824 -0.005148 0.023517 0.000000 -0.007139 -0.000001
# 4 0.000000 0.000000 0.000000 0.034706 0.000000 -0.000979
# 5 0.003441 -0.000085 -0.007139 0.000000 0.027743 0.000001
# 6 0.000000 0.000000 -0.000001 -0.000979 0.000001 0.020130
#
#
# Mechanical properties :
#
#
# Convention : Reuss Voigt Hill
#
# Bulk Modulus (GPa) = 63.79424 75.22552 69.50988
# Shear Modulus (GPa) = 28.77034 33.53493 31.15263
#
# Velocity S-wave (km/s) = 3.91309 4.22470 4.07188
# Velocity P-wave (km/s) = 7.37355 7.98964 7.68777
#
# Compressibility (1/GPa) = 0.01567540
#
# Stress axis : x y z
#
# Youngs Moduli (GPa) = 70.65306 75.98952 42.52218
#
# Poissons Ratio (x) = 0.42593 0.29018
# Poissons Ratio (y) = 0.39602 0.21891
# Poissons Ratio (z) = 0.48216 0.39120
#
# Static dielectric constant tensor:
#      x y z
#    x 1.637170 0.000000 0.044730 
#    y 0.000000 1.661480 0.000000 
#    z 0.044730 0.000000 1.672350 
# 
# From -- ./inp_files/79773.got.cif
#   From: 2010.05.17/outbox.cif.g08.bks.cpg/sg12_40_cif.got.tgz:79773.got - 2010.06.03 13:09:07.
