data_PCOD9221076
_publ_section_title
;
Structure prediction by ZEFSAII (Michael W. Deem and Ramdas Pophale) SiO2 
 PCOD9221076
Probable space group: C 2/M
;
_chemical_formula_sum "Si O2"
_cell_formula_units_Z 44
_cell_length_a 21.670486
_cell_length_b 18.335955
_cell_length_c 5.293402
_cell_angle_alpha 90.000000
_cell_angle_beta 85.043662
_cell_angle_gamma 90.000000
_cell_volume 2095.463577
_symmetry_space_group_name_H-M "C 2/M"
_symmetry_group_IT_number 12
_symmetry_cell_setting 'monoclinic'
loop_
_space_group_symop_operation_xyz
x,y,z
-x,y,-z
-x,-y,-z
x,-y,z
1/2+x,1/2+y,z
1/2-x,1/2+y,-z
1/2-x,1/2-y,-z
1/2+x,1/2-y,z
loop_
_atom_site_type_symbol
_atom_site_label
_atom_site_fract_x
_atom_site_fract_y
_atom_site_fract_z
Si Si1 0.361543 0.167657 0.638592
Si Si2 0.709977 0.301464 0.197495
Si Si3 0.569384 0.795777 0.869126
Si Si4 0.873950 0.139291 0.177073
Si Si5 0.751623 0.584887 0.517791
Si Si6 0.458021 0.500000 0.261223
O O1 0.319699 0.240926 0.606166
O O2 0.411580 0.162593 0.395185
O O3 0.313941 0.100876 0.647490
O O4 0.389771 0.179413 0.905152
O O5 0.755788 0.364914 0.269597
O O6 0.750000 0.250000 0.000000
O O7 0.651738 0.345213 0.097215
O O8 0.586108 0.711999 0.793812
O O9 0.500000 0.801437 0.000000
O O10 0.808596 0.121955 0.335232
O O11 0.915601 0.071328 0.242658
O O12 0.741396 0.500000 0.478604
O O13 0.500000 0.500000 0.500000
O O14 0.500000 0.500000 0.000000
#
# Coordination Sequence:
#
# PCOD9221076 Si02
#       6
#     8   8   8   8   8   4
#     4  11  23  42  68 100 137 176 229 291 352 411
#     4  11  22  41  67  99 141 181 226 294 361 414
#     4  11  24  43  69  97 131 183 239 289 334 412
#     4  11  24  40  66  97 136 183 231 285 347 410
#     4  12  24  40  68 104 143 176 225 290 370 423
#     4  12  30  46  62  92 148 202 239 271 327 419
#
# _framework density 20.99774
#
# number of rings (size 3 to 8) (size 9 to 14) (size 15 to 20)
#    0.000    0.727    4.545    3.818    3.818    1.455 
#    0.000    0.000    0.000    3.273    0.000    0.000 
#    0.000    0.000    0.000    0.000    0.000    0.000 
#
# Total GULP energy -122685.794076 kJ/mol
# GULP energy per Si atom -5576.627003 kJ/mol
# Density = 2.094995 g / cm^3
# Si number density = 20.997740 Si / 1000 Ang^3
#
#
#
# Elastic Constant Matrix: (Units=GPa)
#
#
# Indices 1 2 3 4 5 6 
#
# 1 103.8003 21.7913 30.2204 0.0000 -17.4390 0.0000
# 2 21.7913 66.3203 23.8039 0.0000 7.2435 0.0000
# 3 30.2204 23.8039 88.4593 0.0000 -22.0862 0.0000
# 4 0.0000 0.0000 0.0000 19.2041 0.0000 1.9874
# 5 -17.4390 7.2435 -22.0862 0.0000 47.2554 0.0000
# 6 0.0000 0.0000 0.0000 1.9874 0.0000 38.9071
#
#
#
# Elastic Compliance Matrix: (Units=1/GPa)
#
#
# Indices 1 2 3 4 5 6 
#
# 1 0.011617 -0.003498 -0.002064 0.000000 0.003859 0.000000
# 2 -0.003498 0.018991 -0.005620 0.000000 -0.006829 0.000000
# 3 -0.002064 -0.005620 0.015337 0.000000 0.007268 0.000000
# 4 0.000000 0.000000 0.000000 0.052349 0.000000 -0.002674
# 5 0.003859 -0.006829 0.007268 0.000000 0.027029 0.000000
# 6 0.000000 0.000000 0.000000 -0.002674 0.000000 0.025839
#
#
# Mechanical properties :
#
#
# Convention : Reuss Voigt Hill
#
# Bulk Modulus (GPa) = 42.40807 45.57902 43.99354
# Shear Modulus (GPa) = 27.56545 33.25761 30.41153
#
# Velocity S-wave (km/s) = 3.62716 3.98410 3.80981
# Velocity P-wave (km/s) = 6.14671 6.55117 6.35216
#
# Compressibility (1/GPa) = 0.02358042
#
# Stress axis : x y z
#
# Youngs Moduli (GPa) = 86.07754 52.65745 65.20249
#
# Poissons Ratio (x) = 0.18418 0.13459
# Poissons Ratio (y) = 0.30108 0.36646
# Poissons Ratio (z) = 0.17769 0.29595
#
# Static dielectric constant tensor:
#      x y z
#    x 1.778120 0.000000 0.038760 
#    y 0.000000 1.656650 0.000000 
#    z 0.038760 0.000000 1.930070 
# 
# From -- ./inp_files/20429.got.cif
#   From: 2010.05.17/outbox.cif.g08.bks.cpg/sg12_11_cif.got.tgz:20429.got - 2010.06.03 13:09:07.
