data_PCOD9221807
_publ_section_title
;
Structure prediction by ZEFSAII (Michael W. Deem and Ramdas Pophale) SiO2 
 PCOD9221807
Probable space group: C 2/M
;
_chemical_formula_sum "Si O2"
_cell_formula_units_Z 24
_cell_length_a 25.939579
_cell_length_b 10.527451
_cell_length_c 10.165193
_cell_angle_alpha 90.000000
_cell_angle_beta 20.220309
_cell_angle_gamma 90.000000
_cell_volume 959.432135
_symmetry_space_group_name_H-M "C 2/M"
_symmetry_group_IT_number 12
_symmetry_cell_setting 'monoclinic'
loop_
_space_group_symop_operation_xyz
x,y,z
-x,y,-z
-x,-y,-z
x,-y,z
1/2+x,1/2+y,z
1/2-x,1/2+y,-z
1/2-x,1/2-y,-z
1/2+x,1/2-y,z
loop_
_atom_site_type_symbol
_atom_site_label
_atom_site_fract_x
_atom_site_fract_y
_atom_site_fract_z
Si Si1 0.123019 0.145667 0.316066
Si Si2 0.664304 0.000000 0.479062
Si Si3 0.633266 0.278422 0.574916
Si Si4 0.835639 0.500000 0.204670
O O1 0.066457 0.161577 0.601716
O O2 0.000000 0.166750 0.500000
O O3 0.177484 0.000000 0.170197
O O4 0.250000 0.250000 0.000000
O O5 0.713287 0.145853 0.345207
O O6 0.663366 0.000000 0.640577
O O7 0.511723 0.000000 0.758094
O O8 0.750763 0.377523 0.352819
O O9 0.500000 0.257042 0.000000
#
# Coordination Sequence:
#
# PCOD9221807 Si02
#       4
#     8   4   8   4
#     4  11  29  52  74 108 149 196 245 298 370 441
#     4  11  26  40  66 113 144 185 237 292 369 420
#     4  12  25  47  75 108 144 187 243 302 356 425
#     4  11  23  44  66 106 151 181 235 298 365 420
#
# _framework density 25.014794999999999
#
# number of rings (size 3 to 8) (size 9 to 14) (size 15 to 20)
#    0.000    0.667    5.000    1.500    7.000    0.667 
#    0.000    0.000    0.000    0.000    0.000    0.000 
#    0.000    0.000    0.000    0.000    0.000    0.000 
#
# Total GULP energy -67128.678416 kJ/mol
# GULP energy per Si atom -5594.056535 kJ/mol
# Density = 2.495786 g / cm^3
# Si number density = 25.014795 Si / 1000 Ang^3
#
#
#
# Elastic Constant Matrix: (Units=GPa)
#
#
# Indices 1 2 3 4 5 6 
#
# 1 187.0162 77.0222 71.3619 0.0000 -24.7731 0.0000
# 2 77.0222 270.7884 82.6944 0.0000 -34.2354 0.0000
# 3 71.3619 82.6944 112.2476 0.0000 -11.9034 0.0000
# 4 0.0000 0.0000 0.0000 36.0927 0.0000 -9.8624
# 5 -24.7731 -34.2354 -11.9034 0.0000 38.8430 0.0000
# 6 0.0000 0.0000 0.0000 -9.8624 0.0000 37.3725
#
#
#
# Elastic Compliance Matrix: (Units=1/GPa)
#
#
# Indices 1 2 3 4 5 6 
#
# 1 0.007523 -0.000500 -0.004086 0.000000 0.003106 0.000000
# 2 -0.000500 0.005225 -0.003181 0.000000 0.003312 0.000000
# 3 -0.004086 -0.003181 0.013722 0.000000 -0.001204 0.000000
# 4 0.000000 0.000000 0.000000 0.029860 0.000000 0.007880
# 5 0.003106 0.003312 -0.001204 0.000000 0.030276 0.000000
# 6 0.000000 0.000000 0.000000 0.007880 0.000000 0.028837
#
#
# Mechanical properties :
#
#
# Convention : Reuss Voigt Hill
#
# Bulk Modulus (GPa) = 91.41815 114.68993 103.05404
# Shear Modulus (GPa) = 37.14160 45.05988 41.10074
#
# Velocity S-wave (km/s) = 3.85747 4.24881 4.05786
# Velocity P-wave (km/s) = 7.51433 8.36769 7.95246
#
# Compressibility (1/GPa) = 0.01093875
#
# Stress axis : x y z
#
# Youngs Moduli (GPa) = 132.92111 191.38680 72.87697
#
# Poissons Ratio (x) = 0.09561 0.29774
# Poissons Ratio (y) = 0.06640 0.23179
# Poissons Ratio (z) = 0.54306 0.60871
#
# Static dielectric constant tensor:
#      x y z
#    x 1.966470 0.000000 0.121590 
#    y 0.000000 1.965940 0.000000 
#    z 0.121590 0.000000 2.040580 
# 
# From -- ./inp_files/116805.got.cif
#   From: 2010.05.17/outbox.cif.g08.bks.cpg/sg12_59_cif.got.tgz:116805.got - 2010.06.03 13:09:07.
