data_PCOD9221010
_publ_section_title
;
Structure prediction by ZEFSAII (Michael W. Deem and Ramdas Pophale) SiO2 
 PCOD9221010
Probable space group: C 2/M
;
_chemical_formula_sum "Si O2"
_cell_formula_units_Z 40
_cell_length_a 19.647646
_cell_length_b 8.563594
_cell_length_c 12.227860
_cell_angle_alpha 90.000000
_cell_angle_beta 104.601347
_cell_angle_gamma 90.000000
_cell_volume 1990.944935
_symmetry_space_group_name_H-M "C 2/M"
_symmetry_group_IT_number 12
_symmetry_cell_setting 'monoclinic'
loop_
_space_group_symop_operation_xyz
x,y,z
-x,y,-z
-x,-y,-z
x,-y,z
1/2+x,1/2+y,z
1/2-x,1/2+y,-z
1/2-x,1/2-y,-z
1/2+x,1/2-y,z
loop_
_atom_site_type_symbol
_atom_site_label
_atom_site_fract_x
_atom_site_fract_y
_atom_site_fract_z
Si Si1 0.044365 0.811831 0.344144
Si Si2 0.171745 0.812840 0.968643
Si Si3 0.064332 0.810170 0.102150
Si Si4 0.179368 0.687065 0.528056
Si Si5 0.390766 0.812838 0.281132
O O1 0.056432 0.759578 0.223224
O O2 0.109750 0.748382 0.439021
O O3 0.967583 0.749869 0.346347
O O4 0.043634 0.000000 0.349180
O O5 0.129908 0.753739 0.845386
O O6 0.171308 0.000000 0.965512
O O7 0.250000 0.750000 0.000000
O O8 0.133689 0.762162 0.065203
O O9 0.062731 0.000000 0.104226
O O10 0.000000 0.758490 0.000000
O O11 0.181221 0.500000 0.523276
O O12 0.250000 0.750000 0.500000
O O13 0.166924 0.731483 0.650274
O O14 0.393490 0.000000 0.276535
#
# Coordination Sequence:
#
# PCOD9221010 Si02
#       5
#     8   8   8   8   8
#     4  11  22  40  68  95 123 164 208 254 310 374
#     4  11  23  40  63  92 128 166 206 255 311 369
#     4   9  18  37  62  90 124 160 198 246 305 362
#     4  11  26  45  64  90 125 163 207 262 318 370
#     4  11  24  43  64  90 126 166 208 258 313 368
#
# _framework density 20.090962000000001
#
# number of rings (size 3 to 8) (size 9 to 14) (size 15 to 20)
#    0.000    1.400    2.000    3.000    2.800    5.600 
#    0.000    4.000    0.000    0.000    0.000    0.000 
#    0.000    0.000    0.000    0.000    0.000    0.000 
#
# Total GULP energy -111788.578147 kJ/mol
# GULP energy per Si atom -5589.428907 kJ/mol
# Density = 2.004523 g / cm^3
# Si number density = 20.090962 Si / 1000 Ang^3
#
#
#
# Elastic Constant Matrix: (Units=GPa)
#
#
# Indices 1 2 3 4 5 6 
#
# 1 139.5146 29.5621 19.9350 0.0000 -20.4035 0.0000
# 2 29.5621 50.8779 18.2094 0.0000 -10.8231 0.0000
# 3 19.9350 18.2094 66.9826 0.0000 -17.7361 0.0000
# 4 0.0000 0.0000 0.0000 30.3570 0.0000 4.1264
# 5 -20.4035 -10.8231 -17.7361 0.0000 42.1170 0.0000
# 6 0.0000 0.0000 0.0000 4.1264 0.0000 37.9614
#
#
#
# Elastic Compliance Matrix: (Units=1/GPa)
#
#
# Indices 1 2 3 4 5 6 
#
# 1 0.008548 -0.004129 -0.000682 0.000000 0.002793 0.000000
# 2 -0.004129 0.024234 -0.004772 0.000000 0.002218 0.000000
# 3 -0.000682 -0.004772 0.018028 0.000000 0.006035 0.000000
# 4 0.000000 0.000000 0.000000 0.033435 0.000000 -0.003634
# 5 0.002793 0.002218 0.006035 0.000000 0.028208 0.000000
# 6 0.000000 0.000000 0.000000 -0.003634 0.000000 0.026738
#
#
# Mechanical properties :
#
#
# Convention : Reuss Voigt Hill
#
# Bulk Modulus (GPa) = 31.60172 43.64310 37.62241
# Shear Modulus (GPa) = 29.60265 34.73168 32.16717
#
# Velocity S-wave (km/s) = 3.84269 4.16230 4.00569
# Velocity P-wave (km/s) = 5.95415 6.69848 6.33725
#
# Compressibility (1/GPa) = 0.03164385
#
# Stress axis : x y z
#
# Youngs Moduli (GPa) = 116.97969 41.26513 55.47075
#
# Poissons Ratio (x) = 0.17037 0.03784
# Poissons Ratio (y) = 0.48297 0.26470
# Poissons Ratio (z) = 0.07980 0.19691
#
# Static dielectric constant tensor:
#      x y z
#    x 1.714380 0.000000 -0.055350 
#    y 0.000000 1.683610 0.000000 
#    z -0.055350 0.000000 1.747000 
# 
# From -- ./inp_files/151950.got.cif
#   From: 2010.05.17/outbox.cif.g08.bks.cpg/sg12_76_cif.got.tgz:151950.got - 2010.06.03 13:09:07.
