data_PCOD9221256
_publ_section_title
;
Structure prediction by ZEFSAII (Michael W. Deem and Ramdas Pophale) SiO2 
 PCOD9221256
Probable space group: C 2/M
;
_chemical_formula_sum "Si O2"
_cell_formula_units_Z 40
_cell_length_a 13.911676
_cell_length_b 17.864614
_cell_length_c 7.140848
_cell_angle_alpha 90.000000
_cell_angle_beta 91.991447
_cell_angle_gamma 90.000000
_cell_volume 1773.619676
_symmetry_space_group_name_H-M "C 2/M"
_symmetry_group_IT_number 12
_symmetry_cell_setting 'monoclinic'
loop_
_space_group_symop_operation_xyz
x,y,z
-x,y,-z
-x,-y,-z
x,-y,z
1/2+x,1/2+y,z
1/2-x,1/2+y,-z
1/2-x,1/2-y,-z
1/2+x,1/2-y,z
loop_
_atom_site_type_symbol
_atom_site_label
_atom_site_fract_x
_atom_site_fract_y
_atom_site_fract_z
Si Si1 0.401361 0.134681 0.437563
Si Si2 0.381940 0.740795 0.164595
Si Si3 0.841752 0.756078 0.739026
Si Si4 0.301135 0.417162 0.716480
Si Si5 0.400654 0.420093 0.108363
O O1 0.500000 0.093724 0.500000
O O2 0.432790 0.193836 0.279738
O O3 0.364162 0.188627 0.602075
O O4 0.309750 0.089136 0.355798
O O5 0.270452 0.751773 0.212535
O O6 0.605632 0.747246 0.057562
O O7 0.405252 0.655994 0.222002
O O8 0.852554 0.840124 0.655818
O O9 0.338509 0.500000 0.666052
O O10 0.316858 0.413102 0.944161
O O11 0.388009 0.500000 0.205764
O O12 0.500000 0.423087 0.000000
#
# Coordination Sequence:
#
# PCOD9221256 Si02
#       5
#     8   8   8   8   8
#     4  11  23  35  56  87 115 146 188 235 273 333
#     4   9  18  34  57  77 109 150 184 230 277 325
#     4   9  19  37  56  82 109 143 192 233 277 326
#     4   9  18  35  57  78 110 149 183 225 281 332
#     4   9  18  32  56  87 114 146 186 229 285 341
#
# _framework density 22.552748999999999
#
# number of rings (size 3 to 8) (size 9 to 14) (size 15 to 20)
#    0.000    2.600    0.000    3.600    5.600    0.400 
#    0.000    4.000    0.000    6.000    0.000   22.400 
#    0.000    0.000    0.000    0.000    0.000    0.000 
#
# Total GULP energy -111534.805791 kJ/mol
# GULP energy per Si atom -5576.740290 kJ/mol
# Density = 2.250142 g / cm^3
# Si number density = 22.552749 Si / 1000 Ang^3
#
#
#
# Elastic Constant Matrix: (Units=GPa)
#
#
# Indices 1 2 3 4 5 6 
#
# 1 93.3233 -1.8949 25.9254 0.0000 30.9646 0.0000
# 2 -1.8949 114.7826 17.0405 0.0000 -6.3835 0.0000
# 3 25.9254 17.0405 79.7420 0.0000 -0.2735 0.0000
# 4 0.0000 0.0000 0.0000 -5.5314 0.0000 -1.0077
# 5 30.9646 -6.3835 -0.2735 0.0000 25.8466 0.0000
# 6 0.0000 0.0000 0.0000 -1.0077 0.0000 12.0332
#
#
#
# Elastic Compliance Matrix: (Units=1/GPa)
#
#
# Indices 1 2 3 4 5 6 
#
# 1 0.021016 -0.000032 -0.006912 0.000000 -0.025258 0.000000
# 2 -0.000032 0.009125 -0.001932 0.000000 0.002271 0.000000
# 3 -0.006912 -0.001932 0.015228 0.000000 0.007965 0.000000
# 4 0.000000 0.000000 0.000000 -0.178069 0.000000 -0.014912
# 5 -0.025258 0.002271 0.007965 0.000000 0.069594 0.000000
# 6 0.000000 0.000000 0.000000 -0.014912 0.000000 0.081855
#
#
# Mechanical properties :
#
#
# Convention : Reuss Voigt Hill
#
# Bulk Modulus (GPa) = 36.21002 41.11000 38.66001
# Shear Modulus (GPa) = 109.39533 22.92147 66.15840
#
# Velocity S-wave (km/s) = 6.97221 3.19148 5.42205
# Velocity P-wave (km/s) = 8.99479 5.64346 7.50849
#
# Compressibility (1/GPa) = 0.02761666
#
# Stress axis : x y z
#
# Youngs Moduli (GPa) = 47.58352 109.59270 65.66878
#
# Poissons Ratio (x) = 0.00346 0.45393
# Poissons Ratio (y) = 0.00150 0.12686
# Poissons Ratio (z) = 0.32892 0.21172
#
# Static dielectric constant tensor:
#      x y z
#    x 1.887280 0.000000 0.044570 
#    y 0.000000 1.854750 0.000000 
#    z 0.044570 0.000000 1.887200 
# 
# From -- ./inp_files/47078.got.cif
#   From: 2010.05.17/outbox.cif.g08.bks.cpg/sg12_24_cif.got.tgz:47078.got - 2010.06.03 13:09:07.
