data_PCOD9221313
_publ_section_title
;
Structure prediction by ZEFSAII (Michael W. Deem and Ramdas Pophale) SiO2 
 PCOD9221313
Probable space group: C 2/M
;
_chemical_formula_sum "Si O2"
_cell_formula_units_Z 56
_cell_length_a 29.091550
_cell_length_b 8.413663
_cell_length_c 14.592890
_cell_angle_alpha 90.000000
_cell_angle_beta 119.657086
_cell_angle_gamma 90.000000
_cell_volume 3103.946599
_symmetry_space_group_name_H-M "C 2/M"
_symmetry_group_IT_number 12
_symmetry_cell_setting 'monoclinic'
loop_
_space_group_symop_operation_xyz
x,y,z
-x,y,-z
-x,-y,-z
x,-y,z
1/2+x,1/2+y,z
1/2-x,1/2+y,-z
1/2-x,1/2-y,-z
1/2+x,1/2-y,z
loop_
_atom_site_type_symbol
_atom_site_label
_atom_site_fract_x
_atom_site_fract_y
_atom_site_fract_z
Si Si1 0.049223 0.690940 0.115308
Si Si2 0.023956 0.185683 0.291147
Si Si3 0.241793 0.692040 0.096790
Si Si4 0.371359 0.310702 0.947802
Si Si5 0.944909 0.688404 0.494709
Si Si6 0.088435 0.681983 0.827693
Si Si7 0.352950 0.315903 0.277293
O O1 0.047874 0.500000 0.121584
O O2 0.043891 0.765502 0.210645
O O3 0.103211 0.747778 0.120673
O O4 0.000000 0.738694 0.000000
O O5 0.061018 0.224481 0.413773
O O6 0.971758 0.289730 0.258833
O O7 0.009872 0.000000 0.277140
O O8 0.239027 0.500000 0.091962
O O9 0.188409 0.760444 0.087927
O O10 0.292530 0.739444 0.208239
O O11 0.250000 0.750000 0.000000
O O12 0.376663 0.500000 0.958217
O O13 0.405612 0.227233 0.061123
O O14 0.949189 0.500000 0.513380
O O15 0.894475 0.723671 0.381263
O O16 0.000000 0.742378 0.500000
O O17 0.104275 0.500000 0.827791
O O18 0.124689 0.796020 0.803475
O O19 0.353753 0.500000 0.305129
#
# Coordination Sequence:
#
# PCOD9221313 Si02
#       7
#     8   8   8   8   8   8   8
#     4  11  23  39  61  86 118 157 196 240 294 350
#     4  12  24  38  59  86 120 156 197 243 291 350
#     4  11  23  38  59  86 120 157 198 243 295 350
#     4  12  24  38  58  86 120 157 199 242 292 350
#     4  11  23  38  59  86 119 158 197 239 293 352
#     4  12  22  34  55  84 120 158 196 238 290 349
#     4  11  23  38  58  86 118 156 199 244 292 346
#
# _framework density 18.041547999999999
#
# number of rings (size 3 to 8) (size 9 to 14) (size 15 to 20)
#    0.000    0.571    4.286    5.571    0.000    2.857 
#    0.000    0.000    0.000    0.857    0.000    0.000 
#    0.000    0.000    0.000    0.000    0.000    0.000 
#
# Total GULP energy -156495.214825 kJ/mol
# GULP energy per Si atom -5589.114815 kJ/mol
# Density = 1.800048 g / cm^3
# Si number density = 18.041548 Si / 1000 Ang^3
#
#
#
# Elastic Constant Matrix: (Units=GPa)
#
#
# Indices 1 2 3 4 5 6 
#
# 1 78.9794 10.0431 30.5512 0.0000 -1.5479 0.0000
# 2 10.0431 62.8931 21.9832 0.0000 4.4896 0.0000
# 3 30.5512 21.9832 91.7647 0.0000 -1.8859 0.0000
# 4 0.0000 0.0000 0.0000 27.5402 0.0000 -3.0003
# 5 -1.5479 4.4896 -1.8859 0.0000 29.2265 0.0000
# 6 0.0000 0.0000 0.0000 -3.0003 0.0000 19.8731
#
#
#
# Elastic Compliance Matrix: (Units=1/GPa)
#
#
# Indices 1 2 3 4 5 6 
#
# 1 0.014570 -0.000739 -0.004662 0.000000 0.000584 0.000000
# 2 -0.000739 0.017646 -0.004043 0.000000 -0.003011 0.000000
# 3 -0.004662 -0.004043 0.013444 0.000000 0.001242 0.000000
# 4 0.000000 0.000000 0.000000 0.036918 0.000000 0.005574
# 5 0.000584 -0.003011 0.001242 0.000000 0.034789 0.000000
# 6 0.000000 0.000000 0.000000 0.005574 0.000000 0.051161
#
#
# Mechanical properties :
#
#
# Convention : Reuss Voigt Hill
#
# Bulk Modulus (GPa) = 37.35228 39.86579 38.60904
# Shear Modulus (GPa) = 25.46608 26.73194 26.09901
#
# Velocity S-wave (km/s) = 3.76110 3.85345 3.80755
# Velocity P-wave (km/s) = 6.29362 6.47637 6.38565
#
# Compressibility (1/GPa) = 0.02677212
#
# Stress axis : x y z
#
# Youngs Moduli (GPa) = 68.63290 56.66969 74.38471
#
# Poissons Ratio (x) = 0.04187 0.34677
# Poissons Ratio (y) = 0.05071 0.30075
# Poissons Ratio (z) = 0.31996 0.22913
#
# Static dielectric constant tensor:
#      x y z
#    x 1.618870 0.000000 0.017040 
#    y 0.000000 1.604130 0.000000 
#    z 0.017040 0.000000 1.614940 
# 
# From -- ./inp_files/181137.got.cif
#   From: 2010.05.17/outbox.cif.g08.bks.cpg/sg12_91_cif.got.tgz:181137.got - 2010.06.03 13:09:07.
