data_PCOD9221028
_publ_section_title
;
Structure prediction by ZEFSAII (Michael W. Deem and Ramdas Pophale) SiO2 
 PCOD9221028
Probable space group: C 2/M
;
_chemical_formula_sum "Si O2"
_cell_formula_units_Z 32
_cell_length_a 9.355048
_cell_length_b 16.305159
_cell_length_c 8.890823
_cell_angle_alpha 90.000000
_cell_angle_beta 86.410504
_cell_angle_gamma 90.000000
_cell_volume 1353.506036
_symmetry_space_group_name_H-M "C 2/M"
_symmetry_group_IT_number 12
_symmetry_cell_setting 'monoclinic'
loop_
_space_group_symop_operation_xyz
x,y,z
-x,y,-z
-x,-y,-z
x,-y,z
1/2+x,1/2+y,z
1/2-x,1/2+y,-z
1/2-x,1/2-y,-z
1/2+x,1/2-y,z
loop_
_atom_site_type_symbol
_atom_site_label
_atom_site_fract_x
_atom_site_fract_y
_atom_site_fract_z
Si Si1 0.650786 0.678891 0.075972
Si Si2 0.848416 0.587946 0.244669
Si Si3 0.839939 0.911380 0.440045
Si Si4 0.034736 0.753854 0.668063
O O1 0.741721 0.598518 0.109917
O O2 0.601497 0.706691 0.244616
O O3 0.500000 0.667517 0.000000
O O4 0.750000 0.750000 0.000000
O O5 0.923770 0.500000 0.230470
O O6 0.767854 0.589622 0.412271
O O7 0.935665 0.671840 0.241571
O O8 0.844721 0.826458 0.346484
O O9 0.000000 0.912712 0.500000
O O10 0.820244 0.000000 0.361716
O O11 0.000000 0.730990 0.500000
#
# Coordination Sequence:
#
# PCOD9221028 Si02
#       4
#     8   8   8   8
#     4  12  25  43  67  97 135 182 229 277 340 404
#     4  11  23  41  66 100 137 175 225 285 335 399
#     4   9  17  32  61  98 126 156 213 280 332 383
#     4  11  22  40  71  95 134 177 229 273 345 398
#
# _framework density 23.642302999999998
#
# number of rings (size 3 to 8) (size 9 to 14) (size 15 to 20)
#    0.000    1.250    7.500    0.750    0.000    1.000 
#    0.000    2.500    0.000    0.000    0.000    0.000 
#    0.000    0.000    0.000    0.000    0.000    0.000 
#
# Total GULP energy -89250.450102 kJ/mol
# GULP energy per Si atom -5578.153131 kJ/mol
# Density = 2.358849 g / cm^3
# Si number density = 23.642303 Si / 1000 Ang^3
#
#
#
# Elastic Constant Matrix: (Units=GPa)
#
#
# Indices 1 2 3 4 5 6 
#
# 1 10.7292 12.9807 -0.3396 0.0000 11.3105 0.0000
# 2 12.9807 200.4783 8.5139 0.0000 24.9820 0.0000
# 3 -0.3396 8.5139 61.1803 0.0000 7.8672 0.0000
# 4 0.0000 0.0000 0.0000 11.4620 0.0000 0.3897
# 5 11.3105 24.9820 7.8672 0.0000 29.9331 0.0000
# 6 0.0000 0.0000 0.0000 0.3897 0.0000 11.3143
#
#
#
# Elastic Compliance Matrix: (Units=1/GPa)
#
#
# Indices 1 2 3 4 5 6 
#
# 1 0.161405 -0.003281 0.009152 0.000000 -0.060655 0.000000
# 2 -0.003281 0.005636 -0.000370 0.000000 -0.003367 0.000000
# 3 0.009152 -0.000370 0.017442 0.000000 -0.007734 0.000000
# 4 0.000000 0.000000 0.000000 0.087347 0.000000 -0.003009
# 5 -0.060655 -0.003367 -0.007734 0.000000 0.061169 0.000000
# 6 0.000000 0.000000 0.000000 -0.003009 0.000000 0.088488
#
#
# Mechanical properties :
#
#
# Convention : Reuss Voigt Hill
#
# Bulk Modulus (GPa) = 5.11546 34.96641 20.04093
# Shear Modulus (GPa) = 10.51204 27.29073 18.90139
#
# Velocity S-wave (km/s) = 2.11091 3.40121 2.83056
# Velocity P-wave (km/s) = 2.84774 5.49965 4.37926
#
# Compressibility (1/GPa) = 0.19548575
#
# Stress axis : x y z
#
# Youngs Moduli (GPa) = 6.19560 177.43924 57.33328
#
# Poissons Ratio (x) = 0.58219 -0.52473
# Poissons Ratio (y) = 0.02033 0.02119
# Poissons Ratio (z) = -0.05670 0.06558
#
# Static dielectric constant tensor:
#      x y z
#    x 1.943910 0.000000 0.064220 
#    y 0.000000 1.962310 0.000000 
#    z 0.064220 0.000000 1.899450 
# 
# From -- ./inp_files/44930.got.cif
#   From: 2010.05.17/outbox.cif.g08.bks.cpg/sg12_23_cif.got.tgz:44930.got - 2010.06.03 13:09:07.
