data_PCOD9221546
_publ_section_title
;
Structure prediction by ZEFSAII (Michael W. Deem and Ramdas Pophale) SiO2 
 PCOD9221546
Probable space group: C 2/M
;
_chemical_formula_sum "Si O2"
_cell_formula_units_Z 56
_cell_length_a 8.129736
_cell_length_b 17.197832
_cell_length_c 26.750580
_cell_angle_alpha 90.000000
_cell_angle_beta 41.785972
_cell_angle_gamma 90.000000
_cell_volume 2492.216146
_symmetry_space_group_name_H-M "C 2/M"
_symmetry_group_IT_number 12
_symmetry_cell_setting 'monoclinic'
loop_
_space_group_symop_operation_xyz
x,y,z
-x,y,-z
-x,-y,-z
x,-y,z
1/2+x,1/2+y,z
1/2-x,1/2+y,-z
1/2-x,1/2-y,-z
1/2+x,1/2-y,z
loop_
_atom_site_type_symbol
_atom_site_label
_atom_site_fract_x
_atom_site_fract_y
_atom_site_fract_z
Si Si1 0.076338 0.665813 0.092134
Si Si2 0.672476 0.335562 0.071573
Si Si3 0.612631 0.163697 0.322685
Si Si4 0.612997 0.587483 0.181082
Si Si5 0.262927 0.340749 0.682511
Si Si6 0.185836 0.586351 0.157460
Si Si7 0.799993 0.407650 0.588593
O O1 0.178804 0.747220 0.089771
O O2 0.178204 0.592924 0.099363
O O3 0.784025 0.653818 0.166968
O O4 0.165994 0.663042 0.014772
O O5 0.713033 0.403572 0.102077
O O6 0.388074 0.350042 0.124256
O O7 0.705704 0.252310 0.305830
O O8 0.366830 0.158953 0.343560
O O9 0.607047 0.132371 0.381045
O O10 0.829730 0.112333 0.248460
O O11 0.645907 0.500000 0.192727
O O12 0.534362 0.377487 0.629008
O O13 0.070622 0.388364 0.760059
O O14 0.252020 0.500000 0.158856
O O15 0.780424 0.500000 0.602309
O O16 0.000000 0.393732 0.500000
#
# Coordination Sequence:
#
# PCOD9221546 Si02
#       7
#     8   8   8   8   8   8   8
#     4  11  24  41  61  87 125 181 225 287 355 423
#     4  11  23  41  62  87 126 171 231 283 350 423
#     4  12  25  47  76 108 143 191 242 293 350 418
#     4  12  25  40  63  95 130 171 226 290 352 417
#     4  12  25  47  76 108 143 191 242 293 350 418
#     4  12  25  40  63  95 130 171 226 290 352 417
#     4  11  27  50  77 114 154 188 229 283 349 426
#
# _framework density 22.469961999999999
#
# number of rings (size 3 to 8) (size 9 to 14) (size 15 to 20)
#    0.000    0.429    2.857    6.000    0.000    8.571 
#    0.000    1.429    0.000    0.000    0.000    0.000 
#    0.000    0.000    0.000    0.000    0.000    0.000 
#
# Total GULP energy -156324.366412 kJ/mol
# GULP energy per Si atom -5583.013086 kJ/mol
# Density = 2.241882 g / cm^3
# Si number density = 22.469962 Si / 1000 Ang^3
#
#
#
# Elastic Constant Matrix: (Units=GPa)
#
#
# Indices 1 2 3 4 5 6 
#
# 1 121.7200 31.4359 36.6344 -0.0024 -0.5789 -0.0038
# 2 31.4359 134.3683 50.3742 0.0028 1.8564 -0.0078
# 3 36.6344 50.3742 105.9478 0.0107 -0.5212 0.0228
# 4 -0.0024 0.0028 0.0107 30.2598 -0.0014 1.7722
# 5 -0.5789 1.8564 -0.5212 -0.0014 43.7991 -0.0183
# 6 -0.0038 -0.0078 0.0228 1.7722 -0.0183 18.5687
#
#
#
# Elastic Compliance Matrix: (Units=1/GPa)
#
#
# Indices 1 2 3 4 5 6 
#
# 1 0.009323 -0.001186 -0.002659 0.000002 0.000142 0.000005
# 2 -0.001186 0.009216 -0.003974 0.000000 -0.000454 0.000008
# 3 -0.002659 -0.003974 0.012249 -0.000003 0.000279 -0.000017
# 4 0.000002 0.000000 -0.000003 0.033233 0.000000 -0.003172
# 5 0.000142 -0.000454 0.000279 0.000000 0.022856 0.000022
# 6 0.000005 0.000008 -0.000017 -0.003172 0.000022 0.054157
#
#
# Mechanical properties :
#
#
# Convention : Reuss Voigt Hill
#
# Bulk Modulus (GPa) = 66.00893 66.54722 66.27808
# Shear Modulus (GPa) = 30.91743 34.76495 32.84119
#
# Velocity S-wave (km/s) = 3.71340 3.93768 3.82718
# Velocity P-wave (km/s) = 6.91564 7.09607 7.00643
#
# Compressibility (1/GPa) = 0.01514946
#
# Stress axis : x y z
#
# Youngs Moduli (GPa) = 107.26291 108.50941 81.64076
#
# Poissons Ratio (x) = 0.12872 0.21708
# Poissons Ratio (y) = 0.12724 0.32442
# Poissons Ratio (z) = 0.28521 0.43120
#
# Static dielectric constant tensor:
#      x y z
#    x 1.982340 0.000000 0.035370 
#    y 0.000000 1.743780 0.000000 
#    z 0.035370 0.000000 1.791840 
# 
# From -- ./inp_files/356656.got.cif
#   From: 2010.05.17/outbox.cif.g08.bks.cpg/sg12_179_cif.got.tgz:356656.got - 2010.06.03 13:09:07.
