data_PCOD9221488
_publ_section_title
;
Structure prediction by ZEFSAII (Michael W. Deem and Ramdas Pophale) SiO2 
 PCOD9221488
Probable space group: C 2/M
;
_chemical_formula_sum "Si O2"
_cell_formula_units_Z 32
_cell_length_a 9.016616
_cell_length_b 9.690192
_cell_length_c 29.912785
_cell_angle_alpha 90.000000
_cell_angle_beta 32.463411
_cell_angle_gamma 90.000000
_cell_volume 1402.857915
_symmetry_space_group_name_H-M "C 2/M"
_symmetry_group_IT_number 12
_symmetry_cell_setting 'monoclinic'
loop_
_space_group_symop_operation_xyz
x,y,z
-x,y,-z
-x,-y,-z
x,-y,z
1/2+x,1/2+y,z
1/2-x,1/2+y,-z
1/2-x,1/2-y,-z
1/2+x,1/2-y,z
loop_
_atom_site_type_symbol
_atom_site_label
_atom_site_fract_x
_atom_site_fract_y
_atom_site_fract_z
Si Si1 0.975882 0.158332 0.673158
Si Si2 0.606519 0.350895 0.824956
Si Si3 0.027438 0.160262 0.427566
Si Si4 0.943430 0.787842 0.062220
O O1 0.765240 0.225308 0.761525
O O2 0.864493 0.158581 0.651116
O O3 0.242136 0.256799 0.604297
O O4 0.046532 0.000000 0.666994
O O5 0.695995 0.500000 0.783976
O O6 0.661104 0.351041 0.864398
O O7 0.283228 0.326963 0.894430
O O8 0.750000 0.250000 0.500000
O O9 0.984321 0.000000 0.451339
O O10 0.250000 0.750000 0.000000
O O11 0.000000 0.859930 0.000000
#
# Coordination Sequence:
#
# PCOD9221488 Si02
#       4
#     8   8   8   8
#     4  11  25  43  63  92 129 167 209 257 310 370
#     4  11  23  40  64  93 124 163 211 259 312 374
#     4  11  24  42  66  96 128 165 209 256 309 369
#     4   9  21  40  61  91 126 161 203 259 317 371
#
# _framework density 22.810578
#
# number of rings (size 3 to 8) (size 9 to 14) (size 15 to 20)
#    0.000    1.500    0.000    3.750    0.000   18.000 
#    0.000    7.500    0.000    0.000    0.000    0.000 
#    0.000    0.000    0.000    0.000    0.000    0.000 
#
# Total GULP energy -89230.333565 kJ/mol
# GULP energy per Si atom -5576.895848 kJ/mol
# Density = 2.275866 g / cm^3
# Si number density = 22.810578 Si / 1000 Ang^3
#
#
#
# Elastic Constant Matrix: (Units=GPa)
#
#
# Indices 1 2 3 4 5 6 
#
# 1 130.6477 41.2634 25.8599 0.0019 15.9439 -0.0003
# 2 41.2634 178.3709 35.0925 0.0034 6.6374 -0.0013
# 3 25.8599 35.0925 97.0614 0.0157 20.9963 -0.0039
# 4 0.0019 0.0034 0.0157 -78.4724 -0.0028 23.9791
# 5 15.9439 6.6374 20.9963 -0.0028 46.2405 0.0002
# 6 -0.0003 -0.0013 -0.0039 23.9791 0.0002 11.8205
#
#
#
# Elastic Compliance Matrix: (Units=1/GPa)
#
#
# Indices 1 2 3 4 5 6 
#
# 1 0.008699 -0.001688 -0.001232 0.000000 -0.002198 0.000000
# 2 -0.001688 0.006364 -0.001973 0.000000 0.000565 0.000000
# 3 -0.001232 -0.001973 0.012410 0.000002 -0.004927 -0.000001
# 4 0.000000 0.000000 0.000002 -0.007867 -0.000002 0.015959
# 5 -0.002198 0.000565 -0.004927 -0.000002 0.024540 0.000001
# 6 0.000000 0.000000 -0.000001 0.015959 0.000001 0.052225
#
#
# Mechanical properties :
#
#
# Convention : Reuss Voigt Hill
#
# Bulk Modulus (GPa) = 56.53950 67.83462 62.18706
# Shear Modulus (GPa) = 44.62100 16.17533 30.39817
#
# Velocity S-wave (km/s) = 4.42764 2.66581 3.65449
# Velocity P-wave (km/s) = 7.13996 6.26723 6.71778
#
# Compressibility (1/GPa) = 0.01768675
#
# Stress axis : x y z
#
# Youngs Moduli (GPa) = 114.94940 157.13212 80.57879
#
# Poissons Ratio (x) = 0.26529 0.09927
# Poissons Ratio (y) = 0.19407 0.15900
# Poissons Ratio (z) = 0.14161 0.31006
#
# Static dielectric constant tensor:
#      x y z
#    x 1.840340 0.000000 0.006380 
#    y 0.000000 1.811960 -0.000010 
#    z 0.006380 -0.000010 1.909530 
# 
# From -- ./inp_files/373438.got.cif
#   From: 2010.05.17/outbox.cif.g08.bks.cpg/sg12_187_cif.got.tgz:373438.got - 2010.06.03 13:09:07.
