data_PCOD9221444
_publ_section_title
;
Structure prediction by ZEFSAII (Michael W. Deem and Ramdas Pophale) SiO2 
 PCOD9221444
Probable space group: C 2/M
;
_chemical_formula_sum "Si O2"
_cell_formula_units_Z 34
_cell_length_a 13.448909
_cell_length_b 12.585316
_cell_length_c 8.989431
_cell_angle_alpha 90.000000
_cell_angle_beta 64.877547
_cell_angle_gamma 90.000000
_cell_volume 1377.606140
_symmetry_space_group_name_H-M "C 2/M"
_symmetry_group_IT_number 12
_symmetry_cell_setting 'monoclinic'
loop_
_space_group_symop_operation_xyz
x,y,z
-x,y,-z
-x,-y,-z
x,-y,z
1/2+x,1/2+y,z
1/2-x,1/2+y,-z
1/2-x,1/2-y,-z
1/2+x,1/2-y,z
loop_
_atom_site_type_symbol
_atom_site_label
_atom_site_fract_x
_atom_site_fract_y
_atom_site_fract_z
Si Si1 0.382931 0.877518 0.932551
Si Si2 0.500000 0.500000 0.000000
Si Si3 0.323833 0.385731 0.463867
Si Si4 0.333012 0.335531 0.111908
Si Si5 0.073673 0.332633 0.587859
O O1 0.285817 0.866459 0.873318
O O2 0.493449 0.842158 0.779004
O O3 0.389045 0.000000 0.978445
O O4 0.352125 0.788593 0.073170
O O5 0.423110 0.406411 0.972523
O O6 0.362683 0.500000 0.492773
O O7 0.343788 0.374338 0.274029
O O8 0.191622 0.380714 0.557204
O O9 0.386337 0.284875 0.489901
O O10 0.000000 0.378394 0.500000
#
# Coordination Sequence:
#
# PCOD9221444 Si02
#       5
#     8   2   8   8   8
#     4  11  23  43  66 100 133 176 222 277 329 395
#     4  12  20  40  62  94 130 166 216 272 320 404
#     4  11  23  44  69  97 132 176 222 274 332 403
#     4  11  23  39  68  98 130 175 222 270 337 394
#     4  11  24  42  69  98 134 172 224 275 333 395
#
# _framework density 24.680492999999998
#
# number of rings (size 3 to 8) (size 9 to 14) (size 15 to 20)
#    0.000    0.941    4.706    2.118    0.000    1.412 
#    0.000   10.000    0.000    0.000    0.000    0.000 
#    0.000    0.000    0.000    0.000    0.000    0.000 
#
# Total GULP energy -94854.171804 kJ/mol
# GULP energy per Si atom -5579.657165 kJ/mol
# Density = 2.462432 g / cm^3
# Si number density = 24.680493 Si / 1000 Ang^3
#
#
#
# Elastic Constant Matrix: (Units=GPa)
#
#
# Indices 1 2 3 4 5 6 
#
# 1 130.2115 24.7462 23.8939 0.0000 -28.5281 0.0000
# 2 24.7462 206.7206 14.1391 0.0000 -34.2691 0.0000
# 3 23.8939 14.1391 39.9187 0.0000 -33.0663 0.0000
# 4 0.0000 0.0000 0.0000 59.1673 0.0000 -16.0258
# 5 -28.5281 -34.2691 -33.0663 0.0000 41.6254 0.0000
# 6 0.0000 0.0000 0.0000 -16.0258 0.0000 13.5777
#
#
#
# Elastic Compliance Matrix: (Units=1/GPa)
#
#
# Indices 1 2 3 4 5 6 
#
# 1 0.009049 -0.000133 -0.000944 0.000000 0.005342 0.000000
# 2 -0.000133 0.006027 0.005788 0.000000 0.009469 0.000000
# 3 -0.000944 0.005788 0.078885 0.000000 0.066783 0.000000
# 4 0.000000 0.000000 0.000000 0.024843 0.000000 0.029323
# 5 0.005342 0.009469 0.066783 0.000000 0.088531 0.000000
# 6 0.000000 0.000000 0.000000 0.029323 0.000000 0.108260
#
#
# Mechanical properties :
#
#
# Convention : Reuss Voigt Hill
#
# Bulk Modulus (GPa) = 9.67272 55.82324 32.74798
# Shear Modulus (GPa) = 14.67852 43.81220 29.24536
#
# Velocity S-wave (km/s) = 2.44138 4.21785 3.44606
# Velocity P-wave (km/s) = 3.44598 6.81086 5.39734
#
# Compressibility (1/GPa) = 0.10338352
#
# Stress axis : x y z
#
# Youngs Moduli (GPa) = 110.51273 165.91484 12.67671
#
# Poissons Ratio (x) = 0.02207 0.01197
# Poissons Ratio (y) = 0.01470 -0.07338
# Poissons Ratio (z) = 0.10432 -0.96039
#
# Static dielectric constant tensor:
#      x y z
#    x 1.949790 0.000000 -0.060630 
#    y 0.000000 1.926390 0.000000 
#    z -0.060630 0.000000 2.095160 
# 
# From -- ./inp_files/140034.got.cif
#   From: 2010.05.17/outbox.cif.g08.bks.cpg/sg12_71_cif.got.tgz:140034.got - 2010.06.03 13:09:07.
