data_PCOD9221652
_publ_section_title
;
Structure prediction by ZEFSAII (Michael W. Deem and Ramdas Pophale) SiO2 
 PCOD9221652
Probable space group: C 2/M
;
_chemical_formula_sum "Si O2"
_cell_formula_units_Z 48
_cell_length_a 13.949597
_cell_length_b 14.780085
_cell_length_c 22.602772
_cell_angle_alpha 90.000000
_cell_angle_beta 150.240250
_cell_angle_gamma 90.000000
_cell_volume 2313.133938
_symmetry_space_group_name_H-M "C 2/M"
_symmetry_group_IT_number 12
_symmetry_cell_setting 'monoclinic'
loop_
_space_group_symop_operation_xyz
x,y,z
-x,y,-z
-x,-y,-z
x,-y,z
1/2+x,1/2+y,z
1/2-x,1/2+y,-z
1/2-x,1/2-y,-z
1/2+x,1/2-y,z
loop_
_atom_site_type_symbol
_atom_site_label
_atom_site_fract_x
_atom_site_fract_y
_atom_site_fract_z
Si Si1 0.050932 0.597809 0.402697
Si Si2 0.901366 0.892462 0.100675
Si Si3 0.651505 0.357249 0.537136
Si Si4 0.369470 0.718663 0.287064
Si Si5 0.341350 0.327995 0.658818
Si Si6 0.047606 0.724809 0.956688
O O1 0.965825 0.500000 0.367236
O O2 0.181044 0.597533 0.412303
O O3 0.189282 0.622693 0.532999
O O4 0.893000 0.674051 0.307315
O O5 0.915723 0.823529 0.052679
O O6 0.084305 0.877660 0.242966
O O7 0.878960 0.000000 0.076738
O O8 0.715829 0.847062 0.034092
O O9 0.500000 0.403676 0.500000
O O10 0.513551 0.320625 0.412006
O O11 0.746019 0.269952 0.620011
O O12 0.467529 0.690968 0.277871
O O13 0.152097 0.688577 0.178042
O O14 0.000000 0.735407 0.000000
#
# Coordination Sequence:
#
# PCOD9221652 Si02
#       6
#     8   8   8   8   8   8
#     4   9  18  31  53  84 114 145 188 239 294 351
#     4  11  24  40  64  94 119 153 206 254 296 356
#     4   9  17  30  53  80 112 150 189 230 291 355
#     4   9  18  35  56  78 109 160 196 231 293 357
#     4   9  17  35  58  82 113 148 192 243 291 350
#     4  11  23  42  64  84 123 165 200 245 303 355
#
# _framework density 20.751069000000001
#
# number of rings (size 3 to 8) (size 9 to 14) (size 15 to 20)
#    0.000    2.333    1.667    3.500    0.000    1.667 
#    0.000    0.833    0.000    5.500    0.000    0.000 
#    0.000    0.000    0.000    0.000    0.000    0.000 
#
# Total GULP energy -133769.508521 kJ/mol
# GULP energy per Si atom -5573.729522 kJ/mol
# Density = 2.070384 g / cm^3
# Si number density = 20.751069 Si / 1000 Ang^3
#
#
#
# Elastic Constant Matrix: (Units=GPa)
#
#
# Indices 1 2 3 4 5 6 
#
# 1 78.9049 6.3374 -1.5276 -0.0001 10.3509 0.0000
# 2 6.3374 82.1986 -5.5442 0.0001 -11.4443 0.0000
# 3 -1.5276 -5.5442 46.1979 0.0005 6.7616 0.0000
# 4 -0.0001 0.0001 0.0005 13.1441 0.0001 -3.3326
# 5 10.3509 -11.4443 6.7616 0.0001 16.1250 0.0000
# 6 0.0000 0.0000 0.0000 -3.3326 0.0000 -6.8731
#
#
#
# Elastic Compliance Matrix: (Units=1/GPa)
#
#
# Indices 1 2 3 4 5 6 
#
# 1 0.014498 -0.002659 0.001916 0.000000 -0.011997 0.000000
# 2 -0.002659 0.013990 -0.000119 0.000000 0.011685 0.000000
# 3 0.001916 -0.000119 0.023319 -0.000001 -0.011093 0.000001
# 4 0.000000 0.000000 -0.000001 0.067751 0.000000 -0.032851
# 5 -0.011997 0.011685 -0.011093 0.000000 0.082661 0.000000
# 6 0.000000 0.000000 0.000001 -0.032851 0.000000 -0.129567
#
#
# Mechanical properties :
#
#
# Convention : Reuss Voigt Hill
#
# Bulk Modulus (GPa) = 19.96722 22.87029 21.41875
# Shear Modulus (GPa) = 54.90366 18.34826 36.62596
#
# Velocity S-wave (km/s) = 5.14934 2.97679 4.20577
# Velocity P-wave (km/s) = 6.70801 4.78124 5.82484
#
# Compressibility (1/GPa) = 0.05008209
#
# Stress axis : x y z
#
# Youngs Moduli (GPa) = 68.97549 71.48203 42.88425
#
# Poissons Ratio (x) = 0.19006 -0.08217
# Poissons Ratio (y) = 0.18339 0.00512
# Poissons Ratio (z) = -0.13217 0.00853
#
# Static dielectric constant tensor:
#      x y z
#    x 1.812400 0.000000 -0.005750 
#    y 0.000000 1.728000 0.000000 
#    z -0.005750 0.000000 1.746820 
# 
# From -- ./inp_files/142749.got.cif
#   From: 2010.05.17/outbox.cif.g08.bks.cpg/sg12_72_cif.got.tgz:142749.got - 2010.06.03 13:09:07.
