data_PCOD9221128
_publ_section_title
;
Structure prediction by ZEFSAII (Michael W. Deem and Ramdas Pophale) SiO2 
 PCOD9221128
Probable space group: C 2/M
;
_chemical_formula_sum "Si O2"
_cell_formula_units_Z 40
_cell_length_a 9.643536
_cell_length_b 29.893541
_cell_length_c 14.576259
_cell_angle_alpha 90.000000
_cell_angle_beta 154.740351
_cell_angle_gamma 90.000000
_cell_volume 1793.097115
_symmetry_space_group_name_H-M "C 2/M"
_symmetry_group_IT_number 12
_symmetry_cell_setting 'monoclinic'
loop_
_space_group_symop_operation_xyz
x,y,z
-x,y,-z
-x,-y,-z
x,-y,z
1/2+x,1/2+y,z
1/2-x,1/2+y,-z
1/2-x,1/2-y,-z
1/2+x,1/2-y,z
loop_
_atom_site_type_symbol
_atom_site_label
_atom_site_fract_x
_atom_site_fract_y
_atom_site_fract_z
Si Si1 0.547685 0.951443 0.818490
Si Si2 0.665804 0.855082 0.842889
Si Si3 0.448675 0.451073 0.314780
Si Si4 0.199941 0.704741 0.026589
Si Si5 0.217621 0.135804 0.401545
O O1 0.740512 0.906190 0.916611
O O2 0.261465 0.951107 0.570215
O O3 0.360500 0.948493 0.803386
O O4 0.713182 0.000000 0.911429
O O5 0.391152 0.853929 0.601531
O O6 0.544446 0.829292 0.859985
O O7 0.000000 0.835833 0.000000
O O8 0.446935 0.500000 0.267297
O O9 0.486505 0.407066 0.276878
O O10 0.528714 0.678934 0.251812
O O11 0.250000 0.750000 0.000000
O O12 0.000000 0.711497 0.000000
O O13 0.500000 0.123231 0.500000
#
# Coordination Sequence:
#
# PCOD9221128 Si02
#       5
#     8   8   8   8   8
#     4   8  15  30  57  91 132 179 225 268 321 385
#     4  11  22  42  67  98 139 178 223 276 328 395
#     4   8  15  31  57  93 133 177 225 269 319 386
#     4  12  28  49  72 100 129 167 220 282 341 407
#     4  11  23  42  70  99 137 181 220 272 336 396
#
# _framework density 22.307770999999999
#
# number of rings (size 3 to 8) (size 9 to 14) (size 15 to 20)
#    0.000    2.000    2.000    3.000    0.000    4.000 
#    0.000    1.000    0.000    3.600    0.000    0.000 
#    0.000    0.000    0.000    0.000    0.000    0.000 
#
# Total GULP energy -111811.436713 kJ/mol
# GULP energy per Si atom -5590.571836 kJ/mol
# Density = 2.225700 g / cm^3
# Si number density = 22.307771 Si / 1000 Ang^3
#
#
#
# Elastic Constant Matrix: (Units=GPa)
#
#
# Indices 1 2 3 4 5 6 
#
# 1 138.1409 71.5218 27.9494 0.0000 -11.5745 0.0000
# 2 71.5218 166.8988 28.7213 0.0000 -8.6952 0.0000
# 3 27.9494 28.7213 62.4774 0.0001 -26.0026 -0.0002
# 4 0.0000 0.0000 0.0001 19.3437 0.0000 27.1667
# 5 -11.5745 -8.6952 -26.0026 0.0000 37.5880 -0.0001
# 6 0.0000 0.0000 -0.0002 27.1667 -0.0001 -131.0843
#
#
#
# Elastic Compliance Matrix: (Units=1/GPa)
#
#
# Indices 1 2 3 4 5 6 
#
# 1 0.009691 -0.003709 -0.002451 0.000000 0.000431 0.000000
# 2 -0.003709 0.007943 -0.002391 0.000000 -0.000959 0.000000
# 3 -0.002451 -0.002391 0.024796 0.000000 0.015846 0.000000
# 4 0.000000 0.000000 0.000000 0.040042 0.000000 0.008299
# 5 0.000431 -0.000959 0.015846 0.000000 0.037477 0.000000
# 6 0.000000 0.000000 0.000000 0.008299 0.000000 -0.005909
#
#
# Mechanical properties :
#
#
# Convention : Reuss Voigt Hill
#
# Bulk Modulus (GPa) = 39.48230 69.32247 54.40238
# Shear Modulus (GPa) = 35.82049 1.12445 18.47247
#
# Velocity S-wave (km/s) = 4.01152 0.71074 2.88075
# Velocity P-wave (km/s) = 6.26048 5.64061 5.95861
#
# Compressibility (1/GPa) = 0.02532781
#
# Stress axis : x y z
#
# Youngs Moduli (GPa) = 103.18639 125.90466 40.32831
#
# Poissons Ratio (x) = 0.46695 0.09885
# Poissons Ratio (y) = 0.38269 0.09643
# Poissons Ratio (z) = 0.25294 0.30106
#
# Static dielectric constant tensor:
#      x y z
#    x 1.809900 0.000000 -0.044610 
#    y 0.000000 1.835700 0.000000 
#    z -0.044610 0.000000 1.844240 
# 
# From -- ./inp_files/201115.got.cif
#   From: 2010.05.17/outbox.cif.g08.bks.cpg/sg12_101_cif.got.tgz:201115.got - 2010.06.03 13:09:07.
