data_PCOD9221168
_publ_section_title
;
Structure prediction by ZEFSAII (Michael W. Deem and Ramdas Pophale) SiO2 
 PCOD9221168
Probable space group: C 2/M
;
_chemical_formula_sum "Si O2"
_cell_formula_units_Z 56
_cell_length_a 26.833878
_cell_length_b 18.091042
_cell_length_c 9.269759
_cell_angle_alpha 90.000000
_cell_angle_beta 35.894452
_cell_angle_gamma 90.000000
_cell_volume 2638.340562
_symmetry_space_group_name_H-M "C 2/M"
_symmetry_group_IT_number 12
_symmetry_cell_setting 'monoclinic'
loop_
_space_group_symop_operation_xyz
x,y,z
-x,y,-z
-x,-y,-z
x,-y,z
1/2+x,1/2+y,z
1/2-x,1/2+y,-z
1/2-x,1/2-y,-z
1/2+x,1/2-y,z
loop_
_atom_site_type_symbol
_atom_site_label
_atom_site_fract_x
_atom_site_fract_y
_atom_site_fract_z
Si Si1 0.333703 0.087991 0.927998
Si Si2 0.003188 0.170852 0.659208
Si Si3 0.137631 0.586597 0.479375
Si Si4 0.536198 0.163659 0.166446
Si Si5 0.584303 0.416469 0.903701
Si Si6 0.825689 0.705831 0.399576
Si Si7 0.164391 0.149954 0.456528
O O1 0.339611 0.098556 0.742165
O O2 0.415763 0.117706 0.821439
O O3 0.322941 0.000000 0.980166
O O4 0.254286 0.134505 0.174445
O O5 0.088883 0.134661 0.522187
O O6 0.000000 0.152114 0.500000
O O7 0.998482 0.259200 0.688642
O O8 0.927684 0.138219 0.935190
O O9 0.142426 0.500000 0.499474
O O10 0.193742 0.633908 0.459259
O O11 0.041248 0.616776 0.716879
O O12 0.604034 0.184221 0.882994
O O13 0.589381 0.500000 0.943262
O O14 0.657667 0.397669 0.618443
O O15 0.500000 0.408292 0.000000
O O16 0.750000 0.750000 0.500000
O O17 0.855718 0.767165 0.443867
#
# Coordination Sequence:
#
# PCOD9221168 Si02
#       7
#     8   8   8   8   8   8   8
#     4  11  25  45  70 101 141 184 226 281 349 411
#     4  11  23  38  66 101 133 176 229 284 342 408
#     4  11  26  46  70 104 141 179 229 287 343 404
#     4  12  23  42  72 102 139 180 228 279 340 415
#     4   9  19  37  62  89 125 173 225 279 332 396
#     4  12  25  44  68  99 135 179 228 281 337 406
#     4  11  22  43  67  94 133 181 230 277 339 411
#
# _framework density 21.225465
#
# number of rings (size 3 to 8) (size 9 to 14) (size 15 to 20)
#    0.000    1.000    4.286    2.571    0.000    5.429 
#    0.000    0.000    0.000    0.000    0.000    0.000 
#    0.000    0.000    0.000    0.000    0.000    0.000 
#
# Total GULP energy -156525.289941 kJ/mol
# GULP energy per Si atom -5590.188926 kJ/mol
# Density = 2.117715 g / cm^3
# Si number density = 21.225465 Si / 1000 Ang^3
#
#
#
# Elastic Constant Matrix: (Units=GPa)
#
#
# Indices 1 2 3 4 5 6 
#
# 1 115.2845 38.9574 35.7704 0.0000 19.3335 0.0000
# 2 38.9574 92.7051 23.3466 0.0000 24.2041 0.0000
# 3 35.7704 23.3466 81.8289 0.0000 12.1879 0.0000
# 4 0.0000 0.0000 0.0000 17.9689 0.0000 11.3588
# 5 19.3335 24.2041 12.1879 0.0000 25.9890 0.0000
# 6 0.0000 0.0000 0.0000 11.3588 0.0000 33.7045
#
#
#
# Elastic Compliance Matrix: (Units=1/GPa)
#
#
# Indices 1 2 3 4 5 6 
#
# 1 0.011438 -0.002805 -0.003571 0.000000 -0.004222 0.000000
# 2 -0.002805 0.015335 -0.001433 0.000000 -0.011523 0.000000
# 3 -0.003571 -0.001433 0.014617 0.000000 -0.002864 0.000000
# 4 0.000000 0.000000 0.000000 0.070717 0.000000 -0.023833
# 5 -0.004222 -0.011523 -0.002864 0.000000 0.053694 0.000000
# 6 0.000000 0.000000 0.000000 -0.023833 0.000000 0.037701
#
#
# Mechanical properties :
#
#
# Convention : Reuss Voigt Hill
#
# Bulk Modulus (GPa) = 38.80067 53.99638 46.39853
# Shear Modulus (GPa) = 21.95770 28.31540 25.13655
#
# Velocity S-wave (km/s) = 3.21985 3.65640 3.44505
# Velocity P-wave (km/s) = 5.66950 6.58182 6.14262
#
# Compressibility (1/GPa) = 0.02577275
#
# Stress axis : x y z
#
# Youngs Moduli (GPa) = 87.42726 65.21007 68.41381
#
# Poissons Ratio (x) = 0.18292 0.24430
# Poissons Ratio (y) = 0.24524 0.09802
# Poissons Ratio (z) = 0.31219 0.09343
#
# Static dielectric constant tensor:
#      x y z
#    x 1.798450 0.000000 -0.031190 
#    y 0.000000 1.770520 0.000000 
#    z -0.031190 0.000000 1.768780 
# 
# From -- ./inp_files/105937.got.cif
#   From: 2010.05.17/outbox.cif.g08.bks.cpg/sg12_53_cif.got.tgz:105937.got - 2010.06.03 13:09:07.
