data_PCOD9221914
_publ_section_title
;
Structure prediction by ZEFSAII (Michael W. Deem and Ramdas Pophale) SiO2 
 PCOD9221914
Probable space group: C 2/M
;
_chemical_formula_sum "Si O2"
_cell_formula_units_Z 40
_cell_length_a 20.960765
_cell_length_b 8.624521
_cell_length_c 14.887871
_cell_angle_alpha 90.000000
_cell_angle_beta 59.550960
_cell_angle_gamma 90.000000
_cell_volume 2320.183841
_symmetry_space_group_name_H-M "C 2/M"
_symmetry_group_IT_number 12
_symmetry_cell_setting 'monoclinic'
loop_
_space_group_symop_operation_xyz
x,y,z
-x,y,-z
-x,-y,-z
x,-y,z
1/2+x,1/2+y,z
1/2-x,1/2+y,-z
1/2-x,1/2-y,-z
1/2+x,1/2-y,z
loop_
_atom_site_type_symbol
_atom_site_label
_atom_site_fract_x
_atom_site_fract_y
_atom_site_fract_z
Si Si1 0.338949 0.688026 0.723335
Si Si2 0.786283 0.184633 0.065240
Si Si3 0.048311 0.314215 0.051539
Si Si4 0.575731 0.318942 0.504694
Si Si5 0.486256 0.687861 0.732110
O O1 0.334033 0.500000 0.725222
O O2 0.264903 0.758093 0.816555
O O3 0.362297 0.744799 0.607010
O O4 0.407481 0.726696 0.741166
O O5 0.786527 0.000000 0.060285
O O6 0.750000 0.250000 0.000000
O O7 0.869479 0.245687 0.013402
O O8 0.053192 0.500000 0.050193
O O9 0.012581 0.255629 0.169744
O O10 0.000000 0.267360 0.000000
O O11 0.500000 0.316307 0.500000
O O12 0.594140 0.500000 0.505794
O O13 0.551143 0.254546 0.618645
O O14 0.489552 0.500000 0.733194
#
# Coordination Sequence:
#
# PCOD9221914 Si02
#       5
#     8   8   8   8   8
#     4   9  16  29  51  79 109 138 169 211 260 312
#     4  12  23  35  54  79 108 140 176 220 265 312
#     4  11  24  39  54  75 106 143 180 220 267 315
#     4   7  12  24  45  75 106 135 168 205 256 312
#     4   9  16  29  52  78 105 139 175 213 256 310
#
# _framework density 17.240013999999999
#
# number of rings (size 3 to 8) (size 9 to 14) (size 15 to 20)
#    0.000    2.400    2.000    4.800    0.000    1.600 
#    0.000    1.000    0.000    4.800    0.000    0.000 
#    0.000    0.000    0.000    0.000    0.000    0.000 
#
# Total GULP energy -111467.870398 kJ/mol
# GULP energy per Si atom -5573.393520 kJ/mol
# Density = 1.720077 g / cm^3
# Si number density = 17.240014 Si / 1000 Ang^3
#
#
#
# Elastic Constant Matrix: (Units=GPa)
#
#
# Indices 1 2 3 4 5 6 
#
# 1 83.7398 31.8799 71.8274 0.0000 6.7901 0.0000
# 2 31.8799 35.6556 40.3821 0.0000 5.4221 0.0000
# 3 71.8274 40.3821 211.3488 0.0000 7.0660 0.0000
# 4 0.0000 0.0000 0.0000 23.8690 0.0000 -0.0203
# 5 6.7901 5.4221 7.0660 0.0000 18.1448 0.0000
# 6 0.0000 0.0000 0.0000 -0.0203 0.0000 17.9220
#
#
#
# Elastic Compliance Matrix: (Units=1/GPa)
#
#
# Indices 1 2 3 4 5 6 
#
# 1 0.021117 -0.013412 -0.004543 0.000000 -0.002125 0.000000
# 2 -0.013412 0.045537 -0.003906 0.000000 -0.007067 0.000000
# 3 -0.004543 -0.003906 0.007017 0.000000 0.000135 0.000000
# 4 0.000000 0.000000 0.000000 0.041895 0.000000 0.000047
# 5 -0.002125 -0.007067 0.000135 0.000000 0.057967 0.000000
# 6 0.000000 0.000000 0.000000 0.000047 0.000000 0.055797
#
#
# Mechanical properties :
#
#
# Convention : Reuss Voigt Hill
#
# Bulk Modulus (GPa) = 33.39116 68.76924 51.08020
# Shear Modulus (GPa) = 17.66559 24.43082 21.04821
#
# Velocity S-wave (km/s) = 3.20454 3.76852 3.49792
# Velocity P-wave (km/s) = 5.75348 7.67539 6.78285
#
# Compressibility (1/GPa) = 0.02994805
#
# Stress axis : x y z
#
# Youngs Moduli (GPa) = 47.35554 21.96022 142.50585
#
# Poissons Ratio (x) = 0.29454 0.64738
# Poissons Ratio (y) = 0.63516 0.55664
# Poissons Ratio (z) = 0.21513 0.08578
#
# Static dielectric constant tensor:
#      x y z
#    x 1.547540 0.000000 0.003500 
#    y 0.000000 1.583660 0.000000 
#    z 0.003500 0.000000 1.632060 
# 
# From -- ./inp_files/162735.got.cif
#   From: 2010.05.17/outbox.cif.g08.bks.cpg/sg12_82_cif.got.tgz:162735.got - 2010.06.03 13:09:07.
