data_PCOD9221579
_publ_section_title
;
Structure prediction by ZEFSAII (Michael W. Deem and Ramdas Pophale) SiO2 
 PCOD9221579
Probable space group: C 2/M
;
_chemical_formula_sum "Si O2"
_cell_formula_units_Z 58
_cell_length_a 26.913883
_cell_length_b 11.953839
_cell_length_c 17.684923
_cell_angle_alpha 90.000000
_cell_angle_beta 30.476651
_cell_angle_gamma 90.000000
_cell_volume 2885.726806
_symmetry_space_group_name_H-M "C 2/M"
_symmetry_group_IT_number 12
_symmetry_cell_setting 'monoclinic'
loop_
_space_group_symop_operation_xyz
x,y,z
-x,y,-z
-x,-y,-z
x,-y,z
1/2+x,1/2+y,z
1/2-x,1/2+y,-z
1/2-x,1/2-y,-z
1/2+x,1/2-y,z
loop_
_atom_site_type_symbol
_atom_site_label
_atom_site_fract_x
_atom_site_fract_y
_atom_site_fract_z
Si Si1 0.565202 0.730484 0.111324
Si Si2 0.084033 0.375158 0.941644
Si Si3 0.555252 0.869257 0.277683
Si Si4 0.728056 0.127061 0.159731
Si Si5 0.245944 0.188610 0.384985
Si Si6 0.140176 0.874043 0.674031
Si Si7 0.500000 0.500000 0.500000
Si Si8 0.897433 0.222302 0.562796
O O1 0.547551 0.805250 0.208528
O O2 0.464880 0.672749 0.215505
O O3 0.598657 0.808160 0.998332
O O4 0.657289 0.649178 0.004032
O O5 0.050777 0.500000 0.005428
O O6 0.179210 0.378286 0.765266
O O7 0.000000 0.321558 0.000000
O O8 0.666146 0.864333 0.163569
O O9 0.488948 0.804142 0.425752
O O10 0.527101 0.000000 0.308500
O O11 0.678859 0.216401 0.281011
O O12 0.713973 0.000000 0.207305
O O13 0.208630 0.130076 0.509739
O O14 0.305808 0.297221 0.335199
O O15 0.155387 0.212724 0.449116
O O16 0.129196 0.000000 0.716028
O O17 0.434075 0.601749 0.545038
#
# Coordination Sequence:
#
# PCOD9221579 Si02
#       8
#     8   8   8   8   8   8   2   8
#     4  12  23  43  66 101 137 177 234 277 339 418
#     4  11  23  41  65  94 132 174 218 280 334 398
#     4  11  24  45  67  96 136 181 229 288 342 411
#     4  11  24  44  68  98 136 182 226 286 352 413
#     4  11  24  45  67  97 134 173 229 273 337 413
#     4  11  25  44  67 101 136 179 225 285 340 409
#     4  12  28  44  74 112 134 180 230 300 348 406
#     4  12  24  45  71 104 134 175 234 280 346 414
#
# _framework density 20.098922000000002
#
# number of rings (size 3 to 8) (size 9 to 14) (size 15 to 20)
#    0.000    0.690    5.517    2.069    1.931    2.207 
#    2.483    0.690    0.000    0.000    0.000    0.000 
#    0.000    0.000    0.000    0.000    0.000    0.000 
#
# Total GULP energy -161685.767480 kJ/mol
# GULP energy per Si atom -5575.371292 kJ/mol
# Density = 2.005318 g / cm^3
# Si number density = 20.098922 Si / 1000 Ang^3
#
#
#
# Elastic Constant Matrix: (Units=GPa)
#
#
# Indices 1 2 3 4 5 6 
#
# 1 106.7984 59.4993 23.6266 0.0000 -15.7232 0.0000
# 2 59.4993 164.5263 40.0073 0.0000 -5.2944 -0.0001
# 3 23.6266 40.0073 88.9114 0.0000 -5.6774 0.0000
# 4 0.0000 0.0000 0.0000 15.3324 0.0000 1.9974
# 5 -15.7232 -5.2944 -5.6774 0.0000 37.3460 0.0000
# 6 0.0000 -0.0001 0.0000 1.9974 0.0000 52.2373
#
#
#
# Elastic Compliance Matrix: (Units=1/GPa)
#
#
# Indices 1 2 3 4 5 6 
#
# 1 0.012589 -0.004114 -0.001205 0.000000 0.004534 0.000000
# 2 -0.004114 0.008179 -0.002649 0.000000 -0.000975 0.000000
# 3 -0.001205 -0.002649 0.012827 0.000000 0.001067 0.000000
# 4 0.000000 0.000000 0.000000 0.065548 0.000000 -0.002506
# 5 0.004534 -0.000975 0.001067 0.000000 0.028709 0.000000
# 6 0.000000 0.000000 0.000000 -0.002506 0.000000 0.019239
#
#
# Mechanical properties :
#
#
# Convention : Reuss Voigt Hill
#
# Bulk Modulus (GPa) = 56.62598 67.38917 62.00758
# Shear Modulus (GPa) = 29.60077 36.79000 33.19539
#
# Velocity S-wave (km/s) = 3.84181 4.28301 4.06840
# Velocity P-wave (km/s) = 6.92201 7.61974 7.27924
#
# Compressibility (1/GPa) = 0.01765974
#
# Stress axis : x y z
#
# Youngs Moduli (GPa) = 79.43155 122.26957 77.95760
#
# Poissons Ratio (x) = 0.50302 0.09392
# Poissons Ratio (y) = 0.32678 0.20652
# Poissons Ratio (z) = 0.09569 0.32391
#
# Static dielectric constant tensor:
#      x y z
#    x 1.735560 0.000000 -0.037500 
#    y 0.000000 1.687990 0.000000 
#    z -0.037500 0.000000 1.728650 
# 
# From -- ./inp_files/293249.got.cif
#   From: 2010.05.17/outbox.cif.g08.bks.cpg/sg12_147_cif.got.tgz:293249.got - 2010.06.03 13:09:07.
