data_PCOD9221814
_publ_section_title
;
Structure prediction by ZEFSAII (Michael W. Deem and Ramdas Pophale) SiO2 
 PCOD9221814
Probable space group: C 2/M
;
_chemical_formula_sum "Si O2"
_cell_formula_units_Z 48
_cell_length_a 14.627429
_cell_length_b 25.080556
_cell_length_c 11.999999
_cell_angle_alpha 90.000000
_cell_angle_beta 150.717634
_cell_angle_gamma 90.000000
_cell_volume 2153.260084
_symmetry_space_group_name_H-M "C 2/M"
_symmetry_group_IT_number 12
_symmetry_cell_setting 'monoclinic'
loop_
_space_group_symop_operation_xyz
x,y,z
-x,y,-z
-x,-y,-z
x,-y,z
1/2+x,1/2+y,z
1/2-x,1/2+y,-z
1/2-x,1/2-y,-z
1/2+x,1/2-y,z
loop_
_atom_site_type_symbol
_atom_site_label
_atom_site_fract_x
_atom_site_fract_y
_atom_site_fract_z
Si Si1 0.137463 0.296781 0.064042
Si Si2 0.824867 0.081046 0.604951
Si Si3 0.698932 0.401801 0.674937
Si Si4 0.390599 0.500000 0.001062
Si Si5 0.530463 0.000000 0.377200
Si Si6 0.655595 0.194881 0.440117
Si Si7 0.357095 0.000000 0.950448
Si Si8 0.500000 0.766910 0.500000
O O1 0.178813 0.349956 0.178886
O O2 0.335006 0.267194 0.265556
O O3 0.000000 0.263800 0.000000
O O4 0.027396 0.310749 0.834114
O O5 0.789088 0.072718 0.434678
O O6 0.795579 0.144548 0.581653
O O7 0.021284 0.052380 0.843882
O O8 0.669120 0.051403 0.516833
O O9 0.500000 0.381405 0.500000
O O10 0.742138 0.446914 0.810146
O O11 0.500000 0.500000 0.000000
O O12 0.162018 0.500000 0.753296
O O13 0.443497 0.000000 0.161841
O O14 0.750000 0.250000 0.500000
O O15 0.592460 0.199957 0.499792
O O16 0.500000 0.000000 0.000000
#
# Coordination Sequence:
#
# PCOD9221814 Si02
#       8
#     8   8   8   4   4   8   4   4
#     4  12  23  46  71  98 141 190 235 296 360 435
#     4  11  24  46  70 101 144 182 240 304 361 432
#     4  12  22  38  66 100 140 182 228 287 361 433
#     4  11  27  50  73 101 139 195 255 303 360 436
#     4  11  23  44  69 101 137 183 229 291 360 421
#     4  12  26  47  73 107 146 190 245 302 370 443
#     4  12  19  33  61 101 136 168 210 275 350 428
#     4  12  26  48  70 102 140 192 240 304 364 432
#
# _framework density 22.291779999999999
#
# number of rings (size 3 to 8) (size 9 to 14) (size 15 to 20)
#    0.000    0.333    5.833    3.750    0.000    2.667 
#    6.000    0.000    0.000    0.000    0.000    0.000 
#    0.000    0.000    0.000    0.000    0.000    0.000 
#
# Total GULP energy -133968.032109 kJ/mol
# GULP energy per Si atom -5582.001338 kJ/mol
# Density = 2.224104 g / cm^3
# Si number density = 22.291780 Si / 1000 Ang^3
#
#
#
# Elastic Constant Matrix: (Units=GPa)
#
#
# Indices 1 2 3 4 5 6 
#
# 1 93.8193 3.2883 10.1332 0.0000 9.5493 0.0000
# 2 3.2883 93.9566 17.3258 0.0000 14.9389 0.0000
# 3 10.1332 17.3258 88.6620 0.0000 22.3535 0.0000
# 4 0.0000 0.0000 0.0000 33.9097 0.0000 1.4665
# 5 9.5493 14.9389 22.3535 0.0000 51.0529 0.0000
# 6 0.0000 0.0000 0.0000 1.4665 0.0000 30.3167
#
#
#
# Elastic Compliance Matrix: (Units=1/GPa)
#
#
# Indices 1 2 3 4 5 6 
#
# 1 0.010919 0.000040 -0.000829 0.000000 -0.001691 0.000000
# 2 0.000040 0.011350 -0.001555 0.000000 -0.002648 0.000000
# 3 -0.000829 -0.001555 0.012954 0.000000 -0.005062 0.000000
# 4 0.000000 0.000000 0.000000 0.029552 0.000000 -0.001430
# 5 -0.001691 -0.002648 -0.005062 0.000000 0.022895 0.000000
# 6 0.000000 0.000000 0.000000 -0.001430 0.000000 0.033054
#
#
# Mechanical properties :
#
#
# Convention : Reuss Voigt Hill
#
# Bulk Modulus (GPa) = 32.75154 37.54807 35.14981
# Shear Modulus (GPa) = 36.87588 39.43523 38.15555
#
# Velocity S-wave (km/s) = 4.07164 4.21057 4.14169
# Velocity P-wave (km/s) = 6.06865 6.36545 6.21882
#
# Compressibility (1/GPa) = 0.03053291
#
# Stress axis : x y z
#
# Youngs Moduli (GPa) = 91.58278 88.10945 77.19887
#
# Poissons Ratio (x) = -0.00349 0.06403
# Poissons Ratio (y) = -0.00363 0.12003
# Poissons Ratio (z) = 0.07596 0.13700
#
# Static dielectric constant tensor:
#      x y z
#    x 1.798270 0.000000 -0.014060 
#    y 0.000000 1.850780 0.000000 
#    z -0.014060 0.000000 1.849610 
# 
# From -- ./inp_files/149935.got.cif
#   From: 2010.05.17/outbox.cif.g08.bks.cpg/sg12_75_cif.got.tgz:149935.got - 2010.06.03 13:09:07.
