data_PCOD9221236
_publ_section_title
;
Structure prediction by ZEFSAII (Michael W. Deem and Ramdas Pophale) SiO2 
 PCOD9221236
Probable space group: C 2/M
;
_chemical_formula_sum "Si O2"
_cell_formula_units_Z 44
_cell_length_a 8.712229
_cell_length_b 18.918403
_cell_length_c 11.320246
_cell_angle_alpha 90.000000
_cell_angle_beta 82.532485
_cell_angle_gamma 90.000000
_cell_volume 1849.994902
_symmetry_space_group_name_H-M "C 2/M"
_symmetry_group_IT_number 12
_symmetry_cell_setting 'monoclinic'
loop_
_space_group_symop_operation_xyz
x,y,z
-x,y,-z
-x,-y,-z
x,-y,z
1/2+x,1/2+y,z
1/2-x,1/2+y,-z
1/2-x,1/2-y,-z
1/2+x,1/2-y,z
loop_
_atom_site_type_symbol
_atom_site_label
_atom_site_fract_x
_atom_site_fract_y
_atom_site_fract_z
Si Si1 0.474934 0.500000 0.140971
Si Si2 0.313635 0.500000 0.538094
Si Si3 0.847288 0.885124 0.724018
Si Si4 0.449148 0.856022 0.630094
Si Si5 0.845092 0.500000 0.707359
Si Si6 0.111620 0.783974 0.685115
Si Si7 0.644167 0.787732 0.914443
O O1 0.553388 0.434522 0.199340
O O2 0.294900 0.500000 0.187896
O O3 0.500000 0.500000 0.000000
O O4 0.500000 0.500000 0.500000
O O5 0.279005 0.432702 0.625482
O O6 0.232943 0.500000 0.417782
O O7 0.733678 0.842756 0.822391
O O8 0.973055 0.832679 0.654233
O O9 0.500000 0.885385 0.500000
O O10 0.279953 0.817496 0.646499
O O11 0.426562 0.794072 0.358846
O O12 0.433338 0.925561 0.712339
O O13 0.090664 0.773042 0.828104
O O14 0.500000 0.819188 0.000000
O O15 0.750000 0.750000 0.000000
#
# Coordination Sequence:
#
# PCOD9221236 Si02
#       7
#     4   4   8   8   4   8   8
#     4  11  25  43  76 105 146 196 261 302 373 473
#     4  11  22  47  75 103 153 199 252 304 382 466
#     4  11  24  44  74 111 141 200 253 311 380 455
#     4  12  27  46  72 111 151 198 250 311 379 453
#     4  12  26  49  75 107 156 207 243 317 391 452
#     4  12  24  46  72 110 146 190 256 311 374 446
#     4  12  25  44  73 105 150 195 246 324 389 446
#
# _framework density 23.783849
#
# number of rings (size 3 to 8) (size 9 to 14) (size 15 to 20)
#    0.000    0.364    7.273    0.818    5.091    3.636 
#    0.000    1.818    0.000    0.000    0.000    0.636 
#    0.000    0.000    0.000    0.000    0.000    0.000 
#
# Total GULP energy -123141.861794 kJ/mol
# GULP energy per Si atom -5597.357354 kJ/mol
# Density = 2.372972 g / cm^3
# Si number density = 23.783849 Si / 1000 Ang^3
#
#
#
# Elastic Constant Matrix: (Units=GPa)
#
#
# Indices 1 2 3 4 5 6 
#
# 1 60.9043 27.9512 19.8143 0.0000 -31.3986 0.0000
# 2 27.9512 140.6518 18.0162 0.0000 -20.5537 0.0000
# 3 19.8143 18.0162 124.0539 0.0000 -22.8394 0.0000
# 4 0.0000 0.0000 0.0000 40.5188 0.0000 -8.1501
# 5 -31.3986 -20.5537 -22.8394 0.0000 50.0759 0.0000
# 6 0.0000 0.0000 0.0000 -8.1501 0.0000 38.3906
#
#
#
# Elastic Compliance Matrix: (Units=1/GPa)
#
#
# Indices 1 2 3 4 5 6 
#
# 1 0.025432 -0.002831 -0.001014 0.000000 0.014322 0.000000
# 2 -0.002831 0.007916 -0.000465 0.000000 0.001262 0.000000
# 3 -0.001014 -0.000465 0.008884 0.000000 0.003225 0.000000
# 4 0.000000 0.000000 0.000000 0.025781 0.000000 0.005473
# 5 0.014322 0.001262 0.003225 0.000000 0.030939 0.000000
# 6 0.000000 0.000000 0.000000 0.005473 0.000000 0.027210
#
#
# Mechanical properties :
#
#
# Convention : Reuss Voigt Hill
#
# Bulk Modulus (GPa) = 29.75160 50.79703 40.27432
# Shear Modulus (GPa) = 34.24962 43.11894 38.68428
#
# Velocity S-wave (km/s) = 3.79890 4.26249 4.03736
# Velocity P-wave (km/s) = 5.63724 6.75495 6.22125
#
# Compressibility (1/GPa) = 0.03361164
#
# Stress axis : x y z
#
# Youngs Moduli (GPa) = 39.32062 126.32036 112.55744
#
# Poissons Ratio (x) = 0.35764 0.11415
# Poissons Ratio (y) = 0.11133 0.05236
# Poissons Ratio (z) = 0.03988 0.05876
#
# Static dielectric constant tensor:
#      x y z
#    x 2.018550 0.000000 0.054500 
#    y 0.000000 1.878730 0.000000 
#    z 0.054500 0.000000 1.866450 
# 
# From -- ./inp_files/131606.got.cif
#   From: 2010.05.17/outbox.cif.g08.bks.cpg/sg12_66_cif.got.tgz:131606.got - 2010.06.03 13:09:07.
