data_PCOD9221891
_publ_section_title
;
Structure prediction by ZEFSAII (Michael W. Deem and Ramdas Pophale) SiO2 
 PCOD9221891
Probable space group: C 2/M
;
_chemical_formula_sum "Si O2"
_cell_formula_units_Z 40
_cell_length_a 8.890709
_cell_length_b 18.279327
_cell_length_c 15.799874
_cell_angle_alpha 90.000000
_cell_angle_beta 135.642763
_cell_angle_gamma 90.000000
_cell_volume 1795.180386
_symmetry_space_group_name_H-M "C 2/M"
_symmetry_group_IT_number 12
_symmetry_cell_setting 'monoclinic'
loop_
_space_group_symop_operation_xyz
x,y,z
-x,y,-z
-x,-y,-z
x,-y,z
1/2+x,1/2+y,z
1/2-x,1/2+y,-z
1/2-x,1/2-y,-z
1/2+x,1/2-y,z
loop_
_atom_site_type_symbol
_atom_site_label
_atom_site_fract_x
_atom_site_fract_y
_atom_site_fract_z
Si Si1 0.566186 0.000000 0.275500
Si Si2 0.228746 0.352781 0.057574
Si Si3 0.733729 0.500000 0.476255
Si Si4 0.684959 0.723138 0.257759
Si Si5 0.500000 0.870963 0.500000
Si Si6 0.703707 0.500000 0.808453
Si Si7 0.590909 0.845536 0.810850
O O1 0.434808 0.926178 0.237422
O O2 0.763838 0.000000 0.420806
O O3 0.629935 0.000000 0.202522
O O4 0.443806 0.308116 0.161590
O O5 0.261924 0.429767 0.118544
O O6 0.206143 0.354708 0.947261
O O7 0.000000 0.322807 0.000000
O O8 0.864518 0.573190 0.503430
O O9 0.522794 0.500000 0.332607
O O10 0.835024 0.681278 0.384397
O O11 0.641919 0.808124 0.262775
O O12 0.786540 0.703219 0.208577
#
# Coordination Sequence:
#
# PCOD9221891 Si02
#       7
#     4   8   4   8   4   4   8
#     4  12  25  49  75 109 151 197 251 320 363 463
#     4  12  24  46  75 109 153 201 248 313 375 452
#     4  11  23  47  75 110 150 202 252 315 370 459
#     4  12  27  49  76 111 153 202 250 320 379 449
#     4  11  24  48  78 107 152 196 260 309 382 448
#     4  12  24  45  77 111 152 200 256 310 384 438
#     4  12  27  47  75 111 154 197 257 306 383 449
#
# _framework density 22.281884000000002
#
# number of rings (size 3 to 8) (size 9 to 14) (size 15 to 20)
#    0.000    0.200    6.000    3.600    0.000    1.600 
#    3.600    2.000    0.000    0.000    0.000    0.000 
#    0.000    0.000    0.000    0.000    0.000    0.000 
#
# Total GULP energy -111860.895800 kJ/mol
# GULP energy per Si atom -5593.044790 kJ/mol
# Density = 2.223117 g / cm^3
# Si number density = 22.281884 Si / 1000 Ang^3
#
#
#
# Elastic Constant Matrix: (Units=GPa)
#
#
# Indices 1 2 3 4 5 6 
#
# 1 99.0871 35.3290 41.3307 0.0000 -12.7274 0.0000
# 2 35.3290 114.5404 50.0490 0.0000 -5.7723 0.0000
# 3 41.3307 50.0490 181.7993 0.0001 -2.1094 0.0001
# 4 0.0000 0.0000 0.0001 28.9066 0.0000 12.0502
# 5 -12.7274 -5.7723 -2.1094 0.0000 42.8634 0.0000
# 6 0.0000 0.0000 0.0001 12.0502 0.0000 24.7121
#
#
#
# Elastic Compliance Matrix: (Units=1/GPa)
#
#
# Indices 1 2 3 4 5 6 
#
# 1 0.012323 -0.002765 -0.002003 0.000000 0.003188 0.000000
# 2 -0.002765 0.010607 -0.002286 0.000000 0.000495 0.000000
# 3 -0.002003 -0.002286 0.006579 0.000000 -0.000579 0.000000
# 4 0.000000 0.000000 0.000000 0.043420 0.000000 -0.021173
# 5 0.003188 0.000495 -0.000579 0.000000 0.024315 0.000000
# 6 0.000000 0.000000 0.000000 -0.021173 0.000000 0.050790
#
#
# Mechanical properties :
#
#
# Convention : Reuss Voigt Hill
#
# Bulk Modulus (GPa) = 64.93250 72.09378 68.51314
# Shear Modulus (GPa) = 29.89071 37.21095 33.55083
#
# Velocity S-wave (km/s) = 3.66660 4.09101 3.88460
# Velocity P-wave (km/s) = 6.86512 7.39870 7.13690
#
# Compressibility (1/GPa) = 0.01540061
#
# Stress axis : x y z
#
# Youngs Moduli (GPa) = 81.14842 94.27668 152.00840
#
# Poissons Ratio (x) = 0.26066 0.30453
# Poissons Ratio (y) = 0.22437 0.34746
# Poissons Ratio (z) = 0.16257 0.21550
#
# Static dielectric constant tensor:
#      x y z
#    x 1.824950 0.000000 -0.018740 
#    y 0.000000 1.882780 0.000000 
#    z -0.018740 0.000000 1.798410 
# 
# From -- ./inp_files/197356.got.cif
#   From: 2010.05.17/outbox.cif.g08.bks.cpg/sg12_99_cif.got.tgz:197356.got - 2010.06.03 13:09:07.
