data_PCOD9221134
_publ_section_title
;
Structure prediction by ZEFSAII (Michael W. Deem and Ramdas Pophale) SiO2 
 PCOD9221134
Probable space group: C 2/M
;
_chemical_formula_sum "Si O2"
_cell_formula_units_Z 56
_cell_length_a 29.377387
_cell_length_b 16.302040
_cell_length_c 11.837218
_cell_angle_alpha 90.000000
_cell_angle_beta 27.759809
_cell_angle_gamma 90.000000
_cell_volume 2640.417295
_symmetry_space_group_name_H-M "C 2/M"
_symmetry_group_IT_number 12
_symmetry_cell_setting 'monoclinic'
loop_
_space_group_symop_operation_xyz
x,y,z
-x,y,-z
-x,-y,-z
x,-y,z
1/2+x,1/2+y,z
1/2-x,1/2+y,-z
1/2-x,1/2-y,-z
1/2+x,1/2-y,z
loop_
_atom_site_type_symbol
_atom_site_label
_atom_site_fract_x
_atom_site_fract_y
_atom_site_fract_z
Si Si1 0.408589 0.094666 0.262592
Si Si2 0.775386 0.333236 0.377165
Si Si3 0.429822 0.598299 0.261802
Si Si4 0.552968 0.688767 0.540661
Si Si5 0.681575 0.840267 0.317315
Si Si6 0.647251 0.775381 0.015503
Si Si7 0.238540 0.907331 0.078575
O O1 0.318542 0.105956 0.375458
O O2 0.384567 0.128393 0.437213
O O3 0.430646 0.000000 0.231113
O O4 0.500000 0.136627 0.000000
O O5 0.750000 0.250000 0.500000
O O6 0.678284 0.369178 0.532066
O O7 0.854667 0.315889 0.104422
O O8 0.428519 0.500000 0.286741
O O9 0.462656 0.649124 0.300258
O O10 0.500000 0.612653 0.000000
O O11 0.623531 0.766929 0.386861
O O12 0.624776 0.621845 0.324439
O O13 0.450617 0.729619 0.728638
O O14 0.775458 0.797891 0.165540
O O15 0.716908 0.902300 0.144540
O O16 0.696499 0.843883 0.989147
O O17 0.244154 0.000000 0.110859
#
# Coordination Sequence:
#
# PCOD9221134 Si02
#       7
#     8   8   8   8   8   8   8
#     4  11  24  41  62  94 134 173 219 277 342 402
#     4  12  21  39  65  95 131 176 225 273 334 408
#     4  11  23  38  62  99 139 178 226 284 345 404
#     4  11  22  42  68  97 133 175 230 279 339 409
#     4  11  23  44  66  96 133 178 226 282 337 414
#     4  11  23  41  71  99 133 176 232 279 335 414
#     4  11  25  46  71  99 137 178 227 289 348 406
#
# _framework density 21.208769
#
# number of rings (size 3 to 8) (size 9 to 14) (size 15 to 20)
#    0.000    0.857    4.286    4.714    0.000    4.000 
#    0.000    5.000    0.000    0.000    0.000    0.000 
#    0.000    0.000    0.000    0.000    0.000    0.000 
#
# Total GULP energy -156335.485170 kJ/mol
# GULP energy per Si atom -5583.410185 kJ/mol
# Density = 2.116050 g / cm^3
# Si number density = 21.208769 Si / 1000 Ang^3
#
#
#
# Elastic Constant Matrix: (Units=GPa)
#
#
# Indices 1 2 3 4 5 6 
#
# 1 36.9858 14.4339 27.1399 0.0000 13.1800 0.0000
# 2 14.4339 95.5077 43.2296 0.0000 3.6858 0.0000
# 3 27.1399 43.2296 138.3346 0.0000 11.4462 0.0000
# 4 0.0000 0.0000 0.0000 27.4893 0.0000 2.4823
# 5 13.1800 3.6858 11.4462 0.0000 45.0498 0.0000
# 6 0.0000 0.0000 0.0000 2.4823 0.0000 23.9550
#
#
#
# Elastic Compliance Matrix: (Units=1/GPa)
#
#
# Indices 1 2 3 4 5 6 
#
# 1 0.035061 -0.002534 -0.005368 0.000000 -0.008686 0.000000
# 2 -0.002534 0.012378 -0.003421 0.000000 0.000598 0.000000
# 3 -0.005368 -0.003421 0.009395 0.000000 -0.000537 0.000000
# 4 0.000000 0.000000 0.000000 0.036721 0.000000 -0.003805
# 5 -0.008686 0.000598 -0.000537 0.000000 0.024826 0.000000
# 6 0.000000 0.000000 0.000000 -0.003805 0.000000 0.042139
#
#
# Mechanical properties :
#
#
# Convention : Reuss Voigt Hill
#
# Bulk Modulus (GPa) = 29.24851 48.93721 39.09286
# Shear Modulus (GPa) = 25.69861 31.70046 28.69954
#
# Velocity S-wave (km/s) = 3.48472 3.87031 3.68257
# Velocity P-wave (km/s) = 5.47830 6.56480 6.04600
#
# Compressibility (1/GPa) = 0.03418978
#
# Stress axis : x y z
#
# Youngs Moduli (GPa) = 28.52198 80.78525 106.43525
#
# Poissons Ratio (x) = 0.20468 0.57135
# Poissons Ratio (y) = 0.07227 0.36408
# Poissons Ratio (z) = 0.15311 0.27634
#
# Static dielectric constant tensor:
#      x y z
#    x 1.793000 0.000000 0.013900 
#    y 0.000000 1.816100 0.000000 
#    z 0.013900 0.000000 1.854600 
# 
# From -- ./inp_files/189634.got.cif
#   From: 2010.05.17/outbox.cif.g08.bks.cpg/sg12_95_cif.got.tgz:189634.got - 2010.06.03 13:09:07.
