data_PCOD9221545
_publ_section_title
;
Structure prediction by ZEFSAII (Michael W. Deem and Ramdas Pophale) SiO2 
 PCOD9221545
Probable space group: C 2/M
;
_chemical_formula_sum "Si O2"
_cell_formula_units_Z 56
_cell_length_a 14.344645
_cell_length_b 13.674785
_cell_length_c 17.026128
_cell_angle_alpha 90.000000
_cell_angle_beta 54.088490
_cell_angle_gamma 90.000000
_cell_volume 2705.019390
_symmetry_space_group_name_H-M "C 2/M"
_symmetry_group_IT_number 12
_symmetry_cell_setting 'monoclinic'
loop_
_space_group_symop_operation_xyz
x,y,z
-x,y,-z
-x,-y,-z
x,-y,z
1/2+x,1/2+y,z
1/2-x,1/2+y,-z
1/2-x,1/2-y,-z
1/2+x,1/2-y,z
loop_
_atom_site_type_symbol
_atom_site_label
_atom_site_fract_x
_atom_site_fract_y
_atom_site_fract_z
Si Si1 0.536256 0.892289 0.124765
Si Si2 0.193407 0.882463 0.599600
Si Si3 0.679074 0.614634 0.871779
Si Si4 0.704953 0.383791 0.035699
Si Si5 0.918530 0.611321 0.710134
Si Si6 0.527741 0.312630 0.820624
Si Si7 0.085155 0.745486 0.527668
O O1 0.658061 0.874409 0.020557
O O2 0.562455 0.895253 0.205373
O O3 0.455422 0.798809 0.159291
O O4 0.492651 0.000000 0.123360
O O5 0.143218 0.836692 0.543544
O O6 0.314984 0.827784 0.551454
O O7 0.106317 0.848367 0.710889
O O8 0.203851 0.000000 0.593371
O O9 0.702592 0.500000 0.870260
O O10 0.682836 0.654251 0.957674
O O11 0.788079 0.650227 0.766992
O O12 0.564576 0.626082 0.878696
O O13 0.681107 0.500000 0.053029
O O14 0.606623 0.329512 0.133470
O O15 0.928571 0.500000 0.673242
O O16 0.010097 0.682504 0.626418
O O17 0.000000 0.774736 0.500000
#
# Coordination Sequence:
#
# PCOD9221545 Si02
#       7
#     8   8   8   8   8   8   8
#     4   9  19  34  52  77 106 144 187 218 261 330
#     4  11  25  40  59  93 120 147 198 247 291 349
#     4   9  18  30  52  85 111 137 181 232 284 335
#     4   9  18  32  52  80 110 143 181 223 278 335
#     4   9  17  35  58  78 105 140 182 232 276 330
#     4  12  19  32  54  82 113 144 175 234 287 330
#     4  11  23  41  62  85 117 158 192 239 298 356
#
# _framework density 20.702254
#
# number of rings (size 3 to 8) (size 9 to 14) (size 15 to 20)
#    0.000    2.000    1.429    5.143    0.000    3.714 
#    0.000    0.000    0.000    4.286    0.000    0.000 
#    0.000    0.000    0.000    0.000    0.000    0.000 
#
# Total GULP energy -156217.358424 kJ/mol
# GULP energy per Si atom -5579.191372 kJ/mol
# Density = 2.065514 g / cm^3
# Si number density = 20.702254 Si / 1000 Ang^3
#
#
#
# Elastic Constant Matrix: (Units=GPa)
#
#
# Indices 1 2 3 4 5 6 
#
# 1 40.6475 3.5353 1.8543 0.0000 -2.2499 0.0000
# 2 3.5353 107.8325 29.6160 0.0000 -5.6113 0.0000
# 3 1.8543 29.6160 84.0279 0.0000 -19.6864 0.0000
# 4 0.0000 0.0000 0.0000 23.3986 0.0000 -4.6668
# 5 -2.2499 -5.6113 -19.6864 0.0000 18.2031 0.0000
# 6 0.0000 0.0000 0.0000 -4.6668 0.0000 15.9989
#
#
#
# Elastic Compliance Matrix: (Units=1/GPa)
#
#
# Indices 1 2 3 4 5 6 
#
# 1 0.024834 -0.000781 0.000522 0.000000 0.003394 0.000000
# 2 -0.000781 0.010306 -0.003875 0.000000 -0.001111 0.000000
# 3 0.000522 -0.003875 0.017399 0.000000 0.017687 0.000000
# 4 0.000000 0.000000 0.000000 0.045378 0.000000 0.013236
# 5 0.003394 -0.001111 0.017687 0.000000 0.074140 0.000000
# 6 0.000000 0.000000 0.000000 0.013236 0.000000 0.066365
#
#
# Mechanical properties :
#
#
# Convention : Reuss Voigt Hill
#
# Bulk Modulus (GPa) = 22.58852 33.61324 28.10088
# Shear Modulus (GPa) = 19.12436 24.68694 21.90565
#
# Velocity S-wave (km/s) = 3.04268 3.45697 3.25642
# Velocity P-wave (km/s) = 4.82480 5.67503 5.26710
#
# Compressibility (1/GPa) = 0.04427027
#
# Stress axis : x y z
#
# Youngs Moduli (GPa) = 40.26789 97.03280 57.47515
#
# Poissons Ratio (x) = 0.07579 -0.03002
# Poissons Ratio (y) = 0.03145 0.22273
# Poissons Ratio (z) = -0.02103 0.37603
#
# Static dielectric constant tensor:
#      x y z
#    x 1.774160 0.000000 -0.028740 
#    y 0.000000 1.750780 0.000000 
#    z -0.028740 0.000000 1.775100 
# 
# From -- ./inp_files/270218.got.cif
#   From: 2010.05.17/outbox.cif.g08.bks.cpg/sg12_136_cif.got.tgz:270218.got - 2010.06.03 13:09:07.
