data_PCOD9221221
_publ_section_title
;
Structure prediction by ZEFSAII (Michael W. Deem and Ramdas Pophale) SiO2 
 PCOD9221221
Probable space group: C 2/M
;
_chemical_formula_sum "Si O2"
_cell_formula_units_Z 32
_cell_length_a 9.517108
_cell_length_b 22.598949
_cell_length_c 12.102220
_cell_angle_alpha 90.000000
_cell_angle_beta 35.677751
_cell_angle_gamma 90.000000
_cell_volume 1518.081284
_symmetry_space_group_name_H-M "C 2/M"
_symmetry_group_IT_number 12
_symmetry_cell_setting 'monoclinic'
loop_
_space_group_symop_operation_xyz
x,y,z
-x,y,-z
-x,-y,-z
x,-y,z
1/2+x,1/2+y,z
1/2-x,1/2+y,-z
1/2-x,1/2-y,-z
1/2+x,1/2-y,z
loop_
_atom_site_type_symbol
_atom_site_label
_atom_site_fract_x
_atom_site_fract_y
_atom_site_fract_z
Si Si1 0.242456 0.263745 0.634622
Si Si2 0.149353 0.868193 0.738219
Si Si3 0.578152 0.132038 0.076405
Si Si4 0.519429 0.930911 0.649503
O O1 0.500000 0.291849 0.500000
O O2 0.250000 0.250000 0.500000
O O3 0.221040 0.200334 0.708134
O O4 0.028430 0.306294 0.808620
O O5 0.266987 0.906305 0.761369
O O6 0.280941 0.893883 0.545135
O O7 0.865363 0.870458 0.904194
O O8 0.471953 0.083007 0.226899
O O9 0.500000 0.125419 0.000000
O O10 0.544234 0.000000 0.610440
#
# Coordination Sequence:
#
# PCOD9221221 Si02
#       4
#     8   8   8   8
#     4  12  22  42  70 100 142 183 222 282 356 414
#     4  11  22  45  72 102 136 179 237 291 340 399
#     4  12  27  41  68 106 145 181 225 280 355 427
#     4  11  25  47  74 100 135 188 242 290 331 395
#
# _framework density 21.079239999999999
#
# number of rings (size 3 to 8) (size 9 to 14) (size 15 to 20)
#    0.000    0.500    5.000    4.500    0.000    5.500 
#    0.000    1.250    0.000    0.000    0.000    0.000 
#    0.000    0.000    0.000    0.000    0.000    0.000 
#
# Total GULP energy -89538.633569 kJ/mol
# GULP energy per Si atom -5596.164598 kJ/mol
# Density = 2.103126 g / cm^3
# Si number density = 21.079240 Si / 1000 Ang^3
#
#
#
# Elastic Constant Matrix: (Units=GPa)
#
#
# Indices 1 2 3 4 5 6 
#
# 1 113.2086 18.1075 79.0223 0.0000 16.2059 0.0000
# 2 18.1075 121.7613 43.3636 0.0000 -13.3958 0.0000
# 3 79.0223 43.3636 138.9534 0.0000 -13.7843 0.0000
# 4 0.0000 0.0000 0.0000 9.6022 0.0000 -2.0100
# 5 16.2059 -13.3958 -13.7843 0.0000 46.4827 0.0000
# 6 0.0000 0.0000 0.0000 -2.0100 0.0000 25.7617
#
#
#
# Elastic Compliance Matrix: (Units=1/GPa)
#
#
# Indices 1 2 3 4 5 6 
#
# 1 0.018042 0.000289 -0.011299 0.000000 -0.009557 0.000000
# 2 0.000289 0.009404 -0.002926 0.000000 0.001741 0.000000
# 3 -0.011299 -0.002926 0.015292 0.000000 0.007631 0.000000
# 4 0.000000 0.000000 0.000000 0.105872 0.000000 0.008260
# 5 -0.009557 0.001741 0.007631 0.000000 0.027610 0.000000
# 6 0.000000 0.000000 0.000000 0.008260 0.000000 0.039462
#
#
# Mechanical properties :
#
#
# Convention : Reuss Voigt Hill
#
# Bulk Modulus (GPa) = 67.26640 72.76779 70.01710
# Shear Modulus (GPa) = 20.11994 31.93129 26.02562
#
# Velocity S-wave (km/s) = 3.09284 3.89629 3.51758
# Velocity P-wave (km/s) = 6.68840 7.40523 7.05592
#
# Compressibility (1/GPa) = 0.01486626
#
# Stress axis : x y z
#
# Youngs Moduli (GPa) = 55.42639 106.34312 65.39167
#
# Poissons Ratio (x) = -0.03077 0.73885
# Poissons Ratio (y) = -0.01604 0.19136
# Poissons Ratio (z) = 0.62625 0.31120
#
# Static dielectric constant tensor:
#      x y z
#    x 1.769270 0.000000 0.018350 
#    y 0.000000 1.736830 0.000000 
#    z 0.018350 0.000000 1.786640 
# 
# From -- ./inp_files/121551.got.cif
#   From: 2010.05.17/outbox.cif.g08.bks.cpg/sg12_61_cif.got.tgz:121551.got - 2010.06.03 13:09:07.
