data_PCOD9221105
_publ_section_title
;
Structure prediction by ZEFSAII (Michael W. Deem and Ramdas Pophale) SiO2 
 PCOD9221105
Probable space group: C 2/M
;
_chemical_formula_sum "Si O2"
_cell_formula_units_Z 40
_cell_length_a 24.198497
_cell_length_b 15.120800
_cell_length_c 15.369146
_cell_angle_alpha 90.000000
_cell_angle_beta 161.486185
_cell_angle_gamma 90.000000
_cell_volume 1785.674021
_symmetry_space_group_name_H-M "C 2/M"
_symmetry_group_IT_number 12
_symmetry_cell_setting 'monoclinic'
loop_
_space_group_symop_operation_xyz
x,y,z
-x,y,-z
-x,-y,-z
x,-y,z
1/2+x,1/2+y,z
1/2-x,1/2+y,-z
1/2-x,1/2-y,-z
1/2+x,1/2-y,z
loop_
_atom_site_type_symbol
_atom_site_label
_atom_site_fract_x
_atom_site_fract_y
_atom_site_fract_z
Si Si1 0.763281 0.000000 0.415793
Si Si2 0.653198 0.754096 0.056395
Si Si3 0.898130 0.648031 0.546260
Si Si4 0.500000 0.153843 0.000000
Si Si5 0.909360 0.500000 0.273393
Si Si6 0.181293 0.000000 0.317260
Si Si7 0.458260 0.500000 0.305749
Si Si8 0.000000 0.846157 0.500000
O O1 0.861367 0.000000 0.472736
O O2 0.651585 0.087848 0.254107
O O3 0.877227 0.000000 0.670512
O O4 0.753089 0.673132 0.256177
O O5 0.827337 0.796114 0.273333
O O6 0.503025 0.772953 0.756050
O O7 0.564661 0.796115 0.010660
O O8 0.797464 0.585183 0.464679
O O9 0.036966 0.585183 0.704181
O O10 0.000000 0.500000 0.500000
O O11 0.709345 0.500000 0.002628
O O12 0.000000 0.000000 0.000000
O O13 0.446549 0.412152 0.344029
#
# Coordination Sequence:
#
# PCOD9221105 Si02
#       8
#     4   8   8   4   4   4   4   4
#     4  11  22  41  75 109 139 190 245 297 362 452
#     4  12  26  48  72 110 150 198 246 316 364 438
#     4  11  28  48  76 103 154 194 248 299 380 436
#     4  11  24  42  74 107 148 188 250 303 370 430
#     4  11  26  48  71 107 146 192 239 309 368 444
#     4  11  26  48  71 107 146 192 239 309 368 444
#     4  11  22  41  75 109 139 190 245 297 362 452
#     4  11  24  42  74 107 148 188 250 303 370 430
#
# _framework density 22.400504999999999
#
# number of rings (size 3 to 8) (size 9 to 14) (size 15 to 20)
#    0.000    0.800    6.000    0.000    5.600    4.800 
#    0.000    0.000    0.000    2.400    0.000    0.000 
#    0.000    0.000    0.000    0.000    0.000    0.000 
#
# Total GULP energy -111359.930771 kJ/mol
# GULP energy per Si atom -5567.996539 kJ/mol
# Density = 2.234952 g / cm^3
# Si number density = 22.400505 Si / 1000 Ang^3
#
#
#
# Elastic Constant Matrix: (Units=GPa)
#
#
# Indices 1 2 3 4 5 6 
#
# 1 102.2660 13.1205 0.4156 0.0000 15.5111 0.0000
# 2 13.1205 44.9115 7.7358 0.0000 3.1696 0.0000
# 3 0.4156 7.7358 94.7162 0.0000 -11.0661 0.0000
# 4 0.0000 0.0000 0.0000 38.6323 0.0000 12.4083
# 5 15.5111 3.1696 -11.0661 0.0000 53.3927 0.0000
# 6 0.0000 0.0000 0.0000 12.4083 0.0000 59.7129
#
#
#
# Elastic Compliance Matrix: (Units=1/GPa)
#
#
# Indices 1 2 3 4 5 6 
#
# 1 0.010592 -0.002860 -0.000156 0.000000 -0.002940 0.000000
# 2 -0.002860 0.023520 -0.002023 0.000000 -0.000985 0.000000
# 3 -0.000156 -0.002023 0.011010 0.000000 0.002447 0.000000
# 4 0.000000 0.000000 0.000000 0.027736 0.000000 -0.005764
# 5 -0.002940 -0.000985 0.002447 0.000000 0.020149 0.000000
# 6 0.000000 0.000000 0.000000 -0.005764 0.000000 0.017944
#
#
# Mechanical properties :
#
#
# Convention : Reuss Voigt Hill
#
# Bulk Modulus (GPa) = 28.53740 31.60416 30.07078
# Shear Modulus (GPa) = 37.67594 45.05570 41.36582
#
# Velocity S-wave (km/s) = 4.10558 4.48970 4.30192
# Velocity P-wave (km/s) = 5.93646 6.40436 6.17484
#
# Compressibility (1/GPa) = 0.03504174
#
# Stress axis : x y z
#
# Youngs Moduli (GPa) = 94.41218 42.51785 90.82868
#
# Poissons Ratio (x) = 0.12160 0.01420
# Poissons Ratio (y) = 0.27001 0.18378
# Poissons Ratio (z) = 0.01476 0.08603
#
# Static dielectric constant tensor:
#      x y z
#    x 3.495800 0.000000 0.757280 
#    y 0.000000 1.895420 0.000000 
#    z 0.757280 0.000000 2.209410 
# 
# From -- ./inp_files/241369.got.cif
#   From: 2010.05.17/outbox.cif.g08.bks.cpg/sg12_121_cif.got.tgz:241369.got - 2010.06.03 13:09:07.
