data_PCOD9221153
_publ_section_title
;
Structure prediction by ZEFSAII (Michael W. Deem and Ramdas Pophale) SiO2 
 PCOD9221153
Probable space group: C 2/M
;
_chemical_formula_sum "Si O2"
_cell_formula_units_Z 42
_cell_length_a 14.655352
_cell_length_b 18.028070
_cell_length_c 8.649416
_cell_angle_alpha 90.000000
_cell_angle_beta 120.232876
_cell_angle_gamma 90.000000
_cell_volume 1974.417516
_symmetry_space_group_name_H-M "C 2/M"
_symmetry_group_IT_number 12
_symmetry_cell_setting 'monoclinic'
loop_
_space_group_symop_operation_xyz
x,y,z
-x,y,-z
-x,-y,-z
x,-y,z
1/2+x,1/2+y,z
1/2-x,1/2+y,-z
1/2-x,1/2-y,-z
1/2+x,1/2-y,z
loop_
_atom_site_type_symbol
_atom_site_label
_atom_site_fract_x
_atom_site_fract_y
_atom_site_fract_z
Si Si1 0.643946 0.766760 0.499896
Si Si2 0.660134 0.372845 0.726069
Si Si3 0.109660 0.629075 0.000898
Si Si4 0.879608 0.419496 0.345096
Si Si5 0.049050 0.210877 0.882360
Si Si6 0.500000 0.500000 0.500000
O O1 0.750000 0.750000 0.500000
O O2 0.638383 0.705625 0.627433
O O3 0.655612 0.847679 0.587237
O O4 0.543144 0.749080 0.303203
O O5 0.615465 0.354111 0.858829
O O6 0.590536 0.435462 0.590987
O O7 0.783066 0.393557 0.822755
O O8 0.115842 0.595534 0.834623
O O9 0.118519 0.718046 0.988333
O O10 0.000000 0.613568 0.000000
O O11 0.826893 0.500000 0.329561
O O12 0.000000 0.425651 0.500000
O O13 0.000000 0.182195 0.000000
#
# Coordination Sequence:
#
# PCOD9221153 Si02
#       6
#     8   8   8   8   8   2
#     4  12  23  44  73 101 145 198 244 296 367 447
#     4  12  25  48  72 101 151 195 249 297 366 443
#     4  11  24  43  73 112 141 192 249 310 373 439
#     4  11  24  44  67 101 150 184 235 310 376 435
#     4  11  22  42  72 107 136 186 253 300 366 439
#     4  12  28  52  72 104 148 210 230 298 362 450
#
# _framework density 21.272096999999999
#
# number of rings (size 3 to 8) (size 9 to 14) (size 15 to 20)
#    0.000    0.571    5.714    2.857    4.000    0.381 
#    1.714    0.476    0.000    0.571    0.000    0.000 
#    0.000    0.000    0.000    0.000    0.000    0.000 
#
# Total GULP energy -117025.410692 kJ/mol
# GULP energy per Si atom -5572.638604 kJ/mol
# Density = 2.122368 g / cm^3
# Si number density = 21.272097 Si / 1000 Ang^3
#
#
#
# Elastic Constant Matrix: (Units=GPa)
#
#
# Indices 1 2 3 4 5 6 
#
# 1 110.0465 51.7524 28.8759 0.0000 8.9550 0.0000
# 2 51.7524 133.7872 8.9024 0.0000 -7.0410 0.0000
# 3 28.8759 8.9024 70.2753 0.0000 12.8061 0.0000
# 4 0.0000 0.0000 0.0000 79.2695 0.0000 -71.5042
# 5 8.9550 -7.0410 12.8061 0.0000 46.7514 0.0000
# 6 0.0000 0.0000 0.0000 -71.5042 0.0000 218.3957
#
#
#
# Elastic Compliance Matrix: (Units=1/GPa)
#
#
# Indices 1 2 3 4 5 6 
#
# 1 0.012550 -0.004678 -0.004208 0.000000 -0.001956 0.000000
# 2 -0.004678 0.009379 0.000330 0.000000 0.002218 0.000000
# 3 -0.004208 0.000330 0.016589 0.000000 -0.003688 0.000000
# 4 0.000000 0.000000 0.000000 0.017902 0.000000 0.005861
# 5 -0.001956 0.002218 -0.003688 0.000000 0.023109 0.000000
# 6 0.000000 0.000000 0.000000 0.005861 0.000000 0.006498
#
#
# Mechanical properties :
#
#
# Convention : Reuss Voigt Hill
#
# Bulk Modulus (GPa) = 46.71480 54.79669 50.75574
# Shear Modulus (GPa) = 45.34153 83.85520 64.59836
#
# Velocity S-wave (km/s) = 4.62183 6.28537 5.51666
# Velocity P-wave (km/s) = 7.10563 8.85947 8.03058
#
# Compressibility (1/GPa) = 0.02140649
#
# Stress axis : x y z
#
# Youngs Moduli (GPa) = 79.68032 106.62345 60.28045
#
# Poissons Ratio (x) = 0.49875 0.25365
# Poissons Ratio (y) = 0.37272 -0.01988
# Poissons Ratio (z) = 0.33528 -0.03516
#
# Static dielectric constant tensor:
#      x y z
#    x 1.766660 0.000000 -0.050350 
#    y 0.000000 1.831340 0.000000 
#    z -0.050350 0.000000 1.879560 
# 
# From -- ./inp_files/61817.got.cif
#   From: 2010.05.17/outbox.cif.g08.bks.cpg/sg12_31_cif.got.tgz:61817.got - 2010.06.03 13:09:07.
