data_PCOD9221562
_publ_section_title
;
Structure prediction by ZEFSAII (Michael W. Deem and Ramdas Pophale) SiO2 
 PCOD9221562
Probable space group: C 2/M
;
_chemical_formula_sum "Si O2"
_cell_formula_units_Z 60
_cell_length_a 11.064489
_cell_length_b 31.664110
_cell_length_c 9.480544
_cell_angle_alpha 90.000000
_cell_angle_beta 113.011118
_cell_angle_gamma 90.000000
_cell_volume 3057.188424
_symmetry_space_group_name_H-M "C 2/M"
_symmetry_group_IT_number 12
_symmetry_cell_setting 'monoclinic'
loop_
_space_group_symop_operation_xyz
x,y,z
-x,y,-z
-x,-y,-z
x,-y,z
1/2+x,1/2+y,z
1/2-x,1/2+y,-z
1/2-x,1/2-y,-z
1/2+x,1/2-y,z
loop_
_atom_site_type_symbol
_atom_site_label
_atom_site_fract_x
_atom_site_fract_y
_atom_site_fract_z
Si Si1 0.128935 0.735839 0.851067
Si Si2 0.133586 0.451969 0.143485
Si Si3 0.362630 0.951981 0.518547
Si Si4 0.494253 0.676821 0.166161
Si Si5 0.273703 0.363775 0.543302
Si Si6 0.847076 0.721258 0.448978
Si Si7 0.232154 0.128180 0.786854
Si Si8 0.000000 0.329741 0.000000
O O1 0.027269 0.774793 0.795662
O O2 0.193787 0.723651 0.732616
O O3 0.056686 0.698478 0.899043
O O4 0.250000 0.750000 0.000000
O O5 0.165828 0.500000 0.122336
O O6 0.111052 0.448762 0.301493
O O7 0.253465 0.420825 0.168170
O O8 0.000000 0.441273 0.000000
O O9 0.500000 0.948939 0.500000
O O10 0.275407 0.910922 0.440744
O O11 0.309296 0.000000 0.468711
O O12 0.612134 0.653868 0.303204
O O13 0.363574 0.653055 0.156202
O O14 0.500000 0.675673 0.000000
O O15 0.163429 0.327015 0.503549
O O16 0.311736 0.365638 0.395141
O O17 0.750000 0.750000 0.500000
O O18 0.000000 0.734058 0.500000
O O19 0.379596 0.144843 0.878063
#
# Coordination Sequence:
#
# PCOD9221562 Si02
#       8
#     8   8   8   8   8   8   8   4
#     4  12  25  42  62  88 125 164 216 265 326 381
#     4   9  18  35  61  93 125 158 202 256 319 383
#     4   9  19  37  63  94 130 167 208 264 325 381
#     4  12  25  43  63  90 125 173 217 263 324 386
#     4  11  24  41  63  95 128 170 217 266 323 395
#     4  12  26  42  63  93 127 170 216 271 324 381
#     4  11  23  41  64  93 128 164 211 267 319 386
#     4  12  24  40  67  94 122 168 215 270 324 384
#
# _framework density 19.625876000000002
#
# number of rings (size 3 to 8) (size 9 to 14) (size 15 to 20)
#    0.000    1.067    2.667    4.000    1.867    2.133 
#    0.000    0.667    0.000    4.000    0.000    0.000 
#    0.000    0.000    0.000    0.000    0.000    0.000 
#
# Total GULP energy -167519.232177 kJ/mol
# GULP energy per Si atom -5583.974406 kJ/mol
# Density = 1.958121 g / cm^3
# Si number density = 19.625876 Si / 1000 Ang^3
#
#
#
# Elastic Constant Matrix: (Units=GPa)
#
#
# Indices 1 2 3 4 5 6 
#
# 1 73.8821 31.4981 20.2691 0.0000 -3.7482 0.0000
# 2 31.4981 121.7144 39.7063 0.0000 -3.0189 0.0000
# 3 20.2691 39.7063 80.2905 0.0000 0.4976 0.0000
# 4 0.0000 0.0000 0.0000 26.2523 0.0000 3.0411
# 5 -3.7482 -3.0189 0.4976 0.0000 38.2708 0.0000
# 6 0.0000 0.0000 0.0000 3.0411 0.0000 24.5319
#
#
#
# Elastic Compliance Matrix: (Units=1/GPa)
#
#
# Indices 1 2 3 4 5 6 
#
# 1 0.015630 -0.003246 -0.002348 0.000000 0.001305 0.000000
# 2 -0.003246 0.010497 -0.004375 0.000000 0.000567 0.000000
# 3 -0.002348 -0.004375 0.015216 0.000000 -0.000773 0.000000
# 4 0.000000 0.000000 0.000000 0.038647 0.000000 -0.004791
# 5 0.001305 0.000567 -0.000773 0.000000 0.026312 0.000000
# 6 0.000000 0.000000 0.000000 -0.004791 0.000000 0.041357
#
#
# Mechanical properties :
#
#
# Convention : Reuss Voigt Hill
#
# Bulk Modulus (GPa) = 46.72186 50.98155 48.85171
# Shear Modulus (GPa) = 28.61499 30.10524 29.36011
#
# Velocity S-wave (km/s) = 3.82255 3.92082 3.87200
# Velocity P-wave (km/s) = 6.58335 6.82131 6.70338
#
# Compressibility (1/GPa) = 0.02140326
#
# Stress axis : x y z
#
# Youngs Moduli (GPa) = 63.98146 95.26112 65.71973
#
# Poissons Ratio (x) = 0.30924 0.15433
# Poissons Ratio (y) = 0.20770 0.28755
# Poissons Ratio (z) = 0.15025 0.41680
#
# Static dielectric constant tensor:
#      x y z
#    x 1.685420 0.000000 0.044890 
#    y 0.000000 1.735190 0.000000 
#    z 0.044890 0.000000 1.698420 
# 
# From -- ./inp_files/54768.got.cif
#   From: 2010.05.17/outbox.cif.g08.bks.cpg/sg12_28_cif.got.tgz:54768.got - 2010.06.03 13:09:07.
