data_PCOD9221349
_publ_section_title
;
Structure prediction by ZEFSAII (Michael W. Deem and Ramdas Pophale) SiO2 
 PCOD9221349
Probable space group: C 2/M
;
_chemical_formula_sum "Si O2"
_cell_formula_units_Z 38
_cell_length_a 11.747335
_cell_length_b 14.728236
_cell_length_c 13.239264
_cell_angle_alpha 90.000000
_cell_angle_beta 129.596523
_cell_angle_gamma 90.000000
_cell_volume 1765.045233
_symmetry_space_group_name_H-M "C 2/M"
_symmetry_group_IT_number 12
_symmetry_cell_setting 'monoclinic'
loop_
_space_group_symop_operation_xyz
x,y,z
-x,y,-z
-x,-y,-z
x,-y,z
1/2+x,1/2+y,z
1/2-x,1/2+y,-z
1/2-x,1/2-y,-z
1/2+x,1/2-y,z
loop_
_atom_site_type_symbol
_atom_site_label
_atom_site_fract_x
_atom_site_fract_y
_atom_site_fract_z
Si Si1 0.545944 0.398380 0.697808
Si Si2 0.500000 0.250587 0.500000
Si Si3 0.852741 0.354533 0.971230
Si Si4 0.723977 0.354982 0.100952
Si Si5 0.740989 0.895579 0.643239
Si Si6 0.500000 0.500000 0.000000
O O1 0.526908 0.500000 0.643042
O O2 0.545601 0.317494 0.616221
O O3 0.702777 0.395882 0.842340
O O4 0.404840 0.383416 0.691002
O O5 0.368438 0.182280 0.457345
O O6 0.831714 0.247455 0.937020
O O7 0.854165 0.365949 0.093111
O O8 0.000000 0.387132 0.000000
O O9 0.758466 0.384797 0.234686
O O10 0.593920 0.421499 0.995196
O O11 0.696050 0.000000 0.594809
#
# Coordination Sequence:
#
# PCOD9221349 Si02
#       6
#     8   4   8   8   8   2
#     4  11  26  45  70  98 137 182 227 276 343 409
#     4  12  24  46  72  98 134 178 230 286 336 396
#     4  11  25  43  66 102 142 179 219 275 348 407
#     4  11  23  38  69 101 135 174 220 280 341 408
#     4  11  24  44  71 104 131 174 230 285 338 402
#     4  12  20  40  70  98 126 182 222 270 340 412
#
# _framework density 21.529194
#
# number of rings (size 3 to 8) (size 9 to 14) (size 15 to 20)
#    0.000    0.842    4.211    2.526    7.368    0.421 
#    3.789    0.000    0.000    0.000    0.000    0.000 
#    0.000    0.000    0.000    0.000    0.000    0.000 
#
# Total GULP energy -105917.606165 kJ/mol
# GULP energy per Si atom -5574.610851 kJ/mol
# Density = 2.148019 g / cm^3
# Si number density = 21.529194 Si / 1000 Ang^3
#
#
#
# Elastic Constant Matrix: (Units=GPa)
#
#
# Indices 1 2 3 4 5 6 
#
# 1 132.3735 40.1448 23.3784 0.0000 19.9694 0.0000
# 2 40.1448 162.7640 25.2107 0.0000 8.9712 0.0000
# 3 23.3784 25.2107 57.0288 0.0000 8.9633 0.0000
# 4 0.0000 0.0000 0.0000 -14.0318 0.0000 14.8505
# 5 19.9694 8.9712 8.9633 0.0000 32.4598 0.0000
# 6 0.0000 0.0000 0.0000 14.8505 0.0000 28.2674
#
#
#
# Elastic Compliance Matrix: (Units=1/GPa)
#
#
# Indices 1 2 3 4 5 6 
#
# 1 0.009146 -0.001648 -0.002308 0.000000 -0.004534 0.000000
# 2 -0.001648 0.006928 -0.002347 0.000000 -0.000252 0.000000
# 3 -0.002308 -0.002347 0.020064 0.000000 -0.003472 0.000000
# 4 0.000000 0.000000 0.000000 -0.045801 0.000000 0.024062
# 5 -0.004534 -0.000252 -0.003472 0.000000 0.034625 0.000000
# 6 0.000000 0.000000 0.000000 0.024062 0.000000 0.022735
#
#
# Mechanical properties :
#
#
# Convention : Reuss Voigt Hill
#
# Bulk Modulus (GPa) = 42.49706 58.84825 50.67266
# Shear Modulus (GPa) = 73.36925 26.90122 50.13524
#
# Velocity S-wave (km/s) = 5.84405 3.53869 4.83091
# Velocity P-wave (km/s) = 8.08204 6.64003 7.39626
#
# Compressibility (1/GPa) = 0.02353104
#
# Stress axis : x y z
#
# Youngs Moduli (GPa) = 109.33937 144.34365 49.83940
#
# Poissons Ratio (x) = 0.23794 0.11503
# Poissons Ratio (y) = 0.18023 0.11698
# Poissons Ratio (z) = 0.25235 0.33880
#
# Static dielectric constant tensor:
#      x y z
#    x 1.781130 0.000000 -0.001630 
#    y 0.000000 1.774880 0.000000 
#    z -0.001630 0.000000 1.857630 
# 
# From -- ./inp_files/204704.got.cif
#   From: 2010.05.17/outbox.cif.g08.bks.cpg/sg12_103_cif.got.tgz:204704.got - 2010.06.03 13:09:07.
