data_PCOD9221857
_publ_section_title
;
Structure prediction by ZEFSAII (Michael W. Deem and Ramdas Pophale) SiO2 
 PCOD9221857
Probable space group: C 2/M
;
_chemical_formula_sum "Si O2"
_cell_formula_units_Z 50
_cell_length_a 11.571902
_cell_length_b 25.537008
_cell_length_c 8.206459
_cell_angle_alpha 90.000000
_cell_angle_beta 115.165744
_cell_angle_gamma 90.000000
_cell_volume 2194.917647
_symmetry_space_group_name_H-M "C 2/M"
_symmetry_group_IT_number 12
_symmetry_cell_setting 'monoclinic'
loop_
_space_group_symop_operation_xyz
x,y,z
-x,y,-z
-x,-y,-z
x,-y,z
1/2+x,1/2+y,z
1/2-x,1/2+y,-z
1/2-x,1/2-y,-z
1/2+x,1/2-y,z
loop_
_atom_site_type_symbol
_atom_site_label
_atom_site_fract_x
_atom_site_fract_y
_atom_site_fract_z
Si Si1 0.631336 0.413700 0.810083
Si Si2 0.326863 0.939956 0.213072
Si Si3 0.495719 0.855720 0.799240
Si Si4 0.873073 0.132057 0.747588
Si Si5 0.500000 0.500000 0.500000
Si Si6 0.212597 0.178038 0.628167
Si Si7 0.721993 0.218262 0.821558
O O1 0.504195 0.399129 0.833279
O O2 0.585957 0.454302 0.645483
O O3 0.682413 0.360376 0.760360
O O4 0.738150 0.435203 0.997296
O O5 0.458665 0.911061 0.247062
O O6 0.243576 0.908836 0.297717
O O7 0.343979 0.000000 0.268006
O O8 0.357281 0.835892 0.666731
O O9 0.599052 0.816211 0.786825
O O10 0.500000 0.856388 0.000000
O O11 0.873471 0.159964 0.572549
O O12 0.837502 0.179000 0.848416
O O13 0.201383 0.238403 0.670179
O O14 0.750000 0.250000 0.000000
#
# Coordination Sequence:
#
# PCOD9221857 Si02
#       7
#     8   8   8   8   2   8   8
#     4  12  24  44  72 102 135 178 227 279 340 403
#     4  11  25  44  70  99 134 183 230 277 339 398
#     4  11  23  45  68 100 134 177 228 277 335 408
#     4  11  26  44  65 103 135 174 225 280 337 402
#     4  12  24  44  70 106 138 174 228 284 340 394
#     4  12  24  45  70  98 139 176 222 282 337 407
#     4  11  24  43  69  97 131 181 222 276 336 404
#
# _framework density 22.779896999999998
#
# number of rings (size 3 to 8) (size 9 to 14) (size 15 to 20)
#    0.000    0.640    5.600    1.920    3.360    3.520 
#    7.200    0.800    0.000    0.000    0.000    0.000 
#    0.000    0.000    0.000    0.000    0.000    0.000 
#
# Total GULP energy -139725.302919 kJ/mol
# GULP energy per Si atom -5589.012117 kJ/mol
# Density = 2.272805 g / cm^3
# Si number density = 22.779897 Si / 1000 Ang^3
#
#
#
# Elastic Constant Matrix: (Units=GPa)
#
#
# Indices 1 2 3 4 5 6 
#
# 1 105.5371 37.3399 -11.3116 0.0000 -9.8581 0.0000
# 2 37.3399 161.2261 -0.1823 0.0000 -17.1887 0.0000
# 3 -11.3116 -0.1823 34.4418 0.0000 -9.6200 0.0000
# 4 0.0000 0.0000 0.0000 34.5237 0.0000 3.1273
# 5 -9.8581 -17.1887 -9.6200 0.0000 24.5930 0.0000
# 6 0.0000 0.0000 0.0000 3.1273 0.0000 9.4520
#
#
#
# Elastic Compliance Matrix: (Units=1/GPa)
#
#
# Indices 1 2 3 4 5 6 
#
# 1 0.011219 -0.002054 0.005084 0.000000 0.005050 0.000000
# 2 -0.002054 0.007149 0.000594 0.000000 0.004405 0.000000
# 3 0.005084 0.000594 0.035243 0.000000 0.016239 0.000000
# 4 0.000000 0.000000 0.000000 0.029861 0.000000 -0.009880
# 5 0.005050 0.004405 0.016239 0.000000 0.052117 0.000000
# 6 0.000000 0.000000 0.000000 -0.009880 0.000000 0.109067
#
#
# Mechanical properties :
#
#
# Convention : Reuss Voigt Hill
#
# Bulk Modulus (GPa) = 16.43173 39.21080 27.82127
# Shear Modulus (GPa) = 19.40291 32.07100 25.73695
#
# Velocity S-wave (km/s) = 2.92165 3.75622 3.36491
# Velocity P-wave (km/s) = 4.31397 6.00521 5.22842
#
# Compressibility (1/GPa) = 0.06085787
#
# Stress axis : x y z
#
# Youngs Moduli (GPa) = 89.13642 139.88929 28.37433
#
# Poissons Ratio (x) = 0.28735 -0.14426
# Poissons Ratio (y) = 0.18310 -0.01684
# Poissons Ratio (z) = -0.45319 -0.08304
#
# Static dielectric constant tensor:
#      x y z
#    x 1.740400 0.000000 -0.057230 
#    y 0.000000 1.812130 0.000000 
#    z -0.057230 0.000000 1.880190 
# 
# From -- ./inp_files/52706.got.cif
#   From: 2010.05.17/outbox.cif.g08.bks.cpg/sg12_27_cif.got.tgz:52706.got - 2010.06.03 13:09:07.
