data_PCOD9221003
_publ_section_title
;
Structure prediction by ZEFSAII (Michael W. Deem and Ramdas Pophale) SiO2 
 PCOD9221003
Probable space group: C 2/M
;
_chemical_formula_sum "Si O2"
_cell_formula_units_Z 56
_cell_length_a 8.987075
_cell_length_b 23.638443
_cell_length_c 18.451089
_cell_angle_alpha 90.000000
_cell_angle_beta 39.537261
_cell_angle_gamma 90.000000
_cell_volume 2495.239029
_symmetry_space_group_name_H-M "C 2/M"
_symmetry_group_IT_number 12
_symmetry_cell_setting 'monoclinic'
loop_
_space_group_symop_operation_xyz
x,y,z
-x,y,-z
-x,-y,-z
x,-y,z
1/2+x,1/2+y,z
1/2-x,1/2+y,-z
1/2-x,1/2-y,-z
1/2+x,1/2-y,z
loop_
_atom_site_type_symbol
_atom_site_label
_atom_site_fract_x
_atom_site_fract_y
_atom_site_fract_z
Si Si1 0.878925 0.500000 0.391796
Si Si2 0.240343 0.305623 0.455434
Si Si3 0.913715 0.000000 0.650035
Si Si4 0.939645 0.822110 0.154117
Si Si5 0.283612 0.710373 0.815720
Si Si6 0.458697 0.123315 0.352264
Si Si7 0.354283 0.560675 0.982275
Si Si8 0.633672 0.894361 0.782526
O O1 0.682594 0.500000 0.527206
O O2 0.738433 0.500000 0.367945
O O3 0.018143 0.557807 0.342305
O O4 0.250000 0.250000 0.500000
O O5 0.468488 0.297104 0.320330
O O6 0.234971 0.356331 0.517056
O O7 0.000000 0.308768 0.500000
O O8 0.840795 0.940452 0.713283
O O9 0.854056 0.769302 0.138013
O O10 0.687689 0.839997 0.281374
O O11 0.136257 0.798822 0.133120
O O12 0.044008 0.881537 0.088304
O O13 0.143301 0.659496 0.831231
O O14 0.385100 0.126731 0.294722
O O15 0.368950 0.500000 0.935937
O O16 0.500000 0.554638 0.000000
O O17 0.093076 0.571196 0.107958
#
# Coordination Sequence:
#
# PCOD9221003 Si02
#       8
#     4   8   4   8   8   8   8   8
#     4   9  20  34  63  97 137 179 227 279 331 421
#     4  12  24  41  66  97 137 182 228 271 341 417
#     4   9  18  40  61 102 137 178 230 275 347 406
#     4  12  26  46  69 104 140 187 235 292 351 412
#     4  12  26  46  69 103 146 183 231 288 351 419
#     4  11  22  40  68 101 139 180 234 279 344 410
#     4  11  25  47  79 106 133 184 240 292 351 418
#     4  11  23  43  74 102 139 182 230 295 345 414
#
# _framework density 22.442740000000001
#
# number of rings (size 3 to 8) (size 9 to 14) (size 15 to 20)
#    0.000    0.857    5.000    1.714    3.000    2.286 
#    1.286    1.071    0.000    0.000    0.000    0.000 
#    0.000    0.000    0.000    0.000    0.000    0.000 
#
# Total GULP energy -156271.947538 kJ/mol
# GULP energy per Si atom -5581.140984 kJ/mol
# Density = 2.239166 g / cm^3
# Si number density = 22.442740 Si / 1000 Ang^3
#
#
#
# Elastic Constant Matrix: (Units=GPa)
#
#
# Indices 1 2 3 4 5 6 
#
# 1 81.7738 63.4748 14.5860 0.0000 0.6894 -0.0001
# 2 63.4748 171.6864 25.7918 0.0002 6.7879 0.0000
# 3 14.5860 25.7918 52.4972 -0.0007 -2.5817 -0.0008
# 4 0.0000 0.0002 -0.0007 28.9832 0.0001 -32.9629
# 5 0.6894 6.7879 -2.5817 0.0001 17.2454 0.0002
# 6 -0.0001 0.0000 -0.0008 -32.9629 0.0002 3.9829
#
#
#
# Elastic Compliance Matrix: (Units=1/GPa)
#
#
# Indices 1 2 3 4 5 6 
#
# 1 0.017344 -0.006218 -0.001690 0.000000 0.001501 0.000000
# 2 -0.006218 0.008671 -0.002708 0.000000 -0.003570 0.000000
# 3 -0.001690 -0.002708 0.021060 -0.000001 0.004286 -0.000001
# 4 0.000000 0.000000 -0.000001 -0.004101 0.000000 -0.033943
# 5 0.001501 -0.003570 0.004286 0.000000 0.059973 0.000000
# 6 0.000000 0.000000 -0.000001 -0.033943 0.000000 -0.029845
#
#
# Mechanical properties :
#
#
# Convention : Reuss Voigt Hill
#
# Bulk Modulus (GPa) = 38.69607 57.07361 47.88484
# Shear Modulus (GPa) = 48.56794 23.51594 36.04194
#
# Velocity S-wave (km/s) = 4.65702 3.24052 4.01178
# Velocity P-wave (km/s) = 6.79681 6.28389 6.54538
#
# Compressibility (1/GPa) = 0.02584242
#
# Stress axis : x y z
#
# Youngs Moduli (GPa) = 57.65656 115.32218 47.48419
#
# Poissons Ratio (x) = 0.71705 0.08026
# Poissons Ratio (y) = 0.35849 0.12860
# Poissons Ratio (z) = 0.09746 0.31232
#
# Static dielectric constant tensor:
#      x y z
#    x 1.803010 0.000000 0.029210 
#    y 0.000000 1.807450 0.000000 
#    z 0.029210 0.000000 1.902090 
# 
# From -- ./inp_files/259831.got.cif
#   From: 2010.05.17/outbox.cif.g08.bks.cpg/sg12_130_cif.got.tgz:259831.got - 2010.06.03 13:09:07.
