data_PCOD9221575
_publ_section_title
;
Structure prediction by ZEFSAII (Michael W. Deem and Ramdas Pophale) SiO2 
 PCOD9221575
Probable space group: C 2/M
;
_chemical_formula_sum "Si O2"
_cell_formula_units_Z 42
_cell_length_a 7.710195
_cell_length_b 20.513728
_cell_length_c 13.533583
_cell_angle_alpha 90.000000
_cell_angle_beta 73.449750
_cell_angle_gamma 90.000000
_cell_volume 2051.855174
_symmetry_space_group_name_H-M "C 2/M"
_symmetry_group_IT_number 12
_symmetry_cell_setting 'monoclinic'
loop_
_space_group_symop_operation_xyz
x,y,z
-x,y,-z
-x,-y,-z
x,-y,z
1/2+x,1/2+y,z
1/2-x,1/2+y,-z
1/2-x,1/2-y,-z
1/2+x,1/2-y,z
loop_
_atom_site_type_symbol
_atom_site_label
_atom_site_fract_x
_atom_site_fract_y
_atom_site_fract_z
Si Si1 0.687040 0.324616 0.710296
Si Si2 0.017429 0.426229 0.881981
Si Si3 0.397337 0.175385 0.289704
Si Si4 0.399409 0.573771 0.118019
Si Si5 0.193565 0.109399 0.500000
Si Si6 0.000000 0.500000 0.500000
O O1 0.632817 0.250000 0.734366
O O2 0.578983 0.373762 0.799549
O O3 0.663513 0.346557 0.601685
O O4 0.898632 0.331263 0.702736
O O5 0.092791 0.500000 0.862189
O O6 0.813493 0.428540 0.873016
O O7 0.121469 0.373762 0.799548
O O8 0.000000 0.409177 0.000000
O O9 0.265198 0.153443 0.398315
O O10 0.454977 0.500000 0.137812
O O11 0.500000 0.590822 0.000000
O O12 0.000000 0.080668 0.500000
O O13 0.346831 0.056623 0.500000
#
# Coordination Sequence:
#
# PCOD9221575 Si02
#       6
#     8   8   8   8   8   2
#     4  11  23  41  65  92 132 175 219 274 329 393
#     4   9  20  38  62  88 123 166 212 274 337 386
#     4  11  23  41  65  92 132 175 219 274 329 393
#     4   9  20  38  62  88 123 166 212 274 337 386
#     4  12  26  44  70 101 133 176 216 264 334 389
#     4  12  26  48  68 102 140 164 220 280 316 392
#
# _framework density 20.469282
#
# number of rings (size 3 to 8) (size 9 to 14) (size 15 to 20)
#    0.000    1.524    1.905    2.000    2.667    3.810 
#    0.000    3.810    0.000    0.000    0.000    0.000 
#    0.000    0.000    0.000    0.000    0.000    0.000 
#
# Total GULP energy -117110.547178 kJ/mol
# GULP energy per Si atom -5576.692723 kJ/mol
# Density = 2.042269 g / cm^3
# Si number density = 20.469282 Si / 1000 Ang^3
#
#
#
# Elastic Constant Matrix: (Units=GPa)
#
#
# Indices 1 2 3 4 5 6 
#
# 1 109.9141 25.9982 17.9143 0.0000 0.7155 0.0000
# 2 25.9982 162.6909 129.8165 0.0000 -1.5551 0.0000
# 3 17.9143 129.8165 183.2156 0.0000 -1.8129 0.0000
# 4 0.0000 0.0000 0.0000 -27.7655 0.0000 0.7577
# 5 0.7155 -1.5551 -1.8129 0.0000 22.1797 0.0000
# 6 0.0000 0.0000 0.0000 0.7577 0.0000 22.8608
#
#
#
# Elastic Compliance Matrix: (Units=1/GPa)
#
#
# Indices 1 2 3 4 5 6 
#
# 1 0.009468 -0.001783 0.000334 0.000000 -0.000403 0.000000
# 2 -0.001783 0.014479 -0.010082 0.000000 0.000249 0.000000
# 3 0.000334 -0.010082 0.012572 0.000000 0.000310 0.000000
# 4 0.000000 0.000000 0.000000 -0.035983 0.000000 0.001193
# 5 -0.000403 0.000249 0.000310 0.000000 0.045142 0.000000
# 6 0.000000 0.000000 0.000000 0.001193 0.000000 0.043703
#
#
# Mechanical properties :
#
#
# Convention : Reuss Voigt Hill
#
# Bulk Modulus (GPa) = 74.31693 89.25317 81.78505
# Shear Modulus (GPa) = 42.76099 22.26112 32.51105
#
# Velocity S-wave (km/s) = 4.57555 3.30136 3.98965
# Velocity P-wave (km/s) = 8.01870 7.63087 7.82719
#
# Compressibility (1/GPa) = 0.01345588
#
# Stress axis : x y z
#
# Youngs Moduli (GPa) = 105.61879 69.06688 79.54147
#
# Poissons Ratio (x) = 0.12315 -0.02654
# Poissons Ratio (y) = 0.18833 0.80194
# Poissons Ratio (z) = -0.03524 0.69633
#
# Static dielectric constant tensor:
#      x y z
#    x 1.752330 0.000000 0.000820 
#    y 0.000000 1.700630 0.000000 
#    z 0.000820 0.000000 1.697450 
# 
# From -- ./inp_files/120616.got.cif
#   From: 2010.05.17/outbox.cif.g08.bks.cpg/sg12_61_cif.got.tgz:120616.got - 2010.06.03 13:09:07.
