data_PCOD9221273
_publ_section_title
;
Structure prediction by ZEFSAII (Michael W. Deem and Ramdas Pophale) SiO2 
 PCOD9221273
Probable space group: C 2/M
;
_chemical_formula_sum "Si O2"
_cell_formula_units_Z 40
_cell_length_a 18.820102
_cell_length_b 7.723614
_cell_length_c 12.587597
_cell_angle_alpha 90.000000
_cell_angle_beta 79.990539
_cell_angle_gamma 90.000000
_cell_volume 1801.872977
_symmetry_space_group_name_H-M "C 2/M"
_symmetry_group_IT_number 12
_symmetry_cell_setting 'monoclinic'
loop_
_space_group_symop_operation_xyz
x,y,z
-x,y,-z
-x,-y,-z
x,-y,z
1/2+x,1/2+y,z
1/2-x,1/2+y,-z
1/2-x,1/2-y,-z
1/2+x,1/2-y,z
loop_
_atom_site_type_symbol
_atom_site_label
_atom_site_fract_x
_atom_site_fract_y
_atom_site_fract_z
Si Si1 0.612844 0.196458 0.235109
Si Si2 0.079829 0.201914 0.469499
Si Si3 0.477752 0.500000 0.835023
Si Si4 0.225462 0.294235 0.836041
Si Si5 0.619968 0.500000 0.929053
Si Si6 0.310003 0.794880 0.397191
O O1 0.619642 0.206876 0.361548
O O2 0.549577 0.329255 0.219786
O O3 0.689972 0.255365 0.168104
O O4 0.597176 0.000000 0.207062
O O5 0.118320 0.215748 0.572173
O O6 0.000000 0.273858 0.500000
O O7 0.077053 0.000000 0.441016
O O8 0.561527 0.500000 0.847326
O O9 0.429528 0.500000 0.954329
O O10 0.212692 0.500000 0.855112
O O11 0.210371 0.245618 0.716385
O O12 0.171646 0.168148 0.912418
O O13 0.250000 0.750000 0.500000
O O14 0.318505 0.000000 0.393991
#
# Coordination Sequence:
#
# PCOD9221273 Si02
#       6
#     8   8   4   8   4   8
#     4  12  24  44  72 102 143 183 228 287 346 408
#     4  11  24  39  62  97 140 185 226 272 330 403
#     4  11  28  52  70 105 137 170 232 301 356 413
#     4  11  24  44  70 105 138 181 236 281 338 420
#     4  11  28  50  77  98 135 179 227 295 364 413
#     4  11  23  36  59  93 135 174 218 269 318 390
#
# _framework density 22.199124000000001
#
# number of rings (size 3 to 8) (size 9 to 14) (size 15 to 20)
#    0.000    0.800    5.000    1.200    5.600    4.000 
#    0.000    2.000    0.000    0.000    0.000    0.000 
#    0.000    0.000    0.000    0.000    0.000    0.000 
#
# Total GULP energy -111894.627936 kJ/mol
# GULP energy per Si atom -5594.731397 kJ/mol
# Density = 2.214860 g / cm^3
# Si number density = 22.199124 Si / 1000 Ang^3
#
#
#
# Elastic Constant Matrix: (Units=GPa)
#
#
# Indices 1 2 3 4 5 6 
#
# 1 98.6995 24.2879 -1.8169 0.0000 -0.2097 0.0000
# 2 24.2879 121.2648 17.3501 0.0000 -2.3322 0.0000
# 3 -1.8169 17.3501 57.0840 0.0000 1.1712 0.0000
# 4 0.0000 0.0000 0.0000 16.3184 0.0000 -1.7193
# 5 -0.2097 -2.3322 1.1712 0.0000 36.9554 0.0000
# 6 0.0000 0.0000 0.0000 -1.7193 0.0000 17.3235
#
#
#
# Elastic Compliance Matrix: (Units=1/GPa)
#
#
# Indices 1 2 3 4 5 6 
#
# 1 0.010716 -0.002298 0.001042 0.000000 -0.000117 0.000000
# 2 -0.002298 0.009129 -0.002861 0.000000 0.000654 0.000000
# 3 0.001042 -0.002861 0.018436 0.000000 -0.000759 0.000000
# 4 0.000000 0.000000 0.000000 0.061928 0.000000 0.006146
# 5 -0.000117 0.000654 -0.000759 0.000000 0.027124 0.000000
# 6 0.000000 0.000000 0.000000 0.006146 0.000000 0.058335
#
#
# Mechanical properties :
#
#
# Convention : Reuss Voigt Hill
#
# Bulk Modulus (GPa) = 33.28090 39.63227 36.45659
# Shear Modulus (GPa) = 24.51967 29.93460 27.22713
#
# Velocity S-wave (km/s) = 3.32706 3.67612 3.50594
# Velocity P-wave (km/s) = 5.45744 5.99252 5.73123
#
# Compressibility (1/GPa) = 0.03004726
#
# Stress axis : x y z
#
# Youngs Moduli (GPa) = 93.31758 109.54676 54.24060
#
# Poissons Ratio (x) = 0.25170 -0.05651
# Poissons Ratio (y) = 0.21441 0.15519
# Poissons Ratio (z) = -0.09722 0.31342
#
# Static dielectric constant tensor:
#      x y z
#    x 1.824490 0.000000 0.018570 
#    y 0.000000 1.785980 0.000000 
#    z 0.018570 0.000000 1.846530 
# 
# From -- ./inp_files/151763.got.cif
#   From: 2010.05.17/outbox.cif.g08.bks.cpg/sg12_76_cif.got.tgz:151763.got - 2010.06.03 13:09:07.
