data_PCOD9221240
_publ_section_title
;
Structure prediction by ZEFSAII (Michael W. Deem and Ramdas Pophale) SiO2 
 PCOD9221240
Probable space group: C 2/M
;
_chemical_formula_sum "Si O2"
_cell_formula_units_Z 56
_cell_length_a 23.483700
_cell_length_b 19.356647
_cell_length_c 7.196600
_cell_angle_alpha 90.000000
_cell_angle_beta 62.162407
_cell_angle_gamma 90.000000
_cell_volume 2892.752359
_symmetry_space_group_name_H-M "C 2/M"
_symmetry_group_IT_number 12
_symmetry_cell_setting 'monoclinic'
loop_
_space_group_symop_operation_xyz
x,y,z
-x,y,-z
-x,-y,-z
x,-y,z
1/2+x,1/2+y,z
1/2-x,1/2+y,-z
1/2-x,1/2-y,-z
1/2+x,1/2-y,z
loop_
_atom_site_type_symbol
_atom_site_label
_atom_site_fract_x
_atom_site_fract_y
_atom_site_fract_z
Si Si1 0.977548 0.422566 0.745522
Si Si2 0.848138 0.347321 0.026952
Si Si3 0.277475 0.421889 0.679093
Si Si4 0.106564 0.348334 0.617246
Si Si5 0.795875 0.788258 0.171449
Si Si6 0.338737 0.287111 0.515258
Si Si7 0.267856 0.077972 0.688419
O O1 0.967647 0.500000 0.837326
O O2 0.000000 0.428580 0.500000
O O3 0.037385 0.382684 0.745208
O O4 0.911885 0.380049 0.848078
O O5 0.786764 0.397603 0.114635
O O6 0.863368 0.341048 0.223652
O O7 0.829577 0.269460 0.992475
O O8 0.296203 0.500000 0.696816
O O9 0.331638 0.362404 0.616714
O O10 0.256147 0.421290 0.491722
O O11 0.107790 0.271264 0.528728
O O12 0.157938 0.396433 0.430460
O O13 0.729077 0.750946 0.333761
O O14 0.837417 0.798955 0.294777
O O15 0.774759 0.864292 0.143140
O O16 0.262810 0.000000 0.764367
#
# Coordination Sequence:
#
# PCOD9221240 Si02
#       7
#     8   8   8   8   8   8   8
#     4  11  23  33  39  53  80 109 134 164 199 227
#     4   9  16  27  43  60  79 106 138 164 186 225
#     4   8  12  19  36  63  88 105 124 156 198 237
#     4   9  16  27  43  60  79 106 138 164 186 225
#     4   7  11  20  35  57  82 103 125 158 196 229
#     4   7  11  20  35  57  82 103 125 158 196 229
#     4   8  12  19  36  63  88 105 124 156 198 237
#
# _framework density 19.358726999999998
#
# number of rings (size 3 to 8) (size 9 to 14) (size 15 to 20)
#    0.000    3.571    0.000    4.714    0.000    2.286 
#    0.000    0.000    0.000    7.714    0.000    1.000 
#    0.000    8.000    0.000    0.000    0.000    0.000 
#
# Total GULP energy -156041.174579 kJ/mol
# GULP energy per Si atom -5572.899092 kJ/mol
# Density = 1.931467 g / cm^3
# Si number density = 19.358727 Si / 1000 Ang^3
#
#
#
# Elastic Constant Matrix: (Units=GPa)
#
#
# Indices 1 2 3 4 5 6 
#
# 1 41.2298 32.0196 12.5169 0.0000 -0.2071 0.0000
# 2 32.0196 215.1551 52.0782 0.0000 -28.3568 0.0000
# 3 12.5169 52.0782 54.4732 0.0000 -14.9762 0.0000
# 4 0.0000 0.0000 0.0000 16.8571 0.0000 -9.1056
# 5 -0.2071 -28.3568 -14.9762 0.0000 22.1866 0.0000
# 6 0.0000 0.0000 0.0000 -9.1056 0.0000 11.7147
#
#
#
# Elastic Compliance Matrix: (Units=1/GPa)
#
#
# Indices 1 2 3 4 5 6 
#
# 1 0.029004 -0.004237 -0.004946 0.000000 -0.008484 0.000000
# 2 -0.004237 0.007093 -0.004084 0.000000 0.006270 0.000000
# 3 -0.004946 -0.004084 0.026953 0.000000 0.012927 0.000000
# 4 0.000000 0.000000 0.000000 0.102255 0.000000 0.079480
# 5 -0.008484 0.006270 0.012927 0.000000 0.061732 0.000000
# 6 0.000000 0.000000 0.000000 0.079480 0.000000 0.147141
#
#
# Mechanical properties :
#
#
# Convention : Reuss Voigt Hill
#
# Bulk Modulus (GPa) = 27.38573 56.00974 41.69773
# Shear Modulus (GPa) = 12.10993 24.43458 18.27226
#
# Velocity S-wave (km/s) = 2.50382 3.55660 3.07559
# Velocity P-wave (km/s) = 4.74721 6.77209 5.84796
#
# Compressibility (1/GPa) = 0.03651537
#
# Stress axis : x y z
#
# Youngs Moduli (GPa) = 34.47800 140.97838 37.10211
#
# Poissons Ratio (x) = 0.59738 0.18350
# Poissons Ratio (y) = 0.14610 0.15153
# Poissons Ratio (z) = 0.17052 0.57576
#
# Static dielectric constant tensor:
#      x y z
#    x 1.729040 0.000000 0.076870 
#    y 0.000000 1.743080 0.000000 
#    z 0.076870 0.000000 1.718140 
# 
# From -- ./inp_files/98803.got.cif
#   From: 2010.05.17/outbox.cif.g08.bks.cpg/sg12_50_cif.got.tgz:98803.got - 2010.06.03 13:09:07.
