data_PCOD9221586
_publ_section_title
;
Structure prediction by ZEFSAII (Michael W. Deem and Ramdas Pophale) SiO2 
 PCOD9221586
Probable space group: C 2/M
;
_chemical_formula_sum "Si O2"
_cell_formula_units_Z 36
_cell_length_a 12.102160
_cell_length_b 27.598887
_cell_length_c 8.033061
_cell_angle_alpha 90.000000
_cell_angle_beta 138.934350
_cell_angle_gamma 90.000000
_cell_volume 1762.585622
_symmetry_space_group_name_H-M "C 2/M"
_symmetry_group_IT_number 12
_symmetry_cell_setting 'monoclinic'
loop_
_space_group_symop_operation_xyz
x,y,z
-x,y,-z
-x,-y,-z
x,-y,z
1/2+x,1/2+y,z
1/2-x,1/2+y,-z
1/2-x,1/2-y,-z
1/2+x,1/2-y,z
loop_
_atom_site_type_symbol
_atom_site_label
_atom_site_fract_x
_atom_site_fract_y
_atom_site_fract_z
Si Si1 0.450838 0.249768 0.248155
Si Si2 0.421848 0.648766 0.732981
Si Si3 0.967656 0.356608 0.659427
Si Si4 0.139071 0.447718 0.013683
Si Si5 0.000000 0.911997 0.500000
O O1 0.500000 0.253358 0.500000
O O2 0.540715 0.294320 0.257267
O O3 0.500031 0.197131 0.234416
O O4 0.250000 0.250000 0.000000
O O5 0.226542 0.634572 0.519968
O O6 0.499684 0.620916 0.664848
O O7 0.500000 0.635882 0.000000
O O8 0.000000 0.352826 0.500000
O O9 0.087526 0.399377 0.857280
O O10 0.129692 0.500000 0.912235
O O11 0.326988 0.441716 0.297449
O O12 0.000000 0.449308 0.000000
#
# Coordination Sequence:
#
# PCOD9221586 Si02
#       5
#     8   8   8   8   4
#     4  11  23  41  65  99 139 186 231 280 348 416
#     4  12  24  42  69 102 139 184 229 278 344 419
#     4  11  24  43  66  98 137 179 228 286 344 410
#     4  11  24  44  70  98 132 181 231 285 350 408
#     4  12  23  46  72 102 142 178 227 288 348 406
#
# _framework density 20.42454
#
# number of rings (size 3 to 8) (size 9 to 14) (size 15 to 20)
#    0.000    0.667    3.333    6.333    0.000    1.333 
#    0.000    0.000    0.000    3.333    0.000    0.000 
#    0.000    0.000    0.000    0.000    0.000    0.000 
#
# Total GULP energy -100562.740438 kJ/mol
# GULP energy per Si atom -5586.818913 kJ/mol
# Density = 2.037805 g / cm^3
# Si number density = 20.424540 Si / 1000 Ang^3
#
#
#
# Elastic Constant Matrix: (Units=GPa)
#
#
# Indices 1 2 3 4 5 6 
#
# 1 95.0767 30.7811 41.5193 0.0000 8.7654 0.0000
# 2 30.7811 112.2003 40.0054 0.0000 3.2452 0.0000
# 3 41.5193 40.0054 131.3988 0.0000 22.4913 0.0000
# 4 0.0000 0.0000 0.0000 22.0325 0.0000 9.7017
# 5 8.7654 3.2452 22.4913 0.0000 46.5013 0.0000
# 6 0.0000 0.0000 0.0000 9.7017 0.0000 52.3522
#
#
#
# Elastic Compliance Matrix: (Units=1/GPa)
#
#
# Indices 1 2 3 4 5 6 
#
# 1 0.012732 -0.002334 -0.003194 0.000000 -0.000692 0.000000
# 2 -0.002334 0.010456 -0.002613 0.000000 0.000974 0.000000
# 3 -0.003194 -0.002613 0.010119 0.000000 -0.004110 0.000000
# 4 0.000000 0.000000 0.000000 0.049420 0.000000 -0.009158
# 5 -0.000692 0.000974 -0.004110 0.000000 0.023555 0.000000
# 6 0.000000 0.000000 0.000000 -0.009158 0.000000 0.020799
#
#
# Mechanical properties :
#
#
# Convention : Reuss Voigt Hill
#
# Bulk Modulus (GPa) = 58.73545 62.58750 60.66147
# Shear Modulus (GPa) = 33.54858 39.26853 36.40856
#
# Velocity S-wave (km/s) = 4.05725 4.38952 4.22665
# Velocity P-wave (km/s) = 7.12517 7.51002 7.32012
#
# Compressibility (1/GPa) = 0.01702549
#
# Stress axis : x y z
#
# Youngs Moduli (GPa) = 78.54176 95.63552 98.82844
#
# Poissons Ratio (x) = 0.22322 0.31565
# Poissons Ratio (y) = 0.18332 0.25821
# Poissons Ratio (z) = 0.25086 0.24987
#
# Static dielectric constant tensor:
#      x y z
#    x 1.716970 0.000000 0.017400 
#    y 0.000000 1.778090 0.000000 
#    z 0.017400 0.000000 1.735480 
# 
# From -- ./inp_files/52948.got.cif
#   From: 2010.05.17/outbox.cif.g08.bks.cpg/sg12_27_cif.got.tgz:52948.got - 2010.06.03 13:09:07.
