data_PCOD9221860
_publ_section_title
;
Structure prediction by ZEFSAII (Michael W. Deem and Ramdas Pophale) SiO2 
 PCOD9221860
Probable space group: C 2/M
;
_chemical_formula_sum "Si O2"
_cell_formula_units_Z 40
_cell_length_a 10.376821
_cell_length_b 14.800986
_cell_length_c 14.408473
_cell_angle_alpha 90.000000
_cell_angle_beta 136.070035
_cell_angle_gamma 90.000000
_cell_volume 1535.301990
_symmetry_space_group_name_H-M "C 2/M"
_symmetry_group_IT_number 12
_symmetry_cell_setting 'monoclinic'
loop_
_space_group_symop_operation_xyz
x,y,z
-x,y,-z
-x,-y,-z
x,-y,z
1/2+x,1/2+y,z
1/2-x,1/2+y,-z
1/2-x,1/2-y,-z
1/2+x,1/2-y,z
loop_
_atom_site_type_symbol
_atom_site_label
_atom_site_fract_x
_atom_site_fract_y
_atom_site_fract_z
Si Si1 0.708821 0.144989 0.465812
Si Si2 0.063945 0.906931 0.750000
Si Si3 0.811445 0.691867 0.750000
Si Si4 0.274251 0.893994 0.250000
Si Si5 0.777197 0.644989 0.034188
O O1 0.750000 0.250000 0.500000
O O2 0.745342 0.141280 0.374318
O O3 0.497453 0.118349 0.377993
O O4 0.851959 0.095551 0.607058
O O5 0.160346 0.823813 0.750000
O O6 0.142475 0.000000 0.750000
O O7 0.137844 0.904449 0.892942
O O8 0.817002 0.802569 0.750000
O O9 0.003294 0.641281 0.874318
O O10 0.241468 0.881651 0.122007
O O11 0.229357 0.000000 0.250000
O O12 0.750000 0.750000 0.000000
#
# Coordination Sequence:
#
# PCOD9221860 Si02
#       5
#     8   8   8   8   8
#     4  11  23  45  69  95 142 183 221 280 348 406
#     4  12  24  40  69 104 134 174 230 281 336 409
#     4  11  24  43  70  97 139 180 227 287 342 399
#     4  11  24  45  73 103 137 184 231 280 342 416
#     4  11  23  45  69  95 142 183 221 280 348 406
#
# _framework density 26.053505999999999
#
# number of rings (size 3 to 8) (size 9 to 14) (size 15 to 20)
#    0.000    0.800    4.000    3.600    0.000    6.400 
#    0.000    8.000    0.000    0.000    0.000    0.000 
#    0.000    0.000    0.000    0.000    0.000    0.000 
#
# Total GULP energy -111748.379298 kJ/mol
# GULP energy per Si atom -5587.418965 kJ/mol
# Density = 2.599421 g / cm^3
# Si number density = 26.053506 Si / 1000 Ang^3
#
#
#
# Elastic Constant Matrix: (Units=GPa)
#
#
# Indices 1 2 3 4 5 6 
#
# 1 76.1583 14.6138 67.2858 0.0000 -1.5191 0.0000
# 2 14.6138 169.3200 52.1441 0.0000 -0.9426 0.0000
# 3 67.2858 52.1441 221.6758 0.0000 -2.1353 0.0000
# 4 0.0000 0.0000 0.0000 16.3586 0.0000 0.4917
# 5 -1.5191 -0.9426 -2.1353 0.0000 34.6926 0.0000
# 6 0.0000 0.0000 0.0000 0.4917 0.0000 35.9415
#
#
#
# Elastic Compliance Matrix: (Units=1/GPa)
#
#
# Indices 1 2 3 4 5 6 
#
# 1 0.017952 0.000140 -0.005478 0.000000 0.000453 0.000000
# 2 0.000140 0.006369 -0.001540 0.000000 0.000084 0.000000
# 3 -0.005478 -0.001540 0.006537 0.000000 0.000121 0.000000
# 4 0.000000 0.000000 0.000000 0.061155 0.000000 -0.000837
# 5 0.000453 0.000084 0.000121 0.000000 0.028854 0.000000
# 6 0.000000 0.000000 0.000000 -0.000837 0.000000 0.027834
#
#
# Mechanical properties :
#
#
# Convention : Reuss Voigt Hill
#
# Bulk Modulus (GPa) = 58.46906 81.69349 70.08127
# Shear Modulus (GPa) = 29.73405 39.60589 34.66997
#
# Velocity S-wave (km/s) = 3.38193 3.90317 3.65186
# Velocity P-wave (km/s) = 6.14334 7.19285 6.68871
#
# Compressibility (1/GPa) = 0.01710306
#
# Stress axis : x y z
#
# Youngs Moduli (GPa) = 55.70349 157.02175 152.97346
#
# Poissons Ratio (x) = -0.02198 0.83793
# Poissons Ratio (y) = -0.00780 0.23554
# Poissons Ratio (z) = 0.30512 0.24177
#
# Static dielectric constant tensor:
#      x y z
#    x 2.077440 0.000000 -0.000510 
#    y 0.000000 1.975930 0.000000 
#    z -0.000510 0.000000 2.097990 
# 
# From -- ./inp_files/270809.got.cif
#   From: 2010.05.17/outbox.cif.g08.bks.cpg/sg12_136_cif.got.tgz:270809.got - 2010.06.03 13:09:07.
