data_PCOD9221463
_publ_section_title
;
Structure prediction by ZEFSAII (Michael W. Deem and Ramdas Pophale) SiO2 
 PCOD9221463
Probable space group: C 2/M
;
_chemical_formula_sum "Si O2"
_cell_formula_units_Z 56
_cell_length_a 25.313418
_cell_length_b 8.669472
_cell_length_c 16.996012
_cell_angle_alpha 90.000000
_cell_angle_beta 119.979049
_cell_angle_gamma 90.000000
_cell_volume 3230.819888
_symmetry_space_group_name_H-M "C 2/M"
_symmetry_group_IT_number 12
_symmetry_cell_setting 'monoclinic'
loop_
_space_group_symop_operation_xyz
x,y,z
-x,y,-z
-x,-y,-z
x,-y,z
1/2+x,1/2+y,z
1/2-x,1/2+y,-z
1/2-x,1/2-y,-z
1/2+x,1/2-y,z
loop_
_atom_site_type_symbol
_atom_site_label
_atom_site_fract_x
_atom_site_fract_y
_atom_site_fract_z
Si Si1 0.327188 0.182922 0.917542
Si Si2 0.007366 0.683252 0.213810
Si Si3 0.439179 0.316036 0.903245
Si Si4 0.197880 0.317317 0.785413
Si Si5 0.129515 0.184032 0.886865
Si Si6 0.902537 0.815134 0.396507
Si Si7 0.527239 0.685008 0.395560
O O1 0.382421 0.235265 0.902872
O O2 0.262838 0.233747 0.833764
O O3 0.328884 0.000000 0.931166
O O4 0.336453 0.266645 0.008194
O O5 0.001948 0.500000 0.201445
O O6 0.940060 0.758267 0.158823
O O7 0.047544 0.751937 0.173416
O O8 0.033584 0.728102 0.318511
O O9 0.429380 0.500000 0.894101
O O10 0.500000 0.286546 0.000000
O O11 0.206469 0.500000 0.795134
O O12 0.161738 0.260530 0.836007
O O13 0.155875 0.270440 0.680538
O O14 0.130141 0.000000 0.878325
O O15 0.923654 0.775890 0.500557
O O16 0.960823 0.780791 0.383976
O O17 0.893186 0.000000 0.385743
O O18 0.529376 0.500000 0.384257
#
# Coordination Sequence:
#
# PCOD9221463 Si02
#       7
#     8   8   8   8   8   8   8
#     4  12  25  41  60  83 114 152 195 239 283 339
#     4  12  23  35  57  88 119 151 190 237 286 339
#     4  11  23  40  62  84 112 152 193 237 284 335
#     4  12  24  38  57  85 119 155 192 234 286 344
#     4  12  23  38  57  82 117 155 193 234 284 340
#     4   9  18  34  57  84 115 152 191 232 284 340
#     4   9  18  34  57  84 116 152 189 233 286 341
#
# _framework density 17.333061000000001
#
# number of rings (size 3 to 8) (size 9 to 14) (size 15 to 20)
#    0.000    1.000    2.857    6.857    0.000    1.143 
#    0.000    1.429    0.000    0.857    0.000    0.000 
#    0.000    0.000    0.000    0.000    0.000    0.000 
#
# Total GULP energy -156587.285912 kJ/mol
# GULP energy per Si atom -5592.403068 kJ/mol
# Density = 1.729361 g / cm^3
# Si number density = 17.333061 Si / 1000 Ang^3
#
#
#
# Elastic Constant Matrix: (Units=GPa)
#
#
# Indices 1 2 3 4 5 6 
#
# 1 40.9047 0.1922 13.2100 0.0000 10.4982 0.0000
# 2 0.1922 42.9119 7.5454 0.0000 -4.9319 0.0000
# 3 13.2100 7.5454 83.3815 0.0000 -1.6193 0.0000
# 4 0.0000 0.0000 0.0000 30.2902 0.0000 1.9892
# 5 10.4982 -4.9319 -1.6193 0.0000 22.7464 0.0000
# 6 0.0000 0.0000 0.0000 1.9892 0.0000 24.6358
#
#
#
# Elastic Compliance Matrix: (Units=1/GPa)
#
#
# Indices 1 2 3 4 5 6 
#
# 1 0.029690 -0.000909 -0.004898 0.000000 -0.014249 0.000000
# 2 -0.000909 0.024287 -0.001946 0.000000 0.005547 0.000000
# 3 -0.004898 -0.001946 0.012999 0.000000 0.002764 0.000000
# 4 0.000000 0.000000 0.000000 0.033190 0.000000 -0.002680
# 5 -0.014249 0.005547 0.002764 0.000000 0.051939 0.000000
# 6 0.000000 0.000000 0.000000 -0.002680 0.000000 0.040808
#
#
# Mechanical properties :
#
#
# Convention : Reuss Voigt Hill
#
# Bulk Modulus (GPa) = 19.42908 23.23259 21.33083
# Shear Modulus (GPa) = 22.16547 25.28454 23.72500
#
# Velocity S-wave (km/s) = 3.57991 3.82350 3.70371
# Velocity P-wave (km/s) = 5.32177 5.73802 5.53381
#
# Compressibility (1/GPa) = 0.05146924
#
# Stress axis : x y z
#
# Youngs Moduli (GPa) = 33.68126 41.17371 76.92989
#
# Poissons Ratio (x) = 0.03744 0.37681
# Poissons Ratio (y) = 0.03063 0.14971
# Poissons Ratio (z) = 0.16498 0.08013
#
# Static dielectric constant tensor:
#      x y z
#    x 1.556110 0.000000 0.003340 
#    y 0.000000 1.575850 0.000000 
#    z 0.003340 0.000000 1.589610 
# 
# From -- ./inp_files/238958.got.cif
#   From: 2010.05.17/outbox.cif.g08.bks.cpg/sg12_120_cif.got.tgz:238958.got - 2010.06.03 13:09:07.
