data_PCOD9221141
_publ_section_title
;
Structure prediction by ZEFSAII (Michael W. Deem and Ramdas Pophale) SiO2 
 PCOD9221141
Probable space group: C 2/M
;
_chemical_formula_sum "Si O2"
_cell_formula_units_Z 40
_cell_length_a 8.358629
_cell_length_b 17.893240
_cell_length_c 14.310270
_cell_angle_alpha 90.000000
_cell_angle_beta 131.928624
_cell_angle_gamma 90.000000
_cell_volume 1592.325500
_symmetry_space_group_name_H-M "C 2/M"
_symmetry_group_IT_number 12
_symmetry_cell_setting 'monoclinic'
loop_
_space_group_symop_operation_xyz
x,y,z
-x,y,-z
-x,-y,-z
x,-y,z
1/2+x,1/2+y,z
1/2-x,1/2+y,-z
1/2-x,1/2-y,-z
1/2+x,1/2-y,z
loop_
_atom_site_type_symbol
_atom_site_label
_atom_site_fract_x
_atom_site_fract_y
_atom_site_fract_z
Si Si1 0.805657 0.182476 0.594852
Si Si2 0.620918 0.668603 0.171622
Si Si3 0.220325 0.412662 0.954843
Si Si4 0.742788 0.082132 0.414208
Si Si5 0.818233 0.332220 0.790094
O O1 0.750000 0.250000 0.500000
O O2 0.718602 0.108982 0.509714
O O3 0.741508 0.177548 0.678911
O O4 0.064577 0.176846 0.705736
O O5 0.732516 0.628923 0.126539
O O6 0.573203 0.755533 0.135300
O O7 0.397295 0.623584 0.092321
O O8 0.259977 0.500000 0.961026
O O9 0.974834 0.396827 0.887826
O O10 0.673205 0.147372 0.316984
O O11 0.000000 0.076952 0.500000
O O12 0.648914 0.000000 0.357632
#
# Coordination Sequence:
#
# PCOD9221141 Si02
#       5
#     8   8   8   8   8
#     4  11  23  41  68 106 143 184 246 306 357 435
#     4  11  23  42  71 102 141 191 242 303 365 430
#     4  11  26  48  70 104 150 194 239 302 374 438
#     4   9  19  36  60  93 136 180 222 283 359 421
#     4  11  22  42  70 100 141 189 242 297 366 435
#
# _framework density 25.120491000000001
#
# number of rings (size 3 to 8) (size 9 to 14) (size 15 to 20)
#    0.000    1.400    2.000    3.600    0.000    4.800 
#    0.000    1.000    0.000    2.400    0.000    0.000 
#    0.000    0.000    0.000    0.000    0.000    0.000 
#
# Total GULP energy -111607.441290 kJ/mol
# GULP energy per Si atom -5580.372064 kJ/mol
# Density = 2.506332 g / cm^3
# Si number density = 25.120491 Si / 1000 Ang^3
#
#
#
# Elastic Constant Matrix: (Units=GPa)
#
#
# Indices 1 2 3 4 5 6 
#
# 1 69.1084 29.7543 67.0842 0.0000 -8.6689 0.0000
# 2 29.7543 187.5759 62.0275 0.0000 -15.2135 0.0000
# 3 67.0842 62.0275 134.4165 0.0000 -13.3979 0.0000
# 4 0.0000 0.0000 0.0000 26.7085 0.0000 -11.5508
# 5 -8.6689 -15.2135 -13.3979 0.0000 80.9401 0.0000
# 6 0.0000 0.0000 0.0000 -11.5508 0.0000 14.1023
#
#
#
# Elastic Compliance Matrix: (Units=1/GPa)
#
#
# Indices 1 2 3 4 5 6 
#
# 1 0.028117 0.000254 -0.014077 0.000000 0.000729 0.000000
# 2 0.000254 0.006334 -0.002978 0.000000 0.000725 0.000000
# 3 -0.014077 -0.002978 0.015895 0.000000 0.000564 0.000000
# 4 0.000000 0.000000 0.000000 0.057979 0.000000 0.047489
# 5 0.000729 0.000725 0.000564 0.000000 0.012662 0.000000
# 6 0.000000 0.000000 0.000000 0.047489 0.000000 0.109807
#
#
# Mechanical properties :
#
#
# Convention : Reuss Voigt Hill
#
# Bulk Modulus (GPa) = 59.71803 78.75919 69.23861
# Shear Modulus (GPa) = 18.52005 39.83250 29.17627
#
# Velocity S-wave (km/s) = 2.71818 3.98635 3.41171
# Velocity P-wave (km/s) = 5.80307 7.25318 6.56826
#
# Compressibility (1/GPa) = 0.01674536
#
# Stress axis : x y z
#
# Youngs Moduli (GPa) = 35.56595 157.87105 62.91169
#
# Poissons Ratio (x) = -0.04011 0.88561
# Poissons Ratio (y) = -0.00904 0.18732
# Poissons Ratio (z) = 0.50066 0.47007
#
# Static dielectric constant tensor:
#      x y z
#    x 2.090710 0.000000 0.011460 
#    y 0.000000 1.921340 0.000000 
#    z 0.011460 0.000000 2.044070 
# 
# From -- ./inp_files/339807.got.cif
#   From: 2010.05.17/outbox.cif.g08.bks.cpg/sg12_170_cif.got.tgz:339807.got - 2010.06.03 13:09:07.
