data_PCOD9221311
_publ_section_title
;
Structure prediction by ZEFSAII (Michael W. Deem and Ramdas Pophale) SiO2 
 PCOD9221311
Probable space group: C 2/M
;
_chemical_formula_sum "Si O2"
_cell_formula_units_Z 56
_cell_length_a 8.988247
_cell_length_b 18.756547
_cell_length_c 29.671827
_cell_angle_alpha 90.000000
_cell_angle_beta 152.137534
_cell_angle_gamma 90.000000
_cell_volume 2337.841886
_symmetry_space_group_name_H-M "C 2/M"
_symmetry_group_IT_number 12
_symmetry_cell_setting 'monoclinic'
loop_
_space_group_symop_operation_xyz
x,y,z
-x,y,-z
-x,-y,-z
x,-y,z
1/2+x,1/2+y,z
1/2-x,1/2+y,-z
1/2-x,1/2-y,-z
1/2+x,1/2-y,z
loop_
_atom_site_type_symbol
_atom_site_label
_atom_site_fract_x
_atom_site_fract_y
_atom_site_fract_z
Si Si1 0.852630 0.834105 0.635141
Si Si2 0.622025 0.081588 0.982432
Si Si3 0.132073 0.191268 0.080616
Si Si4 0.154608 0.417804 0.462199
Si Si5 0.078608 0.292507 0.276405
Si Si6 0.922550 0.581543 0.662037
Si Si7 0.647502 0.079810 0.181483
O O1 0.492555 0.862086 0.542490
O O2 0.868831 0.766498 0.672288
O O3 0.087856 0.812485 0.657818
O O4 0.033325 0.899702 0.707879
O O5 0.343812 0.084623 0.870199
O O6 0.756465 0.000000 0.014368
O O7 0.500000 0.090201 0.000000
O O8 0.863026 0.143731 0.032478
O O9 0.327816 0.232855 0.171150
O O10 0.385994 0.134763 0.129153
O O11 0.000000 0.228993 0.000000
O O12 0.075207 0.500000 0.451736
O O13 0.031087 0.401263 0.378369
O O14 0.537548 0.415040 0.564034
O O15 0.945873 0.362390 0.266845
O O16 0.024763 0.500000 0.697612
O O17 0.549730 0.000000 0.167174
#
# Coordination Sequence:
#
# PCOD9221311 Si02
#       7
#     8   8   8   8   8   8   8
#     4  11  23  38  56  82 116 153 195 238 285 341
#     4   9  17  29  49  79 108 136 177 229 284 339
#     4   9  19  37  56  77 108 149 191 236 289 340
#     4   9  19  39  65  90 119 152 187 233 288 343
#     4  11  24  39  58  85 117 155 198 241 289 344
#     4   9  20  39  63  91 119 150 189 234 287 345
#     4   9  18  34  55  78 105 140 184 233 285 339
#
# _framework density 23.953716
#
# number of rings (size 3 to 8) (size 9 to 14) (size 15 to 20)
#    0.000    2.429    0.000    2.571    0.000    8.571 
#    0.000   11.429    0.000    0.000    0.000    0.000 
#    0.000    0.000    0.000    0.000    0.000    0.000 
#
# Total GULP energy -156490.623695 kJ/mol
# GULP energy per Si atom -5588.950846 kJ/mol
# Density = 2.389920 g / cm^3
# Si number density = 23.953716 Si / 1000 Ang^3
#
#
#
# Elastic Constant Matrix: (Units=GPa)
#
#
# Indices 1 2 3 4 5 6 
#
# 1 105.2133 34.8691 -8.4125 -0.0186 -13.3196 0.0041
# 2 34.8691 55.8480 -12.7319 -0.0094 -10.7074 0.0059
# 3 -8.4125 -12.7319 30.4817 -0.1290 -0.4288 0.0657
# 4 -0.0186 -0.0094 -0.1290 184.3289 -0.0137 -105.0140
# 5 -13.3196 -10.7074 -0.4288 -0.0137 24.7599 0.0030
# 6 0.0041 0.0059 0.0657 -105.0140 0.0030 70.7154
#
#
#
# Elastic Compliance Matrix: (Units=1/GPa)
#
#
# Indices 1 2 3 4 5 6 
#
# 1 0.012279 -0.006830 0.000587 0.000007 0.003662 0.000010
# 2 -0.006830 0.025661 0.008940 0.000010 0.007578 0.000004
# 3 0.000587 0.008940 0.036771 0.000043 0.004819 0.000028
# 4 0.000007 0.000010 0.000043 0.035235 0.000022 0.052325
# 5 0.003662 0.007578 0.004819 0.000022 0.045718 0.000025
# 6 0.000010 0.000004 0.000028 0.052325 0.000025 0.091845
#
#
# Mechanical properties :
#
#
# Convention : Reuss Voigt Hill
#
# Bulk Modulus (GPa) = 12.48372 24.33250 18.40811
# Shear Modulus (GPa) = 18.60002 67.81538 43.20770
#
# Velocity S-wave (km/s) = 2.78959 5.32658 4.25172
# Velocity P-wave (km/s) = 3.94952 6.92894 5.63954
#
# Compressibility (1/GPa) = 0.08010435
#
# Stress axis : x y z
#
# Youngs Moduli (GPa) = 81.44185 38.96926 27.19559
#
# Poissons Ratio (x) = 0.26618 -0.01597
# Poissons Ratio (y) = 0.55628 -0.24313
# Poissons Ratio (z) = -0.04783 -0.34838
#
# Static dielectric constant tensor:
#      x y z
#    x 1.913430 0.000000 -0.032360 
#    y 0.000000 1.892920 0.000000 
#    z -0.032360 0.000000 2.064010 
# 
# From -- ./inp_files/373182.got.cif
#   From: 2010.05.17/outbox.cif.g08.bks.cpg/sg12_187_cif.got.tgz:373182.got - 2010.06.03 13:09:07.
