data_PCOD9221535
_publ_section_title
;
Structure prediction by ZEFSAII (Michael W. Deem and Ramdas Pophale) SiO2 
 PCOD9221535
Probable space group: C 2/M
;
_chemical_formula_sum "Si O2"
_cell_formula_units_Z 56
_cell_length_a 13.388380
_cell_length_b 26.255362
_cell_length_c 7.537765
_cell_angle_alpha 90.000000
_cell_angle_beta 62.148242
_cell_angle_gamma 90.000000
_cell_volume 2342.713372
_symmetry_space_group_name_H-M "C 2/M"
_symmetry_group_IT_number 12
_symmetry_cell_setting 'monoclinic'
loop_
_space_group_symop_operation_xyz
x,y,z
-x,y,-z
-x,-y,-z
x,-y,z
1/2+x,1/2+y,z
1/2-x,1/2+y,-z
1/2-x,1/2-y,-z
1/2+x,1/2-y,z
loop_
_atom_site_type_symbol
_atom_site_label
_atom_site_fract_x
_atom_site_fract_y
_atom_site_fract_z
Si Si1 0.535272 0.942843 0.175843
Si Si2 0.827867 0.293244 0.643380
Si Si3 0.797414 0.595532 0.514274
Si Si4 0.061352 0.000000 0.225134
Si Si5 0.678590 0.844656 0.997696
Si Si6 0.171706 0.000000 0.752547
Si Si7 0.098503 0.269642 0.791707
Si Si8 0.377415 0.609092 0.663940
O O1 0.423704 0.922930 0.366386
O O2 0.628155 0.898687 0.099982
O O3 0.568578 0.000000 0.207415
O O4 0.500000 0.947174 0.000000
O O5 0.800687 0.350553 0.605616
O O6 0.853477 0.302229 0.829631
O O7 0.909769 0.273162 0.416492
O O8 0.715019 0.260056 0.726726
O O9 0.743209 0.550585 0.672036
O O10 0.713362 0.601827 0.417154
O O11 0.100246 0.052690 0.279354
O O12 0.926153 0.000000 0.316237
O O13 0.112276 0.000000 0.988678
O O14 0.622401 0.825198 0.860432
O O15 0.811712 0.853697 0.854292
O O16 0.000000 0.247684 0.000000
O O17 0.500000 0.629037 0.500000
#
# Coordination Sequence:
#
# PCOD9221535 Si02
#       8
#     8   8   8   4   8   4   8   8
#     4  11  23  40  70 105 144 197 239 294 359 435
#     4  11  26  47  74 105 145 189 241 304 372 437
#     4  12  22  44  67 101 142 184 239 298 362 437
#     4  11  24  39  59  95 135 203 235 297 351 430
#     4  12  25  47  73 106 146 189 246 299 376 443
#     4  11  23  42  63  95 146 183 251 291 359 434
#     4  11  25  50  77 105 141 188 244 311 376 438
#     4  12  24  40  67  97 141 189 244 295 358 434
#
# _framework density 23.903904000000001
#
# number of rings (size 3 to 8) (size 9 to 14) (size 15 to 20)
#    0.000    0.571    5.000    3.214    1.000    3.429 
#    3.857    0.714    0.000    0.000    0.000    0.000 
#    0.000    0.000    0.000    0.000    0.000    0.000 
#
# Total GULP energy -156678.884715 kJ/mol
# GULP energy per Si atom -5595.674454 kJ/mol
# Density = 2.384950 g / cm^3
# Si number density = 23.903904 Si / 1000 Ang^3
#
#
#
# Elastic Constant Matrix: (Units=GPa)
#
#
# Indices 1 2 3 4 5 6 
#
# 1 42.9215 -11.0564 47.9384 0.0000 -1.2531 0.0000
# 2 -11.0564 60.6454 30.5031 0.0000 -14.5421 0.0000
# 3 47.9384 30.5031 179.5157 0.0000 -32.8211 0.0000
# 4 0.0000 0.0000 0.0000 37.1963 0.0000 -9.9666
# 5 -1.2531 -14.5421 -32.8211 0.0000 55.7303 0.0000
# 6 0.0000 0.0000 0.0000 -9.9666 0.0000 10.2419
#
#
#
# Elastic Compliance Matrix: (Units=1/GPa)
#
#
# Indices 1 2 3 4 5 6 
#
# 1 0.043347 0.014368 -0.014741 0.000000 -0.003957 0.000000
# 2 0.014368 0.023334 -0.007429 0.000000 0.002036 0.000000
# 3 -0.014741 -0.007429 0.011604 0.000000 0.004564 0.000000
# 4 0.000000 0.000000 0.000000 0.036367 0.000000 0.035389
# 5 -0.003957 0.002036 0.004564 0.000000 0.021074 0.000000
# 6 0.000000 0.000000 0.000000 0.035389 0.000000 0.132076
#
#
# Mechanical properties :
#
#
# Convention : Reuss Voigt Hill
#
# Bulk Modulus (GPa) = 15.95379 46.42810 31.19095
# Shear Modulus (GPa) = 16.43118 35.01355 25.72236
#
# Velocity S-wave (km/s) = 2.62465 3.83137 3.28392
# Velocity P-wave (km/s) = 3.98418 6.24800 5.23981
#
# Compressibility (1/GPa) = 0.06268102
#
# Stress axis : x y z
#
# Youngs Moduli (GPa) = 23.06940 42.85618 86.17951
#
# Poissons Ratio (x) = -0.61576 1.27033
# Poissons Ratio (y) = -0.33146 0.64026
# Poissons Ratio (z) = 0.34006 0.31840
#
# Static dielectric constant tensor:
#      x y z
#    x 1.915660 0.000000 0.051180 
#    y 0.000000 1.859800 0.000000 
#    z 0.051180 0.000000 1.970480 
# 
# From -- ./inp_files/68160.got.cif
#   From: 2010.05.17/outbox.cif.g08.bks.cpg/sg12_35_cif.got.tgz:68160.got - 2010.06.03 13:09:07.
