data_PCOD9221522
_publ_section_title
;
Structure prediction by ZEFSAII (Michael W. Deem and Ramdas Pophale) SiO2 
 PCOD9221522
Probable space group: C 2/M
;
_chemical_formula_sum "Si O2"
_cell_formula_units_Z 50
_cell_length_a 12.024995
_cell_length_b 14.161004
_cell_length_c 14.275840
_cell_angle_alpha 90.000000
_cell_angle_beta 120.629919
_cell_angle_gamma 90.000000
_cell_volume 2091.796499
_symmetry_space_group_name_H-M "C 2/M"
_symmetry_group_IT_number 12
_symmetry_cell_setting 'monoclinic'
loop_
_space_group_symop_operation_xyz
x,y,z
-x,y,-z
-x,-y,-z
x,-y,z
1/2+x,1/2+y,z
1/2-x,1/2+y,-z
1/2-x,1/2-y,-z
1/2+x,1/2-y,z
loop_
_atom_site_type_symbol
_atom_site_label
_atom_site_fract_x
_atom_site_fract_y
_atom_site_fract_z
Si Si1 0.072823 0.894056 0.910782
Si Si2 0.409016 0.356254 0.295732
Si Si3 0.153700 0.744035 0.374084
Si Si4 0.706323 0.386750 0.228301
Si Si5 0.500000 0.500000 0.500000
Si Si6 0.626659 0.888072 0.208436
Si Si7 0.841359 0.386748 0.096177
O O1 0.058978 0.898971 0.792266
O O2 0.931135 0.860402 0.879742
O O3 0.085700 0.000000 0.953806
O O4 0.211553 0.849569 0.991635
O O5 0.509943 0.271318 0.343494
O O6 0.444343 0.419292 0.401134
O O7 0.254906 0.342227 0.220723
O O8 0.250000 0.750000 0.500000
O O9 0.206590 0.820026 0.319470
O O10 0.146592 0.640870 0.325073
O O11 0.703243 0.500000 0.249753
O O12 0.814915 0.374588 0.195540
O O13 0.482273 0.850884 0.124257
O O14 0.634056 0.000000 0.194392
O O15 0.850453 0.500000 0.082120
#
# Coordination Sequence:
#
# PCOD9221522 Si02
#       7
#     8   8   8   8   2   8   8
#     4   9  16  34  64 102 129 167 229 273 326 406
#     4  11  23  40  67  99 128 173 228 272 332 395
#     4  11  26  42  67  97 131 173 232 285 331 399
#     4   9  19  38  66  99 134 173 222 277 336 406
#     4  12  20  40  72  94 130 172 214 284 310 390
#     4  11  24  44  65  97 139 180 221 278 340 407
#     4   9  19  36  65  95 135 177 212 274 345 402
#
# _framework density 23.902899000000001
#
# number of rings (size 3 to 8) (size 9 to 14) (size 15 to 20)
#    0.000    1.920    1.600    1.440    3.360    3.200 
#    0.000    5.600    7.040    2.880    0.000    0.000 
#    0.000    0.000    0.000    0.000    0.000    0.000 
#
# Total GULP energy -139181.184514 kJ/mol
# GULP energy per Si atom -5567.247381 kJ/mol
# Density = 2.384849 g / cm^3
# Si number density = 23.902899 Si / 1000 Ang^3
#
#
#
# Elastic Constant Matrix: (Units=GPa)
#
#
# Indices 1 2 3 4 5 6 
#
# 1 155.2554 20.2596 20.2071 0.0000 28.5646 0.0000
# 2 20.2596 71.3944 8.1504 0.0000 3.5970 0.0000
# 3 20.2071 8.1504 96.3757 0.0000 6.2609 0.0000
# 4 0.0000 0.0000 0.0000 14.0665 0.0000 12.7261
# 5 28.5646 3.5970 6.2609 0.0000 30.0375 0.0000
# 6 0.0000 0.0000 0.0000 12.7261 0.0000 14.7678
#
#
#
# Elastic Compliance Matrix: (Units=1/GPa)
#
#
# Indices 1 2 3 4 5 6 
#
# 1 0.008167 -0.001825 -0.001082 0.000000 -0.007323 0.000000
# 2 -0.001825 0.014615 -0.000864 0.000000 0.000166 0.000000
# 3 -0.001082 -0.000864 0.010748 0.000000 -0.001107 0.000000
# 4 0.000000 0.000000 0.000000 0.322607 0.000000 -0.278007
# 5 -0.007323 0.000166 -0.001107 0.000000 0.040466 0.000000
# 6 0.000000 0.000000 0.000000 -0.278007 0.000000 0.307288
#
#
# Mechanical properties :
#
#
# Convention : Reuss Voigt Hill
#
# Bulk Modulus (GPa) = 38.48063 46.69552 42.58807
# Shear Modulus (GPa) = 6.94351 30.06825 18.50588
#
# Velocity S-wave (km/s) = 1.70622 3.55058 2.78548
# Velocity P-wave (km/s) = 4.47384 6.03214 5.31046
#
# Compressibility (1/GPa) = 0.02598710
#
# Stress axis : x y z
#
# Youngs Moduli (GPa) = 122.43962 68.42320 93.04037
#
# Poissons Ratio (x) = 0.12488 0.10071
# Poissons Ratio (y) = 0.22347 0.08039
# Poissons Ratio (z) = 0.13253 0.05912
#
# Static dielectric constant tensor:
#      x y z
#    x 1.994190 0.000000 -0.000330 
#    y 0.000000 1.947780 0.000000 
#    z -0.000330 0.000000 1.904140 
# 
# From -- ./inp_files/206296.got.cif
#   From: 2010.05.17/outbox.cif.g08.bks.cpg/sg12_104_cif.got.tgz:206296.got - 2010.06.03 13:09:07.
