data_PCOD9221614
_publ_section_title
;
Structure prediction by ZEFSAII (Michael W. Deem and Ramdas Pophale) SiO2 
 PCOD9221614
Probable space group: C 2/M
;
_chemical_formula_sum "Si O2"
_cell_formula_units_Z 48
_cell_length_a 23.575328
_cell_length_b 15.858462
_cell_length_c 6.247817
_cell_angle_alpha 90.000000
_cell_angle_beta 93.855248
_cell_angle_gamma 90.000000
_cell_volume 2330.575792
_symmetry_space_group_name_H-M "C 2/M"
_symmetry_group_IT_number 12
_symmetry_cell_setting 'monoclinic'
loop_
_space_group_symop_operation_xyz
x,y,z
-x,y,-z
-x,-y,-z
x,-y,z
1/2+x,1/2+y,z
1/2-x,1/2+y,-z
1/2-x,1/2-y,-z
1/2+x,1/2-y,z
loop_
_atom_site_type_symbol
_atom_site_label
_atom_site_fract_x
_atom_site_fract_y
_atom_site_fract_z
Si Si1 0.694685 0.500000 0.451385
Si Si2 0.942166 0.156926 0.080054
Si Si3 0.242591 0.826295 0.333320
Si Si4 0.634184 0.229002 0.221021
Si Si5 0.560586 0.804105 0.605556
Si Si6 0.640870 0.500000 0.928763
Si Si7 0.150985 0.599938 0.891318
O O1 0.727815 0.412463 0.449676
O O2 0.670353 0.500000 0.694440
O O3 0.666672 0.500000 0.188566
O O4 0.952185 0.213651 0.290374
O O5 0.897226 0.083444 0.093149
O O6 0.917639 0.226636 0.912638
O O7 0.000000 0.121099 0.000000
O O8 0.250000 0.750000 0.500000
O O9 0.186914 0.792060 0.196927
O O10 0.296985 0.849280 0.205457
O O11 0.610502 0.215809 0.449943
O O12 0.648657 0.138058 0.128272
O O13 0.500000 0.835297 0.500000
O O14 0.591518 0.871132 0.768643
O O15 0.159829 0.500000 0.882066
#
# Coordination Sequence:
#
# PCOD9221614 Si02
#       7
#     4   8   8   8   8   4   8
#     4  12  28  48  73 110 151 193 247 309 369 447
#     4  11  23  41  68 101 140 187 238 294 357 437
#     4  12  24  47  73 103 141 190 244 301 369 442
#     4  11  23  43  70  97 138 185 233 296 364 434
#     4  11  23  44  72  99 134 183 239 296 361 435
#     4  12  27  44  70 108 152 194 242 300 369 437
#     4  11  26  44  67 105 138 180 241 295 372 442
#
# _framework density 20.595769000000001
#
# number of rings (size 3 to 8) (size 9 to 14) (size 15 to 20)
#    0.000    0.667    5.833    1.750    2.333    2.333 
#    1.500    2.083    0.000    0.000    0.000    0.000 
#    0.000    0.000    0.000    0.000    0.000    0.000 
#
# Total GULP energy -133639.180056 kJ/mol
# GULP energy per Si atom -5568.299169 kJ/mol
# Density = 2.054889 g / cm^3
# Si number density = 20.595769 Si / 1000 Ang^3
#
#
#
# Elastic Constant Matrix: (Units=GPa)
#
#
# Indices 1 2 3 4 5 6 
#
# 1 81.2682 20.8590 27.2599 0.0000 -9.4853 0.0000
# 2 20.8590 118.9657 26.4576 0.0000 -7.4945 0.0000
# 3 27.2599 26.4576 80.0831 0.0000 -19.5150 0.0000
# 4 0.0000 0.0000 0.0000 0.0280 0.0000 21.8685
# 5 -9.4853 -7.4945 -19.5150 0.0000 24.5992 0.0000
# 6 0.0000 0.0000 0.0000 21.8685 0.0000 8.6002
#
#
#
# Elastic Compliance Matrix: (Units=1/GPa)
#
#
# Indices 1 2 3 4 5 6 
#
# 1 0.014217 -0.001510 -0.003864 0.000000 0.001957 0.000000
# 2 -0.001510 0.009237 -0.002472 0.000000 0.000271 0.000000
# 3 -0.003864 -0.002472 0.017445 0.000000 0.011596 0.000000
# 4 0.000000 0.000000 0.000000 -0.017993 0.000000 0.045751
# 5 0.001957 0.000271 0.011596 0.000000 0.050689 0.000000
# 6 0.000000 0.000000 0.000000 0.045751 0.000000 -0.000059
#
#
# Mechanical properties :
#
#
# Convention : Reuss Voigt Hill
#
# Bulk Modulus (GPa) = 39.67003 47.71888 43.69445
# Shear Modulus (GPa) = 51.21390 20.36154 35.78772
#
# Velocity S-wave (km/s) = 4.99201 3.14766 4.17301
# Velocity P-wave (km/s) = 7.24776 6.03572 6.66933
#
# Compressibility (1/GPa) = 0.02520795
#
# Stress axis : x y z
#
# Youngs Moduli (GPa) = 70.33875 108.25619 57.32435
#
# Poissons Ratio (x) = 0.16349 0.22148
# Poissons Ratio (y) = 0.10623 0.14169
# Poissons Ratio (z) = 0.27176 0.26757
#
# Static dielectric constant tensor:
#      x y z
#    x 1.807600 0.000000 0.067580 
#    y 0.000000 1.671490 0.000000 
#    z 0.067580 0.000000 1.863980 
# 
# From -- ./inp_files/28196.got.cif
#   From: 2010.05.17/outbox.cif.g08.bks.cpg/sg12_15_cif.got.tgz:28196.got - 2010.06.03 13:09:07.
