data_PCOD9221563
_publ_section_title
;
Structure prediction by ZEFSAII (Michael W. Deem and Ramdas Pophale) SiO2 
 PCOD9221563
Probable space group: C 2/M
;
_chemical_formula_sum "Si O2"
_cell_formula_units_Z 48
_cell_length_a 14.486408
_cell_length_b 22.574473
_cell_length_c 10.963305
_cell_angle_alpha 90.000000
_cell_angle_beta 148.305990
_cell_angle_gamma 90.000000
_cell_volume 1883.629995
_symmetry_space_group_name_H-M "C 2/M"
_symmetry_group_IT_number 12
_symmetry_cell_setting 'monoclinic'
loop_
_space_group_symop_operation_xyz
x,y,z
-x,y,-z
-x,-y,-z
x,-y,z
1/2+x,1/2+y,z
1/2-x,1/2+y,-z
1/2-x,1/2-y,-z
1/2+x,1/2-y,z
loop_
_atom_site_type_symbol
_atom_site_label
_atom_site_fract_x
_atom_site_fract_y
_atom_site_fract_z
Si Si1 0.500000 0.881416 0.500000
Si Si2 0.600090 0.390124 0.439123
Si Si3 0.547433 0.159452 0.284528
Si Si4 0.378983 0.595752 0.976721
Si Si5 0.838015 0.436000 0.912816
Si Si6 0.341867 0.736136 0.974117
Si Si7 0.000000 0.209492 0.500000
O O1 0.468211 0.842903 0.586987
O O2 0.676446 0.918323 0.723516
O O3 0.467677 0.424400 0.202343
O O4 0.675978 0.424032 0.641490
O O5 0.507361 0.332597 0.390303
O O6 0.768278 0.368775 0.549122
O O7 0.389614 0.116940 0.059868
O O8 0.511894 0.221447 0.175946
O O9 0.500000 0.577702 0.000000
O O10 0.382590 0.668182 0.991679
O O11 0.827844 0.500000 0.961793
O O12 0.000000 0.437098 0.000000
O O13 0.188095 0.758329 0.711390
O O14 0.250000 0.750000 0.000000
#
# Coordination Sequence:
#
# PCOD9221563 Si02
#       7
#     4   8   8   8   8   8   4
#     4  12  23  44  63  88 134 174 213 266 321 378
#     4  11  23  41  65  93 128 168 218 273 328 387
#     4  11  23  41  64  95 129 174 216 273 325 388
#     4  12  26  41  61  92 131 182 223 262 318 396
#     4   9  20  42  72  99 125 162 214 278 342 392
#     4  12  24  37  57  88 130 176 219 267 319 378
#     4  12  23  38  57  88 132 168 221 268 319 382
#
# _framework density 25.482710999999998
#
# number of rings (size 3 to 8) (size 9 to 14) (size 15 to 20)
#    0.000    0.833    6.667    0.500    2.333    0.667 
#    0.000    0.833    0.000    1.500    0.000    0.000 
#    0.000    0.000    0.000    0.000    0.000    0.000 
#
# Total GULP energy -134405.695125 kJ/mol
# GULP energy per Si atom -5600.237297 kJ/mol
# Density = 2.542471 g / cm^3
# Si number density = 25.482711 Si / 1000 Ang^3
#
#
#
# Elastic Constant Matrix: (Units=GPa)
#
#
# Indices 1 2 3 4 5 6 
#
# 1 111.2020 3.5129 44.3437 0.0000 1.9590 0.0000
# 2 3.5129 68.9914 15.5263 0.0000 -7.9142 0.0000
# 3 44.3437 15.5263 192.7823 0.0000 -4.3464 0.0000
# 4 0.0000 0.0000 0.0000 -4.2865 0.0000 -1.0743
# 5 1.9590 -7.9142 -4.3464 0.0000 55.0504 0.0000
# 6 0.0000 0.0000 0.0000 -1.0743 0.0000 7.6904
#
#
#
# Elastic Compliance Matrix: (Units=1/GPa)
#
#
# Indices 1 2 3 4 5 6 
#
# 1 0.009917 -0.000052 -0.002289 0.000000 -0.000541 0.000000
# 2 -0.000052 0.014993 -0.001149 0.000000 0.002067 0.000000
# 3 -0.002289 -0.001149 0.005815 0.000000 0.000375 0.000000
# 4 0.000000 0.000000 0.000000 -0.225400 0.000000 -0.031485
# 5 -0.000541 0.002067 0.000375 0.000000 0.018511 0.000000
# 6 0.000000 0.000000 0.000000 -0.031485 0.000000 0.125634
#
#
# Mechanical properties :
#
#
# Convention : Reuss Voigt Hill
#
# Bulk Modulus (GPa) = 42.11517 55.52685 48.82101
# Shear Modulus (GPa) = -140.30887 32.33038 -53.98925
#
# Velocity S-wave (km/s) = -7.42832 3.56577 -4.60789
# Velocity P-wave (km/s) = 7.55053 6.22818 3.01829
#
# Compressibility (1/GPa) = 0.02374441
#
# Stress axis : x y z
#
# Youngs Moduli (GPa) = 100.84092 66.69854 171.97733
#
# Poissons Ratio (x) = 0.00346 0.39366
# Poissons Ratio (y) = 0.00523 0.19760
# Poissons Ratio (z) = 0.23083 0.07663
#
# Static dielectric constant tensor:
#      x y z
#    x 2.016980 0.000000 0.012580 
#    y 0.000000 2.023830 0.000000 
#    z 0.012580 0.000000 2.054540 
# 
# From -- ./inp_files/149906.got.cif
#   From: 2010.05.17/outbox.cif.g08.bks.cpg/sg12_75_cif.got.tgz:149906.got - 2010.06.03 13:09:07.
