data_PCOD9221664
_publ_section_title
;
Structure prediction by ZEFSAII (Michael W. Deem and Ramdas Pophale) SiO2 
 PCOD9221664
Probable space group: C 2/M
;
_chemical_formula_sum "Si O2"
_cell_formula_units_Z 56
_cell_length_a 19.641155
_cell_length_b 16.788925
_cell_length_c 19.536773
_cell_angle_alpha 90.000000
_cell_angle_beta 156.441406
_cell_angle_gamma 90.000000
_cell_volume 2574.912280
_symmetry_space_group_name_H-M "C 2/M"
_symmetry_group_IT_number 12
_symmetry_cell_setting 'monoclinic'
loop_
_space_group_symop_operation_xyz
x,y,z
-x,y,-z
-x,-y,-z
x,-y,z
1/2+x,1/2+y,z
1/2-x,1/2+y,-z
1/2-x,1/2-y,-z
1/2+x,1/2-y,z
loop_
_atom_site_type_symbol
_atom_site_label
_atom_site_fract_x
_atom_site_fract_y
_atom_site_fract_z
Si Si1 0.026101 0.837920 0.103505
Si Si2 0.680600 0.410850 0.966446
Si Si3 0.049601 0.143519 0.705827
Si Si4 0.934710 0.652335 0.016094
Si Si5 0.695295 0.909220 0.366898
Si Si6 0.502410 0.825402 0.301585
Si Si7 0.884487 0.407890 0.460801
O O1 0.222617 0.850591 0.303591
O O2 0.919990 0.892665 0.057019
O O3 0.966225 0.746875 0.057686
O O4 0.000000 0.859428 0.000000
O O5 0.750183 0.500000 0.030610
O O6 0.563482 0.398853 0.792497
O O7 0.833384 0.348108 0.103914
O O8 0.886241 0.108028 0.517019
O O9 0.012406 0.236025 0.686359
O O10 0.234422 0.134903 0.841313
O O11 0.053525 0.605788 0.178782
O O12 0.000000 0.635227 0.000000
O O13 0.655863 0.848364 0.392665
O O14 0.683406 0.000000 0.380659
O O15 0.513641 0.881627 0.378250
O O16 0.828561 0.500000 0.415141
O O17 0.000000 0.400798 0.500000
#
# Coordination Sequence:
#
# PCOD9221664 Si02
#       7
#     8   8   8   8   8   8   8
#     4  11  23  42  65  96 138 184 230 273 337 415
#     4  12  23  39  69 101 137 178 222 283 344 404
#     4  12  25  46  72 102 137 181 233 284 344 413
#     4  11  26  48  71 102 137 178 233 292 348 411
#     4  12  26  45  72 104 137 178 230 287 349 411
#     4  12  23  43  69  98 138 180 227 277 334 412
#     4  11  24  39  60  97 142 182 225 277 335 402
#
# _framework density 21.748314000000001
#
# number of rings (size 3 to 8) (size 9 to 14) (size 15 to 20)
#    0.000    0.429    2.857    6.429    2.000    3.714 
#    0.000    0.714    0.000    0.000    0.000    0.000 
#    0.000    0.000    0.000    0.000    0.000    0.000 
#
# Total GULP energy -156764.680028 kJ/mol
# GULP energy per Si atom -5598.738572 kJ/mol
# Density = 2.169881 g / cm^3
# Si number density = 21.748314 Si / 1000 Ang^3
#
#
#
# Elastic Constant Matrix: (Units=GPa)
#
#
# Indices 1 2 3 4 5 6 
#
# 1 92.1426 25.1255 33.6756 0.0033 11.8356 0.0004
# 2 25.1255 43.1897 13.7289 -0.0116 9.7057 -0.0082
# 3 33.6756 13.7289 110.6345 -0.0052 27.6044 -0.0030
# 4 0.0033 -0.0116 -0.0052 15.4054 -0.0032 -1.2564
# 5 11.8356 9.7057 27.6044 -0.0032 31.5212 -0.0023
# 6 0.0004 -0.0082 -0.0030 -1.2564 -0.0023 3.8103
#
#
#
# Elastic Compliance Matrix: (Units=1/GPa)
#
#
# Indices 1 2 3 4 5 6 
#
# 1 0.014023 -0.007057 -0.003354 -0.000011 -0.000155 -0.000023
# 2 -0.007057 0.028623 0.000171 0.000027 -0.006314 0.000068
# 3 -0.003354 0.000171 0.012460 0.000004 -0.009705 0.000006
# 4 -0.000011 0.000027 0.000004 0.066706 0.000001 0.021995
# 5 -0.000155 -0.006314 -0.009705 0.000001 0.042226 0.000004
# 6 -0.000023 0.000068 0.000006 0.021995 0.000004 0.269696
#
#
# Mechanical properties :
#
#
# Convention : Reuss Voigt Hill
#
# Bulk Modulus (GPa) = 28.87869 43.44742 36.16305
# Shear Modulus (GPa) = 10.73526 21.70983 16.22254
#
# Velocity S-wave (km/s) = 2.22415 3.16291 2.73412
# Velocity P-wave (km/s) = 4.46130 5.77576 5.16055
#
# Compressibility (1/GPa) = 0.03462761
#
# Stress axis : x y z
#
# Youngs Moduli (GPa) = 71.31317 34.93654 80.25750
#
# Poissons Ratio (x) = 0.24654 0.26917
# Poissons Ratio (y) = 0.50323 -0.01376
# Poissons Ratio (z) = 0.23918 -0.00599
#
# Static dielectric constant tensor:
#      x y z
#    x 1.791130 0.000000 0.008330 
#    y 0.000000 1.764300 0.000000 
#    z 0.008330 0.000000 1.819690 
# 
# From -- ./inp_files/87807.got.cif
#   From: 2010.05.17/outbox.cif.g08.bks.cpg/sg12_44_cif.got.tgz:87807.got - 2010.06.03 13:09:07.
