data_PCOD9221625
_publ_section_title
;
Structure prediction by ZEFSAII (Michael W. Deem and Ramdas Pophale) SiO2 
 PCOD9221625
Probable space group: C 2/M
;
_chemical_formula_sum "Si O2"
_cell_formula_units_Z 50
_cell_length_a 26.188939
_cell_length_b 9.222481
_cell_length_c 11.388837
_cell_angle_alpha 90.000000
_cell_angle_beta 122.514062
_cell_angle_gamma 90.000000
_cell_volume 2319.563786
_symmetry_space_group_name_H-M "C 2/M"
_symmetry_group_IT_number 12
_symmetry_cell_setting 'monoclinic'
loop_
_space_group_symop_operation_xyz
x,y,z
-x,y,-z
-x,-y,-z
x,-y,z
1/2+x,1/2+y,z
1/2-x,1/2+y,-z
1/2-x,1/2-y,-z
1/2+x,1/2-y,z
loop_
_atom_site_type_symbol
_atom_site_label
_atom_site_fract_x
_atom_site_fract_y
_atom_site_fract_z
Si Si1 0.664508 0.326642 0.629629
Si Si2 0.000000 0.000000 0.000000
Si Si3 0.865312 0.659669 0.902925
Si Si4 0.012366 0.731798 0.841668
Si Si5 0.438929 0.830526 0.348086
Si Si6 0.874555 0.338234 0.643254
Si Si7 0.732923 0.672752 0.100827
O O1 0.668597 0.500000 0.646123
O O2 0.611659 0.259387 0.645874
O O3 0.649020 0.278451 0.478077
O O4 0.724613 0.246155 0.748489
O O5 0.998443 0.124011 0.895154
O O6 0.840098 0.500000 0.901133
O O7 0.854838 0.689254 0.752686
O O8 0.834486 0.781748 0.943795
O O9 0.936842 0.655524 0.015712
O O10 0.044660 0.741011 0.755379
O O11 0.947601 0.660519 0.736220
O O12 0.500000 0.832449 0.500000
O O13 0.420142 0.000000 0.306902
O O14 0.853986 0.500000 0.582044
O O15 0.740303 0.500000 0.102879
O O16 0.750000 0.750000 0.000000
#
# Coordination Sequence:
#
# PCOD9221625 Si02
#       7
#     8   2   8   8   8   8   8
#     4  12  27  45  70 103 142 182 229 286 346 412
#     4  12  28  40  64 104 152 180 242 294 346 410
#     4  11  24  43  71 101 135 185 238 283 345 415
#     4  12  24  41  68  99 147 186 229 286 349 410
#     4  11  23  41  69 102 138 182 229 282 346 417
#     4  11  23  43  70 101 142 183 229 284 346 416
#     4  12  27  49  75  99 134 177 230 289 347 415
#
# _framework density 21.555776999999999
#
# number of rings (size 3 to 8) (size 9 to 14) (size 15 to 20)
#    0.000    0.480    3.200    5.280    3.360    2.880 
#    0.000    0.000    0.000    0.000    0.000    0.000 
#    0.000    0.000    0.000    0.000    0.000    0.000 
#
# Total GULP energy -139560.364842 kJ/mol
# GULP energy per Si atom -5582.414594 kJ/mol
# Density = 2.150672 g / cm^3
# Si number density = 21.555777 Si / 1000 Ang^3
#
#
#
# Elastic Constant Matrix: (Units=GPa)
#
#
# Indices 1 2 3 4 5 6 
#
# 1 47.5365 37.2608 17.0563 0.0000 1.9031 0.0000
# 2 37.2608 171.1040 54.0325 0.0000 -6.8623 0.0000
# 3 17.0563 54.0325 108.7453 0.0000 -7.8007 0.0000
# 4 0.0000 0.0000 0.0000 55.7527 0.0000 61.1456
# 5 1.9031 -6.8623 -7.8007 0.0000 37.8887 0.0000
# 6 0.0000 0.0000 0.0000 61.1456 0.0000 197.1208
#
#
#
# Elastic Compliance Matrix: (Units=1/GPa)
#
#
# Indices 1 2 3 4 5 6 
#
# 1 0.025810 -0.005204 -0.001648 0.000000 -0.002578 0.000000
# 2 -0.005204 0.007993 -0.003078 0.000000 0.001075 0.000000
# 3 -0.001648 -0.003078 0.011114 0.000000 0.001813 0.000000
# 4 0.000000 0.000000 0.000000 0.027184 0.000000 -0.008432
# 5 -0.002578 0.001075 0.001813 0.000000 0.027091 0.000000
# 6 0.000000 0.000000 0.000000 -0.008432 0.000000 0.007689
#
#
# Mechanical properties :
#
#
# Convention : Reuss Voigt Hill
#
# Bulk Modulus (GPa) = 39.90806 60.45388 50.18097
# Shear Modulus (GPa) = 37.01213 72.75484 54.88349
#
# Velocity S-wave (km/s) = 4.14821 5.81594 5.05138
# Velocity P-wave (km/s) = 6.44186 8.55608 7.57311
#
# Compressibility (1/GPa) = 0.02505760
#
# Stress axis : x y z
#
# Youngs Moduli (GPa) = 38.74525 125.11408 89.97908
#
# Poissons Ratio (x) = 0.65104 0.14825
# Poissons Ratio (y) = 0.20161 0.27696
# Poissons Ratio (z) = 0.06384 0.38511
#
# Static dielectric constant tensor:
#      x y z
#    x 1.821610 0.000000 0.028490 
#    y 0.000000 1.755890 0.000000 
#    z 0.028490 0.000000 1.792210 
# 
# From -- ./inp_files/181212.got.cif
#   From: 2010.05.17/outbox.cif.g08.bks.cpg/sg12_91_cif.got.tgz:181212.got - 2010.06.03 13:09:07.
