data_PCOD9221239
_publ_section_title
;
Structure prediction by ZEFSAII (Michael W. Deem and Ramdas Pophale) SiO2 
 PCOD9221239
Probable space group: C 2/M
;
_chemical_formula_sum "Si O2"
_cell_formula_units_Z 56
_cell_length_a 13.516014
_cell_length_b 31.270775
_cell_length_c 12.024344
_cell_angle_alpha 90.000000
_cell_angle_beta 140.461525
_cell_angle_gamma 90.000000
_cell_volume 3235.286425
_symmetry_space_group_name_H-M "C 2/M"
_symmetry_group_IT_number 12
_symmetry_cell_setting 'monoclinic'
loop_
_space_group_symop_operation_xyz
x,y,z
-x,y,-z
-x,-y,-z
x,-y,z
1/2+x,1/2+y,z
1/2-x,1/2+y,-z
1/2-x,1/2-y,-z
1/2+x,1/2-y,z
loop_
_atom_site_type_symbol
_atom_site_label
_atom_site_fract_x
_atom_site_fract_y
_atom_site_fract_z
Si Si1 0.979521 0.451644 0.347895
Si Si2 0.521948 0.335163 0.809584
Si Si3 0.206989 0.231364 0.842520
Si Si4 0.667150 0.596304 0.100380
Si Si5 0.563552 0.209594 0.395460
Si Si6 0.628540 0.251005 0.229411
Si Si7 0.703670 0.122996 0.549722
O O1 0.998576 0.500000 0.322897
O O2 0.803788 0.434628 0.174642
O O3 0.000000 0.452630 0.500000
O O4 0.116701 0.419205 0.430102
O O5 0.618518 0.312841 0.793933
O O6 0.469416 0.295019 0.841952
O O7 0.362918 0.358823 0.632676
O O8 0.621046 0.368086 0.969403
O O9 0.338409 0.231828 0.863093
O O10 0.087529 0.266682 0.694143
O O11 0.250000 0.250000 0.000000
O O12 0.742409 0.616541 0.276368
O O13 0.500000 0.577577 0.000000
O O14 0.567422 0.216681 0.265585
O O15 0.708860 0.233924 0.574640
O O16 0.577421 0.160337 0.434628
#
# Coordination Sequence:
#
# PCOD9221239 Si02
#       7
#     8   8   8   8   8   8   8
#     4   9  18  31  47  71  96 124 158 195 250 310
#     4   9  20  33  46  70  97 132 175 203 243 290
#     4  11  23  28  47  70  98 137 165 218 248 282
#     4   9  18  29  49  69  97 126 160 205 240 301
#     4   9  19  32  47  65  92 133 172 200 236 294
#     4   9  19  35  45  65  99 132 171 211 241 277
#     4   9  18  30  50  64  91 129 160 203 236 296
#
# _framework density 17.309132000000002
#
# number of rings (size 3 to 8) (size 9 to 14) (size 15 to 20)
#    0.000    2.714    0.000    1.286   10.000    6.571 
#    0.000    2.143    0.000    0.000    0.000    0.000 
#    0.000    4.571    0.000    0.000    0.000    0.000 
#
# Total GULP energy -155938.299353 kJ/mol
# GULP energy per Si atom -5569.224977 kJ/mol
# Density = 1.726974 g / cm^3
# Si number density = 17.309132 Si / 1000 Ang^3
#
#
#
# Elastic Constant Matrix: (Units=GPa)
#
#
# Indices 1 2 3 4 5 6 
#
# 1 109.6772 44.5671 29.1872 0.0000 6.7328 0.0000
# 2 44.5671 102.1467 39.6960 0.0000 23.8829 0.0000
# 3 29.1872 39.6960 66.8768 0.0000 16.3479 0.0000
# 4 0.0000 0.0000 0.0000 18.6499 0.0000 10.4293
# 5 6.7328 23.8829 16.3479 0.0000 29.8935 0.0000
# 6 0.0000 0.0000 0.0000 10.4293 0.0000 21.9045
#
#
#
# Elastic Compliance Matrix: (Units=1/GPa)
#
#
# Indices 1 2 3 4 5 6 
#
# 1 0.011590 -0.004494 -0.003036 0.000000 0.002641 0.000000
# 2 -0.004494 0.015863 -0.005314 0.000000 -0.008755 0.000000
# 3 -0.003036 -0.005314 0.021040 0.000000 -0.006577 0.000000
# 4 0.000000 0.000000 0.000000 0.073077 0.000000 -0.034794
# 5 0.002641 -0.008755 -0.006577 0.000000 0.043449 0.000000
# 6 0.000000 0.000000 0.000000 -0.034794 0.000000 0.062219
#
#
# Mechanical properties :
#
#
# Convention : Reuss Voigt Hill
#
# Bulk Modulus (GPa) = 43.85243 56.17793 50.01518
# Shear Modulus (GPa) = 19.19187 25.10626 22.14907
#
# Velocity S-wave (km/s) = 3.33343 3.81263 3.58105
# Velocity P-wave (km/s) = 6.34079 7.20469 6.78650
#
# Compressibility (1/GPa) = 0.02280375
#
# Stress axis : x y z
#
# Youngs Moduli (GPa) = 86.28340 63.04039 47.52889
#
# Poissons Ratio (x) = 0.28332 0.14430
# Poissons Ratio (y) = 0.38777 0.25257
# Poissons Ratio (z) = 0.26196 0.33500
#
# Static dielectric constant tensor:
#      x y z
#    x 1.648210 0.000000 0.041730 
#    y 0.000000 1.594260 0.000000 
#    z 0.041730 0.000000 1.662990 
# 
# From -- ./inp_files/150126.got.cif
#   From: 2010.05.17/outbox.cif.g08.bks.cpg/sg12_76_cif.got.tgz:150126.got - 2010.06.03 13:09:07.
