data_PCOD9221163
_publ_section_title
;
Structure prediction by ZEFSAII (Michael W. Deem and Ramdas Pophale) SiO2 
 PCOD9221163
Probable space group: C 2/M
;
_chemical_formula_sum "Si O2"
_cell_formula_units_Z 40
_cell_length_a 10.477331
_cell_length_b 25.140335
_cell_length_c 14.893523
_cell_angle_alpha 90.000000
_cell_angle_beta 29.684149
_cell_angle_gamma 90.000000
_cell_volume 1942.745385
_symmetry_space_group_name_H-M "C 2/M"
_symmetry_group_IT_number 12
_symmetry_cell_setting 'monoclinic'
loop_
_space_group_symop_operation_xyz
x,y,z
-x,y,-z
-x,-y,-z
x,-y,z
1/2+x,1/2+y,z
1/2-x,1/2+y,-z
1/2-x,1/2-y,-z
1/2+x,1/2-y,z
loop_
_atom_site_type_symbol
_atom_site_label
_atom_site_fract_x
_atom_site_fract_y
_atom_site_fract_z
Si Si1 0.026289 0.562559 0.380966
Si Si2 0.312786 0.187969 0.948505
Si Si3 0.500000 0.117049 0.000000
Si Si4 0.825129 0.790733 0.530112
Si Si5 0.500000 0.623711 0.000000
Si Si6 0.999624 0.906670 0.394859
O O1 0.085151 0.500000 0.349519
O O2 0.255397 0.590250 0.185117
O O3 0.000000 0.582796 0.500000
O O4 0.751248 0.570720 0.500662
O O5 0.568974 0.186620 0.731747
O O6 0.250000 0.250000 0.000000
O O7 0.377016 0.154994 0.998600
O O8 0.090247 0.159897 0.027844
O O9 0.271886 0.081820 0.182098
O O10 0.750000 0.750000 0.500000
O O11 0.000000 0.764245 0.500000
O O12 0.977372 0.842204 0.402850
O O13 0.000000 0.920811 0.500000
#
# Coordination Sequence:
#
# PCOD9221163 Si02
#       6
#     8   8   4   8   4   8
#     4  11  25  45  71 101 130 172 228 285 342 405
#     4  12  25  38  62  96 133 175 225 266 323 400
#     4  12  21  42  63  87 128 175 211 275 328 388
#     4  11  23  41  60  90 133 174 223 272 325 392
#     4  12  24  46  68  97 138 183 217 277 342 394
#     4  11  22  43  64  94 129 170 219 274 335 400
#
# _framework density 20.589418999999999
#
# number of rings (size 3 to 8) (size 9 to 14) (size 15 to 20)
#    0.000    0.600    6.000    3.300    2.800    1.200 
#    0.000    0.500    0.000    0.000    0.000    0.000 
#    0.000    0.000    0.000    0.000    0.000    0.000 
#
# Total GULP energy -111855.290646 kJ/mol
# GULP energy per Si atom -5592.764532 kJ/mol
# Density = 2.054256 g / cm^3
# Si number density = 20.589419 Si / 1000 Ang^3
#
#
#
# Elastic Constant Matrix: (Units=GPa)
#
#
# Indices 1 2 3 4 5 6 
#
# 1 140.5185 25.8683 32.8097 -0.0003 -10.6441 -0.0001
# 2 25.8683 47.4549 22.2416 0.0001 -0.6368 0.0000
# 3 32.8097 22.2416 164.7616 -0.0003 5.8893 -0.0010
# 4 -0.0003 0.0001 -0.0003 17.9771 0.0002 -4.5891
# 5 -10.6441 -0.6368 5.8893 0.0002 37.0143 0.0001
# 6 -0.0001 0.0000 -0.0010 -4.5891 0.0001 13.3068
#
#
#
# Elastic Compliance Matrix: (Units=1/GPa)
#
#
# Indices 1 2 3 4 5 6 
#
# 1 0.008314 -0.003929 -0.001215 0.000000 0.002517 0.000000
# 2 -0.003929 0.024381 -0.002498 0.000000 -0.000313 0.000000
# 3 -0.001215 -0.002498 0.006701 0.000000 -0.001459 0.000001
# 4 0.000000 0.000000 0.000000 0.060996 0.000000 0.021036
# 5 0.002517 -0.000313 -0.001459 0.000000 0.027967 0.000000
# 6 0.000000 0.000000 0.000001 0.021036 0.000000 0.082404
#
#
# Mechanical properties :
#
#
# Convention : Reuss Voigt Hill
#
# Bulk Modulus (GPa) = 41.47294 57.17493 49.32394
# Shear Modulus (GPa) = 21.35989 31.78066 26.57028
#
# Velocity S-wave (km/s) = 3.22440 3.93306 3.59623
# Velocity P-wave (km/s) = 5.83514 6.96094 6.42275
#
# Compressibility (1/GPa) = 0.02411211
#
# Stress axis : x y z
#
# Youngs Moduli (GPa) = 120.27703 41.01599 149.23875
#
# Poissons Ratio (x) = 0.16114 0.18136
# Poissons Ratio (y) = 0.47255 0.37275
# Poissons Ratio (z) = 0.14616 0.10244
#
# Static dielectric constant tensor:
#      x y z
#    x 1.780960 0.000000 0.032320 
#    y 0.000000 1.752810 -0.000010 
#    z 0.032320 -0.000010 1.839710 
# 
# From -- ./inp_files/201147.got.cif
#   From: 2010.05.17/outbox.cif.g08.bks.cpg/sg12_101_cif.got.tgz:201147.got - 2010.06.03 13:09:07.
