data_PCOD9221788
_publ_section_title
;
Structure prediction by ZEFSAII (Michael W. Deem and Ramdas Pophale) SiO2 
 PCOD9221788
Probable space group: C 2/M
;
_chemical_formula_sum "Si O2"
_cell_formula_units_Z 24
_cell_length_a 10.370531
_cell_length_b 18.136894
_cell_length_c 11.352338
_cell_angle_alpha 90.000000
_cell_angle_beta 26.306182
_cell_angle_gamma 90.000000
_cell_volume 946.275363
_symmetry_space_group_name_H-M "C 2/M"
_symmetry_group_IT_number 12
_symmetry_cell_setting 'monoclinic'
loop_
_space_group_symop_operation_xyz
x,y,z
-x,y,-z
-x,-y,-z
x,-y,z
1/2+x,1/2+y,z
1/2-x,1/2+y,-z
1/2-x,1/2-y,-z
1/2+x,1/2-y,z
loop_
_atom_site_type_symbol
_atom_site_label
_atom_site_fract_x
_atom_site_fract_y
_atom_site_fract_z
Si Si1 0.394558 0.500000 0.217307
Si Si2 0.205551 0.000000 0.174928
Si Si3 0.343181 0.236036 0.252937
Si Si4 0.810119 0.127058 0.443718
O O1 0.706440 0.500000 0.032393
O O2 0.225034 0.569682 0.410780
O O3 0.500000 0.500000 0.000000
O O4 0.028308 0.924617 0.339879
O O5 0.500000 0.000000 0.000000
O O6 0.395223 0.163691 0.290639
O O7 0.422181 0.303655 0.275182
O O8 0.000000 0.240498 0.500000
O O9 0.500000 0.237057 0.000000
#
# Coordination Sequence:
#
# PCOD9221788 Si02
#       4
#     4   4   8   8
#     4   8  16  38  72 110 144 197 254 312 380 434
#     4   8  18  40  74 110 153 195 246 320 374 441
#     4  11  23  43  71 105 155 199 246 306 379 449
#     4   8  21  39  68 112 146 195 252 313 370 449
#
# _framework density 25.362594999999999
#
# number of rings (size 3 to 8) (size 9 to 14) (size 15 to 20)
#    2.000    0.667    0.000    1.000    0.000    6.667 
#    0.000   10.000    0.000   16.000    0.000    0.000 
#    0.000    0.000    0.000    0.000    0.000    0.000 
#
# Total GULP energy -66926.761217 kJ/mol
# GULP energy per Si atom -5577.230101 kJ/mol
# Density = 2.530487 g / cm^3
# Si number density = 25.362595 Si / 1000 Ang^3
#
#
#
# Elastic Constant Matrix: (Units=GPa)
#
#
# Indices 1 2 3 4 5 6 
#
# 1 157.6103 45.5697 66.3783 -0.7327 19.4328 0.5380
# 2 45.5697 196.3357 56.6624 -0.0932 19.4826 0.1825
# 3 66.3783 56.6624 162.1712 -0.3585 38.3395 0.1183
# 4 -0.7327 -0.0932 -0.3585 13.0223 0.1053 -10.9632
# 5 19.4328 19.4826 38.3395 0.1053 66.1003 0.4550
# 6 0.5380 0.1825 0.1183 -10.9632 0.4550 -26.3055
#
#
#
# Elastic Compliance Matrix: (Units=1/GPa)
#
#
# Indices 1 2 3 4 5 6 
#
# 1 0.007848 -0.000981 -0.002772 0.000351 -0.000411 -0.000012
# 2 -0.000981 0.005808 -0.001497 -0.000035 -0.000556 0.000018
# 3 -0.002772 -0.001497 0.008723 0.000019 -0.003803 -0.000101
# 4 0.000351 -0.000035 0.000019 0.056865 -0.000031 -0.023693
# 5 -0.000411 -0.000556 -0.003803 -0.000031 0.017617 0.000288
# 6 -0.000012 0.000018 -0.000101 -0.023693 0.000288 -0.028136
#
#
# Mechanical properties :
#
#
# Convention : Reuss Voigt Hill
#
# Bulk Modulus (GPa) = 84.16899 94.81533 89.49216
# Shear Modulus (GPa) = 60.10856 33.73054 46.91955
#
# Velocity S-wave (km/s) = 4.87351 3.65078 4.30577
# Velocity P-wave (km/s) = 8.05770 7.43209 7.75121
#
# Compressibility (1/GPa) = 0.01188086
#
# Stress axis : x y z
#
# Youngs Moduli (GPa) = 127.42189 172.17769 114.64121
#
# Poissons Ratio (x) = 0.16885 0.31774
# Poissons Ratio (y) = 0.12496 0.17158
# Poissons Ratio (z) = 0.35317 0.25769
#
# Static dielectric constant tensor:
#      x y z
#    x 2.038140 0.000170 -0.085390 
#    y 0.000170 2.026360 0.000370 
#    z -0.085390 0.000370 1.990460 
# 
# From -- ./inp_files/130714.got.cif
#   From: 2010.05.17/outbox.cif.g08.bks.cpg/sg12_66_cif.got.tgz:130714.got - 2010.06.03 13:09:07.
