data_PCOD9221089
_publ_section_title
;
Structure prediction by ZEFSAII (Michael W. Deem and Ramdas Pophale) SiO2 
 PCOD9221089
Probable space group: C 2/M
;
_chemical_formula_sum "Si O2"
_cell_formula_units_Z 38
_cell_length_a 11.321393
_cell_length_b 14.580146
_cell_length_c 13.694773
_cell_angle_alpha 90.000000
_cell_angle_beta 123.045930
_cell_angle_gamma 90.000000
_cell_volume 1894.879922
_symmetry_space_group_name_H-M "C 2/M"
_symmetry_group_IT_number 12
_symmetry_cell_setting 'monoclinic'
loop_
_space_group_symop_operation_xyz
x,y,z
-x,y,-z
-x,-y,-z
x,-y,z
1/2+x,1/2+y,z
1/2-x,1/2+y,-z
1/2-x,1/2-y,-z
1/2+x,1/2-y,z
loop_
_atom_site_type_symbol
_atom_site_label
_atom_site_fract_x
_atom_site_fract_y
_atom_site_fract_z
Si Si1 0.288167 0.101612 0.321720
Si Si2 0.471915 0.606358 0.651269
Si Si3 0.335334 0.642814 0.937725
Si Si4 0.000000 0.248231 0.500000
Si Si5 0.763652 0.643057 0.890778
Si Si6 0.000000 0.500000 0.000000
O O1 0.254153 0.103650 0.191855
O O2 0.389158 0.183924 0.398763
O O3 0.141191 0.113780 0.312928
O O4 0.343774 0.000000 0.372479
O O5 0.471148 0.500000 0.617482
O O6 0.435119 0.679303 0.550924
O O7 0.625870 0.631031 0.762322
O O8 0.314150 0.752339 0.919511
O O9 0.500000 0.619759 0.000000
O O10 0.278944 0.613563 0.018082
O O11 0.889621 0.579578 0.913135
#
# Coordination Sequence:
#
# PCOD9221089 Si02
#       6
#     8   8   8   4   8   2
#     4  11  25  42  67  98 129 166 223 278 327 384
#     4  11  23  42  67  96 127 172 220 271 321 393
#     4  11  22  41  68  98 131 174 212 265 344 399
#     4  12  24  46  66  90 130 180 222 268 326 384
#     4  11  23  39  65 100 139 166 211 271 329 396
#     4  12  24  40  62 102 138 168 212 264 326 394
#
# _framework density 20.054041999999999
#
# number of rings (size 3 to 8) (size 9 to 14) (size 15 to 20)
#    0.000    0.842    6.316    1.263    1.474    0.421 
#    0.000    0.000    4.632    0.000    0.000    0.000 
#    0.000    0.000    0.000    0.000    0.000    0.000 
#
# Total GULP energy -105933.724560 kJ/mol
# GULP energy per Si atom -5575.459187 kJ/mol
# Density = 2.000840 g / cm^3
# Si number density = 20.054042 Si / 1000 Ang^3
#
#
#
# Elastic Constant Matrix: (Units=GPa)
#
#
# Indices 1 2 3 4 5 6 
#
# 1 12.7877 -0.9485 6.6221 0.0000 -1.3896 0.0000
# 2 -0.9485 115.8954 27.2819 0.0000 2.0311 0.0000
# 3 6.6221 27.2819 88.5492 0.0000 0.3796 0.0000
# 4 0.0000 0.0000 0.0000 18.3058 0.0000 -6.8046
# 5 -1.3896 2.0311 0.3796 0.0000 32.8404 0.0000
# 6 0.0000 0.0000 0.0000 -6.8046 0.0000 10.8579
#
#
#
# Elastic Compliance Matrix: (Units=1/GPa)
#
#
# Indices 1 2 3 4 5 6 
#
# 1 0.082287 0.002227 -0.006855 0.000000 0.003423 0.000000
# 2 0.002227 0.009373 -0.003052 0.000000 -0.000450 0.000000
# 3 -0.006855 -0.003052 0.012747 0.000000 -0.000249 0.000000
# 4 0.000000 0.000000 0.000000 0.071219 0.000000 0.044633
# 5 0.003423 -0.000450 -0.000249 0.000000 0.030626 0.000000
# 6 0.000000 0.000000 0.000000 0.044633 0.000000 0.120070
#
#
# Mechanical properties :
#
#
# Convention : Reuss Voigt Hill
#
# Bulk Modulus (GPa) = 11.23000 31.46037 21.34518
# Shear Modulus (GPa) = 13.46386 24.68593 19.07489
#
# Velocity S-wave (km/s) = 2.59391 3.51232 3.08746
# Velocity P-wave (km/s) = 3.81879 5.67190 4.83496
#
# Compressibility (1/GPa) = 0.08904723
#
# Stress axis : x y z
#
# Youngs Moduli (GPa) = 12.15261 106.68780 78.44798
#
# Poissons Ratio (x) = -0.23760 0.53773
# Poissons Ratio (y) = -0.02706 0.23946
# Poissons Ratio (z) = 0.08330 0.32566
#
# Static dielectric constant tensor:
#      x y z
#    x 1.706620 0.000000 -0.015950 
#    y 0.000000 3.180280 0.000000 
#    z -0.015950 0.000000 1.687440 
# 
# From -- ./inp_files/204694.got.cif
#   From: 2010.05.17/outbox.cif.g08.bks.cpg/sg12_103_cif.got.tgz:204694.got - 2010.06.03 13:09:07.
