data_PCOD9221299
_publ_section_title
;
Structure prediction by ZEFSAII (Michael W. Deem and Ramdas Pophale) SiO2 
 PCOD9221299
Probable space group: C 2/M
;
_chemical_formula_sum "Si O2"
_cell_formula_units_Z 56
_cell_length_a 14.458559
_cell_length_b 17.599932
_cell_length_c 19.631300
_cell_angle_alpha 90.000000
_cell_angle_beta 31.579841
_cell_angle_gamma 90.000000
_cell_volume 2616.111151
_symmetry_space_group_name_H-M "C 2/M"
_symmetry_group_IT_number 12
_symmetry_cell_setting 'monoclinic'
loop_
_space_group_symop_operation_xyz
x,y,z
-x,y,-z
-x,-y,-z
x,-y,z
1/2+x,1/2+y,z
1/2-x,1/2+y,-z
1/2-x,1/2-y,-z
1/2+x,1/2-y,z
loop_
_atom_site_type_symbol
_atom_site_label
_atom_site_fract_x
_atom_site_fract_y
_atom_site_fract_z
Si Si1 0.194410 0.836474 0.045846
Si Si2 0.069566 0.081215 0.880470
Si Si3 0.933551 0.587267 0.218808
Si Si4 0.465796 0.708976 0.310004
Si Si5 0.307166 0.719818 0.629150
Si Si6 0.926933 0.656652 0.660865
Si Si7 0.252981 0.913908 0.482832
O O1 0.034484 0.856364 0.096088
O O2 0.106500 0.836421 0.175810
O O3 0.250000 0.750000 0.000000
O O4 0.362175 0.889126 0.921395
O O5 0.273395 0.096536 0.762853
O O6 0.036600 0.000000 0.866938
O O7 0.000000 0.080142 0.000000
O O8 0.906977 0.500000 0.212393
O O9 0.819281 0.656016 0.258423
O O10 0.859101 0.589116 0.344068
O O11 0.307358 0.743426 0.361513
O O12 0.552282 0.782515 0.290947
O O13 0.390441 0.651957 0.414707
O O14 0.500000 0.680593 0.500000
O O15 0.365857 0.790801 0.637621
O O16 0.105797 0.608816 0.547744
O O17 0.186981 0.000000 0.531741
#
# Coordination Sequence:
#
# PCOD9221299 Si02
#       7
#     8   8   8   8   8   8   8
#     4  12  22  42  67  97 135 181 226 270 337 411
#     4  11  23  37  59  96 133 169 219 276 336 402
#     4  11  24  44  69  99 138 179 229 282 333 401
#     4  12  24  43  69 100 139 176 227 282 335 407
#     4  12  23  42  69  99 130 175 231 272 337 402
#     4  12  22  40  67  95 133 173 221 282 334 403
#     4  11  23  41  66  99 136 178 219 280 350 394
#
# _framework density 21.405818
#
# number of rings (size 3 to 8) (size 9 to 14) (size 15 to 20)
#    0.000    0.429    5.714    3.857    0.000    3.714 
#    0.000    1.429    0.000    0.857    0.000    0.000 
#    0.000    0.000    0.000    0.000    0.000    0.000 
#
# Total GULP energy -156184.802796 kJ/mol
# GULP energy per Si atom -5578.028671 kJ/mol
# Density = 2.135710 g / cm^3
# Si number density = 21.405818 Si / 1000 Ang^3
#
#
#
# Elastic Constant Matrix: (Units=GPa)
#
#
# Indices 1 2 3 4 5 6 
#
# 1 64.6520 2.2164 0.1465 0.0024 2.9808 0.0051
# 2 2.2164 95.1119 8.4326 0.0084 12.9590 0.0062
# 3 0.1465 8.4326 97.1247 0.0047 1.6905 0.0092
# 4 0.0024 0.0084 0.0047 24.5755 -0.0022 -6.1793
# 5 2.9808 12.9590 1.6905 -0.0022 24.9782 -0.0050
# 6 0.0051 0.0062 0.0092 -6.1793 -0.0050 26.1451
#
#
#
# Elastic Compliance Matrix: (Units=1/GPa)
#
#
# Indices 1 2 3 4 5 6 
#
# 1 0.015554 -0.000119 0.000018 -0.000003 -0.001795 -0.000004
# 2 -0.000119 0.011390 -0.000887 -0.000005 -0.005835 -0.000005
# 3 0.000018 -0.000887 0.010377 -0.000003 -0.000244 -0.000004
# 4 -0.000003 -0.000005 -0.000003 0.043262 0.000009 0.010225
# 5 -0.001795 -0.005835 -0.000244 0.000009 0.043293 0.000012
# 6 -0.000004 -0.000005 -0.000004 0.010225 0.000012 0.040665
#
#
# Mechanical properties :
#
#
# Convention : Reuss Voigt Hill
#
# Bulk Modulus (GPa) = 28.29255 30.94219 29.61737
# Shear Modulus (GPa) = 28.04256 31.54596 29.79426
#
# Velocity S-wave (km/s) = 3.62338 3.84306 3.73483
# Velocity P-wave (km/s) = 5.54537 5.84624 5.69779
#
# Compressibility (1/GPa) = 0.03534499
#
# Stress axis : x y z
#
# Youngs Moduli (GPa) = 64.29112 87.79303 96.36422
#
# Poissons Ratio (x) = 0.01049 -0.00175
# Poissons Ratio (y) = 0.00768 0.08549
# Poissons Ratio (z) = -0.00117 0.07789
#
# Static dielectric constant tensor:
#      x y z
#    x 1.838190 0.000010 -0.024720 
#    y 0.000010 1.806920 0.000000 
#    z -0.024720 0.000000 1.935920 
# 
# From -- ./inp_files/311689.got.cif
#   From: 2010.05.17/outbox.cif.g08.bks.cpg/sg12_156_cif.got.tgz:311689.got - 2010.06.03 13:09:07.
