data_PCOD9221895
_publ_section_title
;
Structure prediction by ZEFSAII (Michael W. Deem and Ramdas Pophale) SiO2 
 PCOD9221895
Probable space group: C 2/M
;
_chemical_formula_sum "Si O2"
_cell_formula_units_Z 34
_cell_length_a 14.903297
_cell_length_b 23.111389
_cell_length_c 9.303088
_cell_angle_alpha 90.000000
_cell_angle_beta 22.706098
_cell_angle_gamma 90.000000
_cell_volume 1236.880072
_symmetry_space_group_name_H-M "C 2/M"
_symmetry_group_IT_number 12
_symmetry_cell_setting 'monoclinic'
loop_
_space_group_symop_operation_xyz
x,y,z
-x,y,-z
-x,-y,-z
x,-y,z
1/2+x,1/2+y,z
1/2-x,1/2+y,-z
1/2-x,1/2-y,-z
1/2+x,1/2-y,z
loop_
_atom_site_type_symbol
_atom_site_label
_atom_site_fract_x
_atom_site_fract_y
_atom_site_fract_z
Si Si1 0.000000 0.000000 0.500000
Si Si2 0.035247 0.087374 0.712836
Si Si3 0.758347 0.792774 0.677577
Si Si4 0.615524 0.062828 0.549362
Si Si5 0.461780 0.185156 0.725489
O O1 0.041464 0.949612 0.561729
O O2 0.074741 0.155790 0.624741
O O3 0.238271 0.066787 0.520753
O O4 0.799465 0.072649 0.148577
O O5 0.832403 0.728000 0.526182
O O6 0.500000 0.805993 0.000000
O O7 0.746766 0.790965 0.869486
O O8 0.458575 0.118564 0.777759
O O9 0.496665 0.000000 0.712120
O O10 0.500000 0.182766 0.500000
#
# Coordination Sequence:
#
# PCOD9221895 Si02
#       5
#     2   8   8   8   8
#     4  12  24  42  74 110 138 184 230 290 346 416
#     4  11  24  43  73 103 137 186 234 279 349 423
#     4  12  26  48  71 105 138 191 234 291 355 413
#     4  11  23  48  69 101 143 192 229 278 358 424
#     4  12  28  45  71 106 142 183 241 295 346 409
#
# _framework density 27.488517999999999
#
# number of rings (size 3 to 8) (size 9 to 14) (size 15 to 20)
#    0.000    0.471    4.706    3.529    8.235    0.471 
#    2.118    1.765    0.000    0.000    0.000    0.000 
#    0.000    0.000    0.000    0.000    0.000    0.000 
#
# Total GULP energy -95143.615825 kJ/mol
# GULP energy per Si atom -5596.683284 kJ/mol
# Density = 2.742595 g / cm^3
# Si number density = 27.488518 Si / 1000 Ang^3
#
#
#
# Elastic Constant Matrix: (Units=GPa)
#
#
# Indices 1 2 3 4 5 6 
#
# 1 136.0142 47.5295 44.5314 0.0023 46.8235 0.0020
# 2 47.5295 221.4519 42.4257 0.0037 2.1595 -0.0018
# 3 44.5314 42.4257 84.6568 -0.0026 24.7794 0.0002
# 4 0.0023 0.0037 -0.0026 50.9978 0.0010 3.4804
# 5 46.8235 2.1595 24.7794 0.0010 47.0885 -0.0015
# 6 0.0020 -0.0018 0.0002 3.4804 -0.0015 32.7612
#
#
#
# Elastic Compliance Matrix: (Units=1/GPa)
#
#
# Indices 1 2 3 4 5 6 
#
# 1 0.012803 -0.002198 -0.002289 0.000000 -0.011426 -0.000001
# 2 -0.002198 0.005439 -0.002525 -0.000001 0.003265 0.000001
# 3 -0.002289 -0.002525 0.016055 0.000001 -0.006057 -0.000001
# 4 0.000000 -0.000001 0.000001 0.019752 -0.000001 -0.002098
# 5 -0.011426 0.003265 -0.006057 -0.000001 0.035635 0.000003
# 6 -0.000001 0.000001 -0.000001 -0.002098 0.000003 0.030747
#
#
# Mechanical properties :
#
#
# Convention : Reuss Voigt Hill
#
# Bulk Modulus (GPa) = 49.32738 79.01068 64.16903
# Shear Modulus (GPa) = 35.40741 46.67860 41.04300
#
# Velocity S-wave (km/s) = 3.59288 4.12529 3.86825
# Velocity P-wave (km/s) = 5.93257 7.17609 6.58375
#
# Compressibility (1/GPa) = 0.02027272
#
# Stress axis : x y z
#
# Youngs Moduli (GPa) = 78.10708 183.84439 62.28639
#
# Poissons Ratio (x) = 0.40408 0.14256
# Poissons Ratio (y) = 0.17168 0.15730
# Poissons Ratio (z) = 0.17877 0.46430
#
# Static dielectric constant tensor:
#      x y z
#    x 2.179730 0.000000 -0.040380 
#    y 0.000000 2.069240 0.000000 
#    z -0.040380 0.000000 2.122070 
# 
# From -- ./inp_files/65698.got.cif
#   From: 2010.05.17/outbox.cif.g08.bks.cpg/sg12_33_cif.got.tgz:65698.got - 2010.06.03 13:09:07.
