data_PCOD9221282
_publ_section_title
;
Structure prediction by ZEFSAII (Michael W. Deem and Ramdas Pophale) SiO2 
 PCOD9221282
Probable space group: C 2/M
;
_chemical_formula_sum "Si O2"
_cell_formula_units_Z 56
_cell_length_a 9.248160
_cell_length_b 18.711812
_cell_length_c 26.046895
_cell_angle_alpha 90.000000
_cell_angle_beta 44.756110
_cell_angle_gamma 90.000000
_cell_volume 3173.624907
_symmetry_space_group_name_H-M "C 2/M"
_symmetry_group_IT_number 12
_symmetry_cell_setting 'monoclinic'
loop_
_space_group_symop_operation_xyz
x,y,z
-x,y,-z
-x,-y,-z
x,-y,z
1/2+x,1/2+y,z
1/2-x,1/2+y,-z
1/2-x,1/2-y,-z
1/2+x,1/2-y,z
loop_
_atom_site_type_symbol
_atom_site_label
_atom_site_fract_x
_atom_site_fract_y
_atom_site_fract_z
Si Si1 0.666408 0.086989 0.499999
Si Si2 0.244391 0.173714 0.791243
Si Si3 0.879316 0.916218 0.646553
Si Si4 0.465525 0.083782 0.353448
Si Si5 0.498930 0.084877 0.915070
Si Si6 0.659215 0.584877 0.084930
Si Si7 0.909372 0.326285 0.208756
O O1 0.500000 0.109460 0.500000
O O2 0.598202 0.109336 0.573996
O O3 0.894191 0.109336 0.426001
O O4 0.671040 0.000000 0.499999
O O5 0.356514 0.129439 0.717803
O O6 0.172446 0.249999 0.788775
O O7 0.408292 0.181362 0.795852
O O8 0.046658 0.129901 0.860036
O O9 0.731710 0.912328 0.634145
O O10 0.772270 0.870560 0.717804
O O11 0.890374 0.000000 0.659098
O O12 0.526763 0.000000 0.340904
O O13 0.695320 0.098599 0.902339
O O14 0.513189 0.129903 0.860037
O O15 0.496023 0.000000 0.904617
O O16 0.298818 0.101291 0.000000
O O17 0.614500 0.500000 0.095382
#
# Coordination Sequence:
#
# PCOD9221282 Si02
#       7
#     8   8   8   8   8   8   8
#     4   9  17  29  50  81 108 131 167 215 264 313
#     4  11  23  37  54  78 109 145 183 221 265 317
#     4   9  18  34  55  77 103 136 174 217 265 316
#     4   9  18  34  55  77 103 136 174 217 265 316
#     4   9  19  37  60  84 109 138 174 218 268 319
#     4   9  19  37  60  84 109 138 174 218 268 319
#     4  11  23  37  54  78 109 145 183 221 265 317
#
# _framework density 17.645437999999999
#
# number of rings (size 3 to 8) (size 9 to 14) (size 15 to 20)
#    0.000    2.429    0.000    3.000    0.000    6.857 
#    0.000    5.000    0.000    0.000    0.000    0.000 
#    0.000    0.000    0.000    0.000    0.000    0.000 
#
# Total GULP energy -156274.306607 kJ/mol
# GULP energy per Si atom -5581.225236 kJ/mol
# Density = 1.760528 g / cm^3
# Si number density = 17.645438 Si / 1000 Ang^3
#
#
#
# Elastic Constant Matrix: (Units=GPa)
#
#
# Indices 1 2 3 4 5 6 
#
# 1 80.9313 67.3227 98.3065 -0.0020 6.0552 -0.0006
# 2 67.3227 79.4142 90.6798 -0.0004 1.7872 0.0009
# 3 98.3065 90.6798 167.3269 0.0073 0.5550 0.0037
# 4 -0.0020 -0.0004 0.0073 -9.0628 0.0006 -2.0078
# 5 6.0552 1.7872 0.5550 0.0006 30.4221 -0.0002
# 6 -0.0006 0.0009 0.0037 -2.0078 -0.0002 17.1266
#
#
#
# Elastic Compliance Matrix: (Units=1/GPa)
#
#
# Indices 1 2 3 4 5 6 
#
# 1 0.063212 -0.028817 -0.021486 -0.000031 -0.010497 0.000005
# 2 -0.028817 0.046251 -0.008145 -0.000002 0.003167 -0.000002
# 3 -0.021486 -0.008145 0.022999 0.000024 0.004335 -0.000002
# 4 -0.000031 -0.000002 0.000024 -0.107548 0.000008 -0.012608
# 5 -0.010497 0.003167 0.004335 0.000008 0.034695 0.000000
# 6 0.000005 -0.000002 -0.000002 -0.012608 0.000000 0.056911
#
#
# Mechanical properties :
#
#
# Convention : Reuss Voigt Hill
#
# Bulk Modulus (GPa) = 64.24349 93.36560 78.80454
# Shear Modulus (GPa) = 20.95524 12.45473 16.70499
#
# Velocity S-wave (km/s) = 3.44986 2.65963 3.08019
# Velocity P-wave (km/s) = 7.23572 7.90307 7.57675
#
# Compressibility (1/GPa) = 0.01556578
#
# Stress axis : x y z
#
# Youngs Moduli (GPa) = 15.81980 21.62133 43.48012
#
# Poissons Ratio (x) = 0.62307 0.93421
# Poissons Ratio (y) = 0.45588 0.35413
# Poissons Ratio (z) = 0.33990 0.17610
#
# Static dielectric constant tensor:
#      x y z
#    x 1.585360 0.000000 -0.000580 
#    y 0.000000 1.581380 0.000000 
#    z -0.000580 0.000000 1.577810 
# 
# From -- ./inp_files/257192.got.cif
#   From: 2010.05.17/outbox.cif.g08.bks.cpg/sg12_129_cif.got.tgz:257192.got - 2010.06.03 13:09:07.
