data_PCOD9221829
_publ_section_title
;
Structure prediction by ZEFSAII (Michael W. Deem and Ramdas Pophale) SiO2 
 PCOD9221829
Probable space group: C 2/M
;
_chemical_formula_sum "Si O2"
_cell_formula_units_Z 48
_cell_length_a 12.094420
_cell_length_b 18.247273
_cell_length_c 26.513815
_cell_angle_alpha 90.000000
_cell_angle_beta 158.542823
_cell_angle_gamma 90.000000
_cell_volume 2140.453213
_symmetry_space_group_name_H-M "C 2/M"
_symmetry_group_IT_number 12
_symmetry_cell_setting 'monoclinic'
loop_
_space_group_symop_operation_xyz
x,y,z
-x,y,-z
-x,-y,-z
x,-y,z
1/2+x,1/2+y,z
1/2-x,1/2+y,-z
1/2-x,1/2-y,-z
1/2+x,1/2-y,z
loop_
_atom_site_type_symbol
_atom_site_label
_atom_site_fract_x
_atom_site_fract_y
_atom_site_fract_z
Si Si1 0.313355 0.285160 0.969632
Si Si2 0.723038 0.912697 0.166834
Si Si3 0.357300 0.685767 0.313221
Si Si4 0.931207 0.912365 0.153607
Si Si5 0.229997 0.307446 0.417830
Si Si6 0.247581 0.412304 0.808846
O O1 0.492080 0.362303 0.055144
O O2 0.500000 0.253340 0.000000
O O3 0.250000 0.250000 0.000000
O O4 0.970160 0.292609 0.804653
O O5 0.801075 0.882759 0.253772
O O6 0.943488 0.885291 0.215816
O O7 0.725999 0.000000 0.169804
O O8 0.386018 0.889870 0.006487
O O9 0.605577 0.670309 0.460586
O O10 0.478041 0.749040 0.326921
O O11 0.194866 0.898991 0.226602
O O12 0.908234 0.000000 0.147579
O O13 0.500000 0.273115 0.500000
O O14 0.076423 0.374120 0.321983
O O15 0.266313 0.500000 0.827326
#
# Coordination Sequence:
#
# PCOD9221829 Si02
#       6
#     8   8   8   8   8   8
#     4  12  26  46  75 112 143 185 240 306 372 434
#     4   9  17  33  61 100 138 174 221 285 356 417
#     4  11  24  41  69  99 135 186 240 302 346 434
#     4   8  16  32  59  97 138 171 212 279 352 413
#     4  11  26  47  63  92 139 189 242 289 357 424
#     4  11  23  44  71 104 144 186 236 294 364 435
#
# _framework density 22.425158
#
# number of rings (size 3 to 8) (size 9 to 14) (size 15 to 20)
#    0.000    1.667    3.333    2.000    0.000    5.333 
#    0.000    1.667    0.000    3.500    0.000    0.000 
#    0.000    0.000    0.000    0.000    0.000    0.000 
#
# Total GULP energy -133834.890133 kJ/mol
# GULP energy per Si atom -5576.453756 kJ/mol
# Density = 2.237412 g / cm^3
# Si number density = 22.425158 Si / 1000 Ang^3
#
#
#
# Elastic Constant Matrix: (Units=GPa)
#
#
# Indices 1 2 3 4 5 6 
#
# 1 112.3863 29.5462 15.6042 -0.0009 14.3072 0.0003
# 2 29.5462 103.2477 33.2719 -0.0064 11.9505 -0.0028
# 3 15.6042 33.2719 83.2236 0.0039 22.3118 -0.0070
# 4 -0.0009 -0.0064 0.0039 24.3798 -0.0047 -2.1597
# 5 14.3072 11.9505 22.3118 -0.0047 26.0963 -0.0010
# 6 0.0003 -0.0028 -0.0070 -2.1597 -0.0010 28.9278
#
#
#
# Elastic Compliance Matrix: (Units=1/GPa)
#
#
# Indices 1 2 3 4 5 6 
#
# 1 0.010095 -0.002457 0.000352 -0.000001 -0.004710 -0.000001
# 2 -0.002457 0.011773 -0.004102 0.000004 -0.000537 0.000000
# 3 0.000352 -0.004102 0.017045 -0.000006 -0.012888 0.000003
# 4 -0.000001 0.000004 -0.000006 0.041291 0.000012 0.003083
# 5 -0.004710 -0.000537 -0.012888 0.000012 0.052167 0.000000
# 6 -0.000001 0.000000 0.000003 0.003083 0.000000 0.034799
#
#
# Mechanical properties :
#
#
# Convention : Reuss Voigt Hill
#
# Bulk Modulus (GPa) = 37.73753 50.63359 44.18556
# Shear Modulus (GPa) = 26.53727 30.57647 28.55687
#
# Velocity S-wave (km/s) = 3.44375 3.69655 3.57239
# Velocity P-wave (km/s) = 5.71640 6.39119 6.06319
#
# Compressibility (1/GPa) = 0.02649882
#
# Stress axis : x y z
#
# Youngs Moduli (GPa) = 99.06318 84.94304 58.66908
#
# Poissons Ratio (x) = 0.20871 -0.02068
# Poissons Ratio (y) = 0.24341 0.24065
# Poissons Ratio (z) = -0.03492 0.34843
#
# Static dielectric constant tensor:
#      x y z
#    x 1.900040 0.000000 0.032260 
#    y 0.000000 1.869380 -0.000010 
#    z 0.032260 -0.000010 1.813170 
# 
# From -- ./inp_files/359065.got.cif
#   From: 2010.05.17/outbox.cif.g08.bks.cpg/sg12_180_cif.got.tgz:359065.got - 2010.06.03 13:09:07.
