data_PCOD9221911
_publ_section_title
;
Structure prediction by ZEFSAII (Michael W. Deem and Ramdas Pophale) SiO2 
 PCOD9221911
Probable space group: C 2/M
;
_chemical_formula_sum "Si O2"
_cell_formula_units_Z 36
_cell_length_a 5.169363
_cell_length_b 31.589713
_cell_length_c 10.484878
_cell_angle_alpha 90.000000
_cell_angle_beta 107.434790
_cell_angle_gamma 90.000000
_cell_volume 1633.507493
_symmetry_space_group_name_H-M "C 2/M"
_symmetry_group_IT_number 12
_symmetry_cell_setting 'monoclinic'
loop_
_space_group_symop_operation_xyz
x,y,z
-x,y,-z
-x,-y,-z
x,-y,z
1/2+x,1/2+y,z
1/2-x,1/2+y,-z
1/2-x,1/2-y,-z
1/2+x,1/2-y,z
loop_
_atom_site_type_symbol
_atom_site_label
_atom_site_fract_x
_atom_site_fract_y
_atom_site_fract_z
Si Si1 0.813539 0.088727 0.583810
Si Si2 0.689259 0.000000 0.861231
Si Si3 0.576610 0.500000 0.694583
Si Si4 0.449423 0.367467 0.144798
Si Si5 0.545907 0.729762 0.158705
Si Si6 0.500000 0.075436 0.000000
O O1 0.500000 0.086436 0.500000
O O2 0.942765 0.042207 0.620456
O O3 0.000000 0.109317 0.500000
O O4 0.846778 0.111986 0.724397
O O5 0.961917 0.000000 0.821356
O O6 0.403351 0.000000 0.739152
O O7 0.670077 0.957104 0.939366
O O8 0.444833 0.317538 0.170565
O O9 0.500000 0.371289 0.000000
O O10 0.173610 0.394210 0.116826
O O11 0.365474 0.761756 0.214927
O O12 0.500000 0.737213 0.000000
#
# Coordination Sequence:
#
# PCOD9221911 Si02
#       6
#     8   4   4   8   8   4
#     4  12  27  45  66  96 136 175 223 273 328 385
#     4  11  24  39  64  91 139 166 222 272 328 373
#     4  12  22  46  62  89 126 184 222 265 321 390
#     4  11  25  41  72  98 132 172 224 271 325 395
#     4   9  20  37  61  97 132 162 205 268 331 384
#     4  11  24  38  62 100 132 174 214 278 326 381
#
# _framework density 22.038467000000001
#
# number of rings (size 3 to 8) (size 9 to 14) (size 15 to 20)
#    0.000    1.111    2.222    3.333   10.889    0.889 
#    0.000    0.000    0.000    4.000    0.000    0.000 
#    0.000    0.000    0.000    0.000    0.000    0.000 
#
# Total GULP energy -100573.238201 kJ/mol
# GULP energy per Si atom -5587.402122 kJ/mol
# Density = 2.198831 g / cm^3
# Si number density = 22.038467 Si / 1000 Ang^3
#
#
#
# Elastic Constant Matrix: (Units=GPa)
#
#
# Indices 1 2 3 4 5 6 
#
# 1 88.9433 38.6975 38.4165 0.0000 24.2988 0.0000
# 2 38.6975 109.0060 25.9712 0.0000 -0.4733 0.0000
# 3 38.4165 25.9712 96.8188 0.0000 17.1943 0.0000
# 4 0.0000 0.0000 0.0000 36.7408 0.0000 -11.7961
# 5 24.2988 -0.4733 17.1943 0.0000 47.5869 0.0000
# 6 0.0000 0.0000 0.0000 -11.7961 0.0000 14.8609
#
#
#
# Elastic Compliance Matrix: (Units=1/GPa)
#
#
# Indices 1 2 3 4 5 6 
#
# 1 0.017319 -0.005187 -0.004168 0.000000 -0.007389 0.000000
# 2 -0.005187 0.011410 -0.001595 0.000000 0.003339 0.000000
# 3 -0.004168 -0.001595 0.012861 0.000000 -0.002534 0.000000
# 4 0.000000 0.000000 0.000000 0.036526 0.000000 0.028994
# 5 -0.007389 0.003339 -0.002534 0.000000 0.025736 0.000000
# 6 0.000000 0.000000 0.000000 0.028994 0.000000 0.090305
#
#
# Mechanical properties :
#
#
# Convention : Reuss Voigt Hill
#
# Bulk Modulus (GPa) = 50.79336 55.65985 53.22660
# Shear Modulus (GPa) = 22.45968 32.61656 27.53812
#
# Velocity S-wave (km/s) = 3.19582 3.85123 3.53873
# Velocity P-wave (km/s) = 6.05931 6.71465 6.39538
#
# Compressibility (1/GPa) = 0.01968761
#
# Stress axis : x y z
#
# Youngs Moduli (GPa) = 57.74014 87.64320 77.75744
#
# Poissons Ratio (x) = 0.45463 0.32412
# Poissons Ratio (y) = 0.29951 0.12405
# Poissons Ratio (z) = 0.24068 0.13982
#
# Static dielectric constant tensor:
#      x y z
#    x 1.886250 0.000000 -0.031130 
#    y 0.000000 1.781940 0.000000 
#    z -0.031130 0.000000 1.877840 
# 
# From -- ./inp_files/115401.got.cif
#   From: 2010.05.17/outbox.cif.g08.bks.cpg/sg12_58_cif.got.tgz:115401.got - 2010.06.03 13:09:07.
