data_PCOD9221428
_publ_section_title
;
Structure prediction by ZEFSAII (Michael W. Deem and Ramdas Pophale) SiO2 
 PCOD9221428
Probable space group: C 2/M
;
_chemical_formula_sum "Si O2"
_cell_formula_units_Z 48
_cell_length_a 29.766739
_cell_length_b 15.647571
_cell_length_c 14.938222
_cell_angle_alpha 90.000000
_cell_angle_beta 19.863563
_cell_angle_gamma 90.000000
_cell_volume 2364.159868
_symmetry_space_group_name_H-M "C 2/M"
_symmetry_group_IT_number 12
_symmetry_cell_setting 'monoclinic'
loop_
_space_group_symop_operation_xyz
x,y,z
-x,y,-z
-x,-y,-z
x,-y,z
1/2+x,1/2+y,z
1/2-x,1/2+y,-z
1/2-x,1/2-y,-z
1/2+x,1/2-y,z
loop_
_atom_site_type_symbol
_atom_site_label
_atom_site_fract_x
_atom_site_fract_y
_atom_site_fract_z
Si Si1 0.533301 0.903416 0.245937
Si Si2 0.236098 0.136723 0.325074
Si Si3 0.649309 0.100037 0.698262
Si Si4 0.230582 0.339095 0.356624
Si Si5 0.562387 0.403941 0.162039
Si Si6 0.893250 0.240663 0.775153
O O1 0.395214 0.881179 0.456731
O O2 0.563635 0.830313 0.261229
O O3 0.529796 0.000000 0.288259
O O4 0.648025 0.896621 0.956209
O O5 0.267273 0.109347 0.367841
O O6 0.235416 0.239433 0.323519
O O7 0.093943 0.104685 0.559762
O O8 0.710429 0.149269 0.500003
O O9 0.640331 0.000000 0.689703
O O10 0.500000 0.130258 0.000000
O O11 0.361170 0.383425 0.073229
O O12 0.594933 0.500000 0.130558
O O13 0.607247 0.332531 0.148598
O O14 0.000000 0.217073 0.500000
O O15 0.750000 0.250000 0.000000
#
# Coordination Sequence:
#
# PCOD9221428 Si02
#       6
#     8   8   8   8   8   8
#     4  12  24  45  74 100 132 182 229 274 338 412
#     4  12  23  44  68  99 140 184 226 277 335 399
#     4  11  23  39  65 103 136 179 238 277 317 392
#     4  12  23  44  68  99 140 182 226 282 331 391
#     4  12  26  45  70 102 138 178 223 280 347 404
#     4  12  26  46  72  99 138 171 220 290 346 407
#
# _framework density 20.303196
#
# number of rings (size 3 to 8) (size 9 to 14) (size 15 to 20)
#    0.000    0.167    5.000    5.500    0.000    2.000 
#    0.000    1.667    0.000    0.000    0.000    0.000 
#    0.000    0.000    0.000    0.000    0.000    0.000 
#
# Total GULP energy -134398.671810 kJ/mol
# GULP energy per Si atom -5599.944659 kJ/mol
# Density = 2.025699 g / cm^3
# Si number density = 20.303196 Si / 1000 Ang^3
#
#
#
# Elastic Constant Matrix: (Units=GPa)
#
#
# Indices 1 2 3 4 5 6 
#
# 1 62.1361 1.7266 -15.0517 0.0000 0.0607 0.0000
# 2 1.7266 127.4557 -7.0326 0.0000 9.1351 0.0000
# 3 -15.0517 -7.0326 57.2521 0.0000 5.1551 0.0000
# 4 0.0000 0.0000 0.0000 -13.8487 0.0000 -3.4322
# 5 0.0607 9.1351 5.1551 0.0000 37.4292 0.0000
# 6 0.0000 0.0000 0.0000 -3.4322 0.0000 -13.0030
#
#
#
# Elastic Compliance Matrix: (Units=1/GPa)
#
#
# Indices 1 2 3 4 5 6 
#
# 1 0.017205 0.000069 0.004593 0.000000 -0.000677 0.000000
# 2 0.000069 0.008064 0.001201 0.000000 -0.002134 0.000000
# 3 0.004593 0.001201 0.019085 0.000000 -0.002929 0.000000
# 4 0.000000 0.000000 0.000000 -0.077263 0.000000 0.020394
# 5 -0.000677 -0.002134 -0.002929 0.000000 0.027642 0.000000
# 6 0.000000 0.000000 0.000000 0.020394 0.000000 -0.082289
#
#
# Mechanical properties :
#
#
# Convention : Reuss Voigt Hill
#
# Bulk Modulus (GPa) = 17.83201 22.90319 20.36760
# Shear Modulus (GPa) = -62.04510 19.92895 -21.05808
#
# Velocity S-wave (km/s) = -5.53404 3.13640 -3.22402
# Velocity P-wave (km/s) = 5.65970 4.94177 1.95079
#
# Compressibility (1/GPa) = 0.05607894
#
# Stress axis : x y z
#
# Youngs Moduli (GPa) = 58.12276 124.00628 52.39649
#
# Poissons Ratio (x) = -0.00854 -0.24064
# Poissons Ratio (y) = -0.00400 -0.06292
# Poissons Ratio (z) = -0.26694 -0.14890
#
# Static dielectric constant tensor:
#      x y z
#    x 1.681270 0.000000 0.009350 
#    y 0.000000 1.718610 0.000000 
#    z 0.009350 0.000000 1.692310 
# 
# From -- ./inp_files/251396.got.cif
#   From: 2010.05.17/outbox.cif.g08.bks.cpg/sg12_126_cif.got.tgz:251396.got - 2010.06.03 13:09:07.
