data_PCOD9221502
_publ_section_title
;
Structure prediction by ZEFSAII (Michael W. Deem and Ramdas Pophale) SiO2 
 PCOD9221502
Probable space group: C 2/M
;
_chemical_formula_sum "Si O2"
_cell_formula_units_Z 54
_cell_length_a 9.301112
_cell_length_b 26.106234
_cell_length_c 12.384191
_cell_angle_alpha 90.000000
_cell_angle_beta 63.088847
_cell_angle_gamma 90.000000
_cell_volume 2681.452498
_symmetry_space_group_name_H-M "C 2/M"
_symmetry_group_IT_number 12
_symmetry_cell_setting 'monoclinic'
loop_
_space_group_symop_operation_xyz
x,y,z
-x,y,-z
-x,-y,-z
x,-y,z
1/2+x,1/2+y,z
1/2-x,1/2+y,-z
1/2-x,1/2-y,-z
1/2+x,1/2-y,z
loop_
_atom_site_type_symbol
_atom_site_label
_atom_site_fract_x
_atom_site_fract_y
_atom_site_fract_z
Si Si1 0.500000 0.500000 0.000000
Si Si2 0.472133 0.227448 0.742063
Si Si3 0.390452 0.308516 0.143176
Si Si4 0.049848 0.942000 0.356911
Si Si5 0.971536 0.443887 0.382982
Si Si6 0.772987 0.643718 0.341437
Si Si7 0.500000 0.723122 0.500000
Si Si8 0.662239 0.424429 0.773343
O O1 0.555880 0.456059 0.893246
O O2 0.522725 0.275995 0.794176
O O3 0.284613 0.215673 0.818824
O O4 0.580794 0.179893 0.746316
O O5 0.505741 0.241594 0.604852
O O6 0.360168 0.365000 0.197043
O O7 0.500000 0.308909 0.000000
O O8 0.171650 0.894117 0.296945
O O9 0.000000 0.938104 0.500000
O O10 0.899773 0.936389 0.326599
O O11 0.113825 0.000000 0.317006
O O12 0.904893 0.500000 0.375714
O O13 0.150283 0.438046 0.273382
O O14 0.000000 0.442857 0.500000
O O15 0.857197 0.397582 0.390151
O O16 0.650757 0.684295 0.436877
#
# Coordination Sequence:
#
# PCOD9221502 Si02
#       8
#     2   8   8   8   8   8   4   8
#     4  12  24  48  76 102 132 194 238 268 330 410
#     4  12  27  45  70 102 137 180 233 290 352 411
#     4  12  27  48  71  99 135 188 237 290 333 408
#     4  11  23  40  66 102 141 179 219 278 350 417
#     4  11  24  40  66 105 140 175 225 293 350 415
#     4  12  24  40  67  99 140 182 215 283 357 423
#     4  12  26  44  67 102 141 178 228 286 358 428
#     4  12  24  45  75 101 139 183 233 280 340 412
#
# _framework density 20.138338999999998
#
# number of rings (size 3 to 8) (size 9 to 14) (size 15 to 20)
#    0.000    0.296    5.926    3.111    3.111    2.370 
#    0.000    0.000    0.000    0.889    0.000    0.000 
#    0.000    0.000    0.000    0.000    0.000    0.000 
#
# Total GULP energy -150666.070317 kJ/mol
# GULP energy per Si atom -5580.224827 kJ/mol
# Density = 2.009250 g / cm^3
# Si number density = 20.138339 Si / 1000 Ang^3
#
#
#
# Elastic Constant Matrix: (Units=GPa)
#
#
# Indices 1 2 3 4 5 6 
#
# 1 90.2268 18.8217 3.9911 0.0000 -12.8875 0.0000
# 2 18.8217 123.4343 -7.5455 0.0000 -10.2222 0.0000
# 3 3.9911 -7.5455 52.4107 0.0000 -7.4649 0.0000
# 4 0.0000 0.0000 0.0000 9.4791 0.0000 23.1620
# 5 -12.8875 -10.2222 -7.4649 0.0000 14.5119 0.0000
# 6 0.0000 0.0000 0.0000 23.1620 0.0000 42.7294
#
#
#
# Elastic Compliance Matrix: (Units=1/GPa)
#
#
# Indices 1 2 3 4 5 6 
#
# 1 0.012835 -0.001029 0.000426 0.000000 0.010892 0.000000
# 2 -0.001029 0.008943 0.002302 0.000000 0.006570 0.000000
# 3 0.000426 0.002302 0.021218 0.000000 0.012914 0.000000
# 4 0.000000 0.000000 0.000000 -0.325076 0.000000 0.176212
# 5 0.010892 0.006570 0.012914 0.000000 0.089853 0.000000
# 6 0.000000 0.000000 0.000000 0.176212 0.000000 -0.072115
#
#
# Mechanical properties :
#
#
# Convention : Reuss Voigt Hill
#
# Bulk Modulus (GPa) = 21.55483 32.95625 27.25554
# Shear Modulus (GPa) = -19.81966 30.06438 5.12236
#
# Velocity S-wave (km/s) = -3.14056 3.86799 1.59659
# Velocity P-wave (km/s) = 1.55699 6.02901 4.11854
#
# Compressibility (1/GPa) = 0.04639331
#
# Stress axis : x y z
#
# Youngs Moduli (GPa) = 77.91313 111.81741 47.12898
#
# Poissons Ratio (x) = 0.11506 -0.02007
# Poissons Ratio (y) = 0.08017 -0.10847
# Poissons Ratio (z) = -0.03318 -0.25736
#
# Static dielectric constant tensor:
#      x y z
#    x 1.746840 0.000000 -0.026360 
#    y 0.000000 1.711410 0.000000 
#    z -0.026360 0.000000 1.685480 
# 
# From -- ./inp_files/124285.got.cif
#   From: 2010.05.17/outbox.cif.g08.bks.cpg/sg12_63_cif.got.tgz:124285.got - 2010.06.03 13:09:07.
