data_PCOD9221842
_publ_section_title
;
Structure prediction by ZEFSAII (Michael W. Deem and Ramdas Pophale) SiO2 
 PCOD9221842
Probable space group: C 2/M
;
_chemical_formula_sum "Si O2"
_cell_formula_units_Z 56
_cell_length_a 10.415199
_cell_length_b 33.138336
_cell_length_c 9.036579
_cell_angle_alpha 90.000000
_cell_angle_beta 63.992408
_cell_angle_gamma 90.000000
_cell_volume 2803.073167
_symmetry_space_group_name_H-M "C 2/M"
_symmetry_group_IT_number 12
_symmetry_cell_setting 'monoclinic'
loop_
_space_group_symop_operation_xyz
x,y,z
-x,y,-z
-x,-y,-z
x,-y,z
1/2+x,1/2+y,z
1/2-x,1/2+y,-z
1/2-x,1/2-y,-z
1/2+x,1/2-y,z
loop_
_atom_site_type_symbol
_atom_site_label
_atom_site_fract_x
_atom_site_fract_y
_atom_site_fract_z
Si Si1 0.618708 0.347303 0.057301
Si Si2 0.333779 0.168453 0.426682
Si Si3 0.655018 0.500000 0.998099
Si Si4 0.624258 0.576065 0.222874
Si Si5 0.668523 0.000000 0.388375
Si Si6 0.656750 0.801424 0.255778
Si Si7 0.795443 0.920455 0.480176
Si Si8 0.883183 0.790018 0.684764
O O1 0.684367 0.384968 0.109994
O O2 0.557738 0.318225 0.215248
O O3 0.500000 0.361028 0.000000
O O4 0.735747 0.322777 0.908503
O O5 0.298029 0.191791 0.596670
O O6 0.500895 0.177969 0.317423
O O7 0.292041 0.121663 0.478613
O O8 0.244460 0.186514 0.334801
O O9 0.774691 0.500000 0.809685
O O10 0.500000 0.500000 0.000000
O O11 0.657389 0.538536 0.102813
O O12 0.683464 0.570078 0.357098
O O13 0.454018 0.584249 0.330015
O O14 0.500000 0.000000 0.500000
O O15 0.727482 0.958972 0.433820
O O16 0.654896 0.753569 0.232132
O O17 0.000000 0.782969 0.500000
#
# Coordination Sequence:
#
# PCOD9221842 Si02
#       8
#     8   8   4   8   4   8   8   8
#     4  12  26  41  66 101 135 173 227 287 339 406
#     4  11  24  43  71  95 136 182 229 278 343 418
#     4  12  23  43  73 105 136 172 225 280 334 407
#     4  11  23  44  73 103 133 177 230 285 334 403
#     4  12  29  45  73 107 146 183 217 280 347 418
#     4  11  26  42  66  96 136 184 224 288 342 405
#     4  11  23  46  70 104 137 181 229 275 345 407
#     4  12  23  45  66  96 130 182 233 281 345 404
#
# _framework density 19.978072999999998
#
# number of rings (size 3 to 8) (size 9 to 14) (size 15 to 20)
#    0.000    0.571    4.286    4.286    6.000    1.714 
#    0.000    2.857    0.000    0.000    0.000    0.000 
#    0.000    0.000    0.000    0.000    0.000    0.000 
#
# Total GULP energy -156561.180487 kJ/mol
# GULP energy per Si atom -5591.470732 kJ/mol
# Density = 1.993260 g / cm^3
# Si number density = 19.978073 Si / 1000 Ang^3
#
#
#
# Elastic Constant Matrix: (Units=GPa)
#
#
# Indices 1 2 3 4 5 6 
#
# 1 47.1117 0.3549 12.5706 0.0000 8.4635 0.0000
# 2 0.3549 132.3781 31.5257 0.0000 9.0164 0.0000
# 3 12.5706 31.5257 103.8777 0.0000 6.2921 0.0000
# 4 0.0000 0.0000 0.0000 30.5534 0.0000 4.2788
# 5 8.4635 9.0164 6.2921 0.0000 27.4909 0.0000
# 6 0.0000 0.0000 0.0000 4.2788 0.0000 48.4885
#
#
#
# Elastic Compliance Matrix: (Units=1/GPa)
#
#
# Indices 1 2 3 4 5 6 
#
# 1 0.023173 0.001050 -0.002707 0.000000 -0.006859 0.000000
# 2 0.001050 0.008316 -0.002501 0.000000 -0.002478 0.000000
# 3 -0.002707 -0.002501 0.010762 0.000000 -0.000810 0.000000
# 4 0.000000 0.000000 0.000000 0.033139 0.000000 -0.002924
# 5 -0.006859 -0.002478 -0.000810 0.000000 0.039485 0.000000
# 6 0.000000 0.000000 0.000000 -0.002924 0.000000 0.020881
#
#
# Mechanical properties :
#
#
# Convention : Reuss Voigt Hill
#
# Bulk Modulus (GPa) = 29.46873 41.36331 35.41602
# Shear Modulus (GPa) = 32.17826 37.23433 34.70629
#
# Velocity S-wave (km/s) = 4.01768 4.32181 4.17252
# Velocity P-wave (km/s) = 6.02535 6.75673 6.40149
#
# Compressibility (1/GPa) = 0.03393428
#
# Stress axis : x y z
#
# Youngs Moduli (GPa) = 43.15406 120.25561 92.91707
#
# Poissons Ratio (x) = -0.12624 0.25156
# Poissons Ratio (y) = -0.04530 0.23235
# Poissons Ratio (z) = 0.11683 0.30071
#
# Static dielectric constant tensor:
#      x y z
#    x 1.716090 0.000000 0.000890 
#    y 0.000000 5.679940 0.000000 
#    z 0.000890 0.000000 1.686450 
# 
# From -- ./inp_files/54631.got.cif
#   From: 2010.05.17/outbox.cif.g08.bks.cpg/sg12_28_cif.got.tgz:54631.got - 2010.06.03 13:09:07.
