data_PCOD9221673
_publ_section_title
;
Structure prediction by ZEFSAII (Michael W. Deem and Ramdas Pophale) SiO2 
 PCOD9221673
Probable space group: C 2/M
;
_chemical_formula_sum "Si O2"
_cell_formula_units_Z 40
_cell_length_a 15.670457
_cell_length_b 17.802118
_cell_length_c 15.440009
_cell_angle_alpha 90.000000
_cell_angle_beta 27.006764
_cell_angle_gamma 90.000000
_cell_volume 1955.907267
_symmetry_space_group_name_H-M "C 2/M"
_symmetry_group_IT_number 12
_symmetry_cell_setting 'monoclinic'
loop_
_space_group_symop_operation_xyz
x,y,z
-x,y,-z
-x,-y,-z
x,-y,z
1/2+x,1/2+y,z
1/2-x,1/2+y,-z
1/2-x,1/2-y,-z
1/2+x,1/2-y,z
loop_
_atom_site_type_symbol
_atom_site_label
_atom_site_fract_x
_atom_site_fract_y
_atom_site_fract_z
Si Si1 0.476735 0.589998 0.124124
Si Si2 0.905402 0.915017 0.495335
Si Si3 0.243944 0.337114 0.480814
Si Si4 0.312594 0.164050 0.924266
Si Si5 0.470196 0.914996 0.937623
O O1 0.453816 0.500000 0.158912
O O2 0.312430 0.635049 0.324478
O O3 0.500000 0.602669 0.000000
O O4 0.664009 0.621995 0.999179
O O5 0.894049 0.873033 0.413586
O O6 0.681599 0.919475 0.712870
O O7 0.000000 0.885283 0.500000
O O8 0.977800 0.000000 0.419337
O O9 0.250000 0.250000 0.500000
O O10 0.021317 0.351468 0.696101
O O11 0.330377 0.125888 0.001622
O O12 0.250000 0.250000 0.000000
O O13 0.402511 0.000000 0.013526
O O14 0.500000 0.872419 0.000000
#
# Coordination Sequence:
#
# PCOD9221673 Si02
#       5
#     8   8   8   8   8
#     4  11  26  47  72 101 137 188 242 287 340 413
#     4   9  19  35  58  91 126 164 210 265 336 406
#     4  11  23  44  65 100 137 177 227 287 351 408
#     4  11  23  42  66  98 138 181 227 285 349 410
#     4   9  19  34  57  90 124 163 210 264 330 401
#
# _framework density 20.450868
#
# number of rings (size 3 to 8) (size 9 to 14) (size 15 to 20)
#    0.000    1.800    2.000    1.200    2.800    4.000 
#    3.600    2.000    0.000    0.000    0.000    0.000 
#    0.000    0.000    0.000    0.000    0.000    0.000 
#
# Total GULP energy -111366.377636 kJ/mol
# GULP energy per Si atom -5568.318882 kJ/mol
# Density = 2.040432 g / cm^3
# Si number density = 20.450868 Si / 1000 Ang^3
#
#
#
# Elastic Constant Matrix: (Units=GPa)
#
#
# Indices 1 2 3 4 5 6 
#
# 1 172.3643 72.4062 52.1342 0.0035 7.3061 0.0063
# 2 72.4062 96.8346 34.9656 -0.0152 14.6147 0.0037
# 3 52.1342 34.9656 130.0054 -0.0126 -6.7887 0.0034
# 4 0.0035 -0.0152 -0.0126 25.3611 -0.0008 7.5102
# 5 7.3061 14.6147 -6.7887 -0.0008 41.6929 -0.0012
# 6 0.0063 0.0037 0.0034 7.5102 -0.0012 44.5129
#
#
#
# Elastic Compliance Matrix: (Units=1/GPa)
#
#
# Indices 1 2 3 4 5 6 
#
# 1 0.008893 -0.005980 -0.001946 -0.000006 0.000221 0.000000
# 2 -0.005980 0.016384 -0.002273 0.000010 -0.005065 -0.000002
# 3 -0.001946 -0.002273 0.009222 0.000004 0.002639 -0.000001
# 4 -0.000006 0.000010 0.000004 0.041504 -0.000001 -0.007003
# 5 0.000221 -0.005065 0.002639 -0.000001 0.026151 0.000001
# 6 0.000000 -0.000002 -0.000001 -0.007003 0.000001 0.023647
#
#
# Mechanical properties :
#
#
# Convention : Reuss Voigt Hill
#
# Bulk Modulus (GPa) = 70.92375 79.80181 75.36278
# Shear Modulus (GPa) = 33.13467 38.29327 35.71397
#
# Velocity S-wave (km/s) = 4.02955 4.33188 4.18344
# Velocity P-wave (km/s) = 7.51033 8.00788 7.76309
#
# Compressibility (1/GPa) = 0.01409965
#
# Stress axis : x y z
#
# Youngs Moduli (GPa) = 112.44606 61.03664 108.44109
#
# Poissons Ratio (x) = 0.36501 0.21106
# Poissons Ratio (y) = 0.67245 0.24646
# Poissons Ratio (z) = 0.21886 0.13872
#
# Static dielectric constant tensor:
#      x y z
#    x 1.738910 0.000030 0.072800 
#    y 0.000030 1.735040 0.000020 
#    z 0.072800 0.000020 1.880950 
# 
# From -- ./inp_files/216633.got.cif
#   From: 2010.05.17/outbox.cif.g08.bks.cpg/sg12_109_cif.got.tgz:216633.got - 2010.06.03 13:09:07.
