data_PCOD9221225
_publ_section_title
;
Structure prediction by ZEFSAII (Michael W. Deem and Ramdas Pophale) SiO2 
 PCOD9221225
Probable space group: C 2/M
;
_chemical_formula_sum "Si O2"
_cell_formula_units_Z 40
_cell_length_a 15.263123
_cell_length_b 31.286417
_cell_length_c 9.171560
_cell_angle_alpha 90.000000
_cell_angle_beta 151.533841
_cell_angle_gamma 90.000000
_cell_volume 2087.529303
_symmetry_space_group_name_H-M "C 2/M"
_symmetry_group_IT_number 12
_symmetry_cell_setting 'monoclinic'
loop_
_space_group_symop_operation_xyz
x,y,z
-x,y,-z
-x,-y,-z
x,-y,z
1/2+x,1/2+y,z
1/2-x,1/2+y,-z
1/2-x,1/2-y,-z
1/2+x,1/2-y,z
loop_
_atom_site_type_symbol
_atom_site_label
_atom_site_fract_x
_atom_site_fract_y
_atom_site_fract_z
Si Si1 0.491839 0.438321 0.811519
Si Si2 0.299414 0.775751 0.715101
Si Si3 0.296625 0.000000 0.126113
Si Si4 0.494378 0.648859 0.658150
Si Si5 0.705854 0.000000 0.236970
Si Si6 0.285723 0.787118 0.166043
O O1 0.469563 0.388878 0.736625
O O2 0.321852 0.461102 0.478903
O O3 0.500000 0.444783 0.000000
O O4 0.675268 0.459745 0.008525
O O5 0.250000 0.750000 0.500000
O O6 0.151899 0.812020 0.542275
O O7 0.306670 0.735369 0.832846
O O8 0.500000 0.796432 0.000000
O O9 0.500000 0.000000 0.500000
O O10 0.298079 0.000000 0.948352
O O11 0.500000 0.632668 0.500000
O O12 0.689243 0.670233 0.976273
O O13 0.500000 0.000000 0.000000
O O14 0.500000 0.793080 0.500000
O O15 0.250000 0.750000 0.000000
#
# Coordination Sequence:
#
# PCOD9221225 Si02
#       6
#     8   8   4   8   4   8
#     4  11  25  44  67 103 138 174 222 277 331 394
#     4  12  23  37  61  86 120 162 221 278 333 384
#     4  11  22  45  78 104 138 175 212 259 338 404
#     4  12  25  42  62  90 131 173 222 274 333 399
#     4  11  22  45  78 104 138 175 212 263 330 408
#     4  12  21  41  61  84 116 170 221 270 329 392
#
# _framework density 19.161407000000001
#
# number of rings (size 3 to 8) (size 9 to 14) (size 15 to 20)
#    0.000    0.400    6.000    4.800    2.800    1.600 
#    0.000    4.000    0.000    0.000    0.000    0.000 
#    0.000    0.000    0.000    0.000    0.000    0.000 
#
# Total GULP energy -111509.271498 kJ/mol
# GULP energy per Si atom -5575.463575 kJ/mol
# Density = 1.911780 g / cm^3
# Si number density = 19.161407 Si / 1000 Ang^3
#
#
#
# Elastic Constant Matrix: (Units=GPa)
#
#
# Indices 1 2 3 4 5 6 
#
# 1 131.1366 11.3623 59.0253 0.0000 -31.8659 0.0000
# 2 11.3623 75.1164 32.8979 0.0000 -6.7083 0.0000
# 3 59.0253 32.8979 163.3695 0.0000 9.5062 0.0000
# 4 0.0000 0.0000 0.0000 13.9430 0.0000 -9.1574
# 5 -31.8659 -6.7083 9.5062 0.0000 56.1537 0.0000
# 6 0.0000 0.0000 0.0000 -9.1574 0.0000 25.3089
#
#
#
# Elastic Compliance Matrix: (Units=1/GPa)
#
#
# Indices 1 2 3 4 5 6 
#
# 1 0.011512 0.001028 -0.004801 0.000000 0.007469 0.000000
# 2 0.001028 0.014983 -0.003562 0.000000 0.002976 0.000000
# 3 -0.004801 -0.003562 0.008843 0.000000 -0.004647 0.000000
# 4 0.000000 0.000000 0.000000 0.094076 0.000000 0.034039
# 5 0.007469 0.002976 -0.004647 0.000000 0.023189 0.000000
# 6 0.000000 0.000000 0.000000 0.034039 0.000000 0.051828
#
#
# Mechanical properties :
#
#
# Convention : Reuss Voigt Hill
#
# Bulk Modulus (GPa) = 48.38076 64.02150 56.20113
# Shear Modulus (GPa) = 22.12482 36.83693 29.48087
#
# Velocity S-wave (km/s) = 3.40171 4.38934 3.92670
# Velocity P-wave (km/s) = 6.38222 7.69237 7.06772
#
# Compressibility (1/GPa) = 0.02066937
#
# Stress axis : x y z
#
# Youngs Moduli (GPa) = 86.86307 66.74290 113.07914
#
# Poissons Ratio (x) = -0.06863 0.54290
# Poissons Ratio (y) = -0.08932 0.40277
# Poissons Ratio (z) = 0.41703 0.23773
#
# Static dielectric constant tensor:
#      x y z
#    x 1.675660 0.000000 0.082700 
#    y 0.000000 1.608720 0.000000 
#    z 0.082700 0.000000 1.590950 
# 
# From -- ./inp_files/68784.got.cif
#   From: 2010.05.17/outbox.cif.g08.bks.cpg/sg12_35_cif.got.tgz:68784.got - 2010.06.03 13:09:07.
