data_PCOD9221048
_publ_section_title
;
Structure prediction by ZEFSAII (Michael W. Deem and Ramdas Pophale) SiO2 
 PCOD9221048
Probable space group: C 2/M
;
_chemical_formula_sum "Si O2"
_cell_formula_units_Z 56
_cell_length_a 17.267395
_cell_length_b 29.527576
_cell_length_c 5.486504
_cell_angle_alpha 90.000000
_cell_angle_beta 110.683757
_cell_angle_gamma 90.000000
_cell_volume 2617.065734
_symmetry_space_group_name_H-M "C 2/M"
_symmetry_group_IT_number 12
_symmetry_cell_setting 'monoclinic'
loop_
_space_group_symop_operation_xyz
x,y,z
-x,y,-z
-x,-y,-z
x,-y,z
1/2+x,1/2+y,z
1/2-x,1/2+y,-z
1/2-x,1/2-y,-z
1/2+x,1/2-y,z
loop_
_atom_site_type_symbol
_atom_site_label
_atom_site_fract_x
_atom_site_fract_y
_atom_site_fract_z
Si Si1 0.289700 0.204141 0.633539
Si Si2 0.407231 0.428045 0.348440
Si Si3 0.935183 0.258220 0.119342
Si Si4 0.355890 0.671656 0.231339
Si Si5 0.191886 0.051251 0.261619
Si Si6 0.039716 0.639664 0.789674
Si Si7 0.291547 0.137858 0.244679
O O1 0.250000 0.250000 0.500000
O O2 0.352042 0.222574 0.903910
O O3 0.211368 0.175242 0.631893
O O4 0.332645 0.172431 0.482365
O O5 0.500000 0.444634 0.500000
O O6 0.408001 0.373423 0.322020
O O7 0.355181 0.440193 0.533760
O O8 0.366474 0.444245 0.046900
O O9 0.906674 0.218177 0.265779
O O10 0.974864 0.305871 0.237446
O O11 0.000000 0.237049 0.000000
O O12 0.292490 0.663280 0.935620
O O13 0.261514 0.089784 0.310119
O O14 0.224025 0.000000 0.300164
O O15 0.138706 0.631164 0.883969
O O16 0.000000 0.619470 0.500000
O O17 0.000000 0.624061 0.000000
#
# Coordination Sequence:
#
# PCOD9221048 Si02
#       7
#     8   8   8   8   8   8   8
#     4  12  21  37  63  87 122 173 216 263 312 377
#     4  11  25  43  67  97 134 171 218 270 334 384
#     4  11  23  38  57  91 128 172 221 266 316 374
#     4  11  23  38  58  87 126 171 215 265 311 379
#     4  11  25  45  70  99 127 169 219 273 332 394
#     4  11  24  40  61  92 126 165 210 261 320 374
#     4  11  22  41  65  88 126 168 220 263 322 392
#
# _framework density 21.398011
#
# number of rings (size 3 to 8) (size 9 to 14) (size 15 to 20)
#    0.000    0.857    4.286    3.857    0.000    5.714 
#    0.000    0.000    0.000    0.857    0.000    0.000 
#    0.000    0.571    0.000    0.000    0.000    0.000 
#
# Total GULP energy -156302.905673 kJ/mol
# GULP energy per Si atom -5582.246631 kJ/mol
# Density = 2.134931 g / cm^3
# Si number density = 21.398011 Si / 1000 Ang^3
#
#
#
# Elastic Constant Matrix: (Units=GPa)
#
#
# Indices 1 2 3 4 5 6 
#
# 1 104.3716 17.7683 17.9511 0.0000 -19.0825 0.0000
# 2 17.7683 102.5161 13.9566 0.0000 -3.0735 0.0000
# 3 17.9511 13.9566 98.2504 0.0000 -11.3961 0.0000
# 4 0.0000 0.0000 0.0000 16.0491 0.0000 -2.9580
# 5 -19.0825 -3.0735 -11.3961 0.0000 35.8056 0.0000
# 6 0.0000 0.0000 0.0000 -2.9580 0.0000 1.8353
#
#
#
# Elastic Compliance Matrix: (Units=1/GPa)
#
#
# Indices 1 2 3 4 5 6 
#
# 1 0.011035 -0.001593 -0.001167 0.000000 0.005373 0.000000
# 2 -0.001593 0.010183 -0.001197 0.000000 -0.000356 0.000000
# 3 -0.001167 -0.001197 0.010879 0.000000 0.002738 0.000000
# 4 0.000000 0.000000 0.000000 0.088639 0.000000 0.142860
# 5 0.005373 -0.000356 0.002738 0.000000 0.031633 0.000000
# 6 0.000000 0.000000 0.000000 0.142860 0.000000 0.775120
#
#
# Mechanical properties :
#
#
# Convention : Reuss Voigt Hill
#
# Bulk Modulus (GPa) = 41.34862 44.94335 43.14599
# Shear Modulus (GPa) = 5.29963 27.76882 16.53422
#
# Velocity S-wave (km/s) = 1.57546 3.60631 2.78276
# Velocity P-wave (km/s) = 4.76182 6.19594 5.52561
#
# Compressibility (1/GPa) = 0.02418460
#
# Stress axis : x y z
#
# Youngs Moduli (GPa) = 90.61774 98.20396 91.92168
#
# Poissons Ratio (x) = 0.15641 0.10725
# Poissons Ratio (y) = 0.14433 0.11001
# Poissons Ratio (z) = 0.10573 0.11752
#
# Static dielectric constant tensor:
#      x y z
#    x 1.768150 0.000000 0.005520 
#    y 0.000000 1.737920 0.000000 
#    z 0.005520 0.000000 1.809230 
# 
# From -- ./inp_files/18172.got.cif
#   From: 2010.05.17/outbox.cif.g08.bks.cpg/sg12_10_cif.got.tgz:18172.got - 2010.06.03 13:09:07.
