data_PCOD9221959
_publ_section_title
;
Structure prediction by ZEFSAII (Michael W. Deem and Ramdas Pophale) SiO2 
 PCOD9221959
Probable space group: C 2/M
;
_chemical_formula_sum "Si O2"
_cell_formula_units_Z 42
_cell_length_a 13.787136
_cell_length_b 15.555702
_cell_length_c 9.469799
_cell_angle_alpha 90.000000
_cell_angle_beta 64.256843
_cell_angle_gamma 90.000000
_cell_volume 1829.400376
_symmetry_space_group_name_H-M "C 2/M"
_symmetry_group_IT_number 12
_symmetry_cell_setting 'monoclinic'
loop_
_space_group_symop_operation_xyz
x,y,z
-x,y,-z
-x,-y,-z
x,-y,z
1/2+x,1/2+y,z
1/2-x,1/2+y,-z
1/2-x,1/2-y,-z
1/2+x,1/2-y,z
loop_
_atom_site_type_symbol
_atom_site_label
_atom_site_fract_x
_atom_site_fract_y
_atom_site_fract_z
Si Si1 0.886411 0.901077 0.122270
Si Si2 0.292401 0.847618 0.970257
Si Si3 0.287201 0.097817 0.293713
Si Si4 0.509280 0.149849 0.654787
Si Si5 0.400649 0.340087 0.409680
Si Si6 0.000000 0.000000 0.500000
O O1 0.802270 0.896908 0.049870
O O2 0.850200 0.852717 0.286120
O O3 0.903444 0.000000 0.149282
O O4 0.000000 0.862516 0.000000
O O5 0.399752 0.859264 0.811126
O O6 0.250000 0.750000 0.000000
O O7 0.310036 0.879376 0.118049
O O8 0.393212 0.106369 0.321405
O O9 0.195190 0.158203 0.416248
O O10 0.242233 0.000000 0.330225
O O11 0.500000 0.117312 0.500000
O O12 0.536505 0.251283 0.629365
O O13 0.474488 0.422333 0.399331
#
# Coordination Sequence:
#
# PCOD9221959 Si02
#       6
#     8   8   8   8   8   2
#     4  11  24  40  66 100 139 179 230 288 350 416
#     4  12  26  44  69 100 140 187 232 292 349 420
#     4  12  27  47  74 105 142 189 240 291 354 426
#     4  12  26  45  72 101 144 187 236 292 352 427
#     4  12  24  45  71 107 141 182 238 291 360 415
#     4  12  24  40  82 100 146 184 238 300 348 418
#
# _framework density 22.958341999999998
#
# number of rings (size 3 to 8) (size 9 to 14) (size 15 to 20)
#    0.000    0.190    2.857    6.286    2.667    2.667 
#    0.000    0.000    0.000    0.000    0.000    0.000 
#    0.000    0.000    0.000    0.000    0.000    0.000 
#
# Total GULP energy -117452.073011 kJ/mol
# GULP energy per Si atom -5592.955858 kJ/mol
# Density = 2.290609 g / cm^3
# Si number density = 22.958342 Si / 1000 Ang^3
#
#
#
# Elastic Constant Matrix: (Units=GPa)
#
#
# Indices 1 2 3 4 5 6 
#
# 1 112.2214 -2.3162 68.1306 0.0000 21.9443 0.0000
# 2 -2.3162 60.9196 8.7043 0.0000 8.8078 0.0000
# 3 68.1306 8.7043 190.2339 0.0000 12.5793 0.0000
# 4 0.0000 0.0000 0.0000 18.7049 0.0000 3.0542
# 5 21.9443 8.8078 12.5793 0.0000 60.3216 0.0000
# 6 0.0000 0.0000 0.0000 3.0542 0.0000 26.8368
#
#
#
# Elastic Compliance Matrix: (Units=1/GPa)
#
#
# Indices 1 2 3 4 5 6 
#
# 1 0.012244 0.001618 -0.004207 0.000000 -0.003813 0.000000
# 2 0.001618 0.017054 -0.001172 0.000000 -0.002834 0.000000
# 3 -0.004207 -0.001172 0.006798 0.000000 0.000284 0.000000
# 4 0.000000 0.000000 0.000000 0.054474 0.000000 -0.006200
# 5 -0.003813 -0.002834 0.000284 0.000000 0.018320 0.000000
# 6 0.000000 0.000000 0.000000 -0.006200 0.000000 0.037968
#
#
# Mechanical properties :
#
#
# Convention : Reuss Voigt Hill
#
# Bulk Modulus (GPa) = 34.99756 56.93469 45.96612
# Shear Modulus (GPa) = 30.50547 40.42975 35.46761
#
# Velocity S-wave (km/s) = 3.64913 4.20099 3.93475
# Velocity P-wave (km/s) = 5.74734 6.95586 6.38028
#
# Compressibility (1/GPa) = 0.02857342
#
# Stress axis : x y z
#
# Youngs Moduli (GPa) = 81.67200 58.63768 147.09667
#
# Poissons Ratio (x) = -0.09487 0.61884
# Poissons Ratio (y) = -0.13214 0.17245
# Poissons Ratio (z) = 0.34359 0.06874
#
# Static dielectric constant tensor:
#      x y z
#    x 1.900220 0.000000 -0.003860 
#    y 0.000000 1.851580 0.000000 
#    z -0.003860 0.000000 1.855120 
# 
# From -- ./inp_files/61623.got.cif
#   From: 2010.05.17/outbox.cif.g08.bks.cpg/sg12_31_cif.got.tgz:61623.got - 2010.06.03 13:09:07.
