data_PCOD9221811
_publ_section_title
;
Structure prediction by ZEFSAII (Michael W. Deem and Ramdas Pophale) SiO2 
 PCOD9221811
Probable space group: C 2/M
;
_chemical_formula_sum "Si O2"
_cell_formula_units_Z 30
_cell_length_a 32.010636
_cell_length_b 9.602564
_cell_length_c 5.095192
_cell_angle_alpha 90.000000
_cell_angle_beta 76.067125
_cell_angle_gamma 90.000000
_cell_volume 1520.101988
_symmetry_space_group_name_H-M "C 2/M"
_symmetry_group_IT_number 12
_symmetry_cell_setting 'monoclinic'
loop_
_space_group_symop_operation_xyz
x,y,z
-x,y,-z
-x,-y,-z
x,-y,z
1/2+x,1/2+y,z
1/2-x,1/2+y,-z
1/2-x,1/2-y,-z
1/2+x,1/2-y,z
loop_
_atom_site_type_symbol
_atom_site_label
_atom_site_fract_x
_atom_site_fract_y
_atom_site_fract_z
Si Si1 0.576978 0.277602 0.000693
Si Si2 0.469619 0.000000 0.795051
Si Si3 0.730831 0.330910 0.279009
Si Si4 0.000000 0.000000 0.000000
Si Si5 0.371356 0.341570 0.563527
O O1 0.601947 0.254050 0.689417
O O2 0.559133 0.135991 0.146426
O O3 0.536639 0.379375 0.010960
O O4 0.609163 0.333725 0.175155
O O5 0.500000 0.000000 0.500000
O O6 0.500000 0.000000 0.000000
O O7 0.739315 0.500000 0.265552
O O8 0.750000 0.250000 0.500000
O O9 0.679190 0.312721 0.357289
O O10 0.750000 0.250000 0.000000
O O11 0.377483 0.500000 0.457730
#
# Coordination Sequence:
#
# PCOD9221811 Si02
#       5
#     8   4   8   2   8
#     4  12  25  42  66  97 128 174 226 272 333 393
#     4  12  26  44  60  88 134 169 208 270 334 380
#     4  11  24  46  73 102 139 182 228 287 354 425
#     4  12  24  40  76  90 128 174 240 266 312 416
#     4  11  23  44  68  97 133 169 221 283 332 392
#
# _framework density 19.735517000000002
#
# number of rings (size 3 to 8) (size 9 to 14) (size 15 to 20)
#    0.000    0.533    4.000    4.000    0.000    5.333 
#   14.400    0.000    0.000    0.000    0.000    0.000 
#    0.000    0.000    0.000    0.000    0.000    0.000 
#
# Total GULP energy -83559.667659 kJ/mol
# GULP energy per Si atom -5570.644511 kJ/mol
# Density = 1.969060 g / cm^3
# Si number density = 19.735517 Si / 1000 Ang^3
#
#
#
# Elastic Constant Matrix: (Units=GPa)
#
#
# Indices 1 2 3 4 5 6 
#
# 1 170.6699 54.4463 52.2103 0.0000 17.4502 0.0000
# 2 54.4463 136.1600 38.4454 0.0000 -14.2667 0.0000
# 3 52.2103 38.4454 138.8539 0.0000 15.7682 0.0000
# 4 0.0000 0.0000 0.0000 28.8871 0.0000 -3.2843
# 5 17.4502 -14.2667 15.7682 0.0000 28.7053 0.0000
# 6 0.0000 0.0000 0.0000 -3.2843 0.0000 16.4185
#
#
#
# Elastic Compliance Matrix: (Units=1/GPa)
#
#
# Indices 1 2 3 4 5 6 
#
# 1 0.007957 -0.003389 -0.001400 0.000000 -0.005752 0.000000
# 2 -0.003389 0.010323 -0.002560 0.000000 0.008597 0.000000
# 3 -0.001400 -0.002560 0.009050 0.000000 -0.005392 0.000000
# 4 0.000000 0.000000 0.000000 0.035423 0.000000 0.007086
# 5 -0.005752 0.008597 -0.005392 0.000000 0.045569 0.000000
# 6 0.000000 0.000000 0.000000 0.007086 0.000000 0.062324
#
#
# Mechanical properties :
#
#
# Convention : Reuss Voigt Hill
#
# Bulk Modulus (GPa) = 79.17363 81.76530 80.46946
# Shear Modulus (GPa) = 26.37756 34.84098 30.60927
#
# Velocity S-wave (km/s) = 3.65986 4.20622 3.94251
# Velocity P-wave (km/s) = 7.61996 8.06909 7.84774
#
# Compressibility (1/GPa) = 0.01263047
#
# Stress axis : x y z
#
# Youngs Moduli (GPa) = 125.67637 96.86906 110.50273
#
# Poissons Ratio (x) = 0.32830 0.15474
# Poissons Ratio (y) = 0.42593 0.28291
# Poissons Ratio (z) = 0.17598 0.24801
#
# Static dielectric constant tensor:
#      x y z
#    x 1.662910 0.000000 -0.001520 
#    y 0.000000 1.760610 0.000000 
#    z -0.001520 0.000000 1.695980 
# 
# From -- ./inp_files/30070.got.cif
#   From: 2010.05.17/outbox.cif.g08.bks.cpg/sg12_16_cif.got.tgz:30070.got - 2010.06.03 13:09:07.
