data_PCOD9221879
_publ_section_title
;
Structure prediction by ZEFSAII (Michael W. Deem and Ramdas Pophale) SiO2 
 PCOD9221879
Probable space group: C 2/M
;
_chemical_formula_sum "Si O2"
_cell_formula_units_Z 36
_cell_length_a 25.830049
_cell_length_b 14.139120
_cell_length_c 9.060768
_cell_angle_alpha 90.000000
_cell_angle_beta 147.175513
_cell_angle_gamma 90.000000
_cell_volume 1793.766510
_symmetry_space_group_name_H-M "C 2/M"
_symmetry_group_IT_number 12
_symmetry_cell_setting 'monoclinic'
loop_
_space_group_symop_operation_xyz
x,y,z
-x,y,-z
-x,-y,-z
x,-y,z
1/2+x,1/2+y,z
1/2-x,1/2+y,-z
1/2-x,1/2-y,-z
1/2+x,1/2-y,z
loop_
_atom_site_type_symbol
_atom_site_label
_atom_site_fract_x
_atom_site_fract_y
_atom_site_fract_z
Si Si1 0.312773 0.500000 0.220066
Si Si2 0.113744 0.000000 0.268454
Si Si3 0.112304 0.500000 0.280134
Si Si4 0.739027 0.350916 0.403093
Si Si5 0.897718 0.500000 0.404861
Si Si6 0.175371 0.191532 0.921680
Si Si7 0.000000 0.668598 0.500000
O O1 0.344049 0.500000 0.464898
O O2 0.349025 0.595437 0.226022
O O3 0.196687 0.500000 0.924181
O O4 0.154793 0.089893 0.278039
O O5 0.000000 0.000000 0.000000
O O6 0.164280 0.409546 0.337468
O O7 0.136919 0.500000 0.511823
O O8 0.000000 0.500000 0.000000
O O9 0.750000 0.250000 0.500000
O O10 0.720014 0.339135 0.184078
O O11 0.960324 0.406040 0.525893
O O12 0.087349 0.261517 0.744451
O O13 0.250000 0.250000 0.000000
#
# Coordination Sequence:
#
# PCOD9221879 Si02
#       7
#     4   4   4   8   4   8   4
#     4  12  23  46  71  90 145 181 223 295 338 405
#     4  11  28  46  65 100 141 184 229 277 354 411
#     4  11  24  43  69  95 137 178 230 281 347 401
#     4  11  25  45  67 100 140 180 225 287 350 412
#     4  11  23  46  67 101 132 174 236 285 331 413
#     4  12  24  45  71 103 136 179 233 287 349 410
#     4  11  26  37  74 100 128 171 234 279 340 408
#
# _framework density 20.069500999999999
#
# number of rings (size 3 to 8) (size 9 to 14) (size 15 to 20)
#    0.000    0.667    4.444    2.000    6.222    3.111 
#    0.000    0.000    0.000    0.000    0.000    0.000 
#    0.000    0.000    0.000    0.000    0.000    0.000 
#
# Total GULP energy -100614.317217 kJ/mol
# GULP energy per Si atom -5589.684290 kJ/mol
# Density = 2.002382 g / cm^3
# Si number density = 20.069501 Si / 1000 Ang^3
#
#
#
# Elastic Constant Matrix: (Units=GPa)
#
#
# Indices 1 2 3 4 5 6 
#
# 1 106.3626 69.1272 63.2541 0.0000 4.7583 0.0000
# 2 69.1272 193.5825 54.1341 0.0000 14.8133 0.0000
# 3 63.2541 54.1341 122.5221 0.0000 16.2113 0.0000
# 4 0.0000 0.0000 0.0000 21.5221 0.0000 4.4583
# 5 4.7583 14.8133 16.2113 0.0000 55.8996 0.0000
# 6 0.0000 0.0000 0.0000 4.4583 0.0000 44.9948
#
#
#
# Elastic Compliance Matrix: (Units=1/GPa)
#
#
# Indices 1 2 3 4 5 6 
#
# 1 0.015835 -0.003916 -0.006659 0.000000 0.001621 0.000000
# 2 -0.003916 0.006901 -0.000862 0.000000 -0.001245 0.000000
# 3 -0.006659 -0.000862 0.012349 0.000000 -0.002786 0.000000
# 4 0.000000 0.000000 0.000000 0.047437 0.000000 -0.004700
# 5 0.001621 -0.001245 -0.002786 0.000000 0.018889 0.000000
# 6 0.000000 0.000000 0.000000 -0.004700 0.000000 0.022691
#
#
# Mechanical properties :
#
#
# Convention : Reuss Voigt Hill
#
# Bulk Modulus (GPa) = 81.90519 88.38865 85.14692
# Shear Modulus (GPa) = 33.10223 40.21342 36.65782
#
# Velocity S-wave (km/s) = 4.06566 4.48114 4.27844
# Velocity P-wave (km/s) = 7.93340 8.42087 8.18077
#
# Compressibility (1/GPa) = 0.01220924
#
# Stress axis : x y z
#
# Youngs Moduli (GPa) = 63.15200 144.91290 80.97637
#
# Poissons Ratio (x) = 0.56754 0.53923
# Poissons Ratio (y) = 0.24733 0.06982
# Poissons Ratio (z) = 0.42054 0.12495
#
# Static dielectric constant tensor:
#      x y z
#    x 1.686520 0.000000 0.004200 
#    y 0.000000 1.693630 0.000000 
#    z 0.004200 0.000000 1.690390 
# 
# From -- ./inp_files/105136.got.cif
#   From: 2010.05.17/outbox.cif.g08.bks.cpg/sg12_53_cif.got.tgz:105136.got - 2010.06.03 13:09:07.
