data_PCOD9221957
_publ_section_title
;
Structure prediction by ZEFSAII (Michael W. Deem and Ramdas Pophale) SiO2 
 PCOD9221957
Probable space group: C 2/M
;
_chemical_formula_sum "Si O2"
_cell_formula_units_Z 34
_cell_length_a 10.450093
_cell_length_b 7.852661
_cell_length_c 19.201259
_cell_angle_alpha 90.000000
_cell_angle_beta 114.132226
_cell_angle_gamma 90.000000
_cell_volume 1437.968105
_symmetry_space_group_name_H-M "C 2/M"
_symmetry_group_IT_number 12
_symmetry_cell_setting 'monoclinic'
loop_
_space_group_symop_operation_xyz
x,y,z
-x,y,-z
-x,-y,-z
x,-y,z
1/2+x,1/2+y,z
1/2-x,1/2+y,-z
1/2-x,1/2-y,-z
1/2+x,1/2-y,z
loop_
_atom_site_type_symbol
_atom_site_label
_atom_site_fract_x
_atom_site_fract_y
_atom_site_fract_z
Si Si1 0.277538 0.308477 0.841456
Si Si2 0.899726 0.199193 0.324637
Si Si3 0.719848 0.703798 0.413628
Si Si4 0.921842 0.690215 0.073781
Si Si5 0.500000 0.500000 0.000000
O O1 0.338025 0.500000 0.870409
O O2 0.196503 0.300348 0.750824
O O3 0.164631 0.272614 0.875558
O O4 0.413470 0.193612 0.869761
O O5 0.832390 0.217900 0.385957
O O6 0.060917 0.258070 0.359948
O O7 0.896982 0.000000 0.303673
O O8 0.726649 0.500000 0.407850
O O9 0.750000 0.750000 0.500000
O O10 0.890787 0.500000 0.040559
O O11 0.906222 0.844780 0.017080
#
# Coordination Sequence:
#
# PCOD9221957 Si02
#       5
#     8   8   8   8   2
#     4  11  24  45  69 100 134 174 228 277 333 398
#     4  11  24  40  65  95 129 175 220 274 332 392
#     4  11  24  41  62  94 133 173 220 274 332 396
#     4  11  26  46  70 102 136 178 222 282 334 404
#     4  12  26  48  72 100 140 180 218 274 348 410
#
# _framework density 23.644476000000001
#
# number of rings (size 3 to 8) (size 9 to 14) (size 15 to 20)
#    0.000    0.941    1.176    4.588    3.294   11.294 
#    0.000    0.000    0.000    0.000    0.000    0.000 
#    0.000    0.000    0.000    0.000    0.000    0.000 
#
# Total GULP energy -95076.676961 kJ/mol
# GULP energy per Si atom -5592.745704 kJ/mol
# Density = 2.359066 g / cm^3
# Si number density = 23.644476 Si / 1000 Ang^3
#
#
#
# Elastic Constant Matrix: (Units=GPa)
#
#
# Indices 1 2 3 4 5 6 
#
# 1 114.0861 15.3710 0.5277 0.0000 -0.4986 0.0000
# 2 15.3710 119.1219 17.9821 0.0000 8.3193 0.0000
# 3 0.5277 17.9821 66.7753 0.0000 -1.1326 0.0000
# 4 0.0000 0.0000 0.0000 38.6626 0.0000 0.1837
# 5 -0.4986 8.3193 -1.1326 0.0000 48.6060 0.0000
# 6 0.0000 0.0000 0.0000 0.1837 0.0000 36.0669
#
#
#
# Elastic Compliance Matrix: (Units=1/GPa)
#
#
# Indices 1 2 3 4 5 6 
#
# 1 0.008929 -0.001213 0.000261 0.000000 0.000305 0.000000
# 2 -0.001213 0.009034 -0.002451 0.000000 -0.001616 0.000000
# 3 0.000261 -0.002451 0.015647 0.000000 0.000787 0.000000
# 4 0.000000 0.000000 0.000000 0.025865 0.000000 -0.000132
# 5 0.000305 -0.001616 0.000787 0.000000 0.020872 0.000000
# 6 0.000000 0.000000 0.000000 -0.000132 0.000000 0.027727
#
#
# Mechanical properties :
#
#
# Convention : Reuss Voigt Hill
#
# Bulk Modulus (GPa) = 37.30625 40.86053 39.08339
# Shear Modulus (GPa) = 40.38339 42.40727 41.39533
#
# Velocity S-wave (km/s) = 4.13721 4.23961 4.18872
# Velocity P-wave (km/s) = 6.21565 6.42530 6.32134
#
# Compressibility (1/GPa) = 0.02680516
#
# Stress axis : x y z
#
# Youngs Moduli (GPa) = 111.99646 110.69232 63.91078
#
# Poissons Ratio (x) = 0.13426 -0.01670
# Poissons Ratio (y) = 0.13584 0.15662
# Poissons Ratio (z) = -0.02926 0.27127
#
# Static dielectric constant tensor:
#      x y z
#    x 1.875250 0.000000 -0.006750 
#    y 0.000000 1.895960 0.000000 
#    z -0.006750 0.000000 1.693490 
# 
# From -- ./inp_files/303307.got.cif
#   From: 2010.05.17/outbox.cif.g08.bks.cpg/sg12_152_cif.got.tgz:303307.got - 2010.06.03 13:09:07.
