data_PCOD9221822
_publ_section_title
;
Structure prediction by ZEFSAII (Michael W. Deem and Ramdas Pophale) SiO2 
 PCOD9221822
Probable space group: C 2/M
;
_chemical_formula_sum "Si O2"
_cell_formula_units_Z 40
_cell_length_a 14.312745
_cell_length_b 9.809878
_cell_length_c 20.773925
_cell_angle_alpha 90.000000
_cell_angle_beta 144.134533
_cell_angle_gamma 90.000000
_cell_volume 1708.900422
_symmetry_space_group_name_H-M "C 2/M"
_symmetry_group_IT_number 12
_symmetry_cell_setting 'monoclinic'
loop_
_space_group_symop_operation_xyz
x,y,z
-x,y,-z
-x,-y,-z
x,-y,z
1/2+x,1/2+y,z
1/2-x,1/2+y,-z
1/2-x,1/2-y,-z
1/2+x,1/2-y,z
loop_
_atom_site_type_symbol
_atom_site_label
_atom_site_fract_x
_atom_site_fract_y
_atom_site_fract_z
Si Si1 0.638752 0.213531 0.761883
Si Si2 0.350730 0.847542 0.683980
Si Si3 0.852989 0.643487 0.967874
Si Si4 0.088283 0.340497 0.480417
Si Si5 0.941305 0.846371 0.851059
O O1 0.521661 0.139857 0.745617
O O2 0.697836 0.340795 0.837146
O O3 0.532108 0.223816 0.638517
O O4 0.805361 0.149390 0.830703
O O5 0.238776 0.757334 0.574871
O O6 0.373443 0.757761 0.760402
O O7 0.286838 0.000000 0.660474
O O8 0.851333 0.500000 0.003869
O O9 0.000000 0.636070 0.000000
O O10 0.896631 0.776541 0.033339
O O11 0.123953 0.500000 0.482759
O O12 0.000000 0.345149 0.500000
O O13 0.962605 0.000000 0.838904
#
# Coordination Sequence:
#
# PCOD9221822 Si02
#       5
#     8   8   8   8   8
#     4  11  24  43  69  96 132 176 219 268 326 393
#     4  12  26  42  66 101 135 170 219 275 329 385
#     4   9  21  41  67 100 134 170 217 274 328 382
#     4  11  23  44  70  95 129 174 222 269 324 394
#     4  11  23  44  70  97 133 178 222 265 324 394
#
# _framework density 23.406863000000001
#
# number of rings (size 3 to 8) (size 9 to 14) (size 15 to 20)
#    0.000    1.200    2.000    3.600    0.000    9.600 
#    0.000    0.000    0.000    0.000    0.000    0.000 
#    0.000    0.000    0.000    0.000    0.000    0.000 
#
# Total GULP energy -111645.912310 kJ/mol
# GULP energy per Si atom -5582.295616 kJ/mol
# Density = 2.335359 g / cm^3
# Si number density = 23.406863 Si / 1000 Ang^3
#
#
#
# Elastic Constant Matrix: (Units=GPa)
#
#
# Indices 1 2 3 4 5 6 
#
# 1 60.9508 26.0339 9.4850 0.0000 20.4465 0.0000
# 2 26.0339 183.7669 99.7117 0.0000 -2.4031 0.0000
# 3 9.4850 99.7117 127.7882 0.0001 -12.4742 0.0000
# 4 0.0000 0.0000 0.0001 6.8382 0.0000 -14.1731
# 5 20.4465 -2.4031 -12.4742 0.0000 31.9222 0.0000
# 6 0.0000 0.0000 0.0000 -14.1731 0.0000 -35.2457
#
#
#
# Elastic Compliance Matrix: (Units=1/GPa)
#
#
# Indices 1 2 3 4 5 6 
#
# 1 0.022929 -0.002977 -0.000868 0.000000 -0.015249 0.000000
# 2 -0.002977 0.009982 -0.007598 0.000000 -0.000311 0.000000
# 3 -0.000868 -0.007598 0.014365 0.000000 0.005597 0.000000
# 4 0.000000 0.000000 0.000000 0.079761 0.000000 -0.032074
# 5 -0.015249 -0.000311 0.005597 0.000000 0.043257 0.000000
# 6 0.000000 0.000000 0.000000 -0.032074 0.000000 -0.015475
#
#
# Mechanical properties :
#
#
# Convention : Reuss Voigt Hill
#
# Bulk Modulus (GPa) = 41.00001 71.44080 56.22041
# Shear Modulus (GPa) = 26.90556 16.52129 21.71343
#
# Velocity S-wave (km/s) = 3.39407 2.65963 3.04904
# Velocity P-wave (km/s) = 5.73706 6.32606 6.03875
#
# Compressibility (1/GPa) = 0.02439024
#
# Stress axis : x y z
#
# Youngs Moduli (GPa) = 43.61353 100.17771 69.61264
#
# Poissons Ratio (x) = 0.29822 0.06039
# Poissons Ratio (y) = 0.12983 0.52895
# Poissons Ratio (z) = 0.03784 0.76120
#
# Static dielectric constant tensor:
#      x y z
#    x 1.924980 0.000000 -0.012260 
#    y 0.000000 1.921360 0.000000 
#    z -0.012260 0.000000 1.887480 
# 
# From -- ./inp_files/362844.got.cif
#   From: 2010.05.17/outbox.cif.g08.bks.cpg/sg12_182_cif.got.tgz:362844.got - 2010.06.03 13:09:07.
