data_PCOD9221619
_publ_section_title
;
Structure prediction by ZEFSAII (Michael W. Deem and Ramdas Pophale) SiO2 
 PCOD9221619
Probable space group: C 2/M
;
_chemical_formula_sum "Si O2"
_cell_formula_units_Z 56
_cell_length_a 23.362279
_cell_length_b 15.072345
_cell_length_c 15.627043
_cell_angle_alpha 90.000000
_cell_angle_beta 30.993799
_cell_angle_gamma 90.000000
_cell_volume 2833.569965
_symmetry_space_group_name_H-M "C 2/M"
_symmetry_group_IT_number 12
_symmetry_cell_setting 'monoclinic'
loop_
_space_group_symop_operation_xyz
x,y,z
-x,y,-z
-x,-y,-z
x,-y,z
1/2+x,1/2+y,z
1/2-x,1/2+y,-z
1/2-x,1/2-y,-z
1/2+x,1/2-y,z
loop_
_atom_site_type_symbol
_atom_site_label
_atom_site_fract_x
_atom_site_fract_y
_atom_site_fract_z
Si Si1 0.940958 0.895242 0.892421
Si Si2 0.985174 0.595291 0.243224
Si Si3 0.198656 0.775694 0.795599
Si Si4 0.643688 0.308325 0.168426
Si Si5 0.371671 0.733522 0.307507
Si Si6 0.723523 0.099151 0.860966
Si Si7 0.043547 0.667352 0.537323
O O1 0.889940 0.872486 0.865568
O O2 0.062988 0.851072 0.739314
O O3 0.940624 0.000000 0.910166
O O4 0.868302 0.838830 0.053590
O O5 0.942307 0.500000 0.265971
O O6 0.938529 0.678988 0.251207
O O7 0.961091 0.603321 0.374762
O O8 0.116954 0.596493 0.059883
O O9 0.143498 0.781550 0.773604
O O10 0.195198 0.673124 0.827829
O O11 0.328433 0.802485 0.632274
O O12 0.677497 0.363622 0.208279
O O13 0.540901 0.245507 0.325624
O O14 0.750000 0.250000 0.000000
O O15 0.250000 0.750000 0.500000
O O16 0.743177 0.000000 0.802806
O O17 0.000000 0.635416 0.500000
#
# Coordination Sequence:
#
# PCOD9221619 Si02
#       7
#     8   8   8   8   8   8   8
#     4  12  26  44  70 101 133 176 224 274 335 399
#     4  11  24  43  67  96 130 173 222 268 324 392
#     4  12  24  42  68  97 135 172 215 274 331 391
#     4  12  19  43  70  94 132 177 218 268 338 394
#     4  12  24  46  69  92 133 176 218 270 327 387
#     4  11  23  41  68  98 129 171 222 271 327 398
#     4  12  22  40  70  97 133 173 212 270 336 394
#
# _framework density 19.763055000000001
#
# number of rings (size 3 to 8) (size 9 to 14) (size 15 to 20)
#    0.000    0.286    8.571    0.857    0.000    3.143 
#    0.000    5.000    0.000    0.000    0.000    0.000 
#    0.000    0.000    0.000    0.000    0.000    0.000 
#
# Total GULP energy -156433.066429 kJ/mol
# GULP energy per Si atom -5586.895230 kJ/mol
# Density = 1.971807 g / cm^3
# Si number density = 19.763055 Si / 1000 Ang^3
#
#
#
# Elastic Constant Matrix: (Units=GPa)
#
#
# Indices 1 2 3 4 5 6 
#
# 1 82.7691 19.0780 -17.9629 0.0000 -4.8104 0.0000
# 2 19.0780 113.8394 -5.3754 0.0000 -28.2200 0.0000
# 3 -17.9629 -5.3754 54.2500 0.0000 -28.1154 0.0000
# 4 0.0000 0.0000 0.0000 7.3181 0.0000 -3.0980
# 5 -4.8104 -28.2200 -28.1154 0.0000 26.7078 0.0000
# 6 0.0000 0.0000 0.0000 -3.0980 0.0000 3.3241
#
#
#
# Elastic Compliance Matrix: (Units=1/GPa)
#
#
# Indices 1 2 3 4 5 6 
#
# 1 0.019977 0.011000 0.034313 0.000000 0.051342 0.000000
# 2 0.011000 0.035386 0.060631 0.000000 0.103197 0.000000
# 3 0.034313 0.060631 0.158896 0.000000 0.237515 0.000000
# 4 0.000000 0.000000 0.000000 0.225691 0.000000 0.210337
# 5 0.051342 0.103197 0.237515 0.000000 0.405764 0.000000
# 6 0.000000 0.000000 0.000000 0.210337 0.000000 0.496859
#
#
# Mechanical properties :
#
#
# Convention : Reuss Voigt Hill
#
# Bulk Modulus (GPa) = 2.34661 26.92646 14.63654
# Shear Modulus (GPa) = 3.92855 24.47791 14.20323
#
# Velocity S-wave (km/s) = 1.41143 3.52315 2.68372
# Velocity P-wave (km/s) = 1.96116 5.49585 4.12616
#
# Compressibility (1/GPa) = 0.42614623
#
# Stress axis : x y z
#
# Youngs Moduli (GPa) = 50.05746 28.26002 6.29341
#
# Poissons Ratio (x) = -0.31085 -0.21595
# Poissons Ratio (y) = -0.55062 -0.38158
# Poissons Ratio (z) = -1.71762 -1.71343
#
# Static dielectric constant tensor:
#      x y z
#    x 1.733130 0.000000 -0.011020 
#    y 0.000000 1.707580 0.000000 
#    z -0.011020 0.000000 1.708180 
# 
# From -- ./inp_files/240903.got.cif
#   From: 2010.05.17/outbox.cif.g08.bks.cpg/sg12_121_cif.got.tgz:240903.got - 2010.06.03 13:09:07.
