data_PCOD9221592
_publ_section_title
;
Structure prediction by ZEFSAII (Michael W. Deem and Ramdas Pophale) SiO2 
 PCOD9221592
Probable space group: C 2/M
;
_chemical_formula_sum "Si O2"
_cell_formula_units_Z 40
_cell_length_a 14.327569
_cell_length_b 11.249969
_cell_length_c 12.864257
_cell_angle_alpha 90.000000
_cell_angle_beta 71.182022
_cell_angle_gamma 90.000000
_cell_volume 1962.687821
_symmetry_space_group_name_H-M "C 2/M"
_symmetry_group_IT_number 12
_symmetry_cell_setting 'monoclinic'
loop_
_space_group_symop_operation_xyz
x,y,z
-x,y,-z
-x,-y,-z
x,-y,z
1/2+x,1/2+y,z
1/2-x,1/2+y,-z
1/2-x,1/2-y,-z
1/2+x,1/2-y,z
loop_
_atom_site_type_symbol
_atom_site_label
_atom_site_fract_x
_atom_site_fract_y
_atom_site_fract_z
Si Si1 0.794848 0.796450 0.375688
Si Si2 0.616130 0.142517 0.835450
Si Si3 0.888315 0.359298 0.935947
Si Si4 0.505599 0.371234 0.373539
Si Si5 0.371194 0.133153 0.715924
O O1 0.750000 0.750000 0.500000
O O2 0.825464 0.694897 0.282260
O O3 0.712019 0.866938 0.341999
O O4 0.895856 0.863016 0.366690
O O5 0.500920 0.181753 0.874550
O O6 0.620810 0.000000 0.825964
O O7 0.650139 0.183551 0.938783
O O8 0.898172 0.500000 0.949452
O O9 0.832280 0.347356 0.847516
O O10 0.500000 0.373257 0.500000
O O11 0.550361 0.500000 0.324308
O O12 0.561418 0.248574 0.327960
O O13 0.419350 0.000000 0.698278
#
# Coordination Sequence:
#
# PCOD9221592 Si02
#       5
#     8   8   8   8   8
#     4  12  24  38  59  97 128 168 206 262 315 378
#     4   9  18  34  62  92 124 165 212 255 311 380
#     4   8  16  35  62  92 121 160 209 263 311 366
#     4  11  24  44  61  85 130 174 208 257 317 375
#     4  11  23  41  66  95 125 163 213 265 311 370
#
# _framework density 20.380216000000001
#
# number of rings (size 3 to 8) (size 9 to 14) (size 15 to 20)
#    0.000    1.800    4.000    1.800    0.000    3.600 
#    0.000    0.000    0.000    3.600    0.000    0.000 
#    0.000    0.000    0.000    0.000    0.000    0.000 
#
# Total GULP energy -111363.754823 kJ/mol
# GULP energy per Si atom -5568.187741 kJ/mol
# Density = 2.033383 g / cm^3
# Si number density = 20.380216 Si / 1000 Ang^3
#
#
#
# Elastic Constant Matrix: (Units=GPa)
#
#
# Indices 1 2 3 4 5 6 
#
# 1 76.3595 48.4833 28.7878 0.0000 19.7556 0.0000
# 2 48.4833 141.4500 55.7035 0.0000 -7.5225 0.0000
# 3 28.7878 55.7035 171.1373 0.0000 22.4558 0.0000
# 4 0.0000 0.0000 0.0000 46.4695 0.0000 -13.3162
# 5 19.7556 -7.5225 22.4558 0.0000 40.5585 0.0000
# 6 0.0000 0.0000 0.0000 -13.3162 0.0000 32.4536
#
#
#
# Elastic Compliance Matrix: (Units=1/GPa)
#
#
# Indices 1 2 3 4 5 6 
#
# 1 0.021199 -0.008195 0.000707 0.000000 -0.012237 0.000000
# 2 -0.008195 0.011681 -0.003485 0.000000 0.008088 0.000000
# 3 0.000707 -0.003485 0.007536 0.000000 -0.005163 0.000000
# 4 0.000000 0.000000 0.000000 0.024387 0.000000 0.010006
# 5 -0.012237 0.008088 -0.005163 0.000000 0.034975 0.000000
# 6 0.000000 0.000000 0.000000 0.010006 0.000000 0.034919
#
#
# Mechanical properties :
#
#
# Convention : Reuss Voigt Hill
#
# Bulk Modulus (GPa) = 54.14100 72.76623 63.45362
# Shear Modulus (GPa) = 30.71258 40.96114 35.83686
#
# Velocity S-wave (km/s) = 3.88620 4.48800 4.19789
# Velocity P-wave (km/s) = 6.83812 7.91442 7.39587
#
# Compressibility (1/GPa) = 0.01847029
#
# Stress axis : x y z
#
# Youngs Moduli (GPa) = 47.17216 85.60806 132.69582
#
# Poissons Ratio (x) = 0.70160 -0.09386
# Poissons Ratio (y) = 0.38660 0.46241
# Poissons Ratio (z) = -0.03337 0.29832
#
# Static dielectric constant tensor:
#      x y z
#    x 1.782100 0.000000 0.017290 
#    y 0.000000 1.760140 0.000000 
#    z 0.017290 0.000000 1.735360 
# 
# From -- ./inp_files/140291.got.cif
#   From: 2010.05.17/outbox.cif.g08.bks.cpg/sg12_71_cif.got.tgz:140291.got - 2010.06.03 13:09:07.
