data_PCOD9221898
_publ_section_title
;
Structure prediction by ZEFSAII (Michael W. Deem and Ramdas Pophale) SiO2 
 PCOD9221898
Probable space group: C 2/M
;
_chemical_formula_sum "Si O2"
_cell_formula_units_Z 42
_cell_length_a 10.962963
_cell_length_b 19.940706
_cell_length_c 8.187800
_cell_angle_alpha 90.000000
_cell_angle_beta 103.670731
_cell_angle_gamma 90.000000
_cell_volume 1739.219875
_symmetry_space_group_name_H-M "C 2/M"
_symmetry_group_IT_number 12
_symmetry_cell_setting 'monoclinic'
loop_
_space_group_symop_operation_xyz
x,y,z
-x,y,-z
-x,-y,-z
x,-y,z
1/2+x,1/2+y,z
1/2-x,1/2+y,-z
1/2-x,1/2-y,-z
1/2+x,1/2-y,z
loop_
_atom_site_type_symbol
_atom_site_label
_atom_site_fract_x
_atom_site_fract_y
_atom_site_fract_z
Si Si1 0.791528 0.118683 0.404067
Si Si2 0.072472 0.000000 0.698884
Si Si3 0.296858 0.367343 0.760903
Si Si4 0.000000 0.219947 0.000000
Si Si5 0.500000 0.000000 0.000000
Si Si6 0.102422 0.254070 0.676902
Si Si7 0.219232 0.000000 0.039204
Si Si8 0.590959 0.000000 0.377791
O O1 0.864644 0.072739 0.302300
O O2 0.857431 0.122177 0.602228
O O3 0.797329 0.193353 0.328510
O O4 0.672062 0.069498 0.400525
O O5 0.000000 0.000000 0.500000
O O6 0.086088 0.000000 0.899745
O O7 0.174489 0.323820 0.683392
O O8 0.272156 0.436166 0.841369
O O9 0.383549 0.324143 0.905615
O O10 0.044690 0.253986 0.842687
O O11 0.660822 0.000000 0.045293
O O12 0.496180 0.000000 0.806193
O O13 0.000000 0.248658 0.500000
O O14 0.500000 0.000000 0.500000
#
# Coordination Sequence:
#
# PCOD9221898 Si02
#       8
#     8   4   8   4   2   8   4   4
#     4  11  23  48  76 112 155 204 260 316 392 462
#     4  11  24  43  77 109 151 203 249 323 389 464
#     4  12  28  49  77 113 156 204 264 322 392 469
#     4  12  28  48  80 117 155 204 260 328 390 476
#     4  12  24  48  72 106 154 200 252 308 398 444
#     4  12  27  53  78 114 157 209 265 324 394 461
#     4  12  27  49  74 117 152 201 264 324 388 472
#     4  11  25  48  75 115 161 209 258 316 389 469
#
# _framework density 24.148758999999998
#
# number of rings (size 3 to 8) (size 9 to 14) (size 15 to 20)
#    0.000    0.381    3.810    5.143    2.667    3.429 
#    0.000    0.476    0.000    0.000    0.000    0.000 
#    0.000    0.000    0.000    0.000    0.000    0.000 
#
# Total GULP energy -116910.953072 kJ/mol
# GULP energy per Si atom -5567.188242 kJ/mol
# Density = 2.409379 g / cm^3
# Si number density = 24.148759 Si / 1000 Ang^3
#
#
#
# Elastic Constant Matrix: (Units=GPa)
#
#
# Indices 1 2 3 4 5 6 
#
# 1 97.2664 44.0570 56.2436 0.0000 -17.9413 0.0000
# 2 44.0570 145.9963 51.9939 0.0000 -8.4487 0.0000
# 3 56.2436 51.9939 190.2742 0.0000 -16.7722 0.0000
# 4 0.0000 0.0000 0.0000 67.0114 0.0000 -17.8607
# 5 -17.9413 -8.4487 -16.7722 0.0000 54.6586 0.0000
# 6 0.0000 0.0000 0.0000 -17.8607 0.0000 -21.3206
#
#
#
# Elastic Compliance Matrix: (Units=1/GPa)
#
#
# Indices 1 2 3 4 5 6 
#
# 1 0.013963 -0.002946 -0.003041 0.000000 0.003195 0.000000
# 2 -0.002946 0.008226 -0.001388 0.000000 -0.000121 0.000000
# 3 -0.003041 -0.001388 0.006605 0.000000 0.000814 0.000000
# 4 0.000000 0.000000 0.000000 0.012199 0.000000 -0.010219
# 5 0.003195 -0.000121 0.000814 0.000000 0.019575 0.000000
# 6 0.000000 0.000000 0.000000 -0.010219 0.000000 -0.038342
#
#
# Mechanical properties :
#
#
# Convention : Reuss Voigt Hill
#
# Bulk Modulus (GPa) = 71.19707 82.01400 76.60553
# Shear Modulus (GPa) = 120.02988 38.81937 79.42463
#
# Velocity S-wave (km/s) = 7.05778 4.01373 5.74118
# Velocity P-wave (km/s) = 9.79607 7.45089 8.70284
#
# Compressibility (1/GPa) = 0.01404552
#
# Stress axis : x y z
#
# Youngs Moduli (GPa) = 71.61814 121.57174 151.39215
#
# Poissons Ratio (x) = 0.35812 0.46035
# Poissons Ratio (y) = 0.21097 0.21008
# Poissons Ratio (z) = 0.21777 0.16870
#
# Static dielectric constant tensor:
#      x y z
#    x 2.136810 0.000000 0.016220 
#    y 0.000000 1.951230 0.000000 
#    z 0.016220 0.000000 2.096540 
# 
# From -- ./inp_files/49520.got.cif
#   From: 2010.05.17/outbox.cif.g08.bks.cpg/sg12_25_cif.got.tgz:49520.got - 2010.06.03 13:09:07.
