data_PCOD9221305
_publ_section_title
;
Structure prediction by ZEFSAII (Michael W. Deem and Ramdas Pophale) SiO2 
 PCOD9221305
Probable space group: C 2/M
;
_chemical_formula_sum "Si O2"
_cell_formula_units_Z 64
_cell_length_a 9.495476
_cell_length_b 16.735053
_cell_length_c 31.894781
_cell_angle_alpha 90.000000
_cell_angle_beta 36.006563
_cell_angle_gamma 90.000000
_cell_volume 2979.549498
_symmetry_space_group_name_H-M "C 2/M"
_symmetry_group_IT_number 12
_symmetry_cell_setting 'monoclinic'
loop_
_space_group_symop_operation_xyz
x,y,z
-x,y,-z
-x,-y,-z
x,-y,z
1/2+x,1/2+y,z
1/2-x,1/2+y,-z
1/2-x,1/2-y,-z
1/2+x,1/2-y,z
loop_
_atom_site_type_symbol
_atom_site_label
_atom_site_fract_x
_atom_site_fract_y
_atom_site_fract_z
Si Si1 0.096271 0.087944 0.342380
Si Si2 0.450424 0.679204 0.203373
Si Si3 0.880993 0.347276 0.799063
Si Si4 0.476301 0.169177 0.054999
Si Si5 0.139785 0.124400 0.424226
Si Si6 0.871566 0.409035 0.654619
Si Si7 0.022914 0.854436 0.044387
Si Si8 0.344594 0.184445 0.578550
O O1 0.379049 0.104296 0.269821
O O2 0.036844 0.091545 0.406048
O O3 0.927008 0.153743 0.361842
O O4 0.038608 0.000000 0.339690
O O5 0.271840 0.674288 0.206243
O O6 0.510397 0.769402 0.203343
O O7 0.710069 0.642129 0.129973
O O8 0.339993 0.634087 0.269592
O O9 0.694328 0.389946 0.876121
O O10 0.507704 0.260930 0.063445
O O11 0.500000 0.175890 0.000000
O O12 0.705618 0.118450 0.013234
O O13 0.406219 0.093630 0.367279
O O14 0.145983 0.220500 0.418648
O O15 0.000000 0.102893 0.500000
O O16 0.816341 0.500000 0.656957
O O17 0.940711 0.358449 0.596931
O O18 0.000000 0.857924 0.000000
O O19 0.500000 0.163729 0.500000
#
# Coordination Sequence:
#
# PCOD9221305 Si02
#       8
#     8   8   8   8   8   8   8   8
#     4  12  26  42  64  93 130 171 210 256 318 380
#     4  11  23  37  62  91 125 168 214 266 316 379
#     4  11  23  38  61  92 126 167 215 263 318 376
#     4   9  16  30  51  83 121 156 205 263 321 363
#     4  11  23  42  69  96 123 161 210 260 312 375
#     4  12  26  42  63  93 130 168 208 260 313 374
#     4   9  18  30  53  87 124 159 207 266 319 368
#     4  11  25  46  69  95 126 164 209 263 319 379
#
# _framework density 21.479758
#
# number of rings (size 3 to 8) (size 9 to 14) (size 15 to 20)
#    0.000    1.250    2.500    3.750    7.000    5.000 
#    0.000    0.000    0.000    1.500    0.000    0.000 
#    0.000    0.000    0.000    0.000    0.000    0.000 
#
# Total GULP energy -178734.100339 kJ/mol
# GULP energy per Si atom -5585.440636 kJ/mol
# Density = 2.143087 g / cm^3
# Si number density = 21.479758 Si / 1000 Ang^3
#
#
#
# Elastic Constant Matrix: (Units=GPa)
#
#
# Indices 1 2 3 4 5 6 
#
# 1 70.3622 5.7828 -3.5232 0.0064 -4.3150 -0.0065
# 2 5.7828 46.0728 20.9088 0.0045 7.2181 -0.0047
# 3 -3.5232 20.9088 106.2533 0.0289 -3.5531 -0.0254
# 4 0.0064 0.0045 0.0289 -4.3156 -0.0079 0.3968
# 5 -4.3150 7.2181 -3.5531 -0.0079 39.3295 0.0065
# 6 -0.0065 -0.0047 -0.0254 0.3968 0.0065 10.1160
#
#
#
# Elastic Compliance Matrix: (Units=1/GPa)
#
#
# Indices 1 2 3 4 5 6 
#
# 1 0.014620 -0.002670 0.001084 0.000023 0.002192 0.000009
# 2 -0.002670 0.025265 -0.005241 -0.000003 -0.005403 0.000001
# 3 0.001084 -0.005241 0.010547 0.000065 0.002034 0.000021
# 4 0.000023 -0.000003 0.000065 -0.230885 -0.000039 0.009058
# 5 0.002192 -0.005403 0.002034 -0.000039 0.026842 -0.000012
# 6 0.000009 0.000001 0.000021 0.009058 -0.000012 0.098498
#
#
# Mechanical properties :
#
#
# Convention : Reuss Voigt Hill
#
# Bulk Modulus (GPa) = 27.19112 29.89169 28.54140
# Shear Modulus (GPa) = -171.23877 22.32730 -74.45574
#
# Velocity S-wave (km/s) = -8.93835 3.22756 -5.89393
# Velocity P-wave (km/s) = 9.68705 5.27598 5.74469
#
# Compressibility (1/GPa) = 0.03677671
#
# Stress axis : x y z
#
# Youngs Moduli (GPa) = 68.39801 39.58067 94.81637
#
# Poissons Ratio (x) = 0.10569 -0.10274
# Poissons Ratio (y) = 0.18264 0.49692
# Poissons Ratio (z) = -0.07411 0.20744
#
# Static dielectric constant tensor:
#      x y z
#    x 3.156230 -0.000330 -0.022870 
#    y -0.000330 1.748890 0.000020 
#    z -0.022870 0.000020 1.819410 
# 
# From -- ./inp_files/372910.got.cif
#   From: 2010.05.17/outbox.cif.g08.bks.cpg/sg12_187_cif.got.tgz:372910.got - 2010.06.03 13:09:07.
