data_PCOD9221296
_publ_section_title
;
Structure prediction by ZEFSAII (Michael W. Deem and Ramdas Pophale) SiO2 
 PCOD9221296
Probable space group: C 2/M
;
_chemical_formula_sum "Si O2"
_cell_formula_units_Z 64
_cell_length_a 7.816590
_cell_length_b 28.431543
_cell_length_c 14.560982
_cell_angle_alpha 90.000000
_cell_angle_beta 119.477708
_cell_angle_gamma 90.000000
_cell_volume 2817.090239
_symmetry_space_group_name_H-M "C 2/M"
_symmetry_group_IT_number 12
_symmetry_cell_setting 'monoclinic'
loop_
_space_group_symop_operation_xyz
x,y,z
-x,y,-z
-x,-y,-z
x,-y,z
1/2+x,1/2+y,z
1/2-x,1/2+y,-z
1/2-x,1/2-y,-z
1/2+x,1/2-y,z
loop_
_atom_site_type_symbol
_atom_site_label
_atom_site_fract_x
_atom_site_fract_y
_atom_site_fract_z
Si Si1 0.544934 0.115537 0.847774
Si Si2 0.597060 0.595810 0.777840
Si Si3 0.383891 0.795849 0.739929
Si Si4 0.954883 0.811188 0.717179
Si Si5 0.995631 0.555554 0.344638
Si Si6 0.185341 0.945081 0.430583
Si Si7 0.714045 0.304985 0.510625
Si Si8 0.323416 0.550143 0.024477
O O1 0.324851 0.105280 0.823139
O O2 0.545454 0.171655 0.831210
O O3 0.564898 0.086417 0.758189
O O4 0.690166 0.093905 0.960625
O O5 0.485719 0.642433 0.784947
O O6 0.504197 0.581733 0.655872
O O7 0.585607 0.556015 0.850961
O O8 0.168487 0.804452 0.725812
O O9 0.410243 0.739635 0.747354
O O10 0.370951 0.814958 0.631252
O O11 0.798113 0.824495 0.595530
O O12 0.015142 0.500000 0.324621
O O13 0.835200 0.557795 0.383733
O O14 0.198660 0.571577 0.448301
O O15 0.139236 0.000000 0.432773
O O16 0.500000 0.311857 0.500000
O O17 0.750000 0.250000 0.500000
O O18 0.214789 0.500000 0.989025
O O19 0.500000 0.549432 0.000000
#
# Coordination Sequence:
#
# PCOD9221296 Si02
#       8
#     8   8   8   8   8   8   8   8
#     4  11  23  37  59  89 118 148 190 243 297 347
#     4  11  23  37  59  89 118 148 190 243 297 347
#     4   9  19  34  54  81 116 154 191 234 281 335
#     4   9  19  34  54  81 116 154 191 234 281 335
#     4   9  19  36  56  81 116 155 193 233 282 347
#     4   9  19  36  56  81 116 155 193 233 282 347
#     4   8  14  28  48  72 107 148 185 221 266 319
#     4  11  25  45  66  85 110 149 196 243 290 349
#
# _framework density 22.718478000000001
#
# number of rings (size 3 to 8) (size 9 to 14) (size 15 to 20)
#    0.000    2.375    0.000    2.625    1.750    7.000 
#    0.000    1.875    0.000    0.000    0.000    0.000 
#    0.000    0.000    0.000    0.000    0.000    0.000 
#
# Total GULP energy -178648.944860 kJ/mol
# GULP energy per Si atom -5582.779527 kJ/mol
# Density = 2.266677 g / cm^3
# Si number density = 22.718478 Si / 1000 Ang^3
#
#
#
# Elastic Constant Matrix: (Units=GPa)
#
#
# Indices 1 2 3 4 5 6 
#
# 1 29.8231 3.7275 4.9806 0.0000 -3.2913 0.0000
# 2 3.7275 82.8619 24.4632 0.0000 3.9282 0.0000
# 3 4.9806 24.4632 53.4746 0.0000 10.9454 0.0000
# 4 0.0000 0.0000 0.0000 -24.2998 0.0000 40.4509
# 5 -3.2913 3.9282 10.9454 0.0000 27.1469 0.0000
# 6 0.0000 0.0000 0.0000 40.4509 0.0000 -6.4361
#
#
#
# Elastic Compliance Matrix: (Units=1/GPa)
#
#
# Indices 1 2 3 4 5 6 
#
# 1 0.034976 -0.000616 -0.004209 0.000000 0.006027 0.000000
# 2 -0.000616 0.013973 -0.006437 0.000000 0.000499 0.000000
# 3 -0.004209 -0.006437 0.023925 0.000000 -0.009225 0.000000
# 4 0.000000 0.000000 0.000000 0.004349 0.000000 0.027334
# 5 0.006027 0.000499 -0.009225 0.000000 0.041215 0.000000
# 6 0.000000 0.000000 0.000000 0.027334 0.000000 0.016420
#
#
# Mechanical properties :
#
#
# Convention : Reuss Voigt Hill
#
# Bulk Modulus (GPa) = 19.86122 25.83360 22.84741
# Shear Modulus (GPa) = 28.70816 8.14808 18.42812
#
# Velocity S-wave (km/s) = 3.55864 1.89587 2.85116
# Velocity P-wave (km/s) = 5.06424 4.02347 4.57356
#
# Compressibility (1/GPa) = 0.05034937
#
# Stress axis : x y z
#
# Youngs Moduli (GPa) = 28.59085 71.56822 41.79642
#
# Poissons Ratio (x) = 0.04412 0.17593
# Poissons Ratio (y) = 0.01762 0.26903
# Poissons Ratio (z) = 0.12035 0.46067
#
# Static dielectric constant tensor:
#      x y z
#    x 1.864640 0.000000 0.003100 
#    y 0.000000 1.882570 0.000000 
#    z 0.003100 0.000000 1.849410 
# 
# From -- ./inp_files/201340.got.cif
#   From: 2010.05.17/outbox.cif.g08.bks.cpg/sg12_101_cif.got.tgz:201340.got - 2010.06.03 13:09:07.
