data_PCOD9221462
_publ_section_title
;
Structure prediction by ZEFSAII (Michael W. Deem and Ramdas Pophale) SiO2 
 PCOD9221462
Probable space group: C 2/M
;
_chemical_formula_sum "Si O2"
_cell_formula_units_Z 40
_cell_length_a 8.707877
_cell_length_b 26.603529
_cell_length_c 15.355565
_cell_angle_alpha 90.000000
_cell_angle_beta 149.190745
_cell_angle_gamma 90.000000
_cell_volume 1821.970390
_symmetry_space_group_name_H-M "C 2/M"
_symmetry_group_IT_number 12
_symmetry_cell_setting 'monoclinic'
loop_
_space_group_symop_operation_xyz
x,y,z
-x,y,-z
-x,-y,-z
x,-y,z
1/2+x,1/2+y,z
1/2-x,1/2+y,-z
1/2-x,1/2-y,-z
1/2+x,1/2-y,z
loop_
_atom_site_type_symbol
_atom_site_label
_atom_site_fract_x
_atom_site_fract_y
_atom_site_fract_z
Si Si1 0.694590 0.616654 0.682712
Si Si2 0.327273 0.775514 0.686745
Si Si3 0.373228 0.415701 0.028455
Si Si4 0.852651 0.943691 0.658723
Si Si5 0.135082 0.197007 0.157276
O O1 0.500000 0.608141 0.500000
O O2 0.778008 0.675650 0.723575
O O3 0.498919 0.597314 0.667373
O O4 0.016203 0.589257 0.843671
O O5 0.514305 0.795445 0.694998
O O6 0.458395 0.730109 0.806686
O O7 0.000000 0.758347 0.500000
O O8 0.477596 0.442833 0.166342
O O9 0.524182 0.360007 0.111264
O O10 0.500000 0.437245 0.000000
O O11 0.500000 0.933689 0.500000
O O12 0.881691 0.000000 0.634451
O O13 0.000000 0.215540 0.000000
#
# Coordination Sequence:
#
# PCOD9221462 Si02
#       5
#     8   8   8   8   8
#     4  11  24  44  69  99 137 179 227 277 337 402
#     4  11  24  40  63  96 134 180 227 270 332 393
#     4  11  23  44  69  98 140 179 221 279 336 401
#     4  11  27  47  73 104 131 171 226 284 349 408
#     4  11  23  40  61  97 135 176 226 269 329 392
#
# _framework density 21.954253999999999
#
# number of rings (size 3 to 8) (size 9 to 14) (size 15 to 20)
#    0.000    1.000    4.000    3.000    5.600    3.200 
#    0.000    0.000    0.000    0.000    0.000    0.000 
#    0.000    0.000    0.000    0.000    0.000    0.000 
#
# Total GULP energy -111772.712369 kJ/mol
# GULP energy per Si atom -5588.635618 kJ/mol
# Density = 2.190429 g / cm^3
# Si number density = 21.954254 Si / 1000 Ang^3
#
#
#
# Elastic Constant Matrix: (Units=GPa)
#
#
# Indices 1 2 3 4 5 6 
#
# 1 69.7142 41.0000 -11.3291 0.0000 -1.1767 0.0000
# 2 41.0000 70.0949 -0.8835 0.0000 0.3061 0.0000
# 3 -11.3291 -0.8835 82.6877 0.0000 3.2278 0.0000
# 4 0.0000 0.0000 0.0000 12.4584 0.0000 3.8796
# 5 -1.1767 0.3061 3.2278 0.0000 33.1302 0.0000
# 6 0.0000 0.0000 0.0000 3.8796 0.0000 -34.2551
#
#
#
# Elastic Compliance Matrix: (Units=1/GPa)
#
#
# Indices 1 2 3 4 5 6 
#
# 1 0.022577 -0.013172 0.002928 0.000000 0.000638 0.000000
# 2 -0.013172 0.021954 -0.001550 0.000000 -0.000520 0.000000
# 3 0.002928 -0.001550 0.012521 0.000000 -0.001102 0.000000
# 4 0.000000 0.000000 0.000000 0.077533 0.000000 0.008781
# 5 0.000638 -0.000520 -0.001102 0.000000 0.030319 0.000000
# 6 0.000000 0.000000 0.000000 0.008781 0.000000 -0.028198
#
#
# Mechanical properties :
#
#
# Convention : Reuss Voigt Hill
#
# Bulk Modulus (GPa) = 29.88263 31.11904 30.50084
# Shear Modulus (GPa) = 29.16328 15.18065 22.17196
#
# Velocity S-wave (km/s) = 3.64863 2.63243 3.18137
# Velocity P-wave (km/s) = 5.60275 4.84199 5.23621
#
# Compressibility (1/GPa) = 0.03346425
#
# Stress axis : x y z
#
# Youngs Moduli (GPa) = 44.29202 45.55053 79.86414
#
# Poissons Ratio (x) = 0.59999 -0.23382
# Poissons Ratio (y) = 0.58341 0.12378
# Poissons Ratio (z) = -0.12967 0.07060
#
# Static dielectric constant tensor:
#      x y z
#    x 1.844790 0.000000 0.060190 
#    y 0.000000 1.779370 0.000000 
#    z 0.060190 0.000000 1.855570 
# 
# From -- ./inp_files/41454.got.cif
#   From: 2010.05.17/outbox.cif.g08.bks.cpg/sg12_21_cif.got.tgz:41454.got - 2010.06.03 13:09:07.
